CHEMBL1900_lig397
                    3D
 Schrodinger Suite 2021-1.
 48 52  0  0  1  0            999 V2000
   17.6972   -5.1205   11.5232 C   0  0  0  0  0  0
   16.4132   -9.8994   15.9951 N   0  0  0  0  0  0
   16.3412   -5.5128   11.6159 C   0  0  0  0  0  0
   18.5412   -5.7909   12.3626 N   0  0  0  0  0  0
   17.8069   -8.4444   14.9307 C   0  0  0  0  0  0
   17.9385   -6.7387   13.0380 C   0  0  0  0  0  0
   17.3453   -9.7480   14.9851 C   0  0  0  0  0  0
   17.2151   -7.8014   16.0631 C   0  0  0  0  0  0
   18.0631   -4.1142   10.6080 C   0  0  0  0  0  0
   16.1996   -6.7684   12.8196 S   0  0  0  0  0  0
   16.2963   -8.6976   16.6765 C   0  0  0  0  0  0
   15.3498   -4.9156   10.8309 C   0  0  0  0  0  0
   17.0641   -3.5205    9.8341 C   0  0  0  0  0  0
   15.7365   -3.9206    9.9394 C   0  0  0  0  0  0
   18.6987   -7.7613   13.8942 C   0  0  0  0  0  0
   15.6372  -11.1100   16.2657 C   0  0  0  0  0  0
   15.4786   -8.2936   17.7455 C   0  0  0  0  0  0
   16.1866  -11.9808   17.3967 C   0  0  0  0  0  0
   17.3474   -6.5186   16.5837 C   0  0  0  0  0  0
   16.5396   -6.0938   17.6263 C   0  0  0  0  0  0
   17.3530  -11.9472   17.7809 O   0  0  0  0  0  0
   16.6437   -4.7701   17.9959 O   0  0  0  0  0  0
   19.3445   -3.7058   10.4764 F   0  0  0  0  0  0
   14.0525   -5.2809   10.9366 F   0  0  0  0  0  0
   17.3807   -2.5229    8.9812 F   0  0  0  0  0  0
   15.6028   -6.9669   18.1728 C   0  0  0  0  0  0
   15.2325  -12.8155   17.8988 O   0  0  0  0  0  0
   16.4577   -4.3315   19.2867 C   0  0  0  0  0  0
   15.9247   -3.0553   19.4533 C   0  0  0  0  0  0
   16.8129   -5.0887   20.4076 C   0  0  0  0  0  0
   16.5961   -4.5850   21.6881 C   0  0  0  0  0  0
   15.7238   -2.5454   20.7303 C   0  0  0  0  0  0
   16.0493   -3.3153   21.8433 C   0  0  0  0  0  0
   17.5505  -10.5776   14.3224 H   0  0  0  0  0  0
   14.9825   -3.4389    9.3339 H   0  0  0  0  0  0
   19.1417   -8.5102   13.2366 H   0  0  0  0  0  0
   19.5425   -7.2745   14.3858 H   0  0  0  0  0  0
   14.6125  -10.8035   16.4811 H   0  0  0  0  0  0
   15.6059  -11.7169   15.3656 H   0  0  0  0  0  0
   14.7593   -8.9583   18.2005 H   0  0  0  0  0  0
   18.0755   -5.8530   16.1496 H   0  0  0  0  0  0
   14.9545   -6.5745   18.9392 H   0  0  0  0  0  0
   14.3674  -12.7093   17.4983 H   0  0  0  0  0  0
   15.6690   -2.4608   18.5898 H   0  0  0  0  0  0
   17.2493   -6.0678   20.2794 H   0  0  0  0  0  0
   16.8524   -5.1741   22.5565 H   0  0  0  0  0  0
   15.3153   -1.5550   20.8601 H   0  0  0  0  0  0
   15.8754   -2.9176   22.8336 H   0  0  0  0  0  0
  1  3  2  0  0  0
  1  4  1  0  0  0
  1  9  1  0  0  0
  2  7  1  0  0  0
  2 16  1  0  0  0
  2 11  1  0  0  0
  3 10  1  0  0  0
  3 12  1  0  0  0
  4  6  2  0  0  0
  5 15  1  0  0  0
  5  7  2  0  0  0
  5  8  1  0  0  0
  6 15  1  0  0  0
  6 10  1  0  0  0
  7 34  1  0  0  0
  8 11  2  0  0  0
  8 19  1  0  0  0
  9 13  2  0  0  0
  9 23  1  0  0  0
 11 17  1  0  0  0
 12 24  1  0  0  0
 12 14  2  0  0  0
 13 14  1  0  0  0
 13 25  1  0  0  0
 14 35  1  0  0  0
 15 36  1  0  0  0
 15 37  1  0  0  0
 16 18  1  0  0  0
 16 38  1  0  0  0
 16 39  1  0  0  0
 17 26  2  0  0  0
 17 40  1  0  0  0
 18 21  2  0  0  0
 18 27  1  0  0  0
 19 20  2  0  0  0
 19 41  1  0  0  0
 20 22  1  0  0  0
 20 26  1  0  0  0
 22 28  1  0  0  0
 26 42  1  0  0  0
 27 43  1  0  0  0
 28 29  2  0  0  0
 28 30  1  0  0  0
 29 32  1  0  0  0
 29 44  1  0  0  0
 30 31  2  0  0  0
 30 45  1  0  0  0
 31 33  1  0  0  0
 31 46  1  0  0  0
 32 33  2  0  0  0
 32 47  1  0  0  0
 33 48  1  0  0  0
M  END
> <s_m_entry_id>
6167

> <s_m_entry_name>
dock_pv.2

> <s_m_Source_Path>
/home/csk/Desktop/cluster/DUD-E-result/aldr

> <s_m_Source_File>
dock_pv.maegz

> <i_m_Source_File_Index>
2

> <chembl_id>
CHEMBL363850

> <chembl_pref_name>
None

> <i_lp_mmshare_version>
53161

> <i_f3d_flags>
0

> <r_lp_tautomer_probability>
1

> <s_lp_Force_Field>
OPLS_2005

> <r_lp_Energy>
19.055829

> <b_lp_Chiralities_Consistent>
1

> <s_lp_Variant>
CHEMBL1900_lig397-1

> <s_i_glide_gridfile>
glide-grid_2hv5

> <i_i_glide_lignum>
518

> <i_i_glide_rotatable_bonds>
7

> <r_i_docking_score>
-11.5408527234273

> <r_i_glide_ligand_efficiency>
-0.349722809800827

> <r_i_glide_ligand_efficiency_sa>
-1.12174791711135

> <r_i_glide_ligand_efficiency_ln>
-2.56662589035286

> <r_i_glide_gscore>
-11.5408527234273

> <r_i_glide_lipo>
-6.24043792561583

> <r_i_glide_hbond>
-0.287045607950366

> <r_i_glide_metal>
0

> <r_i_glide_rewards>
-2.05754513149657

> <r_i_glide_evdw>
-50.8131332397461

> <r_i_glide_ecoul>
-6.08030366897583

> <r_i_glide_erotb>
0.552031682664989

> <r_i_glide_esite>
-0.0551535286958223

> <r_i_glide_emodel>
-86.9645637230699

> <r_i_glide_energy>
-56.8934369087219

> <r_i_glide_einternal>
2.56832504272461

> <i_i_glide_confnum>
10

> <i_i_glide_posenum>
314

> <r_i_glide_eff_state_penalty>
0

> <s_user_duplicate_titles>
CHEMBL1900_lig397,321160

> <s_m_subgroup_title>
dock_pv

> <s_m_subgroupid>
dock_pv

> <b_m_subgroup_collapsed>
1

$$$$
CHEMBL1900_lig396
                    3D
 Schrodinger Suite 2021-1.
 51 55  0  0  1  0            999 V2000
   17.6520   -5.1285   11.5097 C   0  0  0  0  0  0
   17.3535  -10.7279   15.2185 N   0  0  0  0  0  0
   16.3345   -5.6209   11.6361 C   0  0  0  0  0  0
   18.5450   -5.7169   12.3410 N   0  0  0  0  0  0
   18.1574   -8.6971   14.5920 C   0  0  0  0  0  0
   18.0365   -6.6895   13.0399 C   0  0  0  0  0  0
   18.1635  -10.0525   14.3339 C   0  0  0  0  0  0
   17.2699   -8.5286   15.7036 C   0  0  0  0  0  0
   17.9492   -4.1197   10.5759 C   0  0  0  0  0  0
   16.3065   -6.8686   12.8577 S   0  0  0  0  0  0
   16.7446   -9.8056   16.0538 C   0  0  0  0  0  0
   15.2978   -5.1116   10.8593 C   0  0  0  0  0  0
   16.9043   -3.6210    9.8008 C   0  0  0  0  0  0
   15.6124   -4.1157    9.9440 C   0  0  0  0  0  0
   18.9234   -7.5904   13.8883 C   0  0  0  0  0  0
   17.2130  -12.1783   15.2798 C   0  0  0  0  0  0
   15.8112   -9.9609   17.0846 C   0  0  0  0  0  0
   18.0793  -12.8094   16.3787 C   0  0  0  0  0  0
   16.8727   -7.4063   16.4356 C   0  0  0  0  0  0
   18.0411  -12.4527   17.5555 O   0  0  0  0  0  0
   19.2048   -3.6330   10.4265 F   0  0  0  0  0  0
   15.9783   -7.5542   17.5007 C   0  0  0  0  0  0
   14.0303   -5.5651   10.9828 F   0  0  0  0  0  0
   17.1391   -2.6338    8.9096 F   0  0  0  0  0  0
   15.5935   -6.5143   18.3193 O   0  0  0  0  0  0
   15.4431   -8.8103   17.7815 C   0  0  0  0  0  0
   18.8901  -13.7907   15.8902 O   0  0  0  0  0  0
   16.2771   -5.2623   18.2336 C   0  0  0  0  0  0
   16.1968   -4.5623   19.5757 C   0  0  0  0  0  0
   15.7490   -3.2435   19.6629 C   0  0  0  0  0  0
   16.5954   -5.2464   20.7241 C   0  0  0  0  0  0
   16.5452   -4.6203   21.9655 C   0  0  0  0  0  0
   15.6848   -2.6236   20.9044 C   0  0  0  0  0  0
   16.0753   -3.3143   22.0497 C   0  0  0  0  0  0
   18.7191  -10.6052   13.5886 H   0  0  0  0  0  0
   14.8241   -3.7144    9.3427 H   0  0  0  0  0  0
   19.7081   -8.0186   13.2630 H   0  0  0  0  0  0
   19.4503   -6.9812   14.6240 H   0  0  0  0  0  0
   16.1685  -12.4126   15.4857 H   0  0  0  0  0  0
   17.4249  -12.5928   14.2925 H   0  0  0  0  0  0
   15.4025  -10.9254   17.3501 H   0  0  0  0  0  0
   17.2794   -6.4473   16.1648 H   0  0  0  0  0  0
   14.7390   -8.9087   18.5928 H   0  0  0  0  0  0
   18.7952  -13.9223   14.9466 H   0  0  0  0  0  0
   17.3411   -5.3713   18.0209 H   0  0  0  0  0  0
   15.8356   -4.6590   17.4386 H   0  0  0  0  0  0
   15.4478   -2.7013   18.7797 H   0  0  0  0  0  0
   16.9423   -6.2654   20.6462 H   0  0  0  0  0  0
   16.8454   -5.1491   22.8581 H   0  0  0  0  0  0
   15.3359   -1.6052   20.9809 H   0  0  0  0  0  0
   16.0063   -2.8305   23.0129 H   0  0  0  0  0  0
  1  3  2  0  0  0
  1  4  1  0  0  0
  1  9  1  0  0  0
  2  7  1  0  0  0
  2 16  1  0  0  0
  2 11  1  0  0  0
  3 10  1  0  0  0
  3 12  1  0  0  0
  4  6  2  0  0  0
  5 15  1  0  0  0
  5  7  2  0  0  0
  5  8  1  0  0  0
  6 15  1  0  0  0
  6 10  1  0  0  0
  7 35  1  0  0  0
  8 11  2  0  0  0
  8 19  1  0  0  0
  9 13  2  0  0  0
  9 21  1  0  0  0
 11 17  1  0  0  0
 12 23  1  0  0  0
 12 14  2  0  0  0
 13 14  1  0  0  0
 13 24  1  0  0  0
 14 36  1  0  0  0
 15 37  1  0  0  0
 15 38  1  0  0  0
 16 18  1  0  0  0
 16 39  1  0  0  0
 16 40  1  0  0  0
 17 26  2  0  0  0
 17 41  1  0  0  0
 18 20  2  0  0  0
 18 27  1  0  0  0
 19 22  2  0  0  0
 19 42  1  0  0  0
 22 25  1  0  0  0
 22 26  1  0  0  0
 25 28  1  0  0  0
 26 43  1  0  0  0
 27 44  1  0  0  0
 28 29  1  0  0  0
 28 45  1  0  0  0
 28 46  1  0  0  0
 29 30  2  0  0  0
 29 31  1  0  0  0
 30 33  1  0  0  0
 30 47  1  0  0  0
 31 32  2  0  0  0
 31 48  1  0  0  0
 32 34  1  0  0  0
 32 49  1  0  0  0
 33 34  2  0  0  0
 33 50  1  0  0  0
 34 51  1  0  0  0
M  END
> <s_m_entry_id>
6168

> <s_m_entry_name>
dock_pv.3

> <s_m_Source_Path>
/home/csk/Desktop/cluster/DUD-E-result/aldr

> <s_m_Source_File>
dock_pv.maegz

> <i_m_Source_File_Index>
3

> <chembl_id>
CHEMBL192399

> <chembl_pref_name>
None

> <i_lp_mmshare_version>
53161

> <i_f3d_flags>
0

> <r_lp_tautomer_probability>
1

> <s_lp_Force_Field>
OPLS_2005

> <r_lp_Energy>
22.335951

> <b_lp_Chiralities_Consistent>
1

> <s_lp_Variant>
CHEMBL1900_lig396-1

> <s_i_glide_gridfile>
glide-grid_2hv5

> <i_i_glide_lignum>
517

> <i_i_glide_rotatable_bonds>
8

> <r_i_docking_score>
-11.2499188752458

> <r_i_glide_ligand_efficiency>
-0.330879966918994

> <r_i_glide_ligand_efficiency_sa>
-1.07192264437708

> <r_i_glide_ligand_efficiency_ln>
-2.48542262907787

> <r_i_glide_gscore>
-11.2499188752458

> <r_i_glide_lipo>
-6.31218132818173

> <r_i_glide_hbond>
0

> <r_i_glide_metal>
0

> <r_i_glide_rewards>
-1.99265093103935

> <r_i_glide_evdw>
-55.0990867614746

> <r_i_glide_ecoul>
-5.25453186035156

> <r_i_glide_erotb>
0.610255277535018

> <r_i_glide_esite>
-0.0122077764332589

> <r_i_glide_emodel>
-95.2855969960266

> <r_i_glide_energy>
-60.3536186218262

> <r_i_glide_einternal>
7.1810474395752

> <i_i_glide_confnum>
37

> <i_i_glide_posenum>
265

> <r_i_glide_eff_state_penalty>
0

> <s_user_duplicate_titles>
CHEMBL1900_lig396,320811

> <s_m_subgroup_title>
dock_pv

> <s_m_subgroupid>
dock_pv

> <b_m_subgroup_collapsed>
1

$$$$
CHEMBL1900_lig610
                    3D
 Schrodinger Suite 2021-1.
 48 51  0  0  1  0            999 V2000
   16.5892   -7.3252   16.6210 C   0  0  0  0  0  0
   17.0638   -7.9046   15.3615 C   0  0  0  0  0  0
   16.9451   -9.2332   15.1307 C   0  0  0  0  0  0
   16.2559  -10.1269   16.0650 C   0  0  0  0  0  0
   16.1125  -11.4987   15.8512 C   0  0  0  0  0  0
   15.3926  -12.2659   16.7699 C   0  0  0  0  0  0
   14.8166  -11.6660   17.8915 C   0  0  0  0  0  0
   14.9548  -10.2939   18.1040 C   0  0  0  0  0  0
   15.6930   -9.5349   17.1985 C   0  0  0  0  0  0
   15.8746   -8.1854   17.4462 O   0  0  0  0  0  0
   17.6042   -7.0758   14.3004 C   0  0  0  0  0  0
   18.7444   -6.6140   14.3461 O   0  0  0  0  0  0
   16.7046   -6.8505   13.3144 N   0  0  0  0  0  0
   16.7994   -5.9871   12.2074 C   0  0  0  0  0  0
   15.6027   -5.7150   11.5324 C   0  0  0  0  0  0
   15.6114   -4.8014   10.4766 C   0  0  0  0  0  0
   16.8090   -4.1917   10.1044 C   0  0  0  0  0  0
   17.9674   -4.5226   10.8065 C   0  0  0  0  0  0
   17.9769   -5.4027   11.8400 N   0  0  0  0  0  0
   16.7847   -6.1152   16.9811 N   0  0  0  0  0  0
   16.5445   -5.5325   18.2327 C   0  0  0  0  0  0
   16.6531   -6.2253   19.4395 C   0  0  0  0  0  0
   16.5368   -5.5720   20.6588 C   0  0  0  0  0  0
   16.2840   -4.1984   20.7144 C   0  0  0  0  0  0
   16.1836   -3.4895   19.5160 C   0  0  0  0  0  0
   16.3417   -4.1480   18.2959 C   0  0  0  0  0  0
   16.0230   -3.4672   22.0424 C   0  0  0  0  0  0
   14.1450  -12.4349   18.8008 O   0  0  0  0  0  0
   16.6183   -4.1152   23.3082 C   0  0  0  0  0  0
   15.7451   -4.1480   24.3572 O   0  0  0  0  0  0
   17.7790   -4.5156   23.3670 O   0  0  0  0  0  0
   17.3077   -9.6520   14.1990 H   0  0  0  0  0  0
   16.5456  -11.9696   14.9801 H   0  0  0  0  0  0
   15.2840  -13.3295   16.6134 H   0  0  0  0  0  0
   14.5382   -9.8252   18.9799 H   0  0  0  0  0  0
   15.7954   -7.2629   13.4451 H   0  0  0  0  0  0
   14.6691   -6.1675   11.8343 H   0  0  0  0  0  0
   14.6955   -4.5567    9.9579 H   0  0  0  0  0  0
   16.8333   -3.4798    9.2932 H   0  0  0  0  0  0
   18.9138   -4.0701   10.5544 H   0  0  0  0  0  0
   16.8627   -7.2844   19.4449 H   0  0  0  0  0  0
   16.5905   -6.1590   21.5623 H   0  0  0  0  0  0
   15.9965   -2.4245   19.5265 H   0  0  0  0  0  0
   16.2960   -3.5733   17.3824 H   0  0  0  0  0  0
   14.9479   -3.3247   22.1583 H   0  0  0  0  0  0
   16.4444   -2.4675   21.9719 H   0  0  0  0  0  0
   13.1911  -12.5132   18.6209 H   0  0  0  0  0  0
   14.8687   -3.7669   24.2120 H   0  0  0  0  0  0
  1  2  1  0  0  0
  1 10  1  0  0  0
  1 20  2  0  0  0
  2  3  2  0  0  0
  2 11  1  0  0  0
  3  4  1  0  0  0
  3 32  1  0  0  0
  4  5  1  0  0  0
  4  9  2  0  0  0
  5  6  2  0  0  0
  5 33  1  0  0  0
  6  7  1  0  0  0
  6 34  1  0  0  0
  7  8  2  0  0  0
  7 28  1  0  0  0
  8  9  1  0  0  0
  8 35  1  0  0  0
  9 10  1  0  0  0
 11 12  2  0  0  0
 11 13  1  0  0  0
 13 14  1  0  0  0
 13 36  1  0  0  0
 14 15  1  0  0  0
 14 19  2  0  0  0
 15 16  2  0  0  0
 15 37  1  0  0  0
 16 17  1  0  0  0
 16 38  1  0  0  0
 17 18  2  0  0  0
 17 39  1  0  0  0
 18 19  1  0  0  0
 18 40  1  0  0  0
 20 21  1  0  0  0
 21 22  1  0  0  0
 21 26  2  0  0  0
 22 23  2  0  0  0
 22 41  1  0  0  0
 23 24  1  0  0  0
 23 42  1  0  0  0
 24 25  2  0  0  0
 24 27  1  0  0  0
 25 26  1  0  0  0
 25 43  1  0  0  0
 26 44  1  0  0  0
 27 29  1  0  0  0
 27 45  1  0  0  0
 27 46  1  0  0  0
 28 47  1  0  0  0
 29 30  1  0  0  0
 29 31  2  0  0  0
 30 48  1  0  0  0
M  END
> <s_m_entry_id>
6169

> <s_m_entry_name>
dock_pv.4

> <s_m_Source_Path>
/home/csk/Desktop/cluster/DUD-E-result/aldr

> <s_m_Source_File>
dock_pv.maegz

> <i_m_Source_File_Index>
4

> <chembl_id>
CHEMBL2440427

> <chembl_pref_name>
None

> <i_lp_mmshare_version>
53161

> <i_f3d_flags>
0

> <r_lp_tautomer_probability>
1

> <s_lp_Force_Field>
OPLS_2005

> <r_lp_Energy>
44.455588

> <b_lp_Chiralities_Consistent>
1

> <s_lp_Variant>
CHEMBL1900_lig610-1

> <s_i_glide_gridfile>
glide-grid_2hv5

> <i_i_glide_lignum>
734

> <i_i_glide_rotatable_bonds>
8

> <r_i_docking_score>
-11.185224526167

> <r_i_glide_ligand_efficiency>
-0.360813694392482

> <r_i_glide_ligand_efficiency_sa>
-1.13345315738498

> <r_i_glide_ligand_efficiency_ln>
-2.52261091661534

> <r_i_glide_gscore>
-11.185224526167

> <r_i_glide_lipo>
-4.86693936958803

> <r_i_glide_hbond>
-0.306027530378643

> <r_i_glide_metal>
0

> <r_i_glide_rewards>
-2.24199179614012

> <r_i_glide_evdw>
-56.4091453552246

> <r_i_glide_ecoul>
-10.9094543457031

> <r_i_glide_erotb>
0.686609589556538

> <r_i_glide_esite>
0

> <r_i_glide_emodel>
-89.4041497125121

> <r_i_glide_energy>
-67.3185997009277

> <r_i_glide_einternal>
13.66237449646

> <i_i_glide_confnum>
7

> <i_i_glide_posenum>
21

> <r_i_glide_eff_state_penalty>
0

> <s_user_duplicate_titles>
CHEMBL1900_lig610

> <s_m_subgroup_title>
dock_pv

> <s_m_subgroupid>
dock_pv

> <b_m_subgroup_collapsed>
1

$$$$
CHEMBL1900_lig407
                    3D
 Schrodinger Suite 2021-1.
 37 40  0  0  1  0            999 V2000
   17.6871   -5.1416   11.5938 C   0  0  0  0  0  0
   16.7004   -8.1194   17.1834 N   0  0  0  0  0  0
   16.3634   -5.6264   11.6808 C   0  0  0  0  0  0
   18.5453   -5.7146   12.4692 N   0  0  0  0  0  0
   17.9867   -8.0082   15.3039 C   0  0  0  0  0  0
   18.0040   -6.6436   13.1978 C   0  0  0  0  0  0
   17.4267   -7.3098   16.3406 C   0  0  0  0  0  0
   18.0213   -4.1333   10.6724 C   0  0  0  0  0  0
   16.2937   -6.8694   12.9133 S   0  0  0  0  0  0
   16.6547   -9.3905   16.6070 C   0  0  0  0  0  0
   17.5279   -9.3542   15.4655 C   0  0  0  0  0  0
   15.3571   -5.1042   10.8679 C   0  0  0  0  0  0
   17.0114   -3.6309    9.8579 C   0  0  0  0  0  0
   15.7115   -4.1182    9.9507 C   0  0  0  0  0  0
   18.8363   -7.4457   14.1853 C   0  0  0  0  0  0
   15.9761   -7.6661   18.3831 C   0  0  0  0  0  0
   16.4435   -6.3763   19.0943 C   0  0  0  0  0  0
   15.9546  -10.5688   16.9369 C   0  0  0  0  0  0
   15.6923   -5.6996   19.7808 O   0  0  0  0  0  0
   19.2814   -3.6449   10.5788 F   0  0  0  0  0  0
   14.0798   -5.5326   10.9742 F   0  0  0  0  0  0
   17.2850   -2.6405    8.9799 F   0  0  0  0  0  0
   14.7653  -10.6652   18.1809 Cl  0  0  0  0  0  0
   17.7712   -6.1164   18.9808 O   0  0  0  0  0  0
   17.7453  -10.5277   14.7287 C   0  0  0  0  0  0
   17.0926  -11.6957   15.1022 C   0  0  0  0  0  0
   16.2092  -11.7062   16.1731 C   0  0  0  0  0  0
   17.5018   -6.2519   16.5374 H   0  0  0  0  0  0
   14.9479   -3.7143    9.3089 H   0  0  0  0  0  0
   19.6294   -6.8209   14.5998 H   0  0  0  0  0  0
   19.3581   -8.2429   13.6549 H   0  0  0  0  0  0
   14.9250   -7.5681   18.1112 H   0  0  0  0  0  0
   16.0407   -8.4604   19.1256 H   0  0  0  0  0  0
   18.2486   -6.8110   18.5277 H   0  0  0  0  0  0
   18.4002  -10.5297   13.8698 H   0  0  0  0  0  0
   17.2502  -12.6017   14.5349 H   0  0  0  0  0  0
   15.6867  -12.6228   16.4055 H   0  0  0  0  0  0
  1  3  2  0  0  0
  1  4  1  0  0  0
  1  8  1  0  0  0
  2  7  1  0  0  0
  2 16  1  0  0  0
  2 10  1  0  0  0
  3  9  1  0  0  0
  3 12  1  0  0  0
  4  6  2  0  0  0
  5 15  1  0  0  0
  5  7  2  0  0  0
  5 11  1  0  0  0
  6 15  1  0  0  0
  6  9  1  0  0  0
  7 28  1  0  0  0
  8 13  2  0  0  0
  8 20  1  0  0  0
 10 11  2  0  0  0
 10 18  1  0  0  0
 11 25  1  0  0  0
 12 21  1  0  0  0
 12 14  2  0  0  0
 13 14  1  0  0  0
 13 22  1  0  0  0
 14 29  1  0  0  0
 15 30  1  0  0  0
 15 31  1  0  0  0
 16 17  1  0  0  0
 16 32  1  0  0  0
 16 33  1  0  0  0
 17 19  2  0  0  0
 17 24  1  0  0  0
 18 23  1  0  0  0
 18 27  2  0  0  0
 24 34  1  0  0  0
 25 26  2  0  0  0
 25 35  1  0  0  0
 26 27  1  0  0  0
 26 36  1  0  0  0
 27 37  1  0  0  0
M  END
> <s_m_entry_id>
6170

> <s_m_entry_name>
dock_pv.5

> <s_m_Source_Path>
/home/csk/Desktop/cluster/DUD-E-result/aldr

> <s_m_Source_File>
dock_pv.maegz

> <i_m_Source_File_Index>
5

> <chembl_id>
CHEMBL189801

> <chembl_pref_name>
None

> <i_lp_mmshare_version>
53161

> <i_f3d_flags>
0

> <r_lp_tautomer_probability>
1

> <s_lp_Force_Field>
OPLS_2005

> <r_lp_Energy>
15.14865

> <b_lp_Chiralities_Consistent>
1

> <s_lp_Variant>
CHEMBL1900_lig407-1

> <s_i_glide_gridfile>
glide-grid_2hv5

> <i_i_glide_lignum>
528

> <i_i_glide_rotatable_bonds>
5

> <r_i_docking_score>
-10.834524843621

> <r_i_glide_ligand_efficiency>
-0.401278697911889

> <r_i_glide_ligand_efficiency_sa>
-1.20383609241312

> <r_i_glide_ligand_efficiency_ln>
-2.52209876249292

> <r_i_glide_gscore>
-10.834524843621

> <r_i_glide_lipo>
-4.67982910463983

> <r_i_glide_hbond>
-0.32

> <r_i_glide_metal>
0

> <r_i_glide_rewards>
-2.97305356031983

> <r_i_glide_evdw>
-43.9836463928223

> <r_i_glide_ecoul>
-7.37553453445435

> <r_i_glide_erotb>
0.467033850330036

> <r_i_glide_esite>
-0.0231635291821088

> <r_i_glide_emodel>
-79.2728720814858

> <r_i_glide_energy>
-51.3591809272766

> <r_i_glide_einternal>
8.25792121887207

> <i_i_glide_confnum>
2

> <i_i_glide_posenum>
192

> <r_i_glide_eff_state_penalty>
0

> <s_user_duplicate_titles>
CHEMBL1900_lig407,321489

> <s_m_subgroup_title>
dock_pv

> <s_m_subgroupid>
dock_pv

> <b_m_subgroup_collapsed>
1

$$$$
CHEMBL1900_lig274
                    3D
 Schrodinger Suite 2021-1.
 42 45  0  0  1  0            999 V2000
   18.1450   -8.4660   15.4827 N   0  0  0  0  0  0
   17.7450   -7.7469   16.5915 N   0  0  0  0  0  0
   17.7546   -9.7518   15.1482 C   0  0  0  0  0  0
   16.8525   -8.2038   17.3809 C   0  0  0  0  0  0
   16.9811   -3.8921   10.2861 C   0  0  0  0  0  0
   18.1959   -6.8670   13.5826 C   0  0  0  0  0  0
   18.6737   -5.8315   12.9501 N   0  0  0  0  0  0
   17.0864   -2.6153    9.4622 C   0  0  0  0  0  0
   19.0060   -7.6926   14.5613 C   0  0  0  0  0  0
   16.6776  -10.2800   16.0876 C   0  0  0  0  0  0
   16.5450   -7.2477   13.2024 S   0  0  0  0  0  0
   17.7958   -5.3511   12.0277 C   0  0  0  0  0  0
   16.5708   -6.0463   11.9688 C   0  0  0  0  0  0
   16.1783   -9.4934   17.1472 C   0  0  0  0  0  0
   18.0069   -4.2605   11.1719 C   0  0  0  0  0  0
   16.6737   -7.4014   18.6689 C   0  0  0  0  0  0
   15.8364   -4.6894   10.1761 C   0  0  0  0  0  0
   15.5904   -5.7455   11.0337 C   0  0  0  0  0  0
   16.1450   -5.9779   18.4565 C   0  0  0  0  0  0
   18.1960  -10.3769   14.1794 O   0  0  0  0  0  0
   15.7450   -5.5261   17.3830 O   0  0  0  0  0  0
   16.9450   -2.9149    8.1810 F   0  0  0  0  0  0
   16.1075   -1.7711    9.7810 F   0  0  0  0  0  0
   18.2506   -1.9974    9.6572 F   0  0  0  0  0  0
   14.9450   -4.5150    9.1666 O   0  0  0  0  0  0
   16.1450   -5.2947   19.6362 O   0  0  0  0  0  0
   16.1450  -11.5536   15.8518 C   0  0  0  0  0  0
   15.0820   -9.9584   17.8870 C   0  0  0  0  0  0
   15.0977  -12.0294   16.6395 C   0  0  0  0  0  0
   14.5634  -11.2302   17.6482 C   0  0  0  0  0  0
   19.6964   -7.0643   15.1271 H   0  0  0  0  0  0
   19.6645   -8.3560   13.9969 H   0  0  0  0  0  0
   18.9137   -3.6821   11.2427 H   0  0  0  0  0  0
   16.0395   -7.9172   19.3840 H   0  0  0  0  0  0
   17.6484   -7.3142   19.1474 H   0  0  0  0  0  0
   14.6781   -6.3203   10.9665 H   0  0  0  0  0  0
   14.4278   -3.6945    9.1576 H   0  0  0  0  0  0
   16.5734   -5.7894   20.3370 H   0  0  0  0  0  0
   16.5247  -12.1709   15.0486 H   0  0  0  0  0  0
   14.6371   -9.3675   18.6723 H   0  0  0  0  0  0
   14.6852  -13.0110   16.4558 H   0  0  0  0  0  0
   13.7449  -11.6004   18.2467 H   0  0  0  0  0  0
  1  2  1  0  0  0
  1  3  1  0  0  0
  1  9  1  0  0  0
  2  4  2  0  0  0
  3 10  1  0  0  0
  3 20  2  0  0  0
  4 16  1  0  0  0
  4 14  1  0  0  0
  5 15  2  0  0  0
  5  8  1  0  0  0
  5 17  1  0  0  0
  6  9  1  0  0  0
  6  7  2  0  0  0
  6 11  1  0  0  0
  7 12  1  0  0  0
  8 22  1  0  0  0
  8 23  1  0  0  0
  8 24  1  0  0  0
  9 31  1  0  0  0
  9 32  1  0  0  0
 10 14  1  0  0  0
 10 27  2  0  0  0
 11 13  1  0  0  0
 12 15  1  0  0  0
 12 13  2  0  0  0
 13 18  1  0  0  0
 14 28  2  0  0  0
 15 33  1  0  0  0
 16 19  1  0  0  0
 16 34  1  0  0  0
 16 35  1  0  0  0
 17 18  2  0  0  0
 17 25  1  0  0  0
 18 36  1  0  0  0
 19 21  2  0  0  0
 19 26  1  0  0  0
 25 37  1  0  0  0
 26 38  1  0  0  0
 27 29  1  0  0  0
 27 39  1  0  0  0
 28 30  1  0  0  0
 28 40  1  0  0  0
 29 30  2  0  0  0
 29 41  1  0  0  0
 30 42  1  0  0  0
M  END
> <s_m_entry_id>
6171

> <s_m_entry_name>
dock_pv.6

> <s_m_Source_Path>
/home/csk/Desktop/cluster/DUD-E-result/aldr

> <s_m_Source_File>
dock_pv.maegz

> <i_m_Source_File_Index>
6

> <chembl_id>
CHEMBL20884

> <chembl_pref_name>
None

> <i_lp_mmshare_version>
53161

> <i_f3d_flags>
0

> <r_lp_tautomer_probability>
1

> <s_lp_Force_Field>
OPLS_2005

> <r_lp_Energy>
26.231241

> <b_lp_Chiralities_Consistent>
1

> <s_lp_Variant>
CHEMBL1900_lig274-1

> <s_i_glide_gridfile>
glide-grid_2hv5

> <i_i_glide_lignum>
389

> <i_i_glide_rotatable_bonds>
7

> <r_i_docking_score>
-10.8083974644732

> <r_i_glide_ligand_efficiency>
-0.360279915482439

> <r_i_glide_ligand_efficiency_sa>
-1.11947346336016

> <r_i_glide_ligand_efficiency_ln>
-2.45578567085107

> <r_i_glide_gscore>
-10.8083974644732

> <r_i_glide_lipo>
-4.83148721918216

> <r_i_glide_hbond>
-0.337496065469961

> <r_i_glide_metal>
0

> <r_i_glide_rewards>
-2.79117461879132

> <r_i_glide_evdw>
-40.0005798339844

> <r_i_glide_ecoul>
-8.45764446258545

> <r_i_glide_erotb>
0.420436100057297

> <r_i_glide_esite>
0

> <r_i_glide_emodel>
-66.1185505346477

> <r_i_glide_energy>
-48.4582242965698

> <r_i_glide_einternal>
9.12182998657227

> <i_i_glide_confnum>
4

> <i_i_glide_posenum>
244

> <r_i_glide_eff_state_penalty>
0

> <s_user_duplicate_titles>
CHEMBL1900_lig274,24237

> <s_m_subgroup_title>
dock_pv

> <s_m_subgroupid>
dock_pv

> <b_m_subgroup_collapsed>
1

$$$$
CHEMBL1900_lig389
                    3D
 Schrodinger Suite 2021-1.
 47 51  0  0  1  0            999 V2000
   16.6358  -10.5903   15.6120 N   0  0  0  0  0  0
   17.6949   -5.3045   11.6962 C   0  0  0  0  0  0
   18.0113   -9.0388   14.6505 C   0  0  0  0  0  0
   17.0589   -9.2654   15.6385 C   0  0  0  0  0  0
   16.3465   -5.7191   11.8008 C   0  0  0  0  0  0
   18.5449   -5.9223   12.5746 N   0  0  0  0  0  0
   17.9525   -6.8373   13.3004 C   0  0  0  0  0  0
   17.3620  -11.2672   14.6504 C   0  0  0  0  0  0
   18.2261  -10.3178   14.0398 C   0  0  0  0  0  0
   18.0440   -4.3320   10.7338 C   0  0  0  0  0  0
   16.2230   -6.9148   13.0698 S   0  0  0  0  0  0
   15.3464   -5.1863   10.9800 C   0  0  0  0  0  0
   17.0372   -3.8068    9.9209 C   0  0  0  0  0  0
   15.7152   -4.2259   10.0432 C   0  0  0  0  0  0
   18.7197   -7.7235   14.2813 C   0  0  0  0  0  0
   15.6253  -11.2301   16.4748 C   0  0  0  0  0  0
   16.1944  -12.0829   17.6140 C   0  0  0  0  0  0
   16.5681   -8.2723   16.6219 C   0  0  0  0  0  0
   17.3964  -12.2172   17.8349 O   0  0  0  0  0  0
   19.3151   -3.8909   10.5800 F   0  0  0  0  0  0
   14.0600   -5.5822   11.0877 F   0  0  0  0  0  0
   17.3482   -2.8712    8.9960 F   0  0  0  0  0  0
   15.2025  -12.6340   18.3723 O   0  0  0  0  0  0
   17.3455  -12.6165   14.2626 C   0  0  0  0  0  0
   19.0851  -10.7551   13.0314 C   0  0  0  0  0  0
   15.2167   -7.9627   16.7363 C   0  0  0  0  0  0
   17.5014   -7.6520   17.4509 C   0  0  0  0  0  0
   19.0667  -12.0869   12.6290 C   0  0  0  0  0  0
   18.2070  -12.9955   13.2340 C   0  0  0  0  0  0
   17.0952   -6.7580   18.4295 C   0  0  0  0  0  0
   14.8041   -7.0972   17.7366 C   0  0  0  0  0  0
   15.7428   -6.5025   18.5808 C   0  0  0  0  0  0
   14.9531   -3.7991    9.4052 H   0  0  0  0  0  0
   18.9133   -7.1351   15.1759 H   0  0  0  0  0  0
   19.7159   -7.9295   13.8884 H   0  0  0  0  0  0
   14.9711  -10.4789   16.9084 H   0  0  0  0  0  0
   14.9999  -11.8582   15.8390 H   0  0  0  0  0  0
   14.3142  -12.4303   18.0701 H   0  0  0  0  0  0
   16.6934  -13.3395   14.7280 H   0  0  0  0  0  0
   19.7446  -10.0402   12.5810 H   0  0  0  0  0  0
   14.4861   -8.4139   16.0791 H   0  0  0  0  0  0
   18.5451   -7.8901   17.3684 H   0  0  0  0  0  0
   19.7246  -12.4192   11.8395 H   0  0  0  0  0  0
   18.2163  -14.0213   12.9014 H   0  0  0  0  0  0
   17.8194   -6.2903   19.0790 H   0  0  0  0  0  0
   13.7462   -6.9151   17.8545 H   0  0  0  0  0  0
   15.4173   -5.8308   19.3593 H   0  0  0  0  0  0
  1  4  1  0  0  0
  1  8  1  0  0  0
  1 16  1  0  0  0
  2  6  1  0  0  0
  2 10  1  0  0  0
  2  5  2  0  0  0
  3  4  2  0  0  0
  3 15  1  0  0  0
  3  9  1  0  0  0
  4 18  1  0  0  0
  5 11  1  0  0  0
  5 12  1  0  0  0
  6  7  2  0  0  0
  7 15  1  0  0  0
  7 11  1  0  0  0
  8  9  2  0  0  0
  8 24  1  0  0  0
  9 25  1  0  0  0
 10 13  2  0  0  0
 10 20  1  0  0  0
 12 14  2  0  0  0
 12 21  1  0  0  0
 13 22  1  0  0  0
 13 14  1  0  0  0
 14 33  1  0  0  0
 15 34  1  0  0  0
 15 35  1  0  0  0
 16 17  1  0  0  0
 16 36  1  0  0  0
 16 37  1  0  0  0
 17 19  2  0  0  0
 17 23  1  0  0  0
 18 26  1  0  0  0
 18 27  2  0  0  0
 23 38  1  0  0  0
 24 29  2  0  0  0
 24 39  1  0  0  0
 25 28  2  0  0  0
 25 40  1  0  0  0
 26 31  2  0  0  0
 26 41  1  0  0  0
 27 30  1  0  0  0
 27 42  1  0  0  0
 28 29  1  0  0  0
 28 43  1  0  0  0
 29 44  1  0  0  0
 30 32  2  0  0  0
 30 45  1  0  0  0
 31 32  1  0  0  0
 31 46  1  0  0  0
 32 47  1  0  0  0
M  END
> <s_m_entry_id>
6172

> <s_m_entry_name>
dock_pv.7

> <s_m_Source_Path>
/home/csk/Desktop/cluster/DUD-E-result/aldr

> <s_m_Source_File>
dock_pv.maegz

> <i_m_Source_File_Index>
7

> <chembl_id>
CHEMBL364699

> <chembl_pref_name>
None

> <i_lp_mmshare_version>
53161

> <i_f3d_flags>
0

> <r_lp_tautomer_probability>
1

> <s_lp_Force_Field>
OPLS_2005

> <r_lp_Energy>
15.068551

> <b_lp_Chiralities_Consistent>
1

> <s_lp_Variant>
CHEMBL1900_lig389-1

> <s_i_glide_gridfile>
glide-grid_2hv5

> <i_i_glide_lignum>
510

> <i_i_glide_rotatable_bonds>
6

> <r_i_docking_score>
-10.7999692658243

> <r_i_glide_ligand_efficiency>
-0.337499039557009

> <r_i_glide_ligand_efficiency_sa>
-1.07149265962427

> <r_i_glide_ligand_efficiency_ln>
-2.41840751466145

> <r_i_glide_gscore>
-10.7999692658243

> <r_i_glide_lipo>
-5.76954204874981

> <r_i_glide_hbond>
-0.293045406067299

> <r_i_glide_metal>
0

> <r_i_glide_rewards>
-2.1932161433246

> <r_i_glide_evdw>
-43.7351989746094

> <r_i_glide_ecoul>
-5.30246114730835

> <r_i_glide_erotb>
0.490087611757566

> <r_i_glide_esite>
-0.0521241586134152

> <r_i_glide_emodel>
-72.180260347851

> <r_i_glide_energy>
-49.0376601219177

> <r_i_glide_einternal>
4.42355728149414

> <i_i_glide_confnum>
7

> <i_i_glide_posenum>
263

> <r_i_glide_eff_state_penalty>
0

> <s_user_duplicate_titles>
CHEMBL1900_lig389,321382

> <s_m_subgroup_title>
dock_pv

> <s_m_subgroupid>
dock_pv

> <b_m_subgroup_collapsed>
1

$$$$
CHEMBL1900_lig267
                    3D
 Schrodinger Suite 2021-1.
 41 44  0  0  1  0            999 V2000
   18.1451   -8.6455   15.1428 N   0  0  0  0  0  0
   17.7358   -8.0466   16.3195 N   0  0  0  0  0  0
   17.8725   -9.9361   14.7354 C   0  0  0  0  0  0
   16.8627   -8.6062   17.0694 C   0  0  0  0  0  0
   18.0399   -6.8526   13.3921 C   0  0  0  0  0  0
   18.5449   -5.9535   12.5961 N   0  0  0  0  0  0
   16.2760   -5.8228   12.0414 C   0  0  0  0  0  0
   17.5897   -5.3526   11.8429 C   0  0  0  0  0  0
   16.2900   -6.9173   13.3820 S   0  0  0  0  0  0
   18.9174   -7.7502   14.2536 C   0  0  0  0  0  0
   16.8984  -10.6306   15.6807 C   0  0  0  0  0  0
   16.8914   -2.5546    9.3866 C   0  0  0  0  0  0
   16.3413   -9.9577   16.7904 C   0  0  0  0  0  0
   16.4965   -7.8203   18.3339 C   0  0  0  0  0  0
   16.7291   -3.7803   10.2498 C   0  0  0  0  0  0
   15.2082   -5.3692   11.2695 C   0  0  0  0  0  0
   17.8245   -4.3249   10.9287 C   0  0  0  0  0  0
   15.4553   -4.3363   10.3818 C   0  0  0  0  0  0
   15.9409   -6.4207   18.0416 C   0  0  0  0  0  0
   18.3292  -10.4519   13.7102 O   0  0  0  0  0  0
   15.3421   -6.1144   17.0102 O   0  0  0  0  0  0
   16.0837   -1.5759    9.7810 F   0  0  0  0  0  0
   18.1448   -2.1119    9.3818 F   0  0  0  0  0  0
   16.5454   -2.9147    8.1731 F   0  0  0  0  0  0
   13.9656   -5.8806   11.3956 F   0  0  0  0  0  0
   16.1448   -5.5853   19.0976 O   0  0  0  0  0  0
   16.5169  -11.9488   15.3997 C   0  0  0  0  0  0
   15.3433  -10.5962   17.5436 C   0  0  0  0  0  0
   15.5476  -12.5785   16.1812 C   0  0  0  0  0  0
   14.9509  -11.8984   17.2390 C   0  0  0  0  0  0
   19.6122   -7.1589   14.8543 H   0  0  0  0  0  0
   19.5793   -8.3189   13.5966 H   0  0  0  0  0  0
   15.7756   -8.3378   18.9594 H   0  0  0  0  0  0
   17.3921   -7.7147   18.9429 H   0  0  0  0  0  0
   18.8182   -3.9276   10.8089 H   0  0  0  0  0  0
   14.6245   -3.9300    9.8244 H   0  0  0  0  0  0
   16.6986   -5.9772   19.7749 H   0  0  0  0  0  0
   16.9406  -12.4780   14.5569 H   0  0  0  0  0  0
   14.8558  -10.1092   18.3737 H   0  0  0  0  0  0
   15.2434  -13.5898   15.9509 H   0  0  0  0  0  0
   14.1823  -12.3832   17.8257 H   0  0  0  0  0  0
  1  2  1  0  0  0
  1  3  1  0  0  0
  1 10  1  0  0  0
  2  4  2  0  0  0
  3 11  1  0  0  0
  3 20  2  0  0  0
  4 14  1  0  0  0
  4 13  1  0  0  0
  5 10  1  0  0  0
  5  6  2  0  0  0
  5  9  1  0  0  0
  6  8  1  0  0  0
  7  9  1  0  0  0
  7 16  1  0  0  0
  7  8  2  0  0  0
  8 17  1  0  0  0
 10 31  1  0  0  0
 10 32  1  0  0  0
 11 13  1  0  0  0
 11 27  2  0  0  0
 12 15  1  0  0  0
 12 22  1  0  0  0
 12 23  1  0  0  0
 12 24  1  0  0  0
 13 28  2  0  0  0
 14 19  1  0  0  0
 14 33  1  0  0  0
 14 34  1  0  0  0
 15 17  2  0  0  0
 15 18  1  0  0  0
 16 18  2  0  0  0
 16 25  1  0  0  0
 17 35  1  0  0  0
 18 36  1  0  0  0
 19 21  2  0  0  0
 19 26  1  0  0  0
 26 37  1  0  0  0
 27 29  1  0  0  0
 27 38  1  0  0  0
 28 30  1  0  0  0
 28 39  1  0  0  0
 29 30  2  0  0  0
 29 40  1  0  0  0
 30 41  1  0  0  0
M  END
> <s_m_entry_id>
6173

> <s_m_entry_name>
dock_pv.8

> <s_m_Source_Path>
/home/csk/Desktop/cluster/DUD-E-result/aldr

> <s_m_Source_File>
dock_pv.maegz

> <i_m_Source_File_Index>
8

> <chembl_id>
CHEMBL19701

> <chembl_pref_name>
None

> <i_lp_mmshare_version>
53161

> <i_f3d_flags>
0

> <r_lp_tautomer_probability>
1

> <s_lp_Force_Field>
OPLS_2005

> <r_lp_Energy>
23.89624

> <b_lp_Chiralities_Consistent>
1

> <s_lp_Variant>
CHEMBL1900_lig267-1

> <s_i_glide_gridfile>
glide-grid_2hv5

> <i_i_glide_lignum>
382

> <i_i_glide_rotatable_bonds>
6

> <r_i_docking_score>
-10.7965218704715

> <r_i_glide_ligand_efficiency>
-0.359884062349052

> <r_i_glide_ligand_efficiency_sa>
-1.11824345563791

> <r_i_glide_ligand_efficiency_ln>
-2.45308740649894

> <r_i_glide_gscore>
-10.7965218704715

> <r_i_glide_lipo>
-4.78426941912498

> <r_i_glide_hbond>
-0.297253517384542

> <r_i_glide_metal>
0

> <r_i_glide_rewards>
-3.07306664754976

> <r_i_glide_evdw>
-46.2195129394531

> <r_i_glide_ecoul>
-4.98618698120117

> <r_i_glide_erotb>
0.416971407740564

> <r_i_glide_esite>
0

> <r_i_glide_emodel>
-76.0157478056926

> <r_i_glide_energy>
-51.2056999206543

> <r_i_glide_einternal>
5.19130182266235

> <i_i_glide_confnum>
25

> <i_i_glide_posenum>
115

> <r_i_glide_eff_state_penalty>
0

> <s_user_duplicate_titles>
CHEMBL1900_lig267,23462

> <s_m_subgroup_title>
dock_pv

> <s_m_subgroupid>
dock_pv

> <b_m_subgroup_collapsed>
1

$$$$
CHEMBL1900_lig165
                    3D
 Schrodinger Suite 2021-1.
 39 42  0  0  1  0            999 V2000
   17.7533   -8.1187   15.0283 N   0  0  0  0  0  0
   17.0516   -7.2539   15.8576 N   0  0  0  0  0  0
   17.6272   -5.1677   11.5157 C   0  0  0  0  0  0
   17.6208   -9.4948   14.9729 C   0  0  0  0  0  0
   16.1861   -7.6968   16.6864 C   0  0  0  0  0  0
   18.5450   -5.7090   12.3577 N   0  0  0  0  0  0
   16.3711   -5.7616   11.7023 N   0  0  0  0  0  0
   17.8978   -6.6325   13.0400 C   0  0  0  0  0  0
   17.7555   -4.1486   10.5527 C   0  0  0  0  0  0
   16.5979  -10.0097   15.9814 C   0  0  0  0  0  0
   16.5497   -6.6972   12.6791 C   0  0  0  0  0  0
   15.8905   -9.1317   16.8304 C   0  0  0  0  0  0
   18.6565   -7.4414   14.0778 C   0  0  0  0  0  0
   15.5176   -6.6236   17.5500 C   0  0  0  0  0  0
   15.2685   -5.3918   10.9833 C   0  0  0  0  0  0
   16.6306   -3.7748    9.8123 C   0  0  0  0  0  0
   15.4009   -4.3974   10.0197 C   0  0  0  0  0  0
   16.2944   -6.2480   18.8249 C   0  0  0  0  0  0
   18.2374  -10.2209   14.1851 O   0  0  0  0  0  0
   15.7451   -5.7139   19.7813 O   0  0  0  0  0  0
   16.7625   -2.5203    8.6350 Cl  0  0  0  0  0  0
   17.6273   -6.5136   18.7862 O   0  0  0  0  0  0
   16.3542  -11.3891   16.0469 C   0  0  0  0  0  0
   14.9655   -9.6555   17.7454 C   0  0  0  0  0  0
   15.4171  -11.8924   16.9504 C   0  0  0  0  0  0
   14.7283  -11.0282   17.7992 C   0  0  0  0  0  0
   18.7011   -3.6575   10.3917 H   0  0  0  0  0  0
   15.7465   -7.3146   13.0441 H   0  0  0  0  0  0
   19.3355   -6.8114   14.6543 H   0  0  0  0  0  0
   19.3206   -8.1347   13.5555 H   0  0  0  0  0  0
   15.3997   -5.7031   16.9803 H   0  0  0  0  0  0
   14.5035   -6.9138   17.8222 H   0  0  0  0  0  0
   14.3418   -5.9036   11.1985 H   0  0  0  0  0  0
   14.5451   -4.1149    9.4280 H   0  0  0  0  0  0
   18.0514   -6.2762   19.6135 H   0  0  0  0  0  0
   16.8810  -12.0746   15.3971 H   0  0  0  0  0  0
   14.4223   -9.0175   18.4250 H   0  0  0  0  0  0
   15.2207  -12.9544   16.9903 H   0  0  0  0  0  0
   14.0018  -11.4229   18.4962 H   0  0  0  0  0  0
  1  2  1  0  0  0
  1  4  1  0  0  0
  1 13  1  0  0  0
  2  5  2  0  0  0
  3  6  2  0  0  0
  3  9  1  0  0  0
  3  7  1  0  0  0
  4 10  1  0  0  0
  4 19  2  0  0  0
  5 14  1  0  0  0
  5 12  1  0  0  0
  6  8  1  0  0  0
  7 11  1  0  0  0
  7 15  1  0  0  0
  8 13  1  0  0  0
  8 11  2  0  0  0
  9 16  2  0  0  0
  9 27  1  0  0  0
 10 12  2  0  0  0
 10 23  1  0  0  0
 11 28  1  0  0  0
 12 24  1  0  0  0
 13 29  1  0  0  0
 13 30  1  0  0  0
 14 18  1  0  0  0
 14 31  1  0  0  0
 14 32  1  0  0  0
 15 17  2  0  0  0
 15 33  1  0  0  0
 16 21  1  0  0  0
 16 17  1  0  0  0
 17 34  1  0  0  0
 18 20  2  0  0  0
 18 22  1  0  0  0
 22 35  1  0  0  0
 23 25  2  0  0  0
 23 36  1  0  0  0
 24 26  2  0  0  0
 24 37  1  0  0  0
 25 26  1  0  0  0
 25 38  1  0  0  0
 26 39  1  0  0  0
M  END
> <s_m_entry_id>
6174

> <s_m_entry_name>
dock_pv.9

> <s_m_Source_Path>
/home/csk/Desktop/cluster/DUD-E-result/aldr

> <s_m_Source_File>
dock_pv.maegz

> <i_m_Source_File_Index>
9

> <chembl_id>
CHEMBL344526

> <chembl_pref_name>
None

> <i_lp_mmshare_version>
53161

> <i_f3d_flags>
0

> <r_lp_tautomer_probability>
1

> <s_lp_Force_Field>
OPLS_2005

> <r_lp_Energy>
23.923227

> <b_lp_Chiralities_Consistent>
1

> <s_lp_Variant>
CHEMBL1900_lig165-1

> <s_i_glide_gridfile>
glide-grid_2hv5

> <i_i_glide_lignum>
241

> <i_i_glide_rotatable_bonds>
5

> <r_i_docking_score>
-10.7611191177772

> <r_i_glide_ligand_efficiency>
-0.413889196837586

> <r_i_glide_ligand_efficiency_sa>
-1.226145117056

> <r_i_glide_ligand_efficiency_ln>
-2.52721351469814

> <r_i_glide_gscore>
-10.7611191177772

> <r_i_glide_lipo>
-4.47535098924766

> <r_i_glide_hbond>
-0.32

> <r_i_glide_metal>
0

> <r_i_glide_rewards>
-3.39296784264327

> <r_i_glide_evdw>
-51.6238746643066

> <r_i_glide_ecoul>
-3.72334933280945

> <r_i_glide_erotb>
0.566895847250438

> <r_i_glide_esite>
0

> <r_i_glide_emodel>
-89.1471042841942

> <r_i_glide_energy>
-55.3472239971161

> <r_i_glide_einternal>
4.26214265823364

> <i_i_glide_confnum>
45

> <i_i_glide_posenum>
315

> <r_i_glide_eff_state_penalty>
0

> <s_user_duplicate_titles>
CHEMBL1900_lig165,236209

> <s_m_subgroup_title>
dock_pv

> <s_m_subgroupid>
dock_pv

> <b_m_subgroup_collapsed>
1

$$$$
CHEMBL1900_lig242
                    3D
 Schrodinger Suite 2021-1.
 44 47  0  0  1  0            999 V2000
   18.1490   -8.4168   14.9646 N   0  0  0  0  0  0
   17.7453   -7.7888   16.1330 N   0  0  0  0  0  0
   17.9425   -6.7798   13.0641 C   0  0  0  0  0  0
   17.8840   -9.7323   14.6195 C   0  0  0  0  0  0
   18.4277   -5.8861   12.2523 N   0  0  0  0  0  0
   16.9614   -8.3645   16.9599 C   0  0  0  0  0  0
   18.8741   -7.5437   13.9974 C   0  0  1  0  0  0
   16.1980   -6.9150   13.0232 S   0  0  0  0  0  0
   16.9462  -10.4095   15.6182 C   0  0  0  0  0  0
   16.8034   -2.2725    9.3459 C   0  0  0  0  0  0
   17.4739   -5.2681   11.5374 C   0  0  0  0  0  0
   16.4252   -9.7134   16.7292 C   0  0  0  0  0  0
   16.6907   -7.5684   18.2352 C   0  0  0  0  0  0
   16.1574   -5.7251   11.7570 C   0  0  0  0  0  0
   16.6323   -3.5793   10.0879 C   0  0  0  0  0  0
   17.7286   -4.2090   10.6722 C   0  0  0  0  0  0
   15.9204   -6.2742   17.9460 C   0  0  0  0  0  0
   18.3176  -10.2828   13.6029 O   0  0  0  0  0  0
   15.0746   -5.1879   11.0627 C   0  0  0  0  0  0
   15.3486   -4.0987   10.2453 C   0  0  0  0  0  0
   15.1694   -6.1151   16.9810 O   0  0  0  0  0  0
   15.9377   -1.3586    9.7810 F   0  0  0  0  0  0
   18.0408   -1.7922    9.4790 F   0  0  0  0  0  0
   16.5450   -2.5148    8.0757 F   0  0  0  0  0  0
   16.1450   -5.3487   18.9221 O   0  0  0  0  0  0
   19.8329   -6.5174   14.6444 C   0  0  0  0  0  0
   16.5451  -11.7304   15.3807 C   0  0  0  0  0  0
   15.4157  -10.3058   17.5033 C   0  0  0  0  0  0
   15.5796  -12.3278   16.1911 C   0  0  0  0  0  0
   15.0006  -11.6099   17.2362 C   0  0  0  0  0  0
   19.5263   -8.1690   13.3826 H   0  0  0  0  0  0
   16.1452   -8.1411   18.9810 H   0  0  0  0  0  0
   17.6471   -7.3174   18.6972 H   0  0  0  0  0  0
   18.7319   -3.8322   10.5521 H   0  0  0  0  0  0
   14.0618   -5.5292   11.2296 H   0  0  0  0  0  0
   14.5450   -3.5737    9.7811 H   0  0  0  0  0  0
   16.8114   -5.6358   19.5488 H   0  0  0  0  0  0
   20.5449   -6.1399   13.9224 H   0  0  0  0  0  0
   19.2711   -5.6499   14.9812 H   0  0  0  0  0  0
   20.4037   -6.9150   15.4722 H   0  0  0  0  0  0
   16.9450  -12.2842   14.5419 H   0  0  0  0  0  0
   14.9467   -9.7824   18.3226 H   0  0  0  0  0  0
   15.2571  -13.3390   15.9890 H   0  0  0  0  0  0
   14.2282  -12.0656   17.8406 H   0  0  0  0  0  0
  1  2  1  0  0  0
  1  4  1  0  0  0
  1  7  1  0  0  0
  2  6  2  0  0  0
  3  7  1  0  0  0
  3  5  2  0  0  0
  3  8  1  0  0  0
  4  9  1  0  0  0
  4 18  2  0  0  0
  5 11  1  0  0  0
  6 13  1  0  0  0
  6 12  1  0  0  0
  7 26  1  0  0  0
  7 31  1  0  0  0
  8 14  1  0  0  0
  9 12  1  0  0  0
  9 27  2  0  0  0
 10 15  1  0  0  0
 10 22  1  0  0  0
 10 23  1  0  0  0
 10 24  1  0  0  0
 11 16  1  0  0  0
 11 14  2  0  0  0
 12 28  2  0  0  0
 13 17  1  0  0  0
 13 32  1  0  0  0
 13 33  1  0  0  0
 14 19  1  0  0  0
 15 16  2  0  0  0
 15 20  1  0  0  0
 16 34  1  0  0  0
 17 21  2  0  0  0
 17 25  1  0  0  0
 19 20  2  0  0  0
 19 35  1  0  0  0
 20 36  1  0  0  0
 25 37  1  0  0  0
 26 38  1  0  0  0
 26 39  1  0  0  0
 26 40  1  0  0  0
 27 29  1  0  0  0
 27 41  1  0  0  0
 28 30  1  0  0  0
 28 42  1  0  0  0
 29 30  2  0  0  0
 29 43  1  0  0  0
 30 44  1  0  0  0
M  END
> <s_m_entry_id>
6175

> <s_m_entry_name>
dock_pv.10

> <s_m_Source_Path>
/home/csk/Desktop/cluster/DUD-E-result/aldr

> <s_m_Source_File>
dock_pv.maegz

> <i_m_Source_File_Index>
10

> <chembl_id>
CHEMBL283151

> <chembl_pref_name>
None

> <i_lp_mmshare_version>
53161

> <i_f3d_flags>
0

> <r_lp_tautomer_probability>
1

> <s_lp_Force_Field>
OPLS_2005

> <r_lp_Energy>
24.085518

> <b_lp_Chiralities_Consistent>
1

> <s_lp_Variant>
CHEMBL1900_lig242-1

> <s_i_glide_gridfile>
glide-grid_2hv5

> <i_i_glide_lignum>
353

> <i_i_glide_rotatable_bonds>
6

> <r_i_docking_score>
-10.7446199359057

> <r_i_glide_ligand_efficiency>
-0.358153997863523

> <r_i_glide_ligand_efficiency_sa>
-1.11286774303717

> <r_i_glide_ligand_efficiency_ln>
-2.44129472144871

> <r_i_glide_gscore>
-10.7446199359057

> <r_i_glide_lipo>
-5.20216741205571

> <r_i_glide_hbond>
-0.32

> <r_i_glide_metal>
0

> <r_i_glide_rewards>
-2.65994939116236

> <r_i_glide_evdw>
-41.2271423339844

> <r_i_glide_ecoul>
-6.16705322265625

> <r_i_glide_erotb>
0.423911967410033

> <r_i_glide_esite>
0

> <r_i_glide_emodel>
-59.5364725214982

> <r_i_glide_energy>
-47.3941955566406

> <r_i_glide_einternal>
4.68032789230347

> <i_i_glide_confnum>
4

> <i_i_glide_posenum>
255

> <r_i_glide_eff_state_penalty>
0

> <s_user_duplicate_titles>
CHEMBL1900_lig242,24331

> <s_m_subgroup_title>
dock_pv

> <s_m_subgroupid>
dock_pv

> <b_m_subgroup_collapsed>
1

$$$$
CHEMBL1900_lig242
                    3D
 Schrodinger Suite 2021-1.
 44 47  0  0  1  0            999 V2000
   18.0203   -8.7281   15.2514 N   0  0  0  0  0  0
   17.7449   -8.0394   16.4231 N   0  0  0  0  0  0
   17.8994   -6.9817   13.4079 C   0  0  0  0  0  0
   17.5495   -9.9961   14.9393 C   0  0  0  0  0  0
   18.4205   -6.1150   12.5811 N   0  0  0  0  0  0
   16.8484   -8.4412   17.2368 C   0  0  0  0  0  0
   18.7780   -7.9016   14.2655 C   0  0  2  0  0  0
   16.1502   -6.9150   13.4807 S   0  0  0  0  0  0
   16.5454  -10.5090   15.9669 C   0  0  0  0  0  0
   16.8663   -2.6048    9.4045 C   0  0  0  0  0  0
   17.4809   -5.4624   11.8465 C   0  0  0  0  0  0
   16.1332   -9.7134   17.0552 C   0  0  0  0  0  0
   16.6267   -7.5199   18.4349 C   0  0  0  0  0  0
   16.1463   -5.8395   12.1101 C   0  0  0  0  0  0
   16.6637   -3.8443   10.2627 C   0  0  0  0  0  0
   17.7464   -4.4624   10.9045 C   0  0  0  0  0  0
   15.9779   -6.1888   18.0298 C   0  0  0  0  0  0
   17.8500  -10.6320   13.9265 O   0  0  0  0  0  0
   15.0737   -5.3151   11.3810 C   0  0  0  0  0  0
   15.3612   -4.3118   10.4626 C   0  0  0  0  0  0
   15.3450   -6.0050   16.9865 O   0  0  0  0  0  0
   16.5451   -2.9150    8.1679 F   0  0  0  0  0  0
   16.0581   -1.6185    9.7810 F   0  0  0  0  0  0
   18.1219   -2.1577    9.4369 F   0  0  0  0  0  0
   16.1451   -5.2589   19.0125 O   0  0  0  0  0  0
   19.8182   -8.6564   13.4050 C   0  0  0  0  0  0
   15.9812  -11.7782   15.7811 C   0  0  0  0  0  0
   15.1029  -10.1706   17.8894 C   0  0  0  0  0  0
   14.9892  -12.2386   16.6458 C   0  0  0  0  0  0
   14.5450  -11.4320   17.6909 C   0  0  0  0  0  0
   19.4054   -7.2387   14.8680 H   0  0  0  0  0  0
   16.0268   -7.9841   19.2122 H   0  0  0  0  0  0
   17.5920   -7.3147   18.8998 H   0  0  0  0  0  0
   18.7586   -4.1301   10.7401 H   0  0  0  0  0  0
   14.0529   -5.6103   11.5839 H   0  0  0  0  0  0
   14.5451   -3.8345    9.9418 H   0  0  0  0  0  0
   16.7267   -5.5684   19.7085 H   0  0  0  0  0  0
   20.5450   -7.9777   12.9810 H   0  0  0  0  0  0
   20.3750   -9.3906   13.9761 H   0  0  0  0  0  0
   19.3449   -9.1828   12.5808 H   0  0  0  0  0  0
   16.2918  -12.4053   14.9566 H   0  0  0  0  0  0
   14.7307   -9.5793   18.7110 H   0  0  0  0  0  0
   14.5485  -13.2132   16.4931 H   0  0  0  0  0  0
   13.7571  -11.7823   18.3437 H   0  0  0  0  0  0
  1  2  1  0  0  0
  1  4  1  0  0  0
  1  7  1  0  0  0
  2  6  2  0  0  0
  3  7  1  0  0  0
  3  5  2  0  0  0
  3  8  1  0  0  0
  4  9  1  0  0  0
  4 18  2  0  0  0
  5 11  1  0  0  0
  6 13  1  0  0  0
  6 12  1  0  0  0
  7 26  1  0  0  0
  7 31  1  0  0  0
  8 14  1  0  0  0
  9 12  1  0  0  0
  9 27  2  0  0  0
 10 15  1  0  0  0
 10 22  1  0  0  0
 10 23  1  0  0  0
 10 24  1  0  0  0
 11 16  1  0  0  0
 11 14  2  0  0  0
 12 28  2  0  0  0
 13 17  1  0  0  0
 13 32  1  0  0  0
 13 33  1  0  0  0
 14 19  1  0  0  0
 15 16  2  0  0  0
 15 20  1  0  0  0
 16 34  1  0  0  0
 17 21  2  0  0  0
 17 25  1  0  0  0
 19 20  2  0  0  0
 19 35  1  0  0  0
 20 36  1  0  0  0
 25 37  1  0  0  0
 26 38  1  0  0  0
 26 39  1  0  0  0
 26 40  1  0  0  0
 27 29  1  0  0  0
 27 41  1  0  0  0
 28 30  1  0  0  0
 28 42  1  0  0  0
 29 30  2  0  0  0
 29 43  1  0  0  0
 30 44  1  0  0  0
M  END
> <s_m_entry_id>
6176

> <s_m_entry_name>
dock_pv.11

> <s_m_Source_Path>
/home/csk/Desktop/cluster/DUD-E-result/aldr

> <s_m_Source_File>
dock_pv.maegz

> <i_m_Source_File_Index>
11

> <chembl_id>
CHEMBL283151

> <chembl_pref_name>
None

> <i_lp_mmshare_version>
53161

> <i_f3d_flags>
0

> <r_lp_tautomer_probability>
1

> <s_lp_Force_Field>
OPLS_2005

> <r_lp_Energy>
24.305615

> <b_lp_Chiralities_Consistent>
1

> <s_lp_Variant>
CHEMBL1900_lig242-2

> <s_i_glide_gridfile>
glide-grid_2hv5

> <i_i_glide_lignum>
354

> <i_i_glide_rotatable_bonds>
6

> <r_i_docking_score>
-10.7382148274949

> <r_i_glide_ligand_efficiency>
-0.357940494249829

> <r_i_glide_ligand_efficiency_sa>
-1.11220433766932

> <r_i_glide_ligand_efficiency_ln>
-2.43983941102853

> <r_i_glide_gscore>
-10.7382148274949

> <r_i_glide_lipo>
-5.04994090325596

> <r_i_glide_hbond>
-0.300588146914179

> <r_i_glide_metal>
0

> <r_i_glide_rewards>
-2.75821935346891

> <r_i_glide_evdw>
-43.9570083618164

> <r_i_glide_ecoul>
-5.70351982116699

> <r_i_glide_erotb>
0.423911967410033

> <r_i_glide_esite>
0

> <r_i_glide_emodel>
-69.6102207674797

> <r_i_glide_energy>
-49.6605281829834

> <r_i_glide_einternal>
8.77912712097168

> <i_i_glide_confnum>
16

> <i_i_glide_posenum>
273

> <r_i_glide_eff_state_penalty>
0

> <s_user_duplicate_titles>
CHEMBL1900_lig242

> <s_m_subgroup_title>
dock_pv

> <s_m_subgroupid>
dock_pv

> <b_m_subgroup_collapsed>
1

$$$$
CHEMBL1900_lig390
                    3D
 Schrodinger Suite 2021-1.
 37 40  0  0  1  0            999 V2000
   17.6961   -5.1410   11.5523 C   0  0  0  0  0  0
   16.5974   -7.9534   17.2074 N   0  0  0  0  0  0
   16.3589   -5.5897   11.6523 C   0  0  0  0  0  0
   18.5449   -5.7151   12.4436 N   0  0  0  0  0  0
   17.8945   -7.9638   15.3301 C   0  0  0  0  0  0
   17.9732   -6.6128   13.1948 C   0  0  0  0  0  0
   17.4096   -9.3073   15.5664 C   0  0  0  0  0  0
   17.3381   -7.2023   16.3278 C   0  0  0  0  0  0
   18.0461   -4.1701   10.5957 C   0  0  0  0  0  0
   16.2570   -6.7984   12.9125 S   0  0  0  0  0  0
   16.5711   -9.2551   16.7339 C   0  0  0  0  0  0
   15.3597   -5.0713   10.8276 C   0  0  0  0  0  0
   17.0384   -3.6610    9.7795 C   0  0  0  0  0  0
   15.7275   -4.1144    9.8877 C   0  0  0  0  0  0
   18.7684   -7.4199   14.2118 C   0  0  0  0  0  0
   15.8328   -7.4346   18.3511 C   0  0  0  0  0  0
   16.4150   -6.2180   19.0944 C   0  0  0  0  0  0
   17.5695  -10.5532   14.9203 C   0  0  0  0  0  0
   15.7330   -5.4689   19.7807 O   0  0  0  0  0  0
   19.3170   -3.7153   10.4676 F   0  0  0  0  0  0
   14.0746   -5.4731   10.9440 F   0  0  0  0  0  0
   17.3352   -2.7077    8.8713 F   0  0  0  0  0  0
   18.5450  -10.7444   13.5082 Cl  0  0  0  0  0  0
   17.7625   -6.1149   18.9810 O   0  0  0  0  0  0
   15.8969  -10.3835   17.2202 C   0  0  0  0  0  0
   16.0875  -11.5841   16.5416 C   0  0  0  0  0  0
   16.9095  -11.6703   15.4246 C   0  0  0  0  0  0
   17.4250   -6.1382   16.4810 H   0  0  0  0  0  0
   14.9740   -3.7127    9.2353 H   0  0  0  0  0  0
   19.5477   -6.7846   14.6392 H   0  0  0  0  0  0
   19.3176   -8.2111   13.7042 H   0  0  0  0  0  0
   14.8263   -7.2083   17.9978 H   0  0  0  0  0  0
   15.7452   -8.2359   19.0860 H   0  0  0  0  0  0
   18.1514   -6.8462   18.4969 H   0  0  0  0  0  0
   15.2535  -10.3371   18.0874 H   0  0  0  0  0  0
   15.5809  -12.4735   16.8885 H   0  0  0  0  0  0
   17.0249  -12.6256   14.9312 H   0  0  0  0  0  0
  1  3  2  0  0  0
  1  4  1  0  0  0
  1  9  1  0  0  0
  2  8  1  0  0  0
  2 16  1  0  0  0
  2 11  1  0  0  0
  3 10  1  0  0  0
  3 12  1  0  0  0
  4  6  2  0  0  0
  5 15  1  0  0  0
  5  7  1  0  0  0
  5  8  2  0  0  0
  6 15  1  0  0  0
  6 10  1  0  0  0
  7 11  2  0  0  0
  7 18  1  0  0  0
  8 28  1  0  0  0
  9 13  2  0  0  0
  9 20  1  0  0  0
 11 25  1  0  0  0
 12 21  1  0  0  0
 12 14  2  0  0  0
 13 14  1  0  0  0
 13 22  1  0  0  0
 14 29  1  0  0  0
 15 30  1  0  0  0
 15 31  1  0  0  0
 16 17  1  0  0  0
 16 32  1  0  0  0
 16 33  1  0  0  0
 17 19  2  0  0  0
 17 24  1  0  0  0
 18 23  1  0  0  0
 18 27  2  0  0  0
 24 34  1  0  0  0
 25 26  2  0  0  0
 25 35  1  0  0  0
 26 27  1  0  0  0
 26 36  1  0  0  0
 27 37  1  0  0  0
M  END
> <s_m_entry_id>
6177

> <s_m_entry_name>
dock_pv.12

> <s_m_Source_Path>
/home/csk/Desktop/cluster/DUD-E-result/aldr

> <s_m_Source_File>
dock_pv.maegz

> <i_m_Source_File_Index>
12

> <chembl_id>
CHEMBL193277

> <chembl_pref_name>
None

> <i_lp_mmshare_version>
53161

> <i_f3d_flags>
0

> <r_lp_tautomer_probability>
1

> <s_lp_Force_Field>
OPLS_2005

> <r_lp_Energy>
10.772798

> <b_lp_Chiralities_Consistent>
1

> <s_lp_Variant>
CHEMBL1900_lig390-1

> <s_i_glide_gridfile>
glide-grid_2hv5

> <i_i_glide_lignum>
511

> <i_i_glide_rotatable_bonds>
5

> <r_i_docking_score>
-10.7227535514722

> <r_i_glide_ligand_efficiency>
-0.397139020424898

> <r_i_glide_ligand_efficiency_sa>
-1.19141705996579

> <r_i_glide_ligand_efficiency_ln>
-2.49608024837446

> <r_i_glide_gscore>
-10.7227535514722

> <r_i_glide_lipo>
-4.74308397391555

> <r_i_glide_hbond>
-0.32

> <r_i_glide_metal>
0

> <r_i_glide_rewards>
-2.95189280428628

> <r_i_glide_evdw>
-44.1798782348633

> <r_i_glide_ecoul>
-6.15838289260864

> <r_i_glide_erotb>
0.467033850330036

> <r_i_glide_esite>
-0.0420592779659723

> <r_i_glide_emodel>
-78.1041538260637

> <r_i_glide_energy>
-50.3382611274719

> <r_i_glide_einternal>
6.02091693878174

> <i_i_glide_confnum>
26

> <i_i_glide_posenum>
375

> <r_i_glide_eff_state_penalty>
0

> <s_user_duplicate_titles>
CHEMBL1900_lig390,321614

> <s_m_subgroup_title>
dock_pv

> <s_m_subgroupid>
dock_pv

> <b_m_subgroup_collapsed>
1

$$$$
CHEMBL1900_lig408
                    3D
 Schrodinger Suite 2021-1.
 37 40  0  0  1  0            999 V2000
   17.6931   -5.1652   11.6251 C   0  0  0  0  0  0
   16.6524   -8.1076   17.2185 N   0  0  0  0  0  0
   16.3696   -5.6578   11.7059 C   0  0  0  0  0  0
   18.5508   -5.7153   12.5210 N   0  0  0  0  0  0
   17.9575   -8.0244   15.3514 C   0  0  0  0  0  0
   18.0098   -6.6561   13.2400 C   0  0  0  0  0  0
   17.3788   -7.3082   16.3659 C   0  0  0  0  0  0
   18.0246   -4.1777   10.6799 C   0  0  0  0  0  0
   16.3056   -6.9031   12.9356 S   0  0  0  0  0  0
   16.6023   -9.3844   16.6605 C   0  0  0  0  0  0
   17.4959   -9.3697   15.5344 C   0  0  0  0  0  0
   15.3595   -5.1485   10.8881 C   0  0  0  0  0  0
   17.0073   -3.6780    9.8696 C   0  0  0  0  0  0
   15.7056   -4.1568    9.9733 C   0  0  0  0  0  0
   18.8240   -7.4662   14.2377 C   0  0  0  0  0  0
   15.9261   -7.6383   18.4068 C   0  0  0  0  0  0
   16.4127   -6.3551   19.1056 C   0  0  0  0  0  0
   15.8873  -10.5516   17.0038 C   0  0  0  0  0  0
   15.6658   -5.6631   19.7810 O   0  0  0  0  0  0
   19.2875   -3.7050   10.5536 F   0  0  0  0  0  0
   14.0873   -5.5954   10.9813 F   0  0  0  0  0  0
   17.2865   -2.7025    8.9790 F   0  0  0  0  0  0
   14.5636  -10.6336   18.3765 Br  0  0  0  0  0  0
   17.7451   -6.1154   18.9812 O   0  0  0  0  0  0
   17.7251  -10.5626   14.8282 C   0  0  0  0  0  0
   17.0549  -11.7189   15.2119 C   0  0  0  0  0  0
   16.1468  -11.7030   16.2621 C   0  0  0  0  0  0
   17.4445   -6.2460   16.5465 H   0  0  0  0  0  0
   14.9451   -3.7499    9.3316 H   0  0  0  0  0  0
   19.6125   -6.8401   14.6608 H   0  0  0  0  0  0
   19.3462   -8.2672   13.7131 H   0  0  0  0  0  0
   14.8745   -7.5323   18.1342 H   0  0  0  0  0  0
   15.9869   -8.4219   19.1617 H   0  0  0  0  0  0
   18.2074   -6.8204   18.5212 H   0  0  0  0  0  0
   18.3959  -10.5778   13.9817 H   0  0  0  0  0  0
   17.2183  -12.6371   14.6649 H   0  0  0  0  0  0
   15.6140  -12.6122   16.5040 H   0  0  0  0  0  0
  1  3  2  0  0  0
  1  4  1  0  0  0
  1  8  1  0  0  0
  2  7  1  0  0  0
  2 16  1  0  0  0
  2 10  1  0  0  0
  3  9  1  0  0  0
  3 12  1  0  0  0
  4  6  2  0  0  0
  5 15  1  0  0  0
  5  7  2  0  0  0
  5 11  1  0  0  0
  6 15  1  0  0  0
  6  9  1  0  0  0
  7 28  1  0  0  0
  8 13  2  0  0  0
  8 20  1  0  0  0
 10 11  2  0  0  0
 10 18  1  0  0  0
 11 25  1  0  0  0
 12 21  1  0  0  0
 12 14  2  0  0  0
 13 14  1  0  0  0
 13 22  1  0  0  0
 14 29  1  0  0  0
 15 30  1  0  0  0
 15 31  1  0  0  0
 16 17  1  0  0  0
 16 32  1  0  0  0
 16 33  1  0  0  0
 17 19  2  0  0  0
 17 24  1  0  0  0
 18 23  1  0  0  0
 18 27  2  0  0  0
 24 34  1  0  0  0
 25 26  2  0  0  0
 25 35  1  0  0  0
 26 27  1  0  0  0
 26 36  1  0  0  0
 27 37  1  0  0  0
M  END
> <s_m_entry_id>
6178

> <s_m_entry_name>
dock_pv.13

> <s_m_Source_Path>
/home/csk/Desktop/cluster/DUD-E-result/aldr

> <s_m_Source_File>
dock_pv.maegz

> <i_m_Source_File_Index>
13

> <chembl_id>
CHEMBL193030

> <chembl_pref_name>
None

> <i_lp_mmshare_version>
53161

> <i_f3d_flags>
0

> <r_lp_tautomer_probability>
1

> <s_lp_Force_Field>
OPLS_2005

> <r_lp_Energy>
14.97805

> <b_lp_Chiralities_Consistent>
1

> <s_lp_Variant>
CHEMBL1900_lig408-1

> <s_i_glide_gridfile>
glide-grid_2hv5

> <i_i_glide_lignum>
529

> <i_i_glide_rotatable_bonds>
5

> <r_i_docking_score>
-10.7091865795627

> <r_i_glide_ligand_efficiency>
-0.396636539983804

> <r_i_glide_ligand_efficiency_sa>
-1.18990961864416

> <r_i_glide_ligand_efficiency_ln>
-2.49292208098293

> <r_i_glide_gscore>
-10.7091865795627

> <r_i_glide_lipo>
-4.70537625350319

> <r_i_glide_hbond>
-0.32

> <r_i_glide_metal>
0

> <r_i_glide_rewards>
-2.69008786477344

> <r_i_glide_evdw>
-44.509334564209

> <r_i_glide_ecoul>
-7.47839212417603

> <r_i_glide_erotb>
0.387693553823976

> <r_i_glide_esite>
-0.0341904682732002

> <r_i_glide_emodel>
-80.0720398252823

> <r_i_glide_energy>
-51.987726688385

> <r_i_glide_einternal>
8.35799598693848

> <i_i_glide_confnum>
11

> <i_i_glide_posenum>
320

> <r_i_glide_eff_state_penalty>
0

> <s_user_duplicate_titles>
CHEMBL1900_lig408,321308

> <s_m_subgroup_title>
dock_pv

> <s_m_subgroupid>
dock_pv

> <b_m_subgroup_collapsed>
1

$$$$
CHEMBL1900_lig402
                    3D
 Schrodinger Suite 2021-1.
 40 43  0  0  1  0            999 V2000
   17.7039   -5.1399   11.6226 C   0  0  0  0  0  0
   16.5835   -7.9427   17.2253 N   0  0  0  0  0  0
   16.3723   -5.6155   11.6882 C   0  0  0  0  0  0
   18.5451   -5.7152   12.5183 N   0  0  0  0  0  0
   17.8868   -7.9908   15.3546 C   0  0  0  0  0  0
   17.9801   -6.6537   13.2253 C   0  0  0  0  0  0
   16.5409   -9.2479   16.7642 C   0  0  0  0  0  0
   17.3347   -7.2062   16.3384 C   0  0  0  0  0  0
   18.0510   -4.1474   10.6865 C   0  0  0  0  0  0
   16.2709   -6.8554   12.9158 S   0  0  0  0  0  0
   17.3870   -9.3161   15.6105 C   0  0  0  0  0  0
   15.3757   -5.0945   10.8605 C   0  0  0  0  0  0
   17.0475   -3.6396    9.8619 C   0  0  0  0  0  0
   15.7425   -4.1155    9.9434 C   0  0  0  0  0  0
   18.7623   -7.5113   14.2109 C   0  0  0  0  0  0
   15.8255   -7.4114   18.3654 C   0  0  0  0  0  0
   17.5478  -10.5543   14.9713 C   0  0  0  0  0  0
   16.4193   -6.1993   19.1016 C   0  0  0  0  0  0
   15.8499  -10.3686   17.2472 C   0  0  0  0  0  0
   15.7444   -5.4351   19.7811 O   0  0  0  0  0  0
   19.3175   -3.6764   10.5808 F   0  0  0  0  0  0
   14.0954   -5.5190   10.9508 F   0  0  0  0  0  0
   17.3412   -2.6600    8.9798 F   0  0  0  0  0  0
   16.8679  -11.6663   15.4609 C   0  0  0  0  0  0
   16.0322  -11.5777   16.5742 C   0  0  0  0  0  0
   17.7662   -6.1118   18.9812 O   0  0  0  0  0  0
   15.2810  -12.8096   17.0443 C   0  0  0  0  0  0
   17.4334   -6.1408   16.4772 H   0  0  0  0  0  0
   14.9912   -3.7086    9.2898 H   0  0  0  0  0  0
   19.6073   -6.9449   14.6029 H   0  0  0  0  0  0
   19.2059   -8.3569   13.6840 H   0  0  0  0  0  0
   14.8194   -7.1767   18.0168 H   0  0  0  0  0  0
   15.7456   -8.2061   19.1074 H   0  0  0  0  0  0
   18.1693  -10.6409   14.0911 H   0  0  0  0  0  0
   15.1966  -10.3083   18.1058 H   0  0  0  0  0  0
   16.9799  -12.6133   14.9508 H   0  0  0  0  0  0
   18.1438   -6.8501   18.4973 H   0  0  0  0  0  0
   14.3397  -12.5357   17.5242 H   0  0  0  0  0  0
   15.0223  -13.4500   16.2005 H   0  0  0  0  0  0
   15.8814  -13.3868   17.7479 H   0  0  0  0  0  0
  1  3  2  0  0  0
  1  4  1  0  0  0
  1  9  1  0  0  0
  2  8  1  0  0  0
  2 16  1  0  0  0
  2  7  1  0  0  0
  3 10  1  0  0  0
  3 12  1  0  0  0
  4  6  2  0  0  0
  5 15  1  0  0  0
  5  8  2  0  0  0
  5 11  1  0  0  0
  6 15  1  0  0  0
  6 10  1  0  0  0
  7 11  2  0  0  0
  7 19  1  0  0  0
  8 28  1  0  0  0
  9 13  2  0  0  0
  9 21  1  0  0  0
 11 17  1  0  0  0
 12 22  1  0  0  0
 12 14  2  0  0  0
 13 14  1  0  0  0
 13 23  1  0  0  0
 14 29  1  0  0  0
 15 30  1  0  0  0
 15 31  1  0  0  0
 16 18  1  0  0  0
 16 32  1  0  0  0
 16 33  1  0  0  0
 17 24  2  0  0  0
 17 34  1  0  0  0
 18 20  2  0  0  0
 18 26  1  0  0  0
 19 25  2  0  0  0
 19 35  1  0  0  0
 24 25  1  0  0  0
 24 36  1  0  0  0
 25 27  1  0  0  0
 26 37  1  0  0  0
 27 38  1  0  0  0
 27 39  1  0  0  0
 27 40  1  0  0  0
M  END
> <s_m_entry_id>
6179

> <s_m_entry_name>
dock_pv.14

> <s_m_Source_Path>
/home/csk/Desktop/cluster/DUD-E-result/aldr

> <s_m_Source_File>
dock_pv.maegz

> <i_m_Source_File_Index>
14

> <chembl_id>
CHEMBL192927

> <chembl_pref_name>
None

> <i_lp_mmshare_version>
53161

> <i_f3d_flags>
0

> <r_lp_tautomer_probability>
1

> <s_lp_Force_Field>
OPLS_2005

> <r_lp_Energy>
13.133134

> <b_lp_Chiralities_Consistent>
1

> <s_lp_Variant>
CHEMBL1900_lig402-1

> <s_i_glide_gridfile>
glide-grid_2hv5

> <i_i_glide_lignum>
523

> <i_i_glide_rotatable_bonds>
5

> <r_i_docking_score>
-10.703144273813

> <r_i_glide_ligand_efficiency>
-0.396412750881964

> <r_i_glide_ligand_efficiency_sa>
-1.18923825133938

> <r_i_glide_ligand_efficiency_ln>
-2.4915155318196

> <r_i_glide_gscore>
-10.703144273813

> <r_i_glide_lipo>
-4.60046295205343

> <r_i_glide_hbond>
-0.32

> <r_i_glide_metal>
0

> <r_i_glide_rewards>
-3.11735958788058

> <r_i_glide_evdw>
-43.2083740234375

> <r_i_glide_ecoul>
-6.55151987075806

> <r_i_glide_erotb>
0.51192449262393

> <r_i_glide_esite>
-0.0340995447173591

> <r_i_glide_emodel>
-75.6305877548949

> <r_i_glide_energy>
-49.7598938941956

> <r_i_glide_einternal>
5.98914909362793

> <i_i_glide_confnum>
3

> <i_i_glide_posenum>
96

> <r_i_glide_eff_state_penalty>
0

> <s_user_duplicate_titles>
CHEMBL1900_lig402,321660

> <s_m_subgroup_title>
dock_pv

> <s_m_subgroupid>
dock_pv

> <b_m_subgroup_collapsed>
1

$$$$
CHEMBL1900_lig394
                    3D
 Schrodinger Suite 2021-1.
 40 43  0  0  1  0            999 V2000
   17.6913   -5.1693   11.6409 C   0  0  0  0  0  0
   16.6133   -7.9177   17.2887 N   0  0  0  0  0  0
   16.3688   -5.6684   11.7137 C   0  0  0  0  0  0
   18.5450   -5.7151   12.5461 N   0  0  0  0  0  0
   17.9065   -7.9591   15.4092 C   0  0  0  0  0  0
   17.9951   -6.6558   13.2621 C   0  0  0  0  0  0
   17.3473   -7.1822   16.3895 C   0  0  0  0  0  0
   17.4197   -9.2842   15.6669 C   0  0  0  0  0  0
   18.0210   -4.1816   10.6940 C   0  0  0  0  0  0
   16.2939   -6.9097   12.9442 S   0  0  0  0  0  0
   16.5811   -9.2239   16.8277 C   0  0  0  0  0  0
   15.3615   -5.1701   10.8874 C   0  0  0  0  0  0
   17.0062   -3.6955    9.8713 C   0  0  0  0  0  0
   15.7057   -4.1821    9.9692 C   0  0  0  0  0  0
   18.7840   -7.4769   14.2671 C   0  0  0  0  0  0
   15.8672   -7.3849   18.4401 C   0  0  0  0  0  0
   15.9080  -10.3527   17.3145 C   0  0  0  0  0  0
   16.4312   -6.1228   19.1228 C   0  0  0  0  0  0
   17.5936  -10.5176   15.0248 C   0  0  0  0  0  0
   15.7434   -5.3560   19.7813 O   0  0  0  0  0  0
   19.2786   -3.6940   10.5785 F   0  0  0  0  0  0
   14.0906   -5.6201   10.9812 F   0  0  0  0  0  0
   17.2818   -2.7200    8.9768 F   0  0  0  0  0  0
   16.1111  -11.5556   16.6382 C   0  0  0  0  0  0
   16.9384  -11.6443   15.5195 C   0  0  0  0  0  0
   17.7716   -5.9906   18.9820 O   0  0  0  0  0  0
   17.1373  -12.9787   14.8272 C   0  0  0  0  0  0
   17.4295   -6.1156   16.5205 H   0  0  0  0  0  0
   14.9453   -3.7793    9.3240 H   0  0  0  0  0  0
   19.6139   -6.8850   14.6599 H   0  0  0  0  0  0
   19.2516   -8.3205   13.7597 H   0  0  0  0  0  0
   14.8439   -7.1949   18.1176 H   0  0  0  0  0  0
   15.8271   -8.1653   19.2004 H   0  0  0  0  0  0
   15.2571  -10.3057   18.1743 H   0  0  0  0  0  0
   18.2193  -10.5927   14.1492 H   0  0  0  0  0  0
   15.6058  -12.4435   16.9933 H   0  0  0  0  0  0
   18.1746   -6.7338   18.5253 H   0  0  0  0  0  0
   16.8663  -13.8123   15.4757 H   0  0  0  0  0  0
   18.1855  -13.1176   14.5568 H   0  0  0  0  0  0
   16.5479  -13.0305   13.9098 H   0  0  0  0  0  0
  1  3  2  0  0  0
  1  4  1  0  0  0
  1  9  1  0  0  0
  2  7  1  0  0  0
  2 16  1  0  0  0
  2 11  1  0  0  0
  3 10  1  0  0  0
  3 12  1  0  0  0
  4  6  2  0  0  0
  5 15  1  0  0  0
  5  7  2  0  0  0
  5  8  1  0  0  0
  6 15  1  0  0  0
  6 10  1  0  0  0
  7 28  1  0  0  0
  8 11  2  0  0  0
  8 19  1  0  0  0
  9 13  2  0  0  0
  9 21  1  0  0  0
 11 17  1  0  0  0
 12 22  1  0  0  0
 12 14  2  0  0  0
 13 14  1  0  0  0
 13 23  1  0  0  0
 14 29  1  0  0  0
 15 30  1  0  0  0
 15 31  1  0  0  0
 16 18  1  0  0  0
 16 32  1  0  0  0
 16 33  1  0  0  0
 17 24  2  0  0  0
 17 34  1  0  0  0
 18 20  2  0  0  0
 18 26  1  0  0  0
 19 25  2  0  0  0
 19 35  1  0  0  0
 24 25  1  0  0  0
 24 36  1  0  0  0
 25 27  1  0  0  0
 26 37  1  0  0  0
 27 38  1  0  0  0
 27 39  1  0  0  0
 27 40  1  0  0  0
M  END
> <s_m_entry_id>
6180

> <s_m_entry_name>
dock_pv.15

> <s_m_Source_Path>
/home/csk/Desktop/cluster/DUD-E-result/aldr

> <s_m_Source_File>
dock_pv.maegz

> <i_m_Source_File_Index>
15

> <chembl_id>
CHEMBL191508

> <chembl_pref_name>
None

> <i_lp_mmshare_version>
53161

> <i_f3d_flags>
0

> <r_lp_tautomer_probability>
1

> <s_lp_Force_Field>
OPLS_2005

> <r_lp_Energy>
13.0452

> <b_lp_Chiralities_Consistent>
1

> <s_lp_Variant>
CHEMBL1900_lig394-1

> <s_i_glide_gridfile>
glide-grid_2hv5

> <i_i_glide_lignum>
515

> <i_i_glide_rotatable_bonds>
5

> <r_i_docking_score>
-10.7016393319103

> <r_i_glide_ligand_efficiency>
-0.396357012292976

> <r_i_glide_ligand_efficiency_sa>
-1.1890710355726

> <r_i_glide_ligand_efficiency_ln>
-2.49116520615556

> <r_i_glide_gscore>
-10.7016393319103

> <r_i_glide_lipo>
-4.54171845319245

> <r_i_glide_hbond>
-0.32

> <r_i_glide_metal>
0

> <r_i_glide_rewards>
-3.13879910494644

> <r_i_glide_evdw>
-43.0872344970703

> <r_i_glide_ecoul>
-6.85425758361816

> <r_i_glide_erotb>
0.51192449262393

> <r_i_glide_esite>
-0.0305459039991495

> <r_i_glide_emodel>
-74.9005665007018

> <r_i_glide_energy>
-49.9414920806885

> <r_i_glide_einternal>
6.93282413482666

> <i_i_glide_confnum>
11

> <i_i_glide_posenum>
282

> <r_i_glide_eff_state_penalty>
0

> <s_user_duplicate_titles>
CHEMBL1900_lig394,321279

> <s_m_subgroup_title>
dock_pv

> <s_m_subgroupid>
dock_pv

> <b_m_subgroup_collapsed>
1

$$$$
CHEMBL1900_lig401
                    3D
 Schrodinger Suite 2021-1.
 37 40  0  0  1  0            999 V2000
   17.6948   -5.1553   11.6336 C   0  0  0  0  0  0
   16.5784   -7.8956   17.2679 N   0  0  0  0  0  0
   16.3681   -5.6423   11.7021 C   0  0  0  0  0  0
   18.5450   -5.7200   12.5327 N   0  0  0  0  0  0
   17.8753   -7.9678   15.3884 C   0  0  0  0  0  0
   16.5081   -9.1990   16.8033 C   0  0  0  0  0  0
   17.9846   -6.6642   13.2391 C   0  0  0  0  0  0
   17.3407   -7.1779   16.3753 C   0  0  0  0  0  0
   18.0305   -4.1606   10.6943 C   0  0  0  0  0  0
   16.2830   -6.8970   12.9162 S   0  0  0  0  0  0
   17.3461   -9.2811   15.6423 C   0  0  0  0  0  0
   15.3622   -5.1241   10.8852 C   0  0  0  0  0  0
   17.0186   -3.6599    9.8748 C   0  0  0  0  0  0
   15.7118   -4.1313    9.9746 C   0  0  0  0  0  0
   18.7609   -7.5026   14.2439 C   0  0  0  0  0  0
   15.8299   -7.3457   18.4081 C   0  0  0  0  0  0
   15.7960  -10.3061   17.2844 C   0  0  0  0  0  0
   17.4750  -10.5204   14.9937 C   0  0  0  0  0  0
   16.4218   -6.1120   19.1155 C   0  0  0  0  0  0
   15.7450   -5.3407   19.7814 O   0  0  0  0  0  0
   19.2923   -3.6826   10.5801 F   0  0  0  0  0  0
   15.9500  -11.5120   16.6026 C   0  0  0  0  0  0
   14.0868   -5.5604   10.9805 F   0  0  0  0  0  0
   17.3035   -2.6880    8.9810 F   0  0  0  0  0  0
   16.7788  -11.6217   15.4886 C   0  0  0  0  0  0
   17.7663   -6.0058   18.9812 O   0  0  0  0  0  0
   15.0870  -12.8989   17.1574 Cl  0  0  0  0  0  0
   17.4588   -6.1151   16.5111 H   0  0  0  0  0  0
   14.9464   -3.7170    9.3408 H   0  0  0  0  0  0
   19.6017   -6.9267   14.6355 H   0  0  0  0  0  0
   19.2106   -8.3569   13.7359 H   0  0  0  0  0  0
   14.8196   -7.1203   18.0639 H   0  0  0  0  0  0
   15.7459   -8.1288   19.1622 H   0  0  0  0  0  0
   15.1479  -10.2425   18.1464 H   0  0  0  0  0  0
   18.0945  -10.6189   14.1137 H   0  0  0  0  0  0
   16.8717  -12.5763   14.9893 H   0  0  0  0  0  0
   18.1580   -6.7490   18.5175 H   0  0  0  0  0  0
  1  3  2  0  0  0
  1  4  1  0  0  0
  1  9  1  0  0  0
  2  8  1  0  0  0
  2 16  1  0  0  0
  2  6  1  0  0  0
  3 10  1  0  0  0
  3 12  1  0  0  0
  4  7  2  0  0  0
  5 15  1  0  0  0
  5  8  2  0  0  0
  5 11  1  0  0  0
  6 11  2  0  0  0
  6 17  1  0  0  0
  7 15  1  0  0  0
  7 10  1  0  0  0
  8 28  1  0  0  0
  9 13  2  0  0  0
  9 21  1  0  0  0
 11 18  1  0  0  0
 12 23  1  0  0  0
 12 14  2  0  0  0
 13 14  1  0  0  0
 13 24  1  0  0  0
 14 29  1  0  0  0
 15 30  1  0  0  0
 15 31  1  0  0  0
 16 19  1  0  0  0
 16 32  1  0  0  0
 16 33  1  0  0  0
 17 22  2  0  0  0
 17 34  1  0  0  0
 18 25  2  0  0  0
 18 35  1  0  0  0
 19 20  2  0  0  0
 19 26  1  0  0  0
 22 25  1  0  0  0
 22 27  1  0  0  0
 25 36  1  0  0  0
 26 37  1  0  0  0
M  END
> <s_m_entry_id>
6181

> <s_m_entry_name>
dock_pv.16

> <s_m_Source_Path>
/home/csk/Desktop/cluster/DUD-E-result/aldr

> <s_m_Source_File>
dock_pv.maegz

> <i_m_Source_File_Index>
16

> <chembl_id>
CHEMBL371162

> <chembl_pref_name>
None

> <i_lp_mmshare_version>
53161

> <i_f3d_flags>
0

> <r_lp_tautomer_probability>
1

> <s_lp_Force_Field>
OPLS_2005

> <r_lp_Energy>
12.234555

> <b_lp_Chiralities_Consistent>
1

> <s_lp_Variant>
CHEMBL1900_lig401-1

> <s_i_glide_gridfile>
glide-grid_2hv5

> <i_i_glide_lignum>
522

> <i_i_glide_rotatable_bonds>
5

> <r_i_docking_score>
-10.6820983777797

> <r_i_glide_ligand_efficiency>
-0.3956332732511

> <r_i_glide_ligand_efficiency_sa>
-1.18689981844936

> <r_i_glide_ligand_efficiency_ln>
-2.48661639419176

> <r_i_glide_gscore>
-10.6820983777797

> <r_i_glide_lipo>
-4.62808996221069

> <r_i_glide_hbond>
-0.32

> <r_i_glide_metal>
0

> <r_i_glide_rewards>
-2.99592358040425

> <r_i_glide_evdw>
-44.4117164611816

> <r_i_glide_ecoul>
-6.35703897476196

> <r_i_glide_erotb>
0.467033850330036

> <r_i_glide_esite>
-0.0309770162214261

> <r_i_glide_emodel>
-78.4065123826666

> <r_i_glide_energy>
-50.7687554359436

> <r_i_glide_einternal>
6.04191493988037

> <i_i_glide_confnum>
22

> <i_i_glide_posenum>
298

> <r_i_glide_eff_state_penalty>
0

> <s_user_duplicate_titles>
CHEMBL1900_lig401,321405

> <s_m_subgroup_title>
dock_pv

> <s_m_subgroupid>
dock_pv

> <b_m_subgroup_collapsed>
1

$$$$
CHEMBL1900_lig611
                    3D
 Schrodinger Suite 2021-1.
 45 48  0  0  1  0            999 V2000
   16.5376   -7.6920   16.5598 C   0  0  0  0  0  0
   17.0295   -8.3244   15.3330 C   0  0  0  0  0  0
   16.9777   -9.6688   15.1873 C   0  0  0  0  0  0
   16.3164  -10.5311   16.1655 C   0  0  0  0  0  0
   16.2524  -11.9192   16.0393 C   0  0  0  0  0  0
   15.5338  -12.6608   16.9780 C   0  0  0  0  0  0
   14.8666  -12.0200   18.0233 C   0  0  0  0  0  0
   14.9450  -10.6314   18.1584 C   0  0  0  0  0  0
   15.6866   -9.8936   17.2370 C   0  0  0  0  0  0
   15.8005   -8.5211   17.3992 O   0  0  0  0  0  0
   17.5273   -7.5622   14.2042 C   0  0  0  0  0  0
   18.7048   -7.6176   13.8486 O   0  0  0  0  0  0
   16.5450   -6.8986   13.5519 N   0  0  0  0  0  0
   16.6227   -6.1150   12.3860 C   0  0  0  0  0  0
   15.4090   -5.7582   11.7810 C   0  0  0  0  0  0
   15.4227   -4.9150   10.6680 C   0  0  0  0  0  0
   16.6420   -4.4510   10.1778 C   0  0  0  0  0  0
   17.8118   -4.8543   10.8194 C   0  0  0  0  0  0
   17.8170   -5.6690   11.9045 N   0  0  0  0  0  0
   16.7723   -6.4770   16.8872 N   0  0  0  0  0  0
   16.5450   -5.8533   18.1303 C   0  0  0  0  0  0
   16.5243   -4.4526   18.1811 C   0  0  0  0  0  0
   16.4761   -3.7534   19.3776 C   0  0  0  0  0  0
   16.4651   -4.4467   20.5864 C   0  0  0  0  0  0
   16.5381   -5.8330   20.5670 C   0  0  0  0  0  0
   16.5670   -6.5217   19.3594 C   0  0  0  0  0  0
   16.3554   -3.7150   21.8916 C   0  0  0  0  0  0
   14.1450  -12.7721   18.9105 O   0  0  0  0  0  0
   16.7178   -4.1850   22.9679 O   0  0  0  0  0  0
   15.7450   -2.5150   21.7564 O   0  0  0  0  0  0
   17.3450  -10.1279   14.2761 H   0  0  0  0  0  0
   16.7384  -12.4226   15.2153 H   0  0  0  0  0  0
   15.4747  -13.7350   16.8813 H   0  0  0  0  0  0
   14.4686  -10.1266   18.9810 H   0  0  0  0  0  0
   15.6181   -6.9923   13.9322 H   0  0  0  0  0  0
   14.4630   -6.0983   12.1759 H   0  0  0  0  0  0
   14.4968   -4.6149   10.1977 H   0  0  0  0  0  0
   16.6756   -3.7963    9.3197 H   0  0  0  0  0  0
   18.7757   -4.5199   10.4686 H   0  0  0  0  0  0
   16.5428   -3.8472   17.3009 H   0  0  0  0  0  0
   16.4508   -2.6722   19.3500 H   0  0  0  0  0  0
   16.5450   -6.3977   21.4891 H   0  0  0  0  0  0
   16.6539   -7.5961   19.3904 H   0  0  0  0  0  0
   13.2106  -12.5150   18.9790 H   0  0  0  0  0  0
   15.5046   -2.0764   22.5810 H   0  0  0  0  0  0
  1  2  1  0  0  0
  1 10  1  0  0  0
  1 20  2  0  0  0
  2  3  2  0  0  0
  2 11  1  0  0  0
  3  4  1  0  0  0
  3 31  1  0  0  0
  4  5  1  0  0  0
  4  9  2  0  0  0
  5  6  2  0  0  0
  5 32  1  0  0  0
  6  7  1  0  0  0
  6 33  1  0  0  0
  7  8  2  0  0  0
  7 28  1  0  0  0
  8  9  1  0  0  0
  8 34  1  0  0  0
  9 10  1  0  0  0
 11 12  2  0  0  0
 11 13  1  0  0  0
 13 14  1  0  0  0
 13 35  1  0  0  0
 14 15  1  0  0  0
 14 19  2  0  0  0
 15 16  2  0  0  0
 15 36  1  0  0  0
 16 17  1  0  0  0
 16 37  1  0  0  0
 17 18  2  0  0  0
 17 38  1  0  0  0
 18 19  1  0  0  0
 18 39  1  0  0  0
 20 21  1  0  0  0
 21 22  1  0  0  0
 21 26  2  0  0  0
 22 23  2  0  0  0
 22 40  1  0  0  0
 23 24  1  0  0  0
 23 41  1  0  0  0
 24 25  2  0  0  0
 24 27  1  0  0  0
 25 26  1  0  0  0
 25 42  1  0  0  0
 26 43  1  0  0  0
 27 29  2  0  0  0
 27 30  1  0  0  0
 28 44  1  0  0  0
 30 45  1  0  0  0
M  END
> <s_m_entry_id>
6182

> <s_m_entry_name>
dock_pv.17

> <s_m_Source_Path>
/home/csk/Desktop/cluster/DUD-E-result/aldr

> <s_m_Source_File>
dock_pv.maegz

> <i_m_Source_File_Index>
17

> <chembl_id>
CHEMBL2440423

> <chembl_pref_name>
None

> <i_lp_mmshare_version>
53161

> <i_f3d_flags>
0

> <r_lp_tautomer_probability>
1

> <s_lp_Force_Field>
OPLS_2005

> <r_lp_Energy>
44.210419

> <b_lp_Chiralities_Consistent>
1

> <s_lp_Variant>
CHEMBL1900_lig611-1

> <s_i_glide_gridfile>
glide-grid_2hv5

> <i_i_glide_lignum>
735

> <i_i_glide_rotatable_bonds>
7

> <r_i_docking_score>
-10.6713779011212

> <r_i_glide_ligand_efficiency>
-0.355712596704039

> <r_i_glide_ligand_efficiency_sa>
-1.10528174200295

> <r_i_glide_ligand_efficiency_ln>
-2.42465333310978

> <r_i_glide_gscore>
-10.6713779011212

> <r_i_glide_lipo>
-4.56048419817568

> <r_i_glide_hbond>
-0.310657303256997

> <r_i_glide_metal>
0

> <r_i_glide_rewards>
-2.41024591460518

> <r_i_glide_evdw>
-50.0641746520996

> <r_i_glide_ecoul>
-9.97012519836426

> <r_i_glide_erotb>
0.608737027276305

> <r_i_glide_esite>
0

> <r_i_glide_emodel>
-77.3535057195417

> <r_i_glide_energy>
-60.0342998504639

> <r_i_glide_einternal>
12.6524200439453

> <i_i_glide_confnum>
2

> <i_i_glide_posenum>
176

> <r_i_glide_eff_state_penalty>
0

> <s_user_duplicate_titles>
CHEMBL1900_lig611

> <s_m_subgroup_title>
dock_pv

> <s_m_subgroupid>
dock_pv

> <b_m_subgroup_collapsed>
1

$$$$
CHEMBL1900_lig406
                    3D
 Schrodinger Suite 2021-1.
 37 40  0  0  1  0            999 V2000
   17.6902   -5.1544   11.6196 C   0  0  0  0  0  0
   16.6332   -8.0058   17.2250 N   0  0  0  0  0  0
   16.3675   -5.6493   11.6950 C   0  0  0  0  0  0
   18.5450   -5.7156   12.5109 N   0  0  0  0  0  0
   17.9413   -7.9820   15.3577 C   0  0  0  0  0  0
   18.0014   -6.6556   13.2261 C   0  0  0  0  0  0
   17.3484   -7.2319   16.3408 C   0  0  0  0  0  0
   18.0215   -4.1548   10.6861 C   0  0  0  0  0  0
   16.3004   -6.9074   12.9117 S   0  0  0  0  0  0
   16.6398   -9.3093   16.7431 C   0  0  0  0  0  0
   17.4963   -9.3259   15.5932 C   0  0  0  0  0  0
   15.3570   -5.1307   10.8831 C   0  0  0  0  0  0
   17.0059   -3.6568    9.8714 C   0  0  0  0  0  0
   15.7036   -4.1357    9.9736 C   0  0  0  0  0  0
   18.8087   -7.4664   14.2256 C   0  0  0  0  0  0
   15.8674   -7.4950   18.3718 C   0  0  0  0  0  0
   16.4267   -6.2592   19.1031 C   0  0  0  0  0  0
   15.9932  -10.4734   17.1892 C   0  0  0  0  0  0
   15.7314   -5.5159   19.7807 O   0  0  0  0  0  0
   19.2813   -3.6685   10.5806 F   0  0  0  0  0  0
   14.0841   -5.5751   10.9806 F   0  0  0  0  0  0
   17.2830   -2.6790    8.9809 F   0  0  0  0  0  0
   15.1613  -10.4784   18.2556 F   0  0  0  0  0  0
   17.7679   -6.1149   18.9810 O   0  0  0  0  0  0
   17.7217  -10.5435   14.9297 C   0  0  0  0  0  0
   17.0878  -11.6946   15.3899 C   0  0  0  0  0  0
   16.2392  -11.6540   16.4909 C   0  0  0  0  0  0
   17.3990   -6.1632   16.4871 H   0  0  0  0  0  0
   14.9450   -3.7228    9.3339 H   0  0  0  0  0  0
   19.6216   -6.8599   14.6284 H   0  0  0  0  0  0
   19.2974   -8.2926   13.7101 H   0  0  0  0  0  0
   14.8507   -7.2944   18.0309 H   0  0  0  0  0  0
   15.8046   -8.2857   19.1182 H   0  0  0  0  0  0
   18.1758   -6.8349   18.4944 H   0  0  0  0  0  0
   18.3608  -10.5857   14.0607 H   0  0  0  0  0  0
   17.2457  -12.6327   14.8750 H   0  0  0  0  0  0
   15.7558  -12.5640   16.8143 H   0  0  0  0  0  0
  1  3  2  0  0  0
  1  4  1  0  0  0
  1  8  1  0  0  0
  2  7  1  0  0  0
  2 16  1  0  0  0
  2 10  1  0  0  0
  3  9  1  0  0  0
  3 12  1  0  0  0
  4  6  2  0  0  0
  5 15  1  0  0  0
  5  7  2  0  0  0
  5 11  1  0  0  0
  6 15  1  0  0  0
  6  9  1  0  0  0
  7 28  1  0  0  0
  8 13  2  0  0  0
  8 20  1  0  0  0
 10 11  2  0  0  0
 10 18  1  0  0  0
 11 25  1  0  0  0
 12 21  1  0  0  0
 12 14  2  0  0  0
 13 14  1  0  0  0
 13 22  1  0  0  0
 14 29  1  0  0  0
 15 30  1  0  0  0
 15 31  1  0  0  0
 16 17  1  0  0  0
 16 32  1  0  0  0
 16 33  1  0  0  0
 17 19  2  0  0  0
 17 24  1  0  0  0
 18 23  1  0  0  0
 18 27  2  0  0  0
 24 34  1  0  0  0
 25 26  2  0  0  0
 25 35  1  0  0  0
 26 27  1  0  0  0
 26 36  1  0  0  0
 27 37  1  0  0  0
M  END
> <s_m_entry_id>
6183

> <s_m_entry_name>
dock_pv.18

> <s_m_Source_Path>
/home/csk/Desktop/cluster/DUD-E-result/aldr

> <s_m_Source_File>
dock_pv.maegz

> <i_m_Source_File_Index>
18

> <chembl_id>
CHEMBL192167

> <chembl_pref_name>
None

> <i_lp_mmshare_version>
53161

> <i_f3d_flags>
0

> <r_lp_tautomer_probability>
1

> <s_lp_Force_Field>
OPLS_2005

> <r_lp_Energy>
14.104327

> <b_lp_Chiralities_Consistent>
1

> <s_lp_Variant>
CHEMBL1900_lig406-1

> <s_i_glide_gridfile>
glide-grid_2hv5

> <i_i_glide_lignum>
527

> <i_i_glide_rotatable_bonds>
5

> <r_i_docking_score>
-10.6316399597043

> <r_i_glide_ligand_efficiency>
-0.393764442952012

> <r_i_glide_ligand_efficiency_sa>
-1.18129332755825

> <r_i_glide_ligand_efficiency_ln>
-2.47487050633585

> <r_i_glide_gscore>
-10.6316399597043

> <r_i_glide_lipo>
-4.42121685752315

> <r_i_glide_hbond>
-0.32

> <r_i_glide_metal>
0

> <r_i_glide_rewards>
-3.2420596958598

> <r_i_glide_evdw>
-42.3032455444336

> <r_i_glide_ecoul>
-6.72676801681519

> <r_i_glide_erotb>
0.502715114929376

> <r_i_glide_esite>
-0.0269010415067971

> <r_i_glide_emodel>
-75.8567522299689

> <r_i_glide_energy>
-49.0300135612488

> <r_i_glide_einternal>
6.91005325317383

> <i_i_glide_confnum>
10

> <i_i_glide_posenum>
390

> <r_i_glide_eff_state_penalty>
0

> <s_user_duplicate_titles>
CHEMBL1900_lig406,321663

> <s_m_subgroup_title>
dock_pv

> <s_m_subgroupid>
dock_pv

> <b_m_subgroup_collapsed>
1

$$$$
CHEMBL1900_lig665 
                    3D
 Schrodinger Suite 2021-1.
 47 51  0  0  1  0            999 V2000
   18.1401   -9.3999   14.6717 C   0  0  0  0  0  0
   18.4846   -8.0988   14.9822 N   0  0  0  0  0  0
   18.1407   -7.3781   16.1148 N   0  0  0  0  0  0
   17.3603   -7.9088   16.9968 C   0  0  0  0  0  0
   17.1665   -7.0854   18.2670 C   0  0  0  0  0  0
   16.1626   -5.9340   18.1204 C   0  0  0  0  0  0
   15.4749   -5.7152   17.1194 O   0  0  0  0  0  0
   16.1444   -5.1866   19.2624 O   0  0  0  0  0  0
   18.5356  -10.0064   13.6699 O   0  0  0  0  0  0
   19.1583   -7.2997   13.9544 C   0  0  0  0  0  0
   18.1458   -6.6244   13.0705 C   0  0  0  0  0  0
   16.4145   -6.9150   13.0216 S   0  0  0  0  0  0
   18.5456   -5.7135   12.2617 N   0  0  0  0  0  0
   17.5474   -5.1954   11.5373 C   0  0  0  0  0  0
   16.2711   -5.7572   11.7349 C   0  0  0  0  0  0
   15.1612   -5.3173   11.0159 C   0  0  0  0  0  0
   15.3616   -4.2103   10.2043 C   0  0  0  0  0  0
   16.6082   -3.5931   10.0785 C   0  0  0  0  0  0
   17.7382   -4.1315   10.6783 C   0  0  0  0  0  0
   16.7134   -2.2688    9.3611 C   0  0  0  0  0  0
   15.7569   -1.4245    9.7644 F   0  0  0  0  0  0
   16.5606   -2.5149    8.0790 F   0  0  0  0  0  0
   17.9091   -1.7320    9.5799 F   0  0  0  0  0  0
   17.1867   -9.9891   15.7005 C   0  0  0  0  0  0
   16.7841   -9.2575   16.8382 C   0  0  0  0  0  0
   15.8810   -9.8348   17.7411 C   0  0  0  0  0  0
   16.7168  -11.2849   15.4844 C   0  0  0  0  0  0
   15.8654  -11.8998   16.4190 C   0  0  0  0  0  0
   15.4571  -11.1780   17.5841 C   0  0  0  0  0  0
   14.6607  -11.8329   18.5498 C   0  0  0  0  0  0
   14.2784  -13.1575   18.3651 C   0  0  0  0  0  0
   14.6109  -13.8252   17.2012 C   0  0  0  0  0  0
   15.4076  -13.2222   16.2343 C   0  0  0  0  0  0
   16.8554   -7.7156   19.1019 H   0  0  0  0  0  0
   18.1285   -6.6702   18.5696 H   0  0  0  0  0  0
   16.8187   -5.4598   19.8883 H   0  0  0  0  0  0
   19.8383   -7.9119   13.3545 H   0  0  0  0  0  0
   19.8292   -6.5826   14.4331 H   0  0  0  0  0  0
   14.1820   -5.7400   11.1642 H   0  0  0  0  0  0
   14.5405   -3.7522    9.6958 H   0  0  0  0  0  0
   18.7056   -3.6773   10.5938 H   0  0  0  0  0  0
   15.5382   -9.3036   18.6149 H   0  0  0  0  0  0
   17.0201  -11.8397   14.6028 H   0  0  0  0  0  0
   14.3587  -11.3123   19.4460 H   0  0  0  0  0  0
   13.6824  -13.6530   19.1160 H   0  0  0  0  0  0
   14.2527  -14.8238   17.0481 H   0  0  0  0  0  0
   15.6835  -13.7622   15.3380 H   0  0  0  0  0  0
  1 24  1  0  0  0
  1  2  1  0  0  0
  1  9  2  0  0  0
  2  3  1  0  0  0
  2 10  1  0  0  0
  3  4  2  0  0  0
  4 25  1  0  0  0
  4  5  1  0  0  0
  5  6  1  0  0  0
  5 34  1  0  0  0
  5 35  1  0  0  0
  6  7  2  0  0  0
  6  8  1  0  0  0
  8 36  1  0  0  0
 10 11  1  0  0  0
 10 37  1  0  0  0
 10 38  1  0  0  0
 11 12  1  0  0  0
 11 13  2  0  0  0
 12 15  1  0  0  0
 13 14  1  0  0  0
 14 15  2  0  0  0
 14 19  1  0  0  0
 15 16  1  0  0  0
 16 17  2  0  0  0
 16 39  1  0  0  0
 17 18  1  0  0  0
 17 40  1  0  0  0
 18 19  2  0  0  0
 18 20  1  0  0  0
 19 41  1  0  0  0
 20 21  1  0  0  0
 20 22  1  0  0  0
 20 23  1  0  0  0
 24 25  2  0  0  0
 24 27  1  0  0  0
 25 26  1  0  0  0
 26 29  2  0  0  0
 26 42  1  0  0  0
 27 28  2  0  0  0
 27 43  1  0  0  0
 28 29  1  0  0  0
 28 33  1  0  0  0
 29 30  1  0  0  0
 30 31  2  0  0  0
 30 44  1  0  0  0
 31 32  1  0  0  0
 31 45  1  0  0  0
 32 33  2  0  0  0
 32 46  1  0  0  0
 33 47  1  0  0  0
M  END
> <s_m_entry_id>
6184

> <s_m_entry_name>
dock_pv.19

> <s_m_Source_Path>
/home/csk/Desktop/cluster/DUD-E-result/aldr

> <s_m_Source_File>
dock_pv.maegz

> <i_m_Source_File_Index>
19

> <chembl_id>
CHEMBL4458061

> <chembl_pref_name>
None

> <i_lp_mmshare_version>
53161

> <i_f3d_flags>
0

> <r_lp_tautomer_probability>
1

> <s_lp_Force_Field>
OPLS_2005

> <r_lp_Energy>
35.016498

> <b_lp_Chiralities_Consistent>
1

> <s_lp_Variant>
CHEMBL1900_lig665 -1

> <s_i_glide_gridfile>
glide-grid_2hv5

> <i_i_glide_lignum>
791

> <i_i_glide_rotatable_bonds>
6

> <r_i_docking_score>
-10.6205514847647

> <r_i_glide_ligand_efficiency>
-0.321834893477719

> <r_i_glide_ligand_efficiency_sa>
-1.03229646821719

> <r_i_glide_ligand_efficiency_ln>
-2.3619556599391

> <r_i_glide_gscore>
-10.6205514847647

> <r_i_glide_lipo>
-5.15702005912666

> <r_i_glide_hbond>
-0.254685426404477

> <r_i_glide_metal>
0

> <r_i_glide_rewards>
-2.40100594099164

> <r_i_glide_evdw>
-42.92822265625

> <r_i_glide_ecoul>
-6.85358810424805

> <r_i_glide_erotb>
0.366609290207769

> <r_i_glide_esite>
0

> <r_i_glide_emodel>
-48.7134928163391

> <r_i_glide_energy>
-49.781810760498

> <r_i_glide_einternal>
5.02510499954224

> <i_i_glide_confnum>
5

> <i_i_glide_posenum>
112

> <r_i_glide_eff_state_penalty>
0

> <s_user_duplicate_titles>
CHEMBL1900_lig665 

> <s_m_subgroup_title>
dock_pv

> <s_m_subgroupid>
dock_pv

> <b_m_subgroup_collapsed>
1

$$$$
CHEMBL1900_lig395
                    3D
 Schrodinger Suite 2021-1.
 41 44  0  0  1  0            999 V2000
   17.6871   -5.1738   11.6058 C   0  0  0  0  0  0
   16.6319   -7.9715   17.2353 N   0  0  0  0  0  0
   16.3682   -5.6765   11.6850 C   0  0  0  0  0  0
   18.5450   -5.7151   12.5055 N   0  0  0  0  0  0
   17.9367   -7.9467   15.3720 C   0  0  0  0  0  0
   18.0052   -6.6494   13.2311 C   0  0  0  0  0  0
   17.3465   -7.1946   16.3529 C   0  0  0  0  0  0
   17.4714   -9.2852   15.5943 C   0  0  0  0  0  0
   18.0136   -4.1856   10.6576 C   0  0  0  0  0  0
   16.3088   -6.9140   12.9184 S   0  0  0  0  0  0
   16.6293   -9.2696   16.7504 C   0  0  0  0  0  0
   15.3561   -5.1808   10.8629 C   0  0  0  0  0  0
   16.9993   -3.7155    9.8243 C   0  0  0  0  0  0
   15.7007   -4.2060    9.9290 C   0  0  0  0  0  0
   18.8126   -7.4334   14.2468 C   0  0  0  0  0  0
   15.8627   -7.4710   18.3839 C   0  0  0  0  0  0
   15.9794  -10.4239   17.2058 C   0  0  0  0  0  0
   16.4308   -6.2364   19.1067 C   0  0  0  0  0  0
   17.6656  -10.4930   14.9114 C   0  0  0  0  0  0
   15.7430   -5.4824   19.7810 O   0  0  0  0  0  0
   19.2691   -3.6883   10.5516 F   0  0  0  0  0  0
   14.0830   -5.6247   10.9730 F   0  0  0  0  0  0
   17.2693   -2.7521    8.9175 F   0  0  0  0  0  0
   17.0074  -11.6495   15.3517 C   0  0  0  0  0  0
   16.1918  -11.5959   16.4807 C   0  0  0  0  0  0
   17.7768   -6.1147   18.9811 O   0  0  0  0  0  0
   17.0995  -12.8728   14.7170 O   0  0  0  0  0  0
   17.8075  -12.9606   13.4845 C   0  0  0  0  0  0
   17.3999   -6.1266   16.5060 H   0  0  0  0  0  0
   14.9450   -3.8164    9.2725 H   0  0  0  0  0  0
   19.6110   -6.8089   14.6505 H   0  0  0  0  0  0
   19.3227   -8.2582   13.7473 H   0  0  0  0  0  0
   14.8502   -7.2597   18.0371 H   0  0  0  0  0  0
   15.7933   -8.2703   19.1214 H   0  0  0  0  0  0
   15.3291  -10.4168   18.0696 H   0  0  0  0  0  0
   18.2956  -10.5073   14.0356 H   0  0  0  0  0  0
   15.6934  -12.5005   16.7961 H   0  0  0  0  0  0
   18.1730   -6.8434   18.4983 H   0  0  0  0  0  0
   17.7271  -13.9717   13.0922 H   0  0  0  0  0  0
   18.8682  -12.7429   13.6163 H   0  0  0  0  0  0
   17.3921  -12.2868   12.7328 H   0  0  0  0  0  0
  1  3  2  0  0  0
  1  4  1  0  0  0
  1  9  1  0  0  0
  2  7  1  0  0  0
  2 16  1  0  0  0
  2 11  1  0  0  0
  3 10  1  0  0  0
  3 12  1  0  0  0
  4  6  2  0  0  0
  5 15  1  0  0  0
  5  7  2  0  0  0
  5  8  1  0  0  0
  6 15  1  0  0  0
  6 10  1  0  0  0
  7 29  1  0  0  0
  8 11  2  0  0  0
  8 19  1  0  0  0
  9 13  2  0  0  0
  9 21  1  0  0  0
 11 17  1  0  0  0
 12 22  1  0  0  0
 12 14  2  0  0  0
 13 14  1  0  0  0
 13 23  1  0  0  0
 14 30  1  0  0  0
 15 31  1  0  0  0
 15 32  1  0  0  0
 16 18  1  0  0  0
 16 33  1  0  0  0
 16 34  1  0  0  0
 17 25  2  0  0  0
 17 35  1  0  0  0
 18 20  2  0  0  0
 18 26  1  0  0  0
 19 24  2  0  0  0
 19 36  1  0  0  0
 24 25  1  0  0  0
 24 27  1  0  0  0
 25 37  1  0  0  0
 26 38  1  0  0  0
 27 28  1  0  0  0
 28 39  1  0  0  0
 28 40  1  0  0  0
 28 41  1  0  0  0
M  END
> <s_m_entry_id>
6185

> <s_m_entry_name>
dock_pv.20

> <s_m_Source_Path>
/home/csk/Desktop/cluster/DUD-E-result/aldr

> <s_m_Source_File>
dock_pv.maegz

> <i_m_Source_File_Index>
20

> <chembl_id>
CHEMBL192255

> <chembl_pref_name>
None

> <i_lp_mmshare_version>
53161

> <i_f3d_flags>
0

> <r_lp_tautomer_probability>
1

> <s_lp_Force_Field>
OPLS_2005

> <r_lp_Energy>
15.377693

> <b_lp_Chiralities_Consistent>
1

> <s_lp_Variant>
CHEMBL1900_lig395-1

> <s_i_glide_gridfile>
glide-grid_2hv5

> <i_i_glide_lignum>
516

> <i_i_glide_rotatable_bonds>
6

> <r_i_docking_score>
-10.6124586520628

> <r_i_glide_ligand_efficiency>
-0.379016380430815

> <r_i_glide_ligand_efficiency_sa>
-1.15091695969808

> <r_i_glide_ligand_efficiency_ln>
-2.44966705222179

> <r_i_glide_gscore>
-10.6124586520628

> <r_i_glide_lipo>
-4.54209276081319

> <r_i_glide_hbond>
-0.32

> <r_i_glide_metal>
0

> <r_i_glide_rewards>
-2.99455990651451

> <r_i_glide_evdw>
-43.7333183288574

> <r_i_glide_ecoul>
-6.77927160263062

> <r_i_glide_erotb>
0.476231916377315

> <r_i_glide_esite>
-0.0284812442749579

> <r_i_glide_emodel>
-75.542915239633

> <r_i_glide_energy>
-50.512589931488

> <r_i_glide_einternal>
7.674232006073

> <i_i_glide_confnum>
9

> <i_i_glide_posenum>
300

> <r_i_glide_eff_state_penalty>
0

> <s_user_duplicate_titles>
CHEMBL1900_lig395,321559

> <s_m_subgroup_title>
dock_pv

> <s_m_subgroupid>
dock_pv

> <b_m_subgroup_collapsed>
1

$$$$
CHEMBL1900_lig399
                    3D
 Schrodinger Suite 2021-1.
 50 54  0  0  1  0            999 V2000
   17.6663   -4.9974   11.4526 C   0  0  0  0  0  0
   16.8515   -8.0550   17.1222 N   0  0  0  0  0  0
   16.3812   -5.5726   11.5540 C   0  0  0  0  0  0
   18.5454   -5.4447   12.3754 N   0  0  0  0  0  0
   18.1192   -7.7329   15.2532 C   0  0  0  0  0  0
   18.0595   -6.3678   13.1475 C   0  0  0  0  0  0
   17.7969   -9.1185   15.3586 C   0  0  0  0  0  0
   17.4737   -7.1487   16.3035 C   0  0  0  0  0  0
   17.9519   -4.0508   10.4552 C   0  0  0  0  0  0
   16.3730   -6.7343   12.8611 S   0  0  0  0  0  0
   16.9666   -9.2996   16.5106 C   0  0  0  0  0  0
   15.3622   -5.2022   10.6825 C   0  0  0  0  0  0
   16.9330   -3.7163    9.5685 C   0  0  0  0  0  0
   18.1454  -10.2246   14.5800 C   0  0  0  0  0  0
   15.6782   -4.3033    9.6711 C   0  0  0  0  0  0
   18.1205  -12.6057   14.2242 N   0  0  0  0  0  0
   17.7084  -11.4943   14.9441 C   0  0  0  0  0  0
   18.9362   -7.0435   14.1831 C   0  0  0  0  0  0
   16.0810   -7.6954   18.3263 C   0  0  0  0  0  0
   16.4493  -10.5596   16.8375 C   0  0  0  0  0  0
   16.5082   -6.4140   19.0902 C   0  0  0  0  0  0
   16.8325  -11.6359   16.0280 C   0  0  0  0  0  0
   15.7435   -5.7568   19.7806 O   0  0  0  0  0  0
   19.1806   -3.4923   10.3335 F   0  0  0  0  0  0
   18.5693  -13.1533   11.4226 O   0  0  0  0  0  0
   14.1167   -5.7129   10.8013 F   0  0  0  0  0  0
   17.1639   -2.8269    8.5814 F   0  0  0  0  0  0
   17.8271   -6.1153   18.9817 O   0  0  0  0  0  0
   17.1727  -13.3702   13.4041 C   0  0  0  0  0  0
   19.4710  -12.7372   13.6412 C   0  0  0  0  0  0
   19.5218  -12.3763   12.1371 C   0  0  0  0  0  0
   17.2482  -12.9626   11.9113 C   0  0  0  0  0  0
   17.4320   -6.1150   16.5689 H   0  0  0  0  0  0
   18.7840  -10.0887   13.7228 H   0  0  0  0  0  0
   14.9451   -4.0911    8.9176 H   0  0  0  0  0  0
   19.5940   -6.3007   14.6377 H   0  0  0  0  0  0
   19.6040   -7.7485   13.6864 H   0  0  0  0  0  0
   15.0339   -7.6103   18.0308 H   0  0  0  0  0  0
   16.1443   -8.5250   19.0263 H   0  0  0  0  0  0
   15.7966  -10.7042   17.6852 H   0  0  0  0  0  0
   16.4709  -12.6229   16.2818 H   0  0  0  0  0  0
   18.3192   -6.7672   18.4741 H   0  0  0  0  0  0
   16.1585  -13.2774   13.7934 H   0  0  0  0  0  0
   17.4266  -14.4223   13.4943 H   0  0  0  0  0  0
   19.8012  -13.7690   13.7731 H   0  0  0  0  0  0
   20.1923  -12.1340   14.1913 H   0  0  0  0  0  0
   20.5134  -12.5902   11.7385 H   0  0  0  0  0  0
   19.3437  -11.3150   11.9653 H   0  0  0  0  0  0
   16.5666  -13.5727   11.3172 H   0  0  0  0  0  0
   16.9470  -11.9247   11.7669 H   0  0  0  0  0  0
  1  3  2  0  0  0
  1  4  1  0  0  0
  1  9  1  0  0  0
  2  8  1  0  0  0
  2 19  1  0  0  0
  2 11  1  0  0  0
  3 10  1  0  0  0
  3 12  1  0  0  0
  4  6  2  0  0  0
  5 18  1  0  0  0
  5  7  1  0  0  0
  5  8  2  0  0  0
  6 18  1  0  0  0
  6 10  1  0  0  0
  7 11  2  0  0  0
  7 14  1  0  0  0
  8 33  1  0  0  0
  9 13  2  0  0  0
  9 24  1  0  0  0
 11 20  1  0  0  0
 12 26  1  0  0  0
 12 15  2  0  0  0
 13 15  1  0  0  0
 13 27  1  0  0  0
 14 17  2  0  0  0
 14 34  1  0  0  0
 15 35  1  0  0  0
 16 17  1  0  0  0
 16 29  1  0  0  0
 16 30  1  0  0  0
 17 22  1  0  0  0
 18 36  1  0  0  0
 18 37  1  0  0  0
 19 21  1  0  0  0
 19 38  1  0  0  0
 19 39  1  0  0  0
 20 22  2  0  0  0
 20 40  1  0  0  0
 21 23  2  0  0  0
 21 28  1  0  0  0
 22 41  1  0  0  0
 25 31  1  0  0  0
 25 32  1  0  0  0
 28 42  1  0  0  0
 29 32  1  0  0  0
 29 43  1  0  0  0
 29 44  1  0  0  0
 30 31  1  0  0  0
 30 45  1  0  0  0
 30 46  1  0  0  0
 31 47  1  0  0  0
 31 48  1  0  0  0
 32 49  1  0  0  0
 32 50  1  0  0  0
M  END
> <s_m_entry_id>
6186

> <s_m_entry_name>
dock_pv.21

> <s_m_Source_Path>
/home/csk/Desktop/cluster/DUD-E-result/aldr

> <s_m_Source_File>
dock_pv.maegz

> <i_m_Source_File_Index>
21

> <chembl_id>
CHEMBL370478

> <chembl_pref_name>
None

> <i_lp_mmshare_version>
53161

> <i_f3d_flags>
0

> <r_lp_tautomer_probability>
1

> <s_lp_Force_Field>
OPLS_2005

> <r_lp_Energy>
27.983423

> <b_lp_Chiralities_Consistent>
1

> <s_lp_Variant>
CHEMBL1900_lig399-1

> <s_i_glide_gridfile>
glide-grid_2hv5

> <i_i_glide_lignum>
520

> <i_i_glide_rotatable_bonds>
6

> <r_i_docking_score>
-10.6105241038543

> <r_i_glide_ligand_efficiency>
-0.331578878245447

> <r_i_glide_ligand_efficiency_sa>
-1.05269731905839

> <r_i_glide_ligand_efficiency_ln>
-2.37598557881629

> <r_i_glide_gscore>
-10.6105241038543

> <r_i_glide_lipo>
-4.88592786246277

> <r_i_glide_hbond>
-0.32

> <r_i_glide_metal>
0

> <r_i_glide_rewards>
-2.51589569152197

> <r_i_glide_evdw>
-45.8152770996094

> <r_i_glide_ecoul>
-7.13831329345703

> <r_i_glide_erotb>
0.472810299129475

> <r_i_glide_esite>
0

> <r_i_glide_emodel>
-66.6729129954119

> <r_i_glide_energy>
-52.9535903930664

> <r_i_glide_einternal>
10.8212013244629

> <i_i_glide_confnum>
59

> <i_i_glide_posenum>
382

> <r_i_glide_eff_state_penalty>
0

> <s_user_duplicate_titles>
CHEMBL1900_lig399,321332

> <s_m_subgroup_title>
dock_pv

> <s_m_subgroupid>
dock_pv

> <b_m_subgroup_collapsed>
1

$$$$
CHEMBL1900_lig281
                    3D
 Schrodinger Suite 2021-1.
 38 41  0  0  1  0            999 V2000
   17.9027   -7.8283   14.9384 N   0  0  0  0  0  0
   17.2682   -6.9522   15.8104 N   0  0  0  0  0  0
   17.7448   -9.2005   14.8915 C   0  0  0  0  0  0
   17.7016   -4.8160   11.3279 C   0  0  0  0  0  0
   16.3759   -7.3689   16.6220 C   0  0  0  0  0  0
   18.5449   -5.4493   12.1814 N   0  0  0  0  0  0
   17.9494   -6.3545   12.9045 C   0  0  0  0  0  0
   18.7440   -7.1652   13.9234 C   0  0  0  0  0  0
   16.7073   -9.6901   15.8981 C   0  0  0  0  0  0
   16.2283   -6.5152   12.5813 S   0  0  0  0  0  0
   18.0646   -3.7722   10.4626 C   0  0  0  0  0  0
   16.3574   -5.2627   11.3764 C   0  0  0  0  0  0
   16.0128   -8.7921   16.7358 C   0  0  0  0  0  0
   15.7262   -6.2882   17.4841 C   0  0  0  0  0  0
   16.3902   -6.0761   18.8507 C   0  0  0  0  0  0
   17.0572   -3.1802    9.7052 C   0  0  0  0  0  0
   18.3466   -9.9452   14.1104 O   0  0  0  0  0  0
   15.3683   -4.6981   10.5655 C   0  0  0  0  0  0
   15.7452   -5.7146   19.8243 O   0  0  0  0  0  0
   15.7456   -3.6430    9.7415 C   0  0  0  0  0  0
   19.3398   -3.3168   10.3880 F   0  0  0  0  0  0
   17.3454   -2.1146    8.9418 F   0  0  0  0  0  0
   17.7390   -6.2605   18.8675 O   0  0  0  0  0  0
   16.4275  -11.0616   15.9635 C   0  0  0  0  0  0
   15.0381   -9.2860   17.6185 C   0  0  0  0  0  0
   15.4602  -11.5389   16.8495 C   0  0  0  0  0  0
   14.7679  -10.6532   17.6719 C   0  0  0  0  0  0
   19.4642   -6.5379   14.4540 H   0  0  0  0  0  0
   19.3790   -7.8684   13.3805 H   0  0  0  0  0  0
   15.7443   -5.3234   16.9803 H   0  0  0  0  0  0
   14.6709   -6.5153   17.6338 H   0  0  0  0  0  0
   14.3421   -5.0400   10.5877 H   0  0  0  0  0  0
   14.9977   -3.1572    9.1307 H   0  0  0  0  0  0
   18.0874   -6.1373   19.7525 H   0  0  0  0  0  0
   16.9457  -11.7589   15.3227 H   0  0  0  0  0  0
   14.4883   -8.6272   18.2697 H   0  0  0  0  0  0
   15.2439  -12.5970   16.8948 H   0  0  0  0  0  0
   14.0149  -11.0277   18.3513 H   0  0  0  0  0  0
  1  2  1  0  0  0
  1  3  1  0  0  0
  1  8  1  0  0  0
  2  5  2  0  0  0
  3  9  1  0  0  0
  3 17  2  0  0  0
  4  6  1  0  0  0
  4 11  1  0  0  0
  4 12  2  0  0  0
  5 14  1  0  0  0
  5 13  1  0  0  0
  6  7  2  0  0  0
  7  8  1  0  0  0
  7 10  1  0  0  0
  8 28  1  0  0  0
  8 29  1  0  0  0
  9 13  1  0  0  0
  9 24  2  0  0  0
 10 12  1  0  0  0
 11 16  2  0  0  0
 11 21  1  0  0  0
 12 18  1  0  0  0
 13 25  2  0  0  0
 14 15  1  0  0  0
 14 30  1  0  0  0
 14 31  1  0  0  0
 15 19  2  0  0  0
 15 23  1  0  0  0
 16 22  1  0  0  0
 16 20  1  0  0  0
 18 20  2  0  0  0
 18 32  1  0  0  0
 20 33  1  0  0  0
 23 34  1  0  0  0
 24 26  1  0  0  0
 24 35  1  0  0  0
 25 27  1  0  0  0
 25 36  1  0  0  0
 26 27  2  0  0  0
 26 37  1  0  0  0
 27 38  1  0  0  0
M  END
> <s_m_entry_id>
6187

> <s_m_entry_name>
dock_pv.22

> <s_m_Source_Path>
/home/csk/Desktop/cluster/DUD-E-result/aldr

> <s_m_Source_File>
dock_pv.maegz

> <i_m_Source_File_Index>
22

> <chembl_id>
CHEMBL422927

> <chembl_pref_name>
None

> <i_lp_mmshare_version>
53161

> <i_f3d_flags>
0

> <r_lp_tautomer_probability>
1

> <s_lp_Force_Field>
OPLS_2005

> <r_lp_Energy>
27.89187

> <b_lp_Chiralities_Consistent>
1

> <s_lp_Variant>
CHEMBL1900_lig281-1

> <s_i_glide_gridfile>
glide-grid_2hv5

> <i_i_glide_lignum>
396

> <i_i_glide_rotatable_bonds>
5

> <r_i_docking_score>
-10.5976289099353

> <r_i_glide_ligand_efficiency>
-0.392504774442047

> <r_i_glide_ligand_efficiency_sa>
-1.17751432203251

> <r_i_glide_ligand_efficiency_ln>
-2.46695329466559

> <r_i_glide_gscore>
-10.5976289099353

> <r_i_glide_lipo>
-4.74005951530449

> <r_i_glide_hbond>
-0.32

> <r_i_glide_metal>
0

> <r_i_glide_rewards>
-2.72605281366558

> <r_i_glide_evdw>
-49.7028770446777

> <r_i_glide_ecoul>
-5.63655090332031

> <r_i_glide_erotb>
0.519109906766724

> <r_i_glide_esite>
0

> <r_i_glide_emodel>
-86.539100596446

> <r_i_glide_energy>
-55.339427947998

> <r_i_glide_einternal>
6.24355697631836

> <i_i_glide_confnum>
12

> <i_i_glide_posenum>
150

> <r_i_glide_eff_state_penalty>
0

> <s_user_duplicate_titles>
CHEMBL1900_lig281,24144

> <s_m_subgroup_title>
dock_pv

> <s_m_subgroupid>
dock_pv

> <b_m_subgroup_collapsed>
1

$$$$
CHEMBL1900_lig392
                    3D
 Schrodinger Suite 2021-1.
 37 40  0  0  1  0            999 V2000
   17.6922   -5.1573   11.6230 C   0  0  0  0  0  0
   16.5968   -7.9525   17.2300 N   0  0  0  0  0  0
   16.3680   -5.6495   11.6910 C   0  0  0  0  0  0
   18.5450   -5.7201   12.5178 N   0  0  0  0  0  0
   17.9046   -7.9885   15.3607 C   0  0  0  0  0  0
   17.9921   -6.6695   13.2223 C   0  0  0  0  0  0
   17.3357   -7.2103   16.3389 C   0  0  0  0  0  0
   17.4227   -9.3191   15.6187 C   0  0  0  0  0  0
   18.0255   -4.1576   10.6879 C   0  0  0  0  0  0
   16.2910   -6.9110   12.9015 S   0  0  0  0  0  0
   16.5734   -9.2598   16.7724 C   0  0  0  0  0  0
   15.3607   -5.1300   10.8784 C   0  0  0  0  0  0
   17.0127   -3.6566    9.8716 C   0  0  0  0  0  0
   15.7088   -4.1328    9.9705 C   0  0  0  0  0  0
   18.7821   -7.5037   14.2191 C   0  0  0  0  0  0
   15.8337   -7.4224   18.3689 C   0  0  0  0  0  0
   15.8993  -10.3910   17.2544 C   0  0  0  0  0  0
   16.4219   -6.2060   19.1023 C   0  0  0  0  0  0
   17.6046  -10.5552   14.9806 C   0  0  0  0  0  0
   15.7437   -5.4464   19.7809 O   0  0  0  0  0  0
   19.2853   -3.6738   10.5807 F   0  0  0  0  0  0
   14.0865   -5.5710   10.9732 F   0  0  0  0  0  0
   17.2922   -2.6795    8.9814 F   0  0  0  0  0  0
   16.9424  -11.6786   15.4676 C   0  0  0  0  0  0
   16.1043  -11.5911   16.5753 C   0  0  0  0  0  0
   17.7691   -6.1064   18.9811 O   0  0  0  0  0  0
   17.1085  -12.8674   14.8483 F   0  0  0  0  0  0
   17.4164   -6.1424   16.4749 H   0  0  0  0  0  0
   14.9466   -3.7186    9.3344 H   0  0  0  0  0  0
   19.6192   -6.9215   14.6120 H   0  0  0  0  0  0
   19.2408   -8.3471   13.7024 H   0  0  0  0  0  0
   14.8288   -7.1907   18.0169 H   0  0  0  0  0  0
   15.7453   -8.2158   19.1117 H   0  0  0  0  0  0
   15.2409  -10.3449   18.1099 H   0  0  0  0  0  0
   18.2341  -10.6392   14.1082 H   0  0  0  0  0  0
   15.5971  -12.4831   16.9121 H   0  0  0  0  0  0
   18.1517   -6.8275   18.4734 H   0  0  0  0  0  0
  1  3  2  0  0  0
  1  4  1  0  0  0
  1  9  1  0  0  0
  2  7  1  0  0  0
  2 16  1  0  0  0
  2 11  1  0  0  0
  3 10  1  0  0  0
  3 12  1  0  0  0
  4  6  2  0  0  0
  5 15  1  0  0  0
  5  7  2  0  0  0
  5  8  1  0  0  0
  6 15  1  0  0  0
  6 10  1  0  0  0
  7 28  1  0  0  0
  8 11  2  0  0  0
  8 19  1  0  0  0
  9 13  2  0  0  0
  9 21  1  0  0  0
 11 17  1  0  0  0
 12 22  1  0  0  0
 12 14  2  0  0  0
 13 14  1  0  0  0
 13 23  1  0  0  0
 14 29  1  0  0  0
 15 30  1  0  0  0
 15 31  1  0  0  0
 16 18  1  0  0  0
 16 32  1  0  0  0
 16 33  1  0  0  0
 17 25  2  0  0  0
 17 34  1  0  0  0
 18 20  2  0  0  0
 18 26  1  0  0  0
 19 24  2  0  0  0
 19 35  1  0  0  0
 24 25  1  0  0  0
 24 27  1  0  0  0
 25 36  1  0  0  0
 26 37  1  0  0  0
M  END
> <s_m_entry_id>
6188

> <s_m_entry_name>
dock_pv.23

> <s_m_Source_Path>
/home/csk/Desktop/cluster/DUD-E-result/aldr

> <s_m_Source_File>
dock_pv.maegz

> <i_m_Source_File_Index>
23

> <chembl_id>
CHEMBL193254

> <chembl_pref_name>
None

> <i_lp_mmshare_version>
53161

> <i_f3d_flags>
0

> <r_lp_tautomer_probability>
1

> <s_lp_Force_Field>
OPLS_2005

> <r_lp_Energy>
12.77047

> <b_lp_Chiralities_Consistent>
1

> <s_lp_Variant>
CHEMBL1900_lig392-1

> <s_i_glide_gridfile>
glide-grid_2hv5

> <i_i_glide_lignum>
513

> <i_i_glide_rotatable_bonds>
5

> <r_i_docking_score>
-10.5665484319585

> <r_i_glide_ligand_efficiency>
-0.391353645628091

> <r_i_glide_ligand_efficiency_sa>
-1.17406093559444

> <r_i_glide_ligand_efficiency_ln>
-2.45971827179431

> <r_i_glide_gscore>
-10.5665484319585

> <r_i_glide_lipo>
-4.47631864026549

> <r_i_glide_hbond>
-0.32

> <r_i_glide_metal>
0

> <r_i_glide_rewards>
-3.17526110293613

> <r_i_glide_evdw>
-42.5028076171875

> <r_i_glide_ecoul>
-6.2942967414856

> <r_i_glide_erotb>
0.502715114929376

> <r_i_glide_esite>
-0.0283989116040037

> <r_i_glide_emodel>
-75.1637913760752

> <r_i_glide_energy>
-48.7971043586731

> <r_i_glide_einternal>
6.4913592338562

> <i_i_glide_confnum>
21

> <i_i_glide_posenum>
125

> <r_i_glide_eff_state_penalty>
0

> <s_user_duplicate_titles>
CHEMBL1900_lig392,321644

> <s_m_subgroup_title>
dock_pv

> <s_m_subgroupid>
dock_pv

> <b_m_subgroup_collapsed>
1

$$$$
CHEMBL1900_lig400
                    3D
 Schrodinger Suite 2021-1.
 37 40  0  0  1  0            999 V2000
   17.6912   -5.1523   11.6153 C   0  0  0  0  0  0
   16.6263   -7.9918   17.2159 N   0  0  0  0  0  0
   16.3681   -5.6471   11.6899 C   0  0  0  0  0  0
   18.5451   -5.7150   12.5057 N   0  0  0  0  0  0
   17.9381   -7.9863   15.3489 C   0  0  0  0  0  0
   16.6407   -9.2972   16.7523 C   0  0  0  0  0  0
   17.9994   -6.6607   13.2155 C   0  0  0  0  0  0
   17.3439   -7.2249   16.3267 C   0  0  0  0  0  0
   18.0232   -4.1513   10.6845 C   0  0  0  0  0  0
   16.3003   -6.9110   12.8997 S   0  0  0  0  0  0
   17.4974   -9.3287   15.6034 C   0  0  0  0  0  0
   15.3589   -5.1252   10.8802 C   0  0  0  0  0  0
   17.0095   -3.6512    9.8694 C   0  0  0  0  0  0
   15.7069   -4.1305    9.9718 C   0  0  0  0  0  0
   18.8046   -7.4796   14.2116 C   0  0  0  0  0  0
   15.8491   -7.4852   18.3559 C   0  0  0  0  0  0
   15.9978  -10.4488   17.2296 C   0  0  0  0  0  0
   17.7205  -10.5575   14.9621 C   0  0  0  0  0  0
   16.4058   -6.2566   19.0982 C   0  0  0  0  0  0
   15.7082   -5.5201   19.7810 O   0  0  0  0  0  0
   19.2821   -3.6627   10.5800 F   0  0  0  0  0  0
   16.2445  -11.6428   16.5567 C   0  0  0  0  0  0
   14.0837   -5.5642   10.9805 F   0  0  0  0  0  0
   17.2860   -2.6709    8.9806 F   0  0  0  0  0  0
   17.0882  -11.7001   15.4509 C   0  0  0  0  0  0
   17.7480   -6.1143   18.9810 O   0  0  0  0  0  0
   15.6496  -12.7761   16.9922 F   0  0  0  0  0  0
   17.3965   -6.1567   16.4667 H   0  0  0  0  0  0
   14.9485   -3.7170    9.3327 H   0  0  0  0  0  0
   19.6270   -6.8821   14.6087 H   0  0  0  0  0  0
   19.2833   -8.3115   13.6946 H   0  0  0  0  0  0
   14.8387   -7.2749   18.0034 H   0  0  0  0  0  0
   15.7751   -8.2862   19.0924 H   0  0  0  0  0  0
   15.3378  -10.4284   18.0832 H   0  0  0  0  0  0
   18.3560  -10.6154   14.0909 H   0  0  0  0  0  0
   17.2469  -12.6493   14.9593 H   0  0  0  0  0  0
   18.1575   -6.8350   18.4984 H   0  0  0  0  0  0
  1  3  2  0  0  0
  1  4  1  0  0  0
  1  9  1  0  0  0
  2  8  1  0  0  0
  2 16  1  0  0  0
  2  6  1  0  0  0
  3 10  1  0  0  0
  3 12  1  0  0  0
  4  7  2  0  0  0
  5 15  1  0  0  0
  5  8  2  0  0  0
  5 11  1  0  0  0
  6 11  2  0  0  0
  6 17  1  0  0  0
  7 15  1  0  0  0
  7 10  1  0  0  0
  8 28  1  0  0  0
  9 13  2  0  0  0
  9 21  1  0  0  0
 11 18  1  0  0  0
 12 23  1  0  0  0
 12 14  2  0  0  0
 13 14  1  0  0  0
 13 24  1  0  0  0
 14 29  1  0  0  0
 15 30  1  0  0  0
 15 31  1  0  0  0
 16 19  1  0  0  0
 16 32  1  0  0  0
 16 33  1  0  0  0
 17 22  2  0  0  0
 17 34  1  0  0  0
 18 25  2  0  0  0
 18 35  1  0  0  0
 19 20  2  0  0  0
 19 26  1  0  0  0
 22 25  1  0  0  0
 22 27  1  0  0  0
 25 36  1  0  0  0
 26 37  1  0  0  0
M  END
> <s_m_entry_id>
6189

> <s_m_entry_name>
dock_pv.24

> <s_m_Source_Path>
/home/csk/Desktop/cluster/DUD-E-result/aldr

> <s_m_Source_File>
dock_pv.maegz

> <i_m_Source_File_Index>
24

> <chembl_id>
CHEMBL371991

> <chembl_pref_name>
None

> <i_lp_mmshare_version>
53161

> <i_f3d_flags>
0

> <r_lp_tautomer_probability>
1

> <s_lp_Force_Field>
OPLS_2005

> <r_lp_Energy>
12.295528

> <b_lp_Chiralities_Consistent>
1

> <s_lp_Variant>
CHEMBL1900_lig400-1

> <s_i_glide_gridfile>
glide-grid_2hv5

> <i_i_glide_lignum>
521

> <i_i_glide_rotatable_bonds>
5

> <r_i_docking_score>
-10.5626663634353

> <r_i_glide_ligand_efficiency>
-0.391209865312418

> <r_i_glide_ligand_efficiency_sa>
-1.17362959464789

> <r_i_glide_ligand_efficiency_ln>
-2.45881459024302

> <r_i_glide_gscore>
-10.5626663634353

> <r_i_glide_lipo>
-4.41330535509786

> <r_i_glide_hbond>
-0.32

> <r_i_glide_metal>
0

> <r_i_glide_rewards>
-3.18606543751649

> <r_i_glide_evdw>
-42.1253623962402

> <r_i_glide_ecoul>
-6.75760698318481

> <r_i_glide_erotb>
0.502715114929376

> <r_i_glide_esite>
-0.0261015184605762

> <r_i_glide_emodel>
-75.3887235600887

> <r_i_glide_energy>
-48.882969379425

> <r_i_glide_einternal>
6.78556299209595

> <i_i_glide_confnum>
11

> <i_i_glide_posenum>
172

> <r_i_glide_eff_state_penalty>
0

> <s_user_duplicate_titles>
CHEMBL1900_lig400,321611

> <s_m_subgroup_title>
dock_pv

> <s_m_subgroupid>
dock_pv

> <b_m_subgroup_collapsed>
1

$$$$
CHEMBL1900_lig65
                    3D
 Schrodinger Suite 2021-1.
 41 44  0  0  1  0            999 V2000
   17.8626   -9.9685   14.7388 C   0  0  0  0  0  0
   18.3158  -10.4910   13.7158 O   0  0  0  0  0  0
   16.8878  -10.6556   15.6886 C   0  0  0  0  0  0
   16.3337   -9.9766   16.7972 C   0  0  0  0  0  0
   16.8585   -8.6230   17.0666 C   0  0  0  0  0  0
   16.5024  -11.9731   15.4115 C   0  0  0  0  0  0
   15.5354  -12.5986   16.1972 C   0  0  0  0  0  0
   14.9454  -11.9140   17.2580 C   0  0  0  0  0  0
   15.3389  -10.6101   17.5584 C   0  0  0  0  0  0
   18.1450   -8.6783   15.1412 N   0  0  0  0  0  0
   17.7278   -8.0680   16.3104 N   0  0  0  0  0  0
   18.9168   -7.7919   14.2434 C   0  0  0  0  0  0
   18.0358   -6.8843   13.3984 C   0  0  0  0  0  0
   16.2594   -5.8112   12.0958 C   0  0  0  0  0  0
   17.5835   -5.3893   11.8409 C   0  0  0  0  0  0
   15.1677   -5.3150   11.3810 C   0  0  0  0  0  0
   15.4221   -4.2967   10.4696 C   0  0  0  0  0  0
   16.7133   -3.7970   10.2664 C   0  0  0  0  0  0
   17.8163   -4.3808   10.9034 C   0  0  0  0  0  0
   18.5438   -6.0056   12.5811 N   0  0  0  0  0  0
   16.2858   -6.9150   13.4292 S   0  0  0  0  0  0
   16.5069   -7.8326   18.3339 C   0  0  0  0  0  0
   15.9452   -6.4320   18.0528 C   0  0  0  0  0  0
   15.3449   -6.1149   17.0252 O   0  0  0  0  0  0
   16.1441   -5.6084   19.1221 O   0  0  0  0  0  0
   16.8887   -2.5673    9.3982 C   0  0  0  0  0  0
   16.0790   -1.5840    9.7810 F   0  0  0  0  0  0
   18.1438   -2.1153    9.3978 F   0  0  0  0  0  0
   16.5463   -2.9147    8.1790 F   0  0  0  0  0  0
   16.9230  -12.5073   14.5704 H   0  0  0  0  0  0
   15.2287  -13.6094   15.9703 H   0  0  0  0  0  0
   14.1782  -12.3957   17.8490 H   0  0  0  0  0  0
   14.8547  -10.1225   18.3903 H   0  0  0  0  0  0
   19.6216   -7.2084   14.8383 H   0  0  0  0  0  0
   19.5664   -8.3649   13.5788 H   0  0  0  0  0  0
   14.1582   -5.6468   11.5831 H   0  0  0  0  0  0
   14.5859   -3.8433    9.9550 H   0  0  0  0  0  0
   18.8168   -4.0157   10.7382 H   0  0  0  0  0  0
   15.8010   -8.3505   18.9774 H   0  0  0  0  0  0
   17.4150   -7.7151   18.9230 H   0  0  0  0  0  0
   16.6934   -6.0172   19.7938 H   0  0  0  0  0  0
  1  2  2  0  0  0
  1  3  1  0  0  0
  1 10  1  0  0  0
  3  4  2  0  0  0
  3  6  1  0  0  0
  4  5  1  0  0  0
  4  9  1  0  0  0
  5 11  2  0  0  0
  5 22  1  0  0  0
  6  7  2  0  0  0
  6 30  1  0  0  0
  7  8  1  0  0  0
  7 31  1  0  0  0
  8  9  2  0  0  0
  8 32  1  0  0  0
  9 33  1  0  0  0
 10 11  1  0  0  0
 10 12  1  0  0  0
 12 13  1  0  0  0
 12 34  1  0  0  0
 12 35  1  0  0  0
 13 20  2  0  0  0
 13 21  1  0  0  0
 14 15  2  0  0  0
 14 16  1  0  0  0
 14 21  1  0  0  0
 15 19  1  0  0  0
 15 20  1  0  0  0
 16 17  2  0  0  0
 16 36  1  0  0  0
 17 18  1  0  0  0
 17 37  1  0  0  0
 18 19  2  0  0  0
 18 26  1  0  0  0
 19 38  1  0  0  0
 22 23  1  0  0  0
 22 39  1  0  0  0
 22 40  1  0  0  0
 23 24  2  0  0  0
 23 25  1  0  0  0
 25 41  1  0  0  0
 26 27  1  0  0  0
 26 28  1  0  0  0
 26 29  1  0  0  0
M  END
> <s_m_entry_id>
6190

> <s_m_entry_name>
dock_pv.25

> <s_m_Source_Path>
/home/csk/Desktop/cluster/DUD-E-result/aldr

> <s_m_Source_File>
dock_pv.maegz

> <i_m_Source_File_Index>
25

> <chembl_id>
CHEMBL10372

> <chembl_pref_name>
ZOPOLRESTAT

> <i_lp_mmshare_version>
53161

> <i_f3d_flags>
0

> <r_lp_tautomer_probability>
1

> <s_lp_Force_Field>
OPLS_2005

> <r_lp_Energy>
25.463233

> <b_lp_Chiralities_Consistent>
1

> <s_lp_Variant>
CHEMBL1900_lig65-1

> <s_i_glide_gridfile>
glide-grid_2hv5

> <i_i_glide_lignum>
100

> <i_i_glide_rotatable_bonds>
6

> <r_i_docking_score>
-10.5284618583753

> <r_i_glide_ligand_efficiency>
-0.363050408909494

> <r_i_glide_ligand_efficiency_sa>
-1.1154058786128

> <r_i_glide_ligand_efficiency_ln>
-2.41075078681078

> <r_i_glide_gscore>
-10.5284618583753

> <r_i_glide_lipo>
-4.75888885102742

> <r_i_glide_hbond>
-0.287860644816596

> <r_i_glide_metal>
0

> <r_i_glide_rewards>
-2.87268252333738

> <r_i_glide_evdw>
-45.2429122924805

> <r_i_glide_ecoul>
-5.3120379447937

> <r_i_glide_erotb>
0.449921467149157

> <r_i_glide_esite>
0

> <r_i_glide_emodel>
-74.3775555232411

> <r_i_glide_energy>
-50.5549502372742

> <r_i_glide_einternal>
5.13685274124146

> <i_i_glide_confnum>
3

> <i_i_glide_posenum>
262

> <r_i_glide_eff_state_penalty>
0

> <s_user_duplicate_titles>
CHEMBL1900_lig65,7502

> <s_m_subgroup_title>
dock_pv

> <s_m_subgroupid>
dock_pv

> <b_m_subgroup_collapsed>
1

$$$$
CHEMBL1900_lig248
                    3D
 Schrodinger Suite 2021-1.
 47 51  0  0  1  0            999 V2000
   18.1449   -8.2251   15.3839 N   0  0  0  0  0  0
   17.5998   -7.5410   16.4603 N   0  0  0  0  0  0
   17.8872   -9.5367   15.0241 C   0  0  0  0  0  0
   16.5779   -8.0130   17.0644 C   0  0  0  0  0  0
   17.8774   -6.6589   13.4615 C   0  0  0  0  0  0
   18.2579   -5.8100   12.5453 N   0  0  0  0  0  0
   17.2030   -5.4042   11.7825 C   0  0  0  0  0  0
   16.8351  -10.1952   15.9319 C   0  0  0  0  0  0
   18.8486   -7.3477   14.4178 C   0  0  0  0  0  0
   16.1451   -6.9150   13.5274 S   0  0  0  0  0  0
   16.1719   -9.4224   16.9197 C   0  0  0  0  0  0
   15.9578   -5.9824   12.0958 C   0  0  0  0  0  0
   15.7112   -6.9728   17.7989 C   0  0  0  0  0  0
   17.2485   -4.3938   10.7901 C   0  0  0  0  0  0
   16.3917   -6.1829   18.9358 C   0  0  0  0  0  0
   18.4091  -10.0626   14.0374 O   0  0  0  0  0  0
   16.4912  -11.5646   15.7826 C   0  0  0  0  0  0
   14.7950   -5.7150   11.3812 C   0  0  0  0  0  0
   16.0516   -4.0651   10.0961 C   0  0  0  0  0  0
   15.7449   -5.6302   19.8156 O   0  0  0  0  0  0
   14.8648   -4.7641   10.3782 C   0  0  0  0  0  0
   17.7450   -6.1149   18.8485 O   0  0  0  0  0  0
   15.2509  -10.0315   17.7810 C   0  0  0  0  0  0
   18.4118   -3.6319   10.5394 C   0  0  0  0  0  0
   14.9221  -11.3720   17.6258 C   0  0  0  0  0  0
   15.5313  -12.1267   16.6308 C   0  0  0  0  0  0
   17.1279  -12.4970   14.7522 C   0  0  0  0  0  0
   16.0620   -3.0095    9.1737 C   0  0  0  0  0  0
   18.3274   -2.4746    9.7809 C   0  0  0  0  0  0
   17.1667   -2.1858    9.0704 C   0  0  0  0  0  0
   19.4556   -6.6246   14.9665 H   0  0  0  0  0  0
   19.5869   -7.9083   13.8392 H   0  0  0  0  0  0
   15.3776   -6.2318   17.0730 H   0  0  0  0  0  0
   14.7893   -7.4026   18.1811 H   0  0  0  0  0  0
   13.8527   -6.1776   11.6366 H   0  0  0  0  0  0
   13.9664   -4.5150    9.8391 H   0  0  0  0  0  0
   18.0457   -6.5659   18.0510 H   0  0  0  0  0  0
   14.7742   -9.4890   18.5828 H   0  0  0  0  0  0
   19.3450   -3.9048   10.9811 H   0  0  0  0  0  0
   14.1917  -11.8294   18.2794 H   0  0  0  0  0  0
   15.2570  -13.1675   16.5321 H   0  0  0  0  0  0
   16.9448  -12.1363   13.7396 H   0  0  0  0  0  0
   18.2078  -12.5401   14.8967 H   0  0  0  0  0  0
   16.7469  -13.5174   14.8129 H   0  0  0  0  0  0
   15.1761   -2.8166    8.5974 H   0  0  0  0  0  0
   19.1888   -1.8300    9.6912 H   0  0  0  0  0  0
   17.1055   -1.3335    8.4112 H   0  0  0  0  0  0
  1  2  1  0  0  0
  1  3  1  0  0  0
  1  9  1  0  0  0
  2  4  2  0  0  0
  3  8  1  0  0  0
  3 16  2  0  0  0
  4 13  1  0  0  0
  4 11  1  0  0  0
  5  9  1  0  0  0
  5  6  2  0  0  0
  5 10  1  0  0  0
  6  7  1  0  0  0
  7 14  1  0  0  0
  7 12  2  0  0  0
  8 11  1  0  0  0
  8 17  2  0  0  0
  9 31  1  0  0  0
  9 32  1  0  0  0
 10 12  1  0  0  0
 11 23  2  0  0  0
 12 18  1  0  0  0
 13 15  1  0  0  0
 13 33  1  0  0  0
 13 34  1  0  0  0
 14 19  1  0  0  0
 14 24  2  0  0  0
 15 20  2  0  0  0
 15 22  1  0  0  0
 17 26  1  0  0  0
 17 27  1  0  0  0
 18 21  2  0  0  0
 18 35  1  0  0  0
 19 28  2  0  0  0
 19 21  1  0  0  0
 21 36  1  0  0  0
 22 37  1  0  0  0
 23 25  1  0  0  0
 23 38  1  0  0  0
 24 29  1  0  0  0
 24 39  1  0  0  0
 25 26  2  0  0  0
 25 40  1  0  0  0
 26 41  1  0  0  0
 27 42  1  0  0  0
 27 43  1  0  0  0
 27 44  1  0  0  0
 28 30  1  0  0  0
 28 45  1  0  0  0
 29 30  2  0  0  0
 29 46  1  0  0  0
 30 47  1  0  0  0
M  END
> <s_m_entry_id>
6191

> <s_m_entry_name>
dock_pv.26

> <s_m_Source_Path>
/home/csk/Desktop/cluster/DUD-E-result/aldr

> <s_m_Source_File>
dock_pv.maegz

> <i_m_Source_File_Index>
26

> <chembl_id>
CHEMBL20304

> <chembl_pref_name>
None

> <i_lp_mmshare_version>
53161

> <i_f3d_flags>
0

> <r_lp_tautomer_probability>
1

> <s_lp_Force_Field>
OPLS_2005

> <r_lp_Energy>
43.103464

> <b_lp_Chiralities_Consistent>
1

> <s_lp_Variant>
CHEMBL1900_lig248-1

> <s_i_glide_gridfile>
glide-grid_2hv5

> <i_i_glide_lignum>
361

> <i_i_glide_rotatable_bonds>
5

> <r_i_docking_score>
-10.4990416656524

> <r_i_glide_ligand_efficiency>
-0.349968055521746

> <r_i_glide_ligand_efficiency_sa>
-1.08743211692978

> <r_i_glide_ligand_efficiency_ln>
-2.38549666265758

> <r_i_glide_gscore>
-10.4990416656524

> <r_i_glide_lipo>
-5.79065522529807

> <r_i_glide_hbond>
-0.32

> <r_i_glide_metal>
0

> <r_i_glide_rewards>
-2.08548223414938

> <r_i_glide_evdw>
-46.1426544189453

> <r_i_glide_ecoul>
-3.02251672744751

> <r_i_glide_erotb>
0.457606023859476

> <r_i_glide_esite>
0

> <r_i_glide_emodel>
-61.2443447490858

> <r_i_glide_energy>
-49.1651711463928

> <r_i_glide_einternal>
4.61876487731934

> <i_i_glide_confnum>
10

> <i_i_glide_posenum>
174

> <r_i_glide_eff_state_penalty>
0

> <s_user_duplicate_titles>
CHEMBL1900_lig248,23925

> <s_m_subgroup_title>
dock_pv

> <s_m_subgroupid>
dock_pv

> <b_m_subgroup_collapsed>
1

$$$$
CHEMBL1900_lig238
                    3D
 Schrodinger Suite 2021-1.
 39 42  0  0  1  0            999 V2000
   17.9561   -7.7361   14.9427 N   0  0  0  0  0  0
   17.3568   -6.9151   15.8910 N   0  0  0  0  0  0
   17.7451   -9.0942   14.7813 C   0  0  0  0  0  0
   16.4253   -7.3621   16.6426 C   0  0  0  0  0  0
   17.9742   -6.2667   12.8953 C   0  0  0  0  0  0
   18.5450   -5.3616   12.1501 N   0  0  0  0  0  0
   17.7063   -4.8040   11.2359 C   0  0  0  0  0  0
   18.7820   -7.0160   13.9520 C   0  0  0  0  0  0
   16.7291   -9.6375   15.7824 C   0  0  0  0  0  0
   16.2704   -6.5148   12.5519 S   0  0  0  0  0  0
   16.0679   -8.7880   16.6941 C   0  0  0  0  0  0
   15.7151   -6.3106   17.4972 C   0  0  0  0  0  0
   16.3750   -5.2856   11.3026 C   0  0  0  0  0  0
   16.3885   -6.0410   18.8487 C   0  0  0  0  0  0
   18.2895   -9.7829   13.9135 O   0  0  0  0  0  0
   18.0461   -3.8105   10.2880 C   0  0  0  0  0  0
   15.7450   -5.7141   19.8365 O   0  0  0  0  0  0
   17.7450   -6.1147   18.8148 O   0  0  0  0  0  0
   19.3163   -3.3035   10.1810 O   0  0  0  0  0  0
   16.4448  -11.0095   15.7806 C   0  0  0  0  0  0
   15.3786   -4.7780   10.4619 C   0  0  0  0  0  0
   15.1747   -9.3370   17.6252 C   0  0  0  0  0  0
   15.7446   -3.7975    9.5387 C   0  0  0  0  0  0
   17.0472   -3.3200    9.4509 C   0  0  0  0  0  0
   15.5330  -11.5387   16.6939 C   0  0  0  0  0  0
   14.9048  -10.7049   17.6173 C   0  0  0  0  0  0
   19.4508   -6.3413   14.4895 H   0  0  0  0  0  0
   19.4722   -7.6866   13.4366 H   0  0  0  0  0  0
   15.6784   -5.3544   16.9754 H   0  0  0  0  0  0
   14.6754   -6.5857   17.6657 H   0  0  0  0  0  0
   18.0644   -6.3102   17.9293 H   0  0  0  0  0  0
   19.3444   -2.5134    9.6364 H   0  0  0  0  0  0
   16.9292  -11.6720   15.0755 H   0  0  0  0  0  0
   14.3581   -5.1308   10.5262 H   0  0  0  0  0  0
   14.6760   -8.7216   18.3582 H   0  0  0  0  0  0
   14.9903   -3.3937    8.8803 H   0  0  0  0  0  0
   17.2768   -2.5575    8.7202 H   0  0  0  0  0  0
   15.3151  -12.5978   16.6894 H   0  0  0  0  0  0
   14.1998  -11.1209   18.3250 H   0  0  0  0  0  0
  1  2  1  0  0  0
  1  3  1  0  0  0
  1  8  1  0  0  0
  2  4  2  0  0  0
  3  9  1  0  0  0
  3 15  2  0  0  0
  4 12  1  0  0  0
  4 11  1  0  0  0
  5  8  1  0  0  0
  5  6  2  0  0  0
  5 10  1  0  0  0
  6  7  1  0  0  0
  7 16  1  0  0  0
  7 13  2  0  0  0
  8 27  1  0  0  0
  8 28  1  0  0  0
  9 11  1  0  0  0
  9 20  2  0  0  0
 10 13  1  0  0  0
 11 22  2  0  0  0
 12 14  1  0  0  0
 12 29  1  0  0  0
 12 30  1  0  0  0
 13 21  1  0  0  0
 14 17  2  0  0  0
 14 18  1  0  0  0
 16 19  1  0  0  0
 16 24  2  0  0  0
 18 31  1  0  0  0
 19 32  1  0  0  0
 20 25  1  0  0  0
 20 33  1  0  0  0
 21 23  2  0  0  0
 21 34  1  0  0  0
 22 26  1  0  0  0
 22 35  1  0  0  0
 23 24  1  0  0  0
 23 36  1  0  0  0
 24 37  1  0  0  0
 25 26  2  0  0  0
 25 38  1  0  0  0
 26 39  1  0  0  0
M  END
> <s_m_entry_id>
6192

> <s_m_entry_name>
dock_pv.27

> <s_m_Source_Path>
/home/csk/Desktop/cluster/DUD-E-result/aldr

> <s_m_Source_File>
dock_pv.maegz

> <i_m_Source_File_Index>
27

> <chembl_id>
CHEMBL20441

> <chembl_pref_name>
None

> <i_lp_mmshare_version>
53161

> <i_f3d_flags>
0

> <r_lp_tautomer_probability>
1

> <s_lp_Force_Field>
OPLS_2005

> <r_lp_Energy>
28.277955

> <b_lp_Chiralities_Consistent>
1

> <s_lp_Variant>
CHEMBL1900_lig238-1

> <s_i_glide_gridfile>
glide-grid_2hv5

> <i_i_glide_lignum>
349

> <i_i_glide_rotatable_bonds>
6

> <r_i_docking_score>
-10.4966545815673

> <r_i_glide_ligand_efficiency>
-0.403717483906434

> <r_i_glide_ligand_efficiency_sa>
-1.19601145752122

> <r_i_glide_ligand_efficiency_ln>
-2.46510488614815

> <r_i_glide_gscore>
-10.4966545815673

> <r_i_glide_lipo>
-4.74623724064867

> <r_i_glide_hbond>
-0.470066224151603

> <r_i_glide_metal>
0

> <r_i_glide_rewards>
-2.54688599261379

> <r_i_glide_evdw>
-50.1321983337402

> <r_i_glide_ecoul>
-5.31732892990112

> <r_i_glide_erotb>
0.570744132018944

> <r_i_glide_esite>
0

> <r_i_glide_emodel>
-87.1432783442719

> <r_i_glide_energy>
-55.4495272636414

> <r_i_glide_einternal>
3.35640239715576

> <i_i_glide_confnum>
36

> <i_i_glide_posenum>
121

> <r_i_glide_eff_state_penalty>
0

> <s_user_duplicate_titles>
CHEMBL1900_lig238,24350

> <s_m_subgroup_title>
dock_pv

> <s_m_subgroupid>
dock_pv

> <b_m_subgroup_collapsed>
1

$$$$
CHEMBL1900_lig387
                    3D
 Schrodinger Suite 2021-1.
 37 40  0  0  1  0            999 V2000
   15.9988  -10.4341   17.2756 C   0  0  0  0  0  0
   17.7175  -10.5647   15.0049 C   0  0  0  0  0  0
   16.6355   -9.2870   16.7847 C   0  0  0  0  0  0
   16.2516  -11.6351   16.6138 C   0  0  0  0  0  0
   17.0942  -11.7032   15.5082 C   0  0  0  0  0  0
   17.4903   -9.3295   15.6344 C   0  0  0  0  0  0
   17.9319   -7.9889   15.3656 C   0  0  0  0  0  0
   17.9963   -6.6640   13.2297 C   0  0  0  0  0  0
   16.2919   -6.9028   12.9211 S   0  0  0  0  0  0
   16.6182   -7.9725   17.2289 N   0  0  0  0  0  0
   17.3413   -7.2175   16.3360 C   0  0  0  0  0  0
   18.7961   -7.4943   14.2214 C   0  0  0  0  0  0
   14.0843   -5.5751   10.9796 F   0  0  0  0  0  0
   15.8403   -7.4466   18.3602 C   0  0  0  0  0  0
   19.2849   -3.6822   10.5787 F   0  0  0  0  0  0
   17.2900   -2.6884    8.9805 F   0  0  0  0  0  0
   17.6893   -5.1595   11.6244 C   0  0  0  0  0  0
   15.7072   -4.1376    9.9749 C   0  0  0  0  0  0
   18.0241   -4.1633   10.6886 C   0  0  0  0  0  0
   16.3660   -5.6500   11.7000 C   0  0  0  0  0  0
   15.3570   -5.1325   10.8859 C   0  0  0  0  0  0
   17.0104   -3.6635    9.8728 C   0  0  0  0  0  0
   16.4216   -6.2268   19.0986 C   0  0  0  0  0  0
   15.7440   -5.4715   19.7810 O   0  0  0  0  0  0
   17.7653   -6.1141   18.9808 O   0  0  0  0  0  0
   18.5451   -5.7226   12.5169 N   0  0  0  0  0  0
   15.3425  -10.4045   18.1327 H   0  0  0  0  0  0
   18.3534  -10.6320   14.1352 H   0  0  0  0  0  0
   15.7798  -12.5407   16.9663 H   0  0  0  0  0  0
   17.2571  -12.6570   15.0284 H   0  0  0  0  0  0
   17.3968   -6.1485   16.4663 H   0  0  0  0  0  0
   19.6315   -6.9103   14.6136 H   0  0  0  0  0  0
   19.2558   -8.3339   13.7000 H   0  0  0  0  0  0
   14.8394   -7.2141   17.9954 H   0  0  0  0  0  0
   15.7450   -8.2444   19.0972 H   0  0  0  0  0  0
   14.9474   -3.7223    9.3386 H   0  0  0  0  0  0
   18.1501   -6.8324   18.4730 H   0  0  0  0  0  0
  1  3  1  0  0  0
  1  4  2  0  0  0
  1 27  1  0  0  0
  2  5  2  0  0  0
  2  6  1  0  0  0
  2 28  1  0  0  0
  3  6  2  0  0  0
  3 10  1  0  0  0
  4  5  1  0  0  0
  4 29  1  0  0  0
  5 30  1  0  0  0
  6  7  1  0  0  0
  7 11  2  0  0  0
  7 12  1  0  0  0
  8  9  1  0  0  0
  8 12  1  0  0  0
  8 26  2  0  0  0
  9 20  1  0  0  0
 10 11  1  0  0  0
 10 14  1  0  0  0
 11 31  1  0  0  0
 12 32  1  0  0  0
 12 33  1  0  0  0
 13 21  1  0  0  0
 14 23  1  0  0  0
 14 34  1  0  0  0
 14 35  1  0  0  0
 15 19  1  0  0  0
 16 22  1  0  0  0
 17 19  1  0  0  0
 17 20  2  0  0  0
 17 26  1  0  0  0
 18 21  2  0  0  0
 18 22  1  0  0  0
 18 36  1  0  0  0
 19 22  2  0  0  0
 20 21  1  0  0  0
 23 24  2  0  0  0
 23 25  1  0  0  0
 25 37  1  0  0  0
M  END
> <s_m_entry_id>
6193

> <s_m_entry_name>
dock_pv.28

> <s_m_Source_Path>
/home/csk/Desktop/cluster/DUD-E-result/aldr

> <s_m_Source_File>
dock_pv.maegz

> <i_m_Source_File_Index>
28

> <chembl_id>
CHEMBL363387

> <chembl_pref_name>
LIDORESTAT

> <i_lp_mmshare_version>
53161

> <i_f3d_flags>
0

> <r_lp_tautomer_probability>
1

> <s_lp_Force_Field>
OPLS_2005

> <r_lp_Energy>
11.981728

> <b_lp_Chiralities_Consistent>
1

> <s_lp_Variant>
CHEMBL1900_lig387-1

> <s_i_glide_gridfile>
glide-grid_2hv5

> <i_i_glide_lignum>
508

> <i_i_glide_rotatable_bonds>
5

> <r_i_docking_score>
-10.4919827492324

> <r_i_glide_ligand_efficiency>
-0.403537798047399

> <r_i_glide_ligand_efficiency_sa>
-1.19547913887086

> <r_i_glide_ligand_efficiency_ln>
-2.46400772165383

> <r_i_glide_gscore>
-10.4919827492324

> <r_i_glide_lipo>
-4.40196947381728

> <r_i_glide_hbond>
-0.32

> <r_i_glide_metal>
0

> <r_i_glide_rewards>
-3.22816196914219

> <r_i_glide_evdw>
-42.1576538085938

> <r_i_glide_ecoul>
-6.33932685852051

> <r_i_glide_erotb>
0.546639572208963

> <r_i_glide_esite>
-0.0297091592741006

> <r_i_glide_emodel>
-74.7278083655116

> <r_i_glide_energy>
-48.4969806671143

> <r_i_glide_einternal>
6.32803010940552

> <i_i_glide_confnum>
11

> <i_i_glide_posenum>
85

> <r_i_glide_eff_state_penalty>
0

> <s_user_duplicate_titles>
CHEMBL1900_lig387,321640

> <s_m_subgroup_title>
dock_pv

> <s_m_subgroupid>
dock_pv

> <b_m_subgroup_collapsed>
1

$$$$
CHEMBL1900_lig268
                    3D
 Schrodinger Suite 2021-1.
 41 44  0  0  1  0            999 V2000
   18.1501   -8.6311   15.1903 N   0  0  0  0  0  0
   17.7434   -8.0480   16.3732 N   0  0  0  0  0  0
   17.8681   -9.9140   14.7629 C   0  0  0  0  0  0
   16.8576   -8.6079   17.1054 C   0  0  0  0  0  0
   18.0648   -6.8189   13.4624 C   0  0  0  0  0  0
   18.5691   -5.8961   12.6933 N   0  0  0  0  0  0
   16.3370   -5.8213   12.0646 C   0  0  0  0  0  0
   17.6370   -5.3149   11.9003 C   0  0  0  0  0  0
   16.3270   -6.9150   13.4073 S   0  0  0  0  0  0
   18.9339   -7.7260   14.3192 C   0  0  0  0  0  0
   16.8935  -10.6196   15.6992 C   0  0  0  0  0  0
   16.9039   -2.5598    9.3827 C   0  0  0  0  0  0
   16.3332   -9.9573   16.8144 C   0  0  0  0  0  0
   16.4753   -7.8212   18.3645 C   0  0  0  0  0  0
   16.7742   -3.7820   10.2596 C   0  0  0  0  0  0
   15.2868   -5.4038   11.2578 C   0  0  0  0  0  0
   17.8685   -4.2862   10.9806 C   0  0  0  0  0  0
   15.5175   -4.3745   10.3638 C   0  0  0  0  0  0
   15.9347   -6.4188   18.0651 C   0  0  0  0  0  0
   18.3233  -10.4148   13.7298 O   0  0  0  0  0  0
   15.3449   -6.1136   17.0292 O   0  0  0  0  0  0
   16.0793   -1.5954    9.7809 F   0  0  0  0  0  0
   18.1458   -2.0919    9.3814 F   0  0  0  0  0  0
   16.5592   -2.9127    8.1618 F   0  0  0  0  0  0
   13.7448   -6.1192   11.3807 Cl  0  0  0  0  0  0
   16.1449   -5.5811   19.1187 O   0  0  0  0  0  0
   16.5153  -11.9347   15.4044 C   0  0  0  0  0  0
   15.3410  -10.6065   17.5659 C   0  0  0  0  0  0
   15.5510  -12.5760   16.1814 C   0  0  0  0  0  0
   14.9546  -11.9076   17.2487 C   0  0  0  0  0  0
   19.6252   -7.1439   14.9316 H   0  0  0  0  0  0
   19.5957   -8.2930   13.6607 H   0  0  0  0  0  0
   15.7459   -8.3368   18.9814 H   0  0  0  0  0  0
   17.3652   -7.7149   18.9806 H   0  0  0  0  0  0
   18.8530   -3.8574   10.8842 H   0  0  0  0  0  0
   14.6889   -3.9997    9.7810 H   0  0  0  0  0  0
   16.6833   -5.9859   19.8009 H   0  0  0  0  0  0
   16.9433  -12.4570   14.5593 H   0  0  0  0  0  0
   14.8565  -10.1344   18.4074 H   0  0  0  0  0  0
   15.2509  -13.5850   15.9414 H   0  0  0  0  0  0
   14.1888  -12.3982   17.8335 H   0  0  0  0  0  0
  1  2  1  0  0  0
  1  3  1  0  0  0
  1 10  1  0  0  0
  2  4  2  0  0  0
  3 11  1  0  0  0
  3 20  2  0  0  0
  4 14  1  0  0  0
  4 13  1  0  0  0
  5 10  1  0  0  0
  5  6  2  0  0  0
  5  9  1  0  0  0
  6  8  1  0  0  0
  7  9  1  0  0  0
  7 16  1  0  0  0
  7  8  2  0  0  0
  8 17  1  0  0  0
 10 31  1  0  0  0
 10 32  1  0  0  0
 11 13  1  0  0  0
 11 27  2  0  0  0
 12 15  1  0  0  0
 12 22  1  0  0  0
 12 23  1  0  0  0
 12 24  1  0  0  0
 13 28  2  0  0  0
 14 19  1  0  0  0
 14 33  1  0  0  0
 14 34  1  0  0  0
 15 17  2  0  0  0
 15 18  1  0  0  0
 16 18  2  0  0  0
 16 25  1  0  0  0
 17 35  1  0  0  0
 18 36  1  0  0  0
 19 21  2  0  0  0
 19 26  1  0  0  0
 26 37  1  0  0  0
 27 29  1  0  0  0
 27 38  1  0  0  0
 28 30  1  0  0  0
 28 39  1  0  0  0
 29 30  2  0  0  0
 29 40  1  0  0  0
 30 41  1  0  0  0
M  END
> <s_m_entry_id>
6194

> <s_m_entry_name>
dock_pv.29

> <s_m_Source_Path>
/home/csk/Desktop/cluster/DUD-E-result/aldr

> <s_m_Source_File>
dock_pv.maegz

> <i_m_Source_File_Index>
29

> <chembl_id>
CHEMBL19893

> <chembl_pref_name>
None

> <i_lp_mmshare_version>
53161

> <i_f3d_flags>
0

> <r_lp_tautomer_probability>
1

> <s_lp_Force_Field>
OPLS_2005

> <r_lp_Energy>
23.569505

> <b_lp_Chiralities_Consistent>
1

> <s_lp_Variant>
CHEMBL1900_lig268-1

> <s_i_glide_gridfile>
glide-grid_2hv5

> <i_i_glide_lignum>
383

> <i_i_glide_rotatable_bonds>
6

> <r_i_docking_score>
-10.4860827058808

> <r_i_glide_ligand_efficiency>
-0.349536090196027

> <r_i_glide_ligand_efficiency_sa>
-1.08608990022978

> <r_i_glide_ligand_efficiency_ln>
-2.38255224579831

> <r_i_glide_gscore>
-10.4860827058808

> <r_i_glide_lipo>
-4.88959931159981

> <r_i_glide_hbond>
-0.286191678297909

> <r_i_glide_metal>
0

> <r_i_glide_rewards>
-2.61284003461053

> <r_i_glide_evdw>
-47.3135032653809

> <r_i_glide_ecoul>
-4.81127023696899

> <r_i_glide_erotb>
0.389914017441837

> <r_i_glide_esite>
0

> <r_i_glide_emodel>
-76.6923987241858

> <r_i_glide_energy>
-52.1247735023499

> <r_i_glide_einternal>
5.22170877456665

> <i_i_glide_confnum>
28

> <i_i_glide_posenum>
56

> <r_i_glide_eff_state_penalty>
0

> <s_user_duplicate_titles>
CHEMBL1900_lig268,23439

> <s_m_subgroup_title>
dock_pv

> <s_m_subgroupid>
dock_pv

> <b_m_subgroup_collapsed>
1

$$$$
CHEMBL1900_lig276
                    3D
 Schrodinger Suite 2021-1.
 41 44  0  0  1  0            999 V2000
   18.4069   -8.2670   14.9810 N   0  0  0  0  0  0
   17.8009   -7.8428   16.1663 N   0  0  0  0  0  0
   18.3351   -9.5360   14.4373 C   0  0  0  0  0  0
   16.9892   -8.6039   16.8066 C   0  0  0  0  0  0
   17.8856   -6.5570   13.2395 C   0  0  0  0  0  0
   17.0128   -5.3150   11.6156 C   0  0  0  0  0  0
   18.1450   -5.7150   12.2688 N   0  0  0  0  0  0
   16.9244   -4.3832   10.5530 C   0  0  0  0  0  0
   18.1182   -3.6468    9.9481 C   0  0  0  0  0  0
   18.9546   -7.1803   14.1303 C   0  0  0  0  0  0
   17.4724  -10.4708   15.2760 C   0  0  0  0  0  0
   16.1922   -6.9150   13.4665 S   0  0  0  0  0  0
   16.7924  -10.0179   16.4278 C   0  0  0  0  0  0
   16.2896   -8.0133   18.0500 C   0  0  0  0  0  0
   15.8284   -5.9203   12.1141 C   0  0  0  0  0  0
   15.8542   -6.5476   17.9206 C   0  0  0  0  0  0
   18.8818   -9.8676   13.3810 O   0  0  0  0  0  0
   15.2362   -6.1150   16.9529 O   0  0  0  0  0  0
   17.7450   -2.7720    9.0135 F   0  0  0  0  0  0
   18.7931   -2.9786   10.8782 F   0  0  0  0  0  0
   18.9450   -4.5150    9.3810 F   0  0  0  0  0  0
   15.6375   -4.1143   10.0601 C   0  0  0  0  0  0
   16.1450   -5.8298   19.0439 O   0  0  0  0  0  0
   17.3450  -11.8051   14.8674 C   0  0  0  0  0  0
   14.5719   -5.6656   11.5878 C   0  0  0  0  0  0
   16.0157  -10.9289   17.1626 C   0  0  0  0  0  0
   14.5041   -4.7308   10.5810 C   0  0  0  0  0  0
   16.5587  -12.6913   15.6013 C   0  0  0  0  0  0
   15.8961  -12.2541   16.7458 C   0  0  0  0  0  0
   19.4249   -6.4315   14.7695 H   0  0  0  0  0  0
   19.7795   -7.5419   13.5118 H   0  0  0  0  0  0
   15.3781   -8.5538   18.2911 H   0  0  0  0  0  0
   16.9450   -8.1150   18.9101 H   0  0  0  0  0  0
   15.4876   -3.4059    9.2571 H   0  0  0  0  0  0
   16.6877   -6.3254   19.6596 H   0  0  0  0  0  0
   17.8493  -12.1617   13.9793 H   0  0  0  0  0  0
   13.6744   -6.1150   11.9861 H   0  0  0  0  0  0
   15.4884  -10.6402   18.0584 H   0  0  0  0  0  0
   13.5278   -4.5150   10.1810 H   0  0  0  0  0  0
   16.4619  -13.7186   15.2803 H   0  0  0  0  0  0
   15.2867  -12.9445   17.3115 H   0  0  0  0  0  0
  1  2  1  0  0  0
  1  3  1  0  0  0
  1 10  1  0  0  0
  2  4  2  0  0  0
  3 11  1  0  0  0
  3 17  2  0  0  0
  4 14  1  0  0  0
  4 13  1  0  0  0
  5 10  1  0  0  0
  5  7  2  0  0  0
  5 12  1  0  0  0
  6  7  1  0  0  0
  6  8  1  0  0  0
  6 15  2  0  0  0
  8  9  1  0  0  0
  8 22  2  0  0  0
  9 19  1  0  0  0
  9 20  1  0  0  0
  9 21  1  0  0  0
 10 30  1  0  0  0
 10 31  1  0  0  0
 11 13  1  0  0  0
 11 24  2  0  0  0
 12 15  1  0  0  0
 13 26  2  0  0  0
 14 16  1  0  0  0
 14 32  1  0  0  0
 14 33  1  0  0  0
 15 25  1  0  0  0
 16 18  2  0  0  0
 16 23  1  0  0  0
 22 27  1  0  0  0
 22 34  1  0  0  0
 23 35  1  0  0  0
 24 28  1  0  0  0
 24 36  1  0  0  0
 25 27  2  0  0  0
 25 37  1  0  0  0
 26 29  1  0  0  0
 26 38  1  0  0  0
 27 39  1  0  0  0
 28 29  2  0  0  0
 28 40  1  0  0  0
 29 41  1  0  0  0
M  END
> <s_m_entry_id>
6195

> <s_m_entry_name>
dock_pv.30

> <s_m_Source_Path>
/home/csk/Desktop/cluster/DUD-E-result/aldr

> <s_m_Source_File>
dock_pv.maegz

> <i_m_Source_File_Index>
30

> <chembl_id>
CHEMBL280168

> <chembl_pref_name>
None

> <i_lp_mmshare_version>
53161

> <i_f3d_flags>
0

> <r_lp_tautomer_probability>
1

> <s_lp_Force_Field>
OPLS_2005

> <r_lp_Energy>
26.844104

> <b_lp_Chiralities_Consistent>
1

> <s_lp_Variant>
CHEMBL1900_lig276-1

> <s_i_glide_gridfile>
glide-grid_2hv5

> <i_i_glide_lignum>
391

> <i_i_glide_rotatable_bonds>
6

> <r_i_docking_score>
-10.4644078248571

> <r_i_glide_ligand_efficiency>
-0.360841649133004

> <r_i_glide_ligand_efficiency_sa>
-1.10861986879521

> <r_i_glide_ligand_efficiency_ln>
-2.39608403740525

> <r_i_glide_gscore>
-10.4644078248571

> <r_i_glide_lipo>
-4.53542319539105

> <r_i_glide_hbond>
-0.32

> <r_i_glide_metal>
0

> <r_i_glide_rewards>
-2.84435138145866

> <r_i_glide_evdw>
-42.4473114013672

> <r_i_glide_ecoul>
-7.28126096725464

> <r_i_glide_erotb>
0.449921467149157

> <r_i_glide_esite>
0

> <r_i_glide_emodel>
-71.9394515946137

> <r_i_glide_energy>
-49.7285723686218

> <r_i_glide_einternal>
4.60923910140991

> <i_i_glide_confnum>
5

> <i_i_glide_posenum>
363

> <r_i_glide_eff_state_penalty>
0

> <s_user_duplicate_titles>
CHEMBL1900_lig276,24347

> <s_m_subgroup_title>
dock_pv

> <s_m_subgroupid>
dock_pv

> <b_m_subgroup_collapsed>
1

$$$$
CHEMBL1900_lig273
                    3D
 Schrodinger Suite 2021-1.
 41 44  0  0  1  0            999 V2000
   17.4403   -8.4641   15.0963 N   0  0  0  0  0  0
   16.7943   -7.5827   15.9520 N   0  0  0  0  0  0
   17.3454   -9.8425   15.1027 C   0  0  0  0  0  0
   16.0080   -8.0108   16.8625 C   0  0  0  0  0  0
   17.5570   -6.8969   13.1386 C   0  0  0  0  0  0
   16.6835   -4.2864   10.4153 C   0  0  0  0  0  0
   16.9229   -5.2426   11.4238 C   0  0  0  0  0  0
   16.2786   -6.9603   12.8884 N   0  0  0  0  0  0
   17.7740   -3.4752    9.7077 C   0  0  0  0  0  0
   18.3935   -5.6540   12.2667 S   0  0  0  0  0  0
   18.3053   -7.8113   14.0976 C   0  0  0  0  0  0
   16.3933  -10.3399   16.1823 C   0  0  0  0  0  0
   15.7571   -9.4475   17.0709 C   0  0  0  0  0  0
   15.8928   -6.0657   11.9454 C   0  0  0  0  0  0
   15.3461   -6.9158   17.7112 C   0  0  0  0  0  0
   16.2259   -6.3335   18.8363 C   0  0  0  0  0  0
   17.9626  -10.5886   14.3357 O   0  0  0  0  0  0
   15.7451   -5.7153   19.7809 O   0  0  0  0  0  0
   18.2393   -2.5141   10.4995 F   0  0  0  0  0  0
   18.7965   -4.2613    9.3812 F   0  0  0  0  0  0
   17.3236   -2.9148    8.5822 F   0  0  0  0  0  0
   15.3452   -4.1230   10.0455 C   0  0  0  0  0  0
   17.5646   -6.5147   18.6699 O   0  0  0  0  0  0
   16.1727  -11.7190   16.2994 C   0  0  0  0  0  0
   14.5869   -5.9259   11.4734 C   0  0  0  0  0  0
   14.9450   -9.9615   18.0884 C   0  0  0  0  0  0
   14.3281   -4.9058   10.5810 C   0  0  0  0  0  0
   15.3249  -12.2105   17.2905 C   0  0  0  0  0  0
   14.7146  -11.3339   18.1838 C   0  0  0  0  0  0
   19.0563   -7.2453   14.6514 H   0  0  0  0  0  0
   18.8924   -8.5163   13.5062 H   0  0  0  0  0  0
   15.0699   -6.0807   17.0695 H   0  0  0  0  0  0
   14.4039   -7.2554   18.1358 H   0  0  0  0  0  0
   15.0706   -3.3852    9.3048 H   0  0  0  0  0  0
   18.0519   -6.1429   19.4068 H   0  0  0  0  0  0
   16.6508  -12.4133   15.6216 H   0  0  0  0  0  0
   13.7783   -6.5638   11.7810 H   0  0  0  0  0  0
   14.4779   -9.3153   18.8127 H   0  0  0  0  0  0
   13.3193   -4.7587   10.2303 H   0  0  0  0  0  0
   15.1455  -13.2728   17.3703 H   0  0  0  0  0  0
   14.0635  -11.7198   18.9556 H   0  0  0  0  0  0
  1  2  1  0  0  0
  1  3  1  0  0  0
  1 11  1  0  0  0
  2  4  2  0  0  0
  3 12  1  0  0  0
  3 17  2  0  0  0
  4 15  1  0  0  0
  4 13  1  0  0  0
  5 11  1  0  0  0
  5  8  2  0  0  0
  5 10  1  0  0  0
  6  7  1  0  0  0
  6  9  1  0  0  0
  6 22  2  0  0  0
  7 10  1  0  0  0
  7 14  2  0  0  0
  8 14  1  0  0  0
  9 19  1  0  0  0
  9 20  1  0  0  0
  9 21  1  0  0  0
 11 30  1  0  0  0
 11 31  1  0  0  0
 12 13  1  0  0  0
 12 24  2  0  0  0
 13 26  2  0  0  0
 14 25  1  0  0  0
 15 16  1  0  0  0
 15 32  1  0  0  0
 15 33  1  0  0  0
 16 18  2  0  0  0
 16 23  1  0  0  0
 22 27  1  0  0  0
 22 34  1  0  0  0
 23 35  1  0  0  0
 24 28  1  0  0  0
 24 36  1  0  0  0
 25 27  2  0  0  0
 25 37  1  0  0  0
 26 29  1  0  0  0
 26 38  1  0  0  0
 27 39  1  0  0  0
 28 29  2  0  0  0
 28 40  1  0  0  0
 29 41  1  0  0  0
M  END
> <s_m_entry_id>
6196

> <s_m_entry_name>
dock_pv.31

> <s_m_Source_Path>
/home/csk/Desktop/cluster/DUD-E-result/aldr

> <s_m_Source_File>
dock_pv.maegz

> <i_m_Source_File_Index>
31

> <chembl_id>
CHEMBL20220

> <chembl_pref_name>
None

> <i_lp_mmshare_version>
53161

> <i_f3d_flags>
0

> <r_lp_tautomer_probability>
1

> <s_lp_Force_Field>
OPLS_2005

> <r_lp_Energy>
24.83504

> <b_lp_Chiralities_Consistent>
1

> <s_lp_Variant>
CHEMBL1900_lig273-1

> <s_i_glide_gridfile>
glide-grid_2hv5

> <i_i_glide_lignum>
388

> <i_i_glide_rotatable_bonds>
6

> <r_i_docking_score>
-10.4445499118083

> <r_i_glide_ligand_efficiency>
-0.360156893510632

> <r_i_glide_ligand_efficiency_sa>
-1.10651608257747

> <r_i_glide_ligand_efficiency_ln>
-2.39153707887031

> <r_i_glide_gscore>
-10.4445499118083

> <r_i_glide_lipo>
-4.71986127324095

> <r_i_glide_hbond>
-0.32

> <r_i_glide_metal>
0

> <r_i_glide_rewards>
-2.92072445985014

> <r_i_glide_evdw>
-43.0427589416504

> <r_i_glide_ecoul>
-5.21165132522583

> <r_i_glide_erotb>
0.449921467149157

> <r_i_glide_esite>
0

> <r_i_glide_emodel>
-72.561209299356

> <r_i_glide_energy>
-48.2544102668762

> <r_i_glide_einternal>
4.60696172714233

> <i_i_glide_confnum>
6

> <i_i_glide_posenum>
388

> <r_i_glide_eff_state_penalty>
0

> <s_user_duplicate_titles>
CHEMBL1900_lig273,24145

> <s_m_subgroup_title>
dock_pv

> <s_m_subgroupid>
dock_pv

> <b_m_subgroup_collapsed>
1

$$$$
CHEMBL1900_lig391
                    3D
 Schrodinger Suite 2021-1.
 37 40  0  0  1  0            999 V2000
   17.6894   -5.1558   11.6128 C   0  0  0  0  0  0
   16.6234   -7.9593   17.2229 N   0  0  0  0  0  0
   16.3668   -5.6498   11.6898 C   0  0  0  0  0  0
   18.5450   -5.7151   12.5029 N   0  0  0  0  0  0
   17.9369   -7.9683   15.3589 C   0  0  0  0  0  0
   18.0020   -6.6588   13.2162 C   0  0  0  0  0  0
   17.3460   -7.2009   16.3319 C   0  0  0  0  0  0
   17.4906   -9.3086   15.6190 C   0  0  0  0  0  0
   18.0205   -4.1568   10.6786 C   0  0  0  0  0  0
   16.3004   -6.9132   12.9017 S   0  0  0  0  0  0
   16.6382   -9.2691   16.7702 C   0  0  0  0  0  0
   15.3565   -5.1296   10.8799 C   0  0  0  0  0  0
   17.0050   -3.6543    9.8680 C   0  0  0  0  0  0
   15.7032   -4.1332    9.9702 C   0  0  0  0  0  0
   18.8055   -7.4715   14.2177 C   0  0  0  0  0  0
   15.8462   -7.4367   18.3555 C   0  0  0  0  0  0
   15.9970  -10.4182   17.2539 C   0  0  0  0  0  0
   16.4272   -6.2185   19.0970 C   0  0  0  0  0  0
   17.7113  -10.5388   14.9810 C   0  0  0  0  0  0
   15.7449   -5.4686   19.7810 O   0  0  0  0  0  0
   19.2809   -3.6745   10.5656 F   0  0  0  0  0  0
   14.0823   -5.5720   10.9805 F   0  0  0  0  0  0
   17.2819   -2.6738    8.9807 F   0  0  0  0  0  0
   17.0824  -11.6801   15.4721 C   0  0  0  0  0  0
   16.2426  -11.6154   16.5811 C   0  0  0  0  0  0
   17.7729   -6.1093   18.9811 O   0  0  0  0  0  0
   17.3441  -13.1925   14.6850 Cl  0  0  0  0  0  0
   17.3993   -6.1308   16.4658 H   0  0  0  0  0  0
   14.9452   -3.7166    9.3325 H   0  0  0  0  0  0
   19.6265   -6.8680   14.6097 H   0  0  0  0  0  0
   19.2835   -8.3063   13.7040 H   0  0  0  0  0  0
   14.8466   -7.1996   17.9910 H   0  0  0  0  0  0
   15.7455   -8.2332   19.0925 H   0  0  0  0  0  0
   15.3386  -10.3892   18.1097 H   0  0  0  0  0  0
   18.3424  -10.6023   14.1070 H   0  0  0  0  0  0
   15.7642  -12.5214   16.9261 H   0  0  0  0  0  0
   18.1664   -6.8304   18.4847 H   0  0  0  0  0  0
  1  3  2  0  0  0
  1  4  1  0  0  0
  1  9  1  0  0  0
  2  7  1  0  0  0
  2 16  1  0  0  0
  2 11  1  0  0  0
  3 10  1  0  0  0
  3 12  1  0  0  0
  4  6  2  0  0  0
  5 15  1  0  0  0
  5  7  2  0  0  0
  5  8  1  0  0  0
  6 15  1  0  0  0
  6 10  1  0  0  0
  7 28  1  0  0  0
  8 11  2  0  0  0
  8 19  1  0  0  0
  9 13  2  0  0  0
  9 21  1  0  0  0
 11 17  1  0  0  0
 12 22  1  0  0  0
 12 14  2  0  0  0
 13 14  1  0  0  0
 13 23  1  0  0  0
 14 29  1  0  0  0
 15 30  1  0  0  0
 15 31  1  0  0  0
 16 18  1  0  0  0
 16 32  1  0  0  0
 16 33  1  0  0  0
 17 25  2  0  0  0
 17 34  1  0  0  0
 18 20  2  0  0  0
 18 26  1  0  0  0
 19 24  2  0  0  0
 19 35  1  0  0  0
 24 25  1  0  0  0
 24 27  1  0  0  0
 25 36  1  0  0  0
 26 37  1  0  0  0
M  END
> <s_m_entry_id>
6197

> <s_m_entry_name>
dock_pv.32

> <s_m_Source_Path>
/home/csk/Desktop/cluster/DUD-E-result/aldr

> <s_m_Source_File>
dock_pv.maegz

> <i_m_Source_File_Index>
32

> <chembl_id>
CHEMBL192263

> <chembl_pref_name>
None

> <i_lp_mmshare_version>
53161

> <i_f3d_flags>
0

> <r_lp_tautomer_probability>
1

> <s_lp_Force_Field>
OPLS_2005

> <r_lp_Energy>
12.828896

> <b_lp_Chiralities_Consistent>
1

> <s_lp_Variant>
CHEMBL1900_lig391-1

> <s_i_glide_gridfile>
glide-grid_2hv5

> <i_i_glide_lignum>
512

> <i_i_glide_rotatable_bonds>
5

> <r_i_docking_score>
-10.4376302562988

> <r_i_glide_ligand_efficiency>
-0.386578898381436

> <r_i_glide_ligand_efficiency_sa>
-1.15973669387021

> <r_i_glide_ligand_efficiency_ln>
-2.42970824588297

> <r_i_glide_gscore>
-10.4376302562988

> <r_i_glide_lipo>
-4.47088344295504

> <r_i_glide_hbond>
-0.32

> <r_i_glide_metal>
0

> <r_i_glide_rewards>
-2.99019389265378

> <r_i_glide_evdw>
-43.3041191101074

> <r_i_glide_ecoul>
-6.20219898223877

> <r_i_glide_erotb>
0.467033850330036

> <r_i_glide_esite>
-0.0280509681787903

> <r_i_glide_emodel>
-76.0430366110145

> <r_i_glide_energy>
-49.5063180923462

> <r_i_glide_einternal>
6.28947496414185

> <i_i_glide_confnum>
11

> <i_i_glide_posenum>
353

> <r_i_glide_eff_state_penalty>
0

> <s_user_duplicate_titles>
CHEMBL1900_lig391,321433

> <s_m_subgroup_title>
dock_pv

> <s_m_subgroupid>
dock_pv

> <b_m_subgroup_collapsed>
1

$$$$
CHEMBL1900_lig279
                    3D
 Schrodinger Suite 2021-1.
 38 41  0  0  1  0            999 V2000
   18.0293   -8.1094   15.2944 N   0  0  0  0  0  0
   17.4629   -7.2962   16.2676 N   0  0  0  0  0  0
   17.7447   -9.4444   15.0674 C   0  0  0  0  0  0
   16.4501   -7.6989   16.9343 C   0  0  0  0  0  0
   18.0126   -6.6359   13.2700 C   0  0  0  0  0  0
   18.5453   -5.7145   12.5225 N   0  0  0  0  0  0
   18.8469   -7.3816   14.3032 C   0  0  0  0  0  0
   16.6580   -9.9595   16.0044 C   0  0  0  0  0  0
   16.3090   -6.9148   12.9620 S   0  0  0  0  0  0
   17.6755   -5.1894   11.6263 C   0  0  0  0  0  0
   16.0034   -9.1011   16.9150 C   0  0  0  0  0  0
   15.6934   -6.6055   17.6947 C   0  0  0  0  0  0
   16.3621   -5.7090   11.6928 C   0  0  0  0  0  0
   16.3853   -6.1151   18.9777 C   0  0  0  0  0  0
   17.9948   -4.1924   10.6940 C   0  0  0  0  0  0
   18.2712  -10.1277   14.1828 O   0  0  0  0  0  0
   15.7451   -5.7140   19.9403 O   0  0  0  0  0  0
   15.3522   -5.2337   10.8477 C   0  0  0  0  0  0
   16.9863   -3.7188    9.8616 C   0  0  0  0  0  0
   17.7450   -6.1145   18.9173 O   0  0  0  0  0  0
   15.6951   -4.2341    9.9345 C   0  0  0  0  0  0
   17.2650   -2.7354    8.9808 F   0  0  0  0  0  0
   16.2953  -11.3114   15.9388 C   0  0  0  0  0  0
   15.0459   -9.6320   17.7898 C   0  0  0  0  0  0
   15.3142  -11.8159   16.7928 C   0  0  0  0  0  0
   14.6992  -10.9813   17.7236 C   0  0  0  0  0  0
   19.5213   -6.7088   14.8351 H   0  0  0  0  0  0
   19.5316   -8.0497   13.7758 H   0  0  0  0  0  0
   15.5728   -5.7338   17.0525 H   0  0  0  0  0  0
   14.6786   -6.9154   17.9374 H   0  0  0  0  0  0
   18.9839   -3.7750   10.6371 H   0  0  0  0  0  0
   14.3427   -5.6152   10.9100 H   0  0  0  0  0  0
   18.0489   -6.4239   18.0577 H   0  0  0  0  0  0
   14.9450   -3.8360    9.2693 H   0  0  0  0  0  0
   16.7687  -11.9766   15.2297 H   0  0  0  0  0  0
   14.5609   -9.0181   18.5332 H   0  0  0  0  0  0
   15.0351  -12.8581   16.7374 H   0  0  0  0  0  0
   13.9465  -11.3822   18.3897 H   0  0  0  0  0  0
  1  2  1  0  0  0
  1  3  1  0  0  0
  1  7  1  0  0  0
  2  4  2  0  0  0
  3  8  1  0  0  0
  3 16  2  0  0  0
  4 12  1  0  0  0
  4 11  1  0  0  0
  5  7  1  0  0  0
  5  6  2  0  0  0
  5  9  1  0  0  0
  6 10  1  0  0  0
  7 27  1  0  0  0
  7 28  1  0  0  0
  8 11  1  0  0  0
  8 23  2  0  0  0
  9 13  1  0  0  0
 10 15  1  0  0  0
 10 13  2  0  0  0
 11 24  2  0  0  0
 12 14  1  0  0  0
 12 29  1  0  0  0
 12 30  1  0  0  0
 13 18  1  0  0  0
 14 17  2  0  0  0
 14 20  1  0  0  0
 15 19  2  0  0  0
 15 31  1  0  0  0
 18 21  2  0  0  0
 18 32  1  0  0  0
 19 22  1  0  0  0
 19 21  1  0  0  0
 20 33  1  0  0  0
 21 34  1  0  0  0
 23 25  1  0  0  0
 23 35  1  0  0  0
 24 26  1  0  0  0
 24 36  1  0  0  0
 25 26  2  0  0  0
 25 37  1  0  0  0
 26 38  1  0  0  0
M  END
> <s_m_entry_id>
6198

> <s_m_entry_name>
dock_pv.33

> <s_m_Source_Path>
/home/csk/Desktop/cluster/DUD-E-result/aldr

> <s_m_Source_File>
dock_pv.maegz

> <i_m_Source_File_Index>
33

> <chembl_id>
CHEMBL283996

> <chembl_pref_name>
None

> <i_lp_mmshare_version>
53161

> <i_f3d_flags>
0

> <r_lp_tautomer_probability>
1

> <s_lp_Force_Field>
OPLS_2005

> <r_lp_Energy>
24.171543

> <b_lp_Chiralities_Consistent>
1

> <s_lp_Variant>
CHEMBL1900_lig279-1

> <s_i_glide_gridfile>
glide-grid_2hv5

> <i_i_glide_lignum>
394

> <i_i_glide_rotatable_bonds>
5

> <r_i_docking_score>
-10.4346925452661

> <r_i_glide_ligand_efficiency>
-0.401334328664081

> <r_i_glide_ligand_efficiency_sa>
-1.18895136949301

> <r_i_glide_ligand_efficiency_ln>
-2.45055330523684

> <r_i_glide_gscore>
-10.4346925452661

> <r_i_glide_lipo>
-4.80691207402883

> <r_i_glide_hbond>
-0.32

> <r_i_glide_metal>
0

> <r_i_glide_rewards>
-2.89278416049437

> <r_i_glide_evdw>
-48.3761749267578

> <r_i_glide_ecoul>
-3.74298071861267

> <r_i_glide_erotb>
0.56525954338689

> <r_i_glide_esite>
0

> <r_i_glide_emodel>
-81.4725609005206

> <r_i_glide_energy>
-52.1191556453705

> <r_i_glide_einternal>
5.73859643936157

> <i_i_glide_confnum>
31

> <i_i_glide_posenum>
281

> <r_i_glide_eff_state_penalty>
0

> <s_user_duplicate_titles>
CHEMBL1900_lig279,24377

> <s_m_subgroup_title>
dock_pv

> <s_m_subgroupid>
dock_pv

> <b_m_subgroup_collapsed>
1

$$$$
CHEMBL1900_lig58
                    3D
 Schrodinger Suite 2021-1.
 45 48  0  0  1  0            999 V2000
   18.0150   -8.1603   15.4141 N   0  0  0  0  0  0
   17.3721   -7.3347   16.3235 N   0  0  0  0  0  0
   17.7452   -9.4995   15.2145 C   0  0  0  0  0  0
   16.3813   -7.7523   17.0220 C   0  0  0  0  0  0
   16.7059  -10.0055   16.1187 C   0  0  0  0  0  0
   18.0164   -6.7195   13.3895 C   0  0  0  0  0  0
   16.0204   -9.1640   16.9581 C   0  0  0  0  0  0
   18.5450   -5.8432   12.5905 N   0  0  0  0  0  0
   18.8517   -7.4432   14.4360 C   0  0  0  0  0  0
   16.2859   -6.9150   13.1953 S   0  0  0  0  0  0
   16.9851   -2.3565    9.4704 C   0  0  0  0  0  0
   17.6311   -5.2879   11.7629 C   0  0  0  0  0  0
   15.6291   -6.6707   17.8062 C   0  0  0  0  0  0
   16.3168   -5.7840   11.8933 C   0  0  0  0  0  0
   16.8183   -3.6749   10.1960 C   0  0  0  0  0  0
   17.8987   -4.2493   10.8709 C   0  0  0  0  0  0
   16.3616   -6.0031   18.9820 C   0  0  0  0  0  0
   18.2852  -10.1940   14.3476 O   0  0  0  0  0  0
   15.2639   -5.3147   11.1155 C   0  0  0  0  0  0
   15.5438   -4.2371   10.2893 C   0  0  0  0  0  0
   15.7451   -5.3665   19.8276 O   0  0  0  0  0  0
   18.1384   -1.7564    9.7808 F   0  0  0  0  0  0
   16.9445   -2.6250    8.1810 F   0  0  0  0  0  0
   15.9857   -1.5238    9.7605 F   0  0  0  0  0  0
   16.3803  -11.5051   16.0028 C   0  0  0  0  0  0
   17.7153   -6.1151   18.9809 O   0  0  0  0  0  0
   14.8609   -9.6653   17.8249 C   0  0  0  0  0  0
   14.9625  -11.8299   16.4995 C   0  0  0  0  0  0
   14.7274  -11.1991   17.8709 C   0  0  0  0  0  0
   19.4925   -6.7473   14.9804 H   0  0  0  0  0  0
   19.5681   -8.1072   13.9473 H   0  0  0  0  0  0
   15.3617   -5.8688   17.1198 H   0  0  0  0  0  0
   14.6791   -7.0475   18.1797 H   0  0  0  0  0  0
   18.8889   -3.8285   10.8032 H   0  0  0  0  0  0
   14.2561   -5.6897   11.2333 H   0  0  0  0  0  0
   14.7270   -3.7746    9.7808 H   0  0  0  0  0  0
   17.1087  -12.0695   16.5870 H   0  0  0  0  0  0
   16.4936  -11.8739   14.9815 H   0  0  0  0  0  0
   18.0915   -5.6710   19.7421 H   0  0  0  0  0  0
   13.9570   -9.2451   17.3813 H   0  0  0  0  0  0
   14.9236   -9.2876   18.8473 H   0  0  0  0  0  0
   14.8191  -12.9100   16.5522 H   0  0  0  0  0  0
   14.2222  -11.4547   15.7912 H   0  0  0  0  0  0
   15.4435  -11.6087   18.5831 H   0  0  0  0  0  0
   13.7448  -11.4750   18.2488 H   0  0  0  0  0  0
  1  2  1  0  0  0
  1  3  1  0  0  0
  1  9  1  0  0  0
  2  4  2  0  0  0
  3  5  1  0  0  0
  3 18  2  0  0  0
  4 13  1  0  0  0
  4  7  1  0  0  0
  5  7  2  0  0  0
  5 25  1  0  0  0
  6  9  1  0  0  0
  6  8  2  0  0  0
  6 10  1  0  0  0
  7 27  1  0  0  0
  8 12  1  0  0  0
  9 30  1  0  0  0
  9 31  1  0  0  0
 10 14  1  0  0  0
 11 15  1  0  0  0
 11 22  1  0  0  0
 11 23  1  0  0  0
 11 24  1  0  0  0
 12 16  1  0  0  0
 12 14  2  0  0  0
 13 17  1  0  0  0
 13 32  1  0  0  0
 13 33  1  0  0  0
 14 19  1  0  0  0
 15 16  2  0  0  0
 15 20  1  0  0  0
 16 34  1  0  0  0
 17 21  2  0  0  0
 17 26  1  0  0  0
 19 20  2  0  0  0
 19 35  1  0  0  0
 20 36  1  0  0  0
 25 28  1  0  0  0
 25 37  1  0  0  0
 25 38  1  0  0  0
 26 39  1  0  0  0
 27 29  1  0  0  0
 27 40  1  0  0  0
 27 41  1  0  0  0
 28 29  1  0  0  0
 28 42  1  0  0  0
 28 43  1  0  0  0
 29 44  1  0  0  0
 29 45  1  0  0  0
M  END
> <s_m_entry_id>
6199

> <s_m_entry_name>
dock_pv.34

> <s_m_Source_Path>
/home/csk/Desktop/cluster/DUD-E-result/aldr

> <s_m_Source_File>
dock_pv.maegz

> <i_m_Source_File_Index>
34

> <chembl_id>
CHEMBL68580

> <chembl_pref_name>
None

> <i_lp_mmshare_version>
53161

> <i_f3d_flags>
0

> <r_lp_tautomer_probability>
1

> <s_lp_Force_Field>
OPLS_2005

> <r_lp_Energy>
28.179458

> <b_lp_Chiralities_Consistent>
1

> <s_lp_Variant>
CHEMBL1900_lig58-1

> <s_i_glide_gridfile>
glide-grid_2hv5

> <i_i_glide_lignum>
93

> <i_i_glide_rotatable_bonds>
6

> <r_i_docking_score>
-10.40635105756

> <r_i_glide_ligand_efficiency>
-0.358839691639998

> <r_i_glide_ligand_efficiency_sa>
-1.10246922111204

> <r_i_glide_ligand_efficiency_ln>
-2.3827905098868

> <r_i_glide_gscore>
-10.40635105756

> <r_i_glide_lipo>
-5.03214237276407

> <r_i_glide_hbond>
-0.32

> <r_i_glide_metal>
0

> <r_i_glide_rewards>
-2.84008808415351

> <r_i_glide_evdw>
-44.6440925598145

> <r_i_glide_ecoul>
-2.82747030258179

> <r_i_glide_erotb>
0.442204572735618

> <r_i_glide_esite>
0

> <r_i_glide_emodel>
-66.9132671632982

> <r_i_glide_energy>
-47.4715628623962

> <r_i_glide_einternal>
5.64804410934448

> <i_i_glide_confnum>
25

> <i_i_glide_posenum>
286

> <r_i_glide_eff_state_penalty>
0

> <s_user_duplicate_titles>
CHEMBL1900_lig58,108727

> <s_m_subgroup_title>
dock_pv

> <s_m_subgroupid>
dock_pv

> <b_m_subgroup_collapsed>
1

$$$$
CHEMBL1900_lig254
                    3D
 Schrodinger Suite 2021-1.
 42 45  0  0  1  0            999 V2000
   18.1450   -7.9484   15.2306 N   0  0  0  0  0  0
   17.5572   -7.1579   16.2138 N   0  0  0  0  0  0
   17.8855   -9.2883   14.9880 C   0  0  0  0  0  0
   16.5609   -7.5985   16.8843 C   0  0  0  0  0  0
   18.0691   -6.5134   13.1794 C   0  0  0  0  0  0
   18.5190   -5.5747   12.3869 N   0  0  0  0  0  0
   17.5590   -5.1002   11.5349 C   0  0  0  0  0  0
   18.9397   -7.1893   14.2349 C   0  0  0  0  0  0
   16.8247   -9.8428   15.9340 C   0  0  0  0  0  0
   16.3829   -6.9145   12.9471 S   0  0  0  0  0  0
   16.1667   -9.0148   16.8681 C   0  0  0  0  0  0
   15.7648   -6.5400   17.6549 C   0  0  0  0  0  0
   16.2938   -5.7228   11.6884 C   0  0  0  0  0  0
   16.4116   -6.0887   18.9736 C   0  0  0  0  0  0
   18.4167   -9.9447   14.0868 O   0  0  0  0  0  0
   17.7028   -4.0594   10.5873 C   0  0  0  0  0  0
   15.7463   -5.7087   19.9261 O   0  0  0  0  0  0
   17.7686   -6.0890   18.9571 O   0  0  0  0  0  0
   18.9227   -3.4125   10.5380 O   0  0  0  0  0  0
   16.4938  -11.2023   15.8579 C   0  0  0  0  0  0
   15.1880   -5.3633   10.9189 C   0  0  0  0  0  0
   15.2572   -9.5814   17.7726 C   0  0  0  0  0  0
   15.3719   -4.3832    9.9531 C   0  0  0  0  0  0
   16.5914   -3.7376    9.7884 C   0  0  0  0  0  0
   18.9431   -2.0960    9.9942 C   0  0  0  0  0  0
   15.5523  -11.7440   16.7335 C   0  0  0  0  0  0
   14.9440  -10.9383   17.6946 C   0  0  0  0  0  0
   19.5708   -6.4694   14.7587 H   0  0  0  0  0  0
   19.6631   -7.8335   13.7305 H   0  0  0  0  0  0
   15.6498   -5.6474   17.0398 H   0  0  0  0  0  0
   14.7485   -6.8778   17.8549 H   0  0  0  0  0  0
   18.1017   -6.3700   18.0986 H   0  0  0  0  0  0
   16.9690  -11.8460   15.1302 H   0  0  0  0  0  0
   14.2269   -5.8416   11.0521 H   0  0  0  0  0  0
   14.7777   -8.9890   18.5380 H   0  0  0  0  0  0
   14.5453   -4.1151    9.3181 H   0  0  0  0  0  0
   16.6418   -2.9728    9.0304 H   0  0  0  0  0  0
   19.9638   -1.7186    9.9724 H   0  0  0  0  0  0
   18.5448   -2.0651    8.9821 H   0  0  0  0  0  0
   18.3435   -1.4036   10.5811 H   0  0  0  0  0  0
   15.2998  -12.7931   16.6726 H   0  0  0  0  0  0
   14.2217  -11.3654   18.3766 H   0  0  0  0  0  0
  1  2  1  0  0  0
  1  3  1  0  0  0
  1  8  1  0  0  0
  2  4  2  0  0  0
  3  9  1  0  0  0
  3 15  2  0  0  0
  4 12  1  0  0  0
  4 11  1  0  0  0
  5  8  1  0  0  0
  5  6  2  0  0  0
  5 10  1  0  0  0
  6  7  1  0  0  0
  7 16  1  0  0  0
  7 13  2  0  0  0
  8 28  1  0  0  0
  8 29  1  0  0  0
  9 11  1  0  0  0
  9 20  2  0  0  0
 10 13  1  0  0  0
 11 22  2  0  0  0
 12 14  1  0  0  0
 12 30  1  0  0  0
 12 31  1  0  0  0
 13 21  1  0  0  0
 14 17  2  0  0  0
 14 18  1  0  0  0
 16 19  1  0  0  0
 16 24  2  0  0  0
 18 32  1  0  0  0
 19 25  1  0  0  0
 20 26  1  0  0  0
 20 33  1  0  0  0
 21 23  2  0  0  0
 21 34  1  0  0  0
 22 27  1  0  0  0
 22 35  1  0  0  0
 23 24  1  0  0  0
 23 36  1  0  0  0
 24 37  1  0  0  0
 25 38  1  0  0  0
 25 39  1  0  0  0
 25 40  1  0  0  0
 26 27  2  0  0  0
 26 41  1  0  0  0
 27 42  1  0  0  0
M  END
> <s_m_entry_id>
6200

> <s_m_entry_name>
dock_pv.35

> <s_m_Source_Path>
/home/csk/Desktop/cluster/DUD-E-result/aldr

> <s_m_Source_File>
dock_pv.maegz

> <i_m_Source_File_Index>
35

> <chembl_id>
CHEMBL19373

> <chembl_pref_name>
None

> <i_lp_mmshare_version>
53161

> <i_f3d_flags>
0

> <r_lp_tautomer_probability>
1

> <s_lp_Force_Field>
OPLS_2005

> <r_lp_Energy>
31.746926

> <b_lp_Chiralities_Consistent>
1

> <s_lp_Variant>
CHEMBL1900_lig254-1

> <s_i_glide_gridfile>
glide-grid_2hv5

> <i_i_glide_lignum>
367

> <i_i_glide_rotatable_bonds>
6

> <r_i_docking_score>
-10.4051397956191

> <r_i_glide_ligand_efficiency>
-0.385375547985894

> <r_i_glide_ligand_efficiency_sa>
-1.15612664268755

> <r_i_glide_ligand_efficiency_ln>
-2.42214500228386

> <r_i_glide_gscore>
-10.4051397956191

> <r_i_glide_lipo>
-4.990291712061

> <r_i_glide_hbond>
-0.32

> <r_i_glide_metal>
0

> <r_i_glide_rewards>
-2.38299998485159

> <r_i_glide_evdw>
-49.4704666137695

> <r_i_glide_ecoul>
-5.14707469940186

> <r_i_glide_erotb>
0.533736436892208

> <r_i_glide_esite>
0

> <r_i_glide_emodel>
-84.0975193362031

> <r_i_glide_energy>
-54.6175413131714

> <r_i_glide_einternal>
7.0506534576416

> <i_i_glide_confnum>
31

> <i_i_glide_posenum>
129

> <r_i_glide_eff_state_penalty>
0

> <s_user_duplicate_titles>
CHEMBL1900_lig254,23334

> <s_m_subgroup_title>
dock_pv

> <s_m_subgroupid>
dock_pv

> <b_m_subgroup_collapsed>
1

$$$$
CHEMBL1900_lig158
                    3D
 Schrodinger Suite 2021-1.
 41 44  0  0  1  0            999 V2000
   17.7348   -8.5405   15.0801 N   0  0  0  0  0  0
   17.1869   -7.5717   15.9206 N   0  0  0  0  0  0
   17.5223   -9.9050   15.1455 C   0  0  0  0  0  0
   16.2595   -7.8819   16.7451 C   0  0  0  0  0  0
   17.9419   -6.9814   13.1432 C   0  0  0  0  0  0
   18.5451   -5.9332   12.6407 N   0  0  0  0  0  0
   18.6104   -8.0268   14.0123 C   0  0  0  0  0  0
   16.4767  -10.2672   16.1914 C   0  0  0  0  0  0
   16.5457   -2.5969    9.4788 C   0  0  0  0  0  0
   15.8556   -9.2783   16.9823 C   0  0  0  0  0  0
   17.6119   -5.3892   11.8175 C   0  0  0  0  0  0
   16.6411   -7.1628   12.7533 O   0  0  0  0  0  0
   15.5929   -6.6981   17.4628 C   0  0  0  0  0  0
   16.4192   -6.1152   11.9098 C   0  0  0  0  0  0
   16.5366   -3.8890   10.2840 C   0  0  0  0  0  0
   17.6901   -4.2773   10.9803 C   0  0  0  0  0  0
   16.3358   -6.2156   18.7189 C   0  0  0  0  0  0
   18.1000  -10.7384   14.4398 O   0  0  0  0  0  0
   15.2599   -5.7661   11.2131 C   0  0  0  0  0  0
   15.3486   -4.6302   10.4004 C   0  0  0  0  0  0
   15.7450   -5.7874   19.7087 O   0  0  0  0  0  0
   16.5450   -2.8917    8.1812 F   0  0  0  0  0  0
   15.4703   -1.8658    9.7688 F   0  0  0  0  0  0
   17.6246   -1.8590    9.7500 F   0  0  0  0  0  0
   17.6915   -6.2413   18.5835 O   0  0  0  0  0  0
   16.1427  -11.6167   16.3689 C   0  0  0  0  0  0
   14.9446   -9.6695   17.9687 C   0  0  0  0  0  0
   15.2054  -11.9847   17.3317 C   0  0  0  0  0  0
   14.6089  -11.0144   18.1332 C   0  0  0  0  0  0
   19.4943   -7.6069   14.4925 H   0  0  0  0  0  0
   19.0095   -8.7999   13.3530 H   0  0  0  0  0  0
   15.5344   -5.8427   16.7917 H   0  0  0  0  0  0
   14.5585   -6.9210   17.7233 H   0  0  0  0  0  0
   18.6037   -3.7051   10.9231 H   0  0  0  0  0  0
   14.3454   -6.3340   11.3057 H   0  0  0  0  0  0
   14.4725   -4.3060    9.8556 H   0  0  0  0  0  0
   17.9511   -6.5622   17.7149 H   0  0  0  0  0  0
   16.6024  -12.3844   15.7607 H   0  0  0  0  0  0
   14.4706   -8.9405   18.6037 H   0  0  0  0  0  0
   14.9389  -13.0241   17.4579 H   0  0  0  0  0  0
   13.8809  -11.3115   18.8758 H   0  0  0  0  0  0
  1  2  1  0  0  0
  1  3  1  0  0  0
  1  7  1  0  0  0
  2  4  2  0  0  0
  3  8  1  0  0  0
  3 18  2  0  0  0
  4 13  1  0  0  0
  4 10  1  0  0  0
  5  7  1  0  0  0
  5  6  2  0  0  0
  5 12  1  0  0  0
  6 11  1  0  0  0
  7 30  1  0  0  0
  7 31  1  0  0  0
  8 10  2  0  0  0
  8 26  1  0  0  0
  9 15  1  0  0  0
  9 22  1  0  0  0
  9 23  1  0  0  0
  9 24  1  0  0  0
 10 27  1  0  0  0
 11 16  1  0  0  0
 11 14  2  0  0  0
 12 14  1  0  0  0
 13 17  1  0  0  0
 13 32  1  0  0  0
 13 33  1  0  0  0
 14 19  1  0  0  0
 15 16  2  0  0  0
 15 20  1  0  0  0
 16 34  1  0  0  0
 17 21  2  0  0  0
 17 25  1  0  0  0
 19 20  2  0  0  0
 19 35  1  0  0  0
 20 36  1  0  0  0
 25 37  1  0  0  0
 26 28  2  0  0  0
 26 38  1  0  0  0
 27 29  2  0  0  0
 27 39  1  0  0  0
 28 29  1  0  0  0
 28 40  1  0  0  0
 29 41  1  0  0  0
M  END
> <s_m_entry_id>
6201

> <s_m_entry_name>
dock_pv.36

> <s_m_Source_Path>
/home/csk/Desktop/cluster/DUD-E-result/aldr

> <s_m_Source_File>
dock_pv.maegz

> <i_m_Source_File_Index>
36

> <chembl_id>
CHEMBL142989

> <chembl_pref_name>
None

> <i_lp_mmshare_version>
53161

> <i_f3d_flags>
0

> <r_lp_tautomer_probability>
1

> <s_lp_Force_Field>
OPLS_2005

> <r_lp_Energy>
27.397819

> <b_lp_Chiralities_Consistent>
1

> <s_lp_Variant>
CHEMBL1900_lig158-1

> <s_i_glide_gridfile>
glide-grid_2hv5

> <i_i_glide_lignum>
234

> <i_i_glide_rotatable_bonds>
6

> <r_i_docking_score>
-10.3904477910954

> <r_i_glide_ligand_efficiency>
-0.358291303141219

> <r_i_glide_ligand_efficiency_sa>
-1.10078439790212

> <r_i_glide_ligand_efficiency_ln>
-2.37914906513845

> <r_i_glide_gscore>
-10.3904477910954

> <r_i_glide_lipo>
-4.70198551456883

> <r_i_glide_hbond>
-0.32

> <r_i_glide_metal>
0

> <r_i_glide_rewards>
-2.83722860753517

> <r_i_glide_evdw>
-49.2587280273438

> <r_i_glide_ecoul>
-3.50241446495056

> <r_i_glide_erotb>
0.482779296820349

> <r_i_glide_esite>
-0.0257143947019362

> <r_i_glide_emodel>
-80.7816726091658

> <r_i_glide_energy>
-52.7611424922943

> <r_i_glide_einternal>
4.55265235900879

> <i_i_glide_confnum>
31

> <i_i_glide_posenum>
208

> <r_i_glide_eff_state_penalty>
0

> <s_user_duplicate_titles>
CHEMBL1900_lig158,236395

> <s_m_subgroup_title>
dock_pv

> <s_m_subgroupid>
dock_pv

> <b_m_subgroup_collapsed>
1

$$$$
CHEMBL1900_lig288
                    3D
 Schrodinger Suite 2021-1.
 39 42  0  0  1  0            999 V2000
   17.7992   -8.0720   15.4319 N   0  0  0  0  0  0
   17.2592   -7.3136   16.4595 N   0  0  0  0  0  0
   17.5610   -9.4085   15.1769 C   0  0  0  0  0  0
   16.4047   -7.8118   17.2738 C   0  0  0  0  0  0
   17.9475   -6.5721   13.4150 C   0  0  0  0  0  0
   18.5964   -5.7150   12.6900 N   0  0  0  0  0  0
   18.6798   -7.3214   14.5200 C   0  0  0  0  0  0
   16.5263   -9.9907   16.1300 C   0  0  0  0  0  0
   16.2548   -6.7406   12.9810 S   0  0  0  0  0  0
   15.9382   -9.2063   17.1442 C   0  0  0  0  0  0
   16.4953   -5.5818   11.6823 C   0  0  0  0  0  0
   15.8409   -6.9205   18.4012 C   0  0  0  0  0  0
   17.8437   -5.1604   11.7138 C   0  0  0  0  0  0
   16.5530   -5.5737   18.6317 C   0  0  0  0  0  0
   15.6070   -5.0792   10.7206 C   0  0  0  0  0  0
   18.1069  -10.0525   14.2752 O   0  0  0  0  0  0
   16.1450   -4.5064   18.1829 O   0  0  0  0  0  0
   18.3219   -4.2356   10.7750 C   0  0  0  0  0  0
   16.1214   -4.1838    9.7809 C   0  0  0  0  0  0
   17.6808   -5.7150   19.3810 O   0  0  0  0  0  0
   17.4468   -3.7672    9.8049 C   0  0  0  0  0  0
   16.1450  -11.3298   15.9718 C   0  0  0  0  0  0
   15.3450   -3.7150    8.7700 O   0  0  0  0  0  0
   14.9450   -9.7736   17.9546 C   0  0  0  0  0  0
   15.1644  -11.8811   16.7957 C   0  0  0  0  0  0
   14.5610  -11.1028   17.7810 C   0  0  0  0  0  0
   19.2996   -6.6438   15.1109 H   0  0  0  0  0  0
   19.4185   -7.9777   14.0542 H   0  0  0  0  0  0
   14.7955   -6.7048   18.1810 H   0  0  0  0  0  0
   15.8513   -7.4671   19.3438 H   0  0  0  0  0  0
   14.5749   -5.3957   10.6893 H   0  0  0  0  0  0
   19.3450   -3.9023   10.7865 H   0  0  0  0  0  0
   17.8910   -6.6318   19.5702 H   0  0  0  0  0  0
   17.7999   -3.0717    9.0567 H   0  0  0  0  0  0
   16.5902  -11.9431   15.1999 H   0  0  0  0  0  0
   14.3966   -3.6112    8.9597 H   0  0  0  0  0  0
   14.4642   -9.2015   18.7305 H   0  0  0  0  0  0
   14.8621  -12.9100   16.6628 H   0  0  0  0  0  0
   13.7906  -11.5306   18.4080 H   0  0  0  0  0  0
  1  2  1  0  0  0
  1  3  1  0  0  0
  1  7  1  0  0  0
  2  4  2  0  0  0
  3  8  1  0  0  0
  3 16  2  0  0  0
  4 12  1  0  0  0
  4 10  1  0  0  0
  5  7  1  0  0  0
  5  6  2  0  0  0
  5  9  1  0  0  0
  6 13  1  0  0  0
  7 27  1  0  0  0
  7 28  1  0  0  0
  8 10  1  0  0  0
  8 22  2  0  0  0
  9 11  1  0  0  0
 10 24  2  0  0  0
 11 15  1  0  0  0
 11 13  2  0  0  0
 12 14  1  0  0  0
 12 29  1  0  0  0
 12 30  1  0  0  0
 13 18  1  0  0  0
 14 17  2  0  0  0
 14 20  1  0  0  0
 15 19  2  0  0  0
 15 31  1  0  0  0
 18 21  2  0  0  0
 18 32  1  0  0  0
 19 23  1  0  0  0
 19 21  1  0  0  0
 20 33  1  0  0  0
 21 34  1  0  0  0
 22 25  1  0  0  0
 22 35  1  0  0  0
 23 36  1  0  0  0
 24 26  1  0  0  0
 24 37  1  0  0  0
 25 26  2  0  0  0
 25 38  1  0  0  0
 26 39  1  0  0  0
M  END
> <s_m_entry_id>
6202

> <s_m_entry_name>
dock_pv.37

> <s_m_Source_Path>
/home/csk/Desktop/cluster/DUD-E-result/aldr

> <s_m_Source_File>
dock_pv.maegz

> <i_m_Source_File_Index>
37

> <chembl_id>
CHEMBL278832

> <chembl_pref_name>
None

> <i_lp_mmshare_version>
53161

> <i_f3d_flags>
0

> <r_lp_tautomer_probability>
1

> <s_lp_Force_Field>
OPLS_2005

> <r_lp_Energy>
24.200648

> <b_lp_Chiralities_Consistent>
1

> <s_lp_Variant>
CHEMBL1900_lig288-1

> <s_i_glide_gridfile>
glide-grid_2hv5

> <i_i_glide_lignum>
403

> <i_i_glide_rotatable_bonds>
6

> <r_i_docking_score>
-10.3856135870846

> <r_i_glide_ligand_efficiency>
-0.399446676426333

> <r_i_glide_ligand_efficiency_sa>
-1.18335920716624

> <r_i_glide_ligand_efficiency_ln>
-2.43902727294913

> <r_i_glide_gscore>
-10.3856135870846

> <r_i_glide_lipo>
-4.80828147620466

> <r_i_glide_hbond>
-0.32

> <r_i_glide_metal>
0

> <r_i_glide_rewards>
-2.46028537700079

> <r_i_glide_evdw>
-44.9204635620117

> <r_i_glide_ecoul>
-7.47845125198364

> <r_i_glide_erotb>
0.570744132018944

> <r_i_glide_esite>
0

> <r_i_glide_emodel>
-77.7954736399159

> <r_i_glide_energy>
-52.3989148139954

> <r_i_glide_einternal>
6.7365083694458

> <i_i_glide_confnum>
30

> <i_i_glide_posenum>
257

> <r_i_glide_eff_state_penalty>
0

> <s_user_duplicate_titles>
CHEMBL1900_lig288

> <s_m_subgroup_title>
dock_pv

> <s_m_subgroupid>
dock_pv

> <b_m_subgroup_collapsed>
1

$$$$
CHEMBL1900_lig184
                    3D
 Schrodinger Suite 2021-1.
 39 42  0  0  1  0            999 V2000
   17.9051   -8.1929   15.3843 N   0  0  0  0  0  0
   17.3696   -7.3570   16.3558 N   0  0  0  0  0  0
   17.6121   -9.5303   15.1890 C   0  0  0  0  0  0
   16.3585   -7.7352   17.0392 C   0  0  0  0  0  0
   17.9319   -6.6911   13.3682 C   0  0  0  0  0  0
   16.5157  -10.0120   16.1330 C   0  0  0  0  0  0
   16.2178   -6.9150   13.0645 S   0  0  0  0  0  0
   15.8909   -9.1319   17.0411 C   0  0  0  0  0  0
   15.6123   -6.6095   17.7663 C   0  0  0  0  0  0
   18.7351   -7.4983   14.3828 C   0  0  0  0  0  0
   18.3980   -5.6731   12.5751 C   0  0  0  0  0  0
   17.4872   -5.1558   11.6208 C   0  0  0  0  0  0
   16.2057   -5.7298   11.7794 C   0  0  0  0  0  0
   16.3511   -5.9620   18.9533 C   0  0  0  0  0  0
   18.1448  -10.2423   14.3330 O   0  0  0  0  0  0
   17.6815   -4.1972   10.6123 C   0  0  0  0  0  0
   15.7452   -5.3159   19.7968 O   0  0  0  0  0  0
   15.1230   -5.3486   10.9812 C   0  0  0  0  0  0
   16.6097   -3.8356    9.8015 C   0  0  0  0  0  0
   17.7039   -6.1156   18.9480 O   0  0  0  0  0  0
   15.3557   -4.4059    9.9852 C   0  0  0  0  0  0
   16.7950   -2.9146    8.8308 F   0  0  0  0  0  0
   16.1289  -11.3579   16.0870 C   0  0  0  0  0  0
   14.9451   -9.6402   17.9406 C   0  0  0  0  0  0
   15.1533  -11.8366   16.9603 C   0  0  0  0  0  0
   14.5675  -10.9810   17.8908 C   0  0  0  0  0  0
   15.4091   -5.8058   17.0598 H   0  0  0  0  0  0
   14.6287   -6.9292   18.1049 H   0  0  0  0  0  0
   19.4558   -6.8670   14.9059 H   0  0  0  0  0  0
   19.3722   -8.1939   13.8315 H   0  0  0  0  0  0
   19.3969   -5.3155   12.6556 H   0  0  0  0  0  0
   18.6440   -3.7359   10.4679 H   0  0  0  0  0  0
   14.1415   -5.7809   11.1183 H   0  0  0  0  0  0
   17.9912   -6.5773   18.1528 H   0  0  0  0  0  0
   14.5452   -4.1150    9.3378 H   0  0  0  0  0  0
   16.5839  -12.0388   15.3804 H   0  0  0  0  0  0
   14.4879   -9.0091   18.6831 H   0  0  0  0  0  0
   14.8539  -12.8749   16.9227 H   0  0  0  0  0  0
   13.8182  -11.3588   18.5724 H   0  0  0  0  0  0
  1  2  1  0  0  0
  1  3  1  0  0  0
  1 10  1  0  0  0
  2  4  2  0  0  0
  3  6  1  0  0  0
  3 15  2  0  0  0
  4  9  1  0  0  0
  4  8  1  0  0  0
  5 10  1  0  0  0
  5  7  1  0  0  0
  5 11  2  0  0  0
  6  8  2  0  0  0
  6 23  1  0  0  0
  7 13  1  0  0  0
  8 24  1  0  0  0
  9 14  1  0  0  0
  9 27  1  0  0  0
  9 28  1  0  0  0
 10 29  1  0  0  0
 10 30  1  0  0  0
 11 12  1  0  0  0
 11 31  1  0  0  0
 12 16  1  0  0  0
 12 13  2  0  0  0
 13 18  1  0  0  0
 14 17  2  0  0  0
 14 20  1  0  0  0
 16 19  2  0  0  0
 16 32  1  0  0  0
 18 21  2  0  0  0
 18 33  1  0  0  0
 19 22  1  0  0  0
 19 21  1  0  0  0
 20 34  1  0  0  0
 21 35  1  0  0  0
 23 25  2  0  0  0
 23 36  1  0  0  0
 24 26  2  0  0  0
 24 37  1  0  0  0
 25 26  1  0  0  0
 25 38  1  0  0  0
 26 39  1  0  0  0
M  END
> <s_m_entry_id>
6203

> <s_m_entry_name>
dock_pv.38

> <s_m_Source_Path>
/home/csk/Desktop/cluster/DUD-E-result/aldr

> <s_m_Source_File>
dock_pv.maegz

> <i_m_Source_File_Index>
38

> <chembl_id>
CHEMBL357460

> <chembl_pref_name>
None

> <i_lp_mmshare_version>
53161

> <i_f3d_flags>
0

> <r_lp_tautomer_probability>
1

> <s_lp_Force_Field>
OPLS_2005

> <r_lp_Energy>
28.451608

> <b_lp_Chiralities_Consistent>
1

> <s_lp_Variant>
CHEMBL1900_lig184-1

> <s_i_glide_gridfile>
glide-grid_2hv5

> <i_i_glide_lignum>
260

> <i_i_glide_rotatable_bonds>
5

> <r_i_docking_score>
-10.3702501962184

> <r_i_glide_ligand_efficiency>
-0.398855776777631

> <r_i_glide_ligand_efficiency_sa>
-1.18160866928204

> <r_i_glide_ligand_efficiency_ln>
-2.43541923101559

> <r_i_glide_gscore>
-10.3702501962184

> <r_i_glide_lipo>
-5.03691000247312

> <r_i_glide_hbond>
-0.32

> <r_i_glide_metal>
0

> <r_i_glide_rewards>
-2.83252078085852

> <r_i_glide_evdw>
-45.8999137878418

> <r_i_glide_ecoul>
-3.02530002593994

> <r_i_glide_erotb>
0.567971280396309

> <r_i_glide_esite>
0

> <r_i_glide_emodel>
-74.8175722649732

> <r_i_glide_energy>
-48.9252138137817

> <r_i_glide_einternal>
6.15530109405518

> <i_i_glide_confnum>
30

> <i_i_glide_posenum>
4

> <r_i_glide_eff_state_penalty>
0

> <s_user_duplicate_titles>
CHEMBL1900_lig184,235947

> <s_m_subgroup_title>
dock_pv

> <s_m_subgroupid>
dock_pv

> <b_m_subgroup_collapsed>
1

$$$$
CHEMBL1900_lig275
                    3D
 Schrodinger Suite 2021-1.
 38 41  0  0  1  0            999 V2000
   17.9640   -8.0962   15.2953 N   0  0  0  0  0  0
   17.3925   -7.2715   16.2553 N   0  0  0  0  0  0
   17.6788   -9.4324   15.0831 C   0  0  0  0  0  0
   16.3808   -7.6679   16.9300 C   0  0  0  0  0  0
   17.9872   -6.6134   13.2719 C   0  0  0  0  0  0
   18.5456   -5.7146   12.5164 N   0  0  0  0  0  0
   16.3662   -5.6219   11.7049 C   0  0  0  0  0  0
   17.6925   -5.1545   11.6239 C   0  0  0  0  0  0
   16.2763   -6.8332   12.9736 S   0  0  0  0  0  0
   18.7990   -7.3792   14.3106 C   0  0  0  0  0  0
   16.5827   -9.9366   16.0162 C   0  0  0  0  0  0
   15.9263   -9.0681   16.9161 C   0  0  0  0  0  0
   15.6426   -6.5711   17.7040 C   0  0  0  0  0  0
   15.3744   -5.1054   10.8667 C   0  0  0  0  0  0
   18.0404   -4.1699   10.6860 C   0  0  0  0  0  0
   16.3641   -6.0784   18.9696 C   0  0  0  0  0  0
   15.7337   -4.1238    9.9456 C   0  0  0  0  0  0
   17.0417   -3.6596    9.8604 C   0  0  0  0  0  0
   18.2157  -10.1270   14.2125 O   0  0  0  0  0  0
   15.7455   -5.6385   19.9304 O   0  0  0  0  0  0
   13.7457   -5.6397   10.9836 Cl  0  0  0  0  0  0
   17.3452   -2.6816    8.9805 F   0  0  0  0  0  0
   17.7243   -6.1140   18.8911 O   0  0  0  0  0  0
   16.2152  -11.2881   15.9621 C   0  0  0  0  0  0
   14.9591   -9.5848   17.7885 C   0  0  0  0  0  0
   15.2275  -11.7813   16.8143 C   0  0  0  0  0  0
   14.6055  -10.9335   17.7298 C   0  0  0  0  0  0
   19.4804   -6.7178   14.8481 H   0  0  0  0  0  0
   19.4736   -8.0594   13.7828 H   0  0  0  0  0  0
   15.5044   -5.7021   17.0597 H   0  0  0  0  0  0
   14.6331   -6.8809   17.9706 H   0  0  0  0  0  0
   19.0461   -3.7907   10.6191 H   0  0  0  0  0  0
   14.9766   -3.7033    9.2990 H   0  0  0  0  0  0
   18.0098   -6.4405   18.0315 H   0  0  0  0  0  0
   16.6964  -11.9634   15.2659 H   0  0  0  0  0  0
   14.4758   -8.9652   18.5271 H   0  0  0  0  0  0
   14.9470  -12.8239   16.7707 H   0  0  0  0  0  0
   13.8437  -11.3230   18.3924 H   0  0  0  0  0  0
  1  2  1  0  0  0
  1  3  1  0  0  0
  1 10  1  0  0  0
  2  4  2  0  0  0
  3 11  1  0  0  0
  3 19  2  0  0  0
  4 13  1  0  0  0
  4 12  1  0  0  0
  5 10  1  0  0  0
  5  6  2  0  0  0
  5  9  1  0  0  0
  6  8  1  0  0  0
  7  9  1  0  0  0
  7 14  1  0  0  0
  7  8  2  0  0  0
  8 15  1  0  0  0
 10 28  1  0  0  0
 10 29  1  0  0  0
 11 12  1  0  0  0
 11 24  2  0  0  0
 12 25  2  0  0  0
 13 16  1  0  0  0
 13 30  1  0  0  0
 13 31  1  0  0  0
 14 17  2  0  0  0
 14 21  1  0  0  0
 15 18  2  0  0  0
 15 32  1  0  0  0
 16 20  2  0  0  0
 16 23  1  0  0  0
 17 18  1  0  0  0
 17 33  1  0  0  0
 18 22  1  0  0  0
 23 34  1  0  0  0
 24 26  1  0  0  0
 24 35  1  0  0  0
 25 27  1  0  0  0
 25 36  1  0  0  0
 26 27  2  0  0  0
 26 37  1  0  0  0
 27 38  1  0  0  0
M  END
> <s_m_entry_id>
6204

> <s_m_entry_name>
dock_pv.39

> <s_m_Source_Path>
/home/csk/Desktop/cluster/DUD-E-result/aldr

> <s_m_Source_File>
dock_pv.maegz

> <i_m_Source_File_Index>
39

> <chembl_id>
CHEMBL416001

> <chembl_pref_name>
None

> <i_lp_mmshare_version>
53161

> <i_f3d_flags>
0

> <r_lp_tautomer_probability>
1

> <s_lp_Force_Field>
OPLS_2005

> <r_lp_Energy>
24.525325

> <b_lp_Chiralities_Consistent>
1

> <s_lp_Variant>
CHEMBL1900_lig275-1

> <s_i_glide_gridfile>
glide-grid_2hv5

> <i_i_glide_lignum>
390

> <i_i_glide_rotatable_bonds>
5

> <r_i_docking_score>
-10.3641557853113

> <r_i_glide_ligand_efficiency>
-0.383857621678197

> <r_i_glide_ligand_efficiency_sa>
-1.15157286376946

> <r_i_glide_ligand_efficiency_ln>
-2.41260460035842

> <r_i_glide_gscore>
-10.3641557853113

> <r_i_glide_lipo>
-4.91411278544928

> <r_i_glide_hbond>
-0.32

> <r_i_glide_metal>
0

> <r_i_glide_rewards>
-2.65411496013203

> <r_i_glide_evdw>
-49.5734367370605

> <r_i_glide_ecoul>
-3.19300603866577

> <r_i_glide_erotb>
0.481694702922884

> <r_i_glide_esite>
0

> <r_i_glide_emodel>
-83.2111794727793

> <r_i_glide_energy>
-52.7664427757263

> <r_i_glide_einternal>
3.75629043579102

> <i_i_glide_confnum>
35

> <i_i_glide_posenum>
132

> <r_i_glide_eff_state_penalty>
0

> <s_user_duplicate_titles>
CHEMBL1900_lig275,24310

> <s_m_subgroup_title>
dock_pv

> <s_m_subgroupid>
dock_pv

> <b_m_subgroup_collapsed>
1

$$$$
CHEMBL1900_lig260
                    3D
 Schrodinger Suite 2021-1.
 38 41  0  0  1  0            999 V2000
   17.9275   -7.7780   14.9414 N   0  0  0  0  0  0
   17.3155   -6.9155   15.8426 N   0  0  0  0  0  0
   17.7414   -9.1450   14.8515 C   0  0  0  0  0  0
   16.4384   -7.3453   16.6664 C   0  0  0  0  0  0
   17.6956   -4.8695   11.2349 C   0  0  0  0  0  0
   16.3452   -5.2793   11.3394 C   0  0  0  0  0  0
   18.5400   -5.4741   12.1087 N   0  0  0  0  0  0
   17.9490   -6.3420   12.8770 C   0  0  0  0  0  0
   16.2250   -6.5147   12.5804 S   0  0  0  0  0  0
   18.7554   -7.1035   13.9234 C   0  0  0  0  0  0
   16.7469   -9.6531   15.8907 C   0  0  0  0  0  0
   16.1039   -8.7739   16.7879 C   0  0  0  0  0  0
   15.7456   -6.2717   17.5114 C   0  0  0  0  0  0
   16.3946   -6.0300   18.8823 C   0  0  0  0  0  0
   18.0686   -3.8911   10.2935 C   0  0  0  0  0  0
   15.3557   -4.7024   10.5355 C   0  0  0  0  0  0
   18.2936   -9.8700   14.0181 O   0  0  0  0  0  0
   15.7436   -5.7137   19.8665 O   0  0  0  0  0  0
   15.7457   -3.7285    9.6168 C   0  0  0  0  0  0
   17.0744   -3.3285    9.4948 C   0  0  0  0  0  0
   19.3528   -3.4840   10.1626 F   0  0  0  0  0  0
   14.0583   -5.0652   10.6436 F   0  0  0  0  0  0
   17.7447   -6.1367   18.8953 O   0  0  0  0  0  0
   16.4634  -11.0245   15.9382 C   0  0  0  0  0  0
   15.2186   -9.2909   17.7446 C   0  0  0  0  0  0
   15.5590  -11.5208   16.8769 C   0  0  0  0  0  0
   14.9413  -10.6569   17.7794 C   0  0  0  0  0  0
   19.4483   -6.4395   14.4450 H   0  0  0  0  0  0
   19.4206   -7.7965   13.4036 H   0  0  0  0  0  0
   15.7493   -5.3141   16.9879 H   0  0  0  0  0  0
   14.6950   -6.5248   17.6577 H   0  0  0  0  0  0
   14.9979   -3.2743    8.9857 H   0  0  0  0  0  0
   17.3376   -2.5694    8.7728 H   0  0  0  0  0  0
   18.0866   -6.0010   19.7797 H   0  0  0  0  0  0
   16.9368  -11.7094   15.2479 H   0  0  0  0  0  0
   14.7313   -8.6504   18.4636 H   0  0  0  0  0  0
   15.3352  -12.5776   16.9046 H   0  0  0  0  0  0
   14.2430  -11.0469   18.5063 H   0  0  0  0  0  0
  1  2  1  0  0  0
  1  3  1  0  0  0
  1 10  1  0  0  0
  2  4  2  0  0  0
  3 11  1  0  0  0
  3 17  2  0  0  0
  4 13  1  0  0  0
  4 12  1  0  0  0
  5  7  1  0  0  0
  5 15  1  0  0  0
  5  6  2  0  0  0
  6  9  1  0  0  0
  6 16  1  0  0  0
  7  8  2  0  0  0
  8 10  1  0  0  0
  8  9  1  0  0  0
 10 28  1  0  0  0
 10 29  1  0  0  0
 11 12  1  0  0  0
 11 24  2  0  0  0
 12 25  2  0  0  0
 13 14  1  0  0  0
 13 30  1  0  0  0
 13 31  1  0  0  0
 14 18  2  0  0  0
 14 23  1  0  0  0
 15 20  2  0  0  0
 15 21  1  0  0  0
 16 19  2  0  0  0
 16 22  1  0  0  0
 19 20  1  0  0  0
 19 32  1  0  0  0
 20 33  1  0  0  0
 23 34  1  0  0  0
 24 26  1  0  0  0
 24 35  1  0  0  0
 25 27  1  0  0  0
 25 36  1  0  0  0
 26 27  2  0  0  0
 26 37  1  0  0  0
 27 38  1  0  0  0
M  END
> <s_m_entry_id>
6205

> <s_m_entry_name>
dock_pv.40

> <s_m_Source_Path>
/home/csk/Desktop/cluster/DUD-E-result/aldr

> <s_m_Source_File>
dock_pv.maegz

> <i_m_Source_File_Index>
40

> <chembl_id>
CHEMBL282689

> <chembl_pref_name>
None

> <i_lp_mmshare_version>
53161

> <i_f3d_flags>
0

> <r_lp_tautomer_probability>
1

> <s_lp_Force_Field>
OPLS_2005

> <r_lp_Energy>
26.668656

> <b_lp_Chiralities_Consistent>
1

> <s_lp_Variant>
CHEMBL1900_lig260-1

> <s_i_glide_gridfile>
glide-grid_2hv5

> <i_i_glide_lignum>
374

> <i_i_glide_rotatable_bonds>
5

> <r_i_docking_score>
-10.3625761667094

> <r_i_glide_ligand_efficiency>
-0.383799117285534

> <r_i_glide_ligand_efficiency_sa>
-1.15139735059166

> <r_i_glide_ligand_efficiency_ln>
-2.41223689118994

> <r_i_glide_gscore>
-10.3625761667094

> <r_i_glide_lipo>
-4.66205411398564

> <r_i_glide_hbond>
-0.32

> <r_i_glide_metal>
0

> <r_i_glide_rewards>
-2.73584227750496

> <r_i_glide_evdw>
-49.9315071105957

> <r_i_glide_ecoul>
-4.29865646362305

> <r_i_glide_erotb>
0.519109906766724

> <r_i_glide_esite>
-0.022415856912311

> <r_i_glide_emodel>
-83.2618561021488

> <r_i_glide_energy>
-54.2301635742188

> <r_i_glide_einternal>
6.96223735809326

> <i_i_glide_confnum>
34

> <i_i_glide_posenum>
400

> <r_i_glide_eff_state_penalty>
0

> <s_user_duplicate_titles>
CHEMBL1900_lig260,24104

> <s_m_subgroup_title>
dock_pv

> <s_m_subgroupid>
dock_pv

> <b_m_subgroup_collapsed>
1

$$$$
CHEMBL1900_lig61
                    3D
 Schrodinger Suite 2021-1.
 40 43  0  0  1  0            999 V2000
   18.1460   -8.6483   15.1407 N   0  0  0  0  0  0
   17.8592   -9.9499   14.7713 C   0  0  0  0  0  0
   17.7445   -8.0083   16.3020 N   0  0  0  0  0  0
   16.9139   -8.5632   17.0981 C   0  0  0  0  0  0
   18.0337   -6.8747   13.3872 C   0  0  0  0  0  0
   16.8826  -10.6079   15.7386 C   0  0  0  0  0  0
   18.5389   -5.9855   12.5810 N   0  0  0  0  0  0
   16.3618   -9.9035   16.8449 C   0  0  0  0  0  0
   18.9183   -7.7869   14.2210 C   0  0  0  0  0  0
   16.2825   -6.9150   13.4162 S   0  0  0  0  0  0
   16.8783   -2.5691    9.3825 C   0  0  0  0  0  0
   17.5768   -5.3752   11.8382 C   0  0  0  0  0  0
   16.6395   -7.7957   18.3930 C   0  0  0  0  0  0
   16.2540   -5.8054   12.0881 C   0  0  0  0  0  0
   16.7028   -3.7964   10.2530 C   0  0  0  0  0  0
   17.8069   -4.3694   10.8980 C   0  0  0  0  0  0
   15.9232   -6.4564   18.1869 C   0  0  0  0  0  0
   16.4972  -11.8753   15.4304 N   0  0  0  0  0  0
   18.3207  -10.4998   13.7664 O   0  0  0  0  0  0
   15.1614   -5.3151   11.3717 C   0  0  0  0  0  0
   15.4117   -4.2998   10.4563 C   0  0  0  0  0  0
   15.3451   -6.1150   17.1545 O   0  0  0  0  0  0
   16.5451   -2.9144    8.1580 F   0  0  0  0  0  0
   16.0687   -1.5907    9.7792 F   0  0  0  0  0  0
   18.1312   -2.1152    9.3829 F   0  0  0  0  0  0
   15.9763   -5.7152   19.3316 O   0  0  0  0  0  0
   15.3348  -10.5073   17.5850 C   0  0  0  0  0  0
   15.5369  -12.4538   16.1947 C   0  0  0  0  0  0
   14.9236  -11.8021   17.2652 C   0  0  0  0  0  0
   19.6452   -7.2105   14.7962 H   0  0  0  0  0  0
   19.5454   -8.3746   13.5467 H   0  0  0  0  0  0
   16.0705   -8.3847   19.1075 H   0  0  0  0  0  0
   17.5946   -7.5880   18.8754 H   0  0  0  0  0  0
   18.8061   -4.0001   10.7349 H   0  0  0  0  0  0
   14.1536   -5.6527   11.5720 H   0  0  0  0  0  0
   14.5716   -3.8539    9.9406 H   0  0  0  0  0  0
   16.5468   -6.1183   19.9892 H   0  0  0  0  0  0
   14.8531  -10.0034   18.4090 H   0  0  0  0  0  0
   15.2462  -13.4572   15.9186 H   0  0  0  0  0  0
   14.1402  -12.2863   17.8319 H   0  0  0  0  0  0
  1  2  1  0  0  0
  1  3  1  0  0  0
  1  9  1  0  0  0
  2  6  1  0  0  0
  2 19  2  0  0  0
  3  4  2  0  0  0
  4  8  1  0  0  0
  4 13  1  0  0  0
  5  9  1  0  0  0
  5  7  2  0  0  0
  5 10  1  0  0  0
  6 18  2  0  0  0
  6  8  1  0  0  0
  7 12  1  0  0  0
  8 27  2  0  0  0
  9 30  1  0  0  0
  9 31  1  0  0  0
 10 14  1  0  0  0
 11 15  1  0  0  0
 11 23  1  0  0  0
 11 24  1  0  0  0
 11 25  1  0  0  0
 12 16  1  0  0  0
 12 14  2  0  0  0
 13 17  1  0  0  0
 13 32  1  0  0  0
 13 33  1  0  0  0
 14 20  1  0  0  0
 15 16  2  0  0  0
 15 21  1  0  0  0
 16 34  1  0  0  0
 17 22  2  0  0  0
 17 26  1  0  0  0
 18 28  1  0  0  0
 20 21  2  0  0  0
 20 35  1  0  0  0
 21 36  1  0  0  0
 26 37  1  0  0  0
 27 29  1  0  0  0
 27 38  1  0  0  0
 28 29  2  0  0  0
 28 39  1  0  0  0
 29 40  1  0  0  0
M  END
> <s_m_entry_id>
6206

> <s_m_entry_name>
dock_pv.41

> <s_m_Source_Path>
/home/csk/Desktop/cluster/DUD-E-result/aldr

> <s_m_Source_File>
dock_pv.maegz

> <i_m_Source_File_Index>
41

> <chembl_id>
CHEMBL69956

> <chembl_pref_name>
None

> <i_lp_mmshare_version>
53161

> <i_f3d_flags>
0

> <r_lp_tautomer_probability>
1

> <s_lp_Force_Field>
OPLS_2005

> <r_lp_Energy>
25.343154

> <b_lp_Chiralities_Consistent>
1

> <s_lp_Variant>
CHEMBL1900_lig61-1

> <s_i_glide_gridfile>
glide-grid_2hv5

> <i_i_glide_lignum>
96

> <i_i_glide_rotatable_bonds>
6

> <r_i_docking_score>
-10.3566845491866

> <r_i_glide_ligand_efficiency>
-0.357127053420226

> <r_i_glide_ligand_efficiency_sa>
-1.09720745389903

> <r_i_glide_ligand_efficiency_ln>
-2.37141813890327

> <r_i_glide_gscore>
-10.3566845491866

> <r_i_glide_lipo>
-4.65793498590326

> <r_i_glide_hbond>
-0.217481458953125

> <r_i_glide_metal>
0

> <r_i_glide_rewards>
-2.84583968392076

> <r_i_glide_evdw>
-44.6895484924316

> <r_i_glide_ecoul>
-5.65975093841553

> <r_i_glide_erotb>
0.448011644974498

> <r_i_glide_esite>
0

> <r_i_glide_emodel>
-74.3890352197701

> <r_i_glide_energy>
-50.3492994308472

> <r_i_glide_einternal>
4.02413511276245

> <i_i_glide_confnum>
18

> <i_i_glide_posenum>
387

> <r_i_glide_eff_state_penalty>
0

> <s_user_duplicate_titles>
CHEMBL1900_lig61,108452

> <s_m_subgroup_title>
dock_pv

> <s_m_subgroupid>
dock_pv

> <b_m_subgroup_collapsed>
1

$$$$
CHEMBL1900_lig50
                    3D
 Schrodinger Suite 2021-1.
 37 40  0  0  1  0            999 V2000
   17.9786   -8.0242   15.3803 N   0  0  0  0  0  0
   17.3544   -7.2213   16.3315 N   0  0  0  0  0  0
   16.3756   -7.6729   17.0224 C   0  0  0  0  0  0
   17.7349   -9.3662   15.1414 C   0  0  0  0  0  0
   16.6684   -9.9195   16.0760 C   0  0  0  0  0  0
   18.0031   -6.6073   13.3116 C   0  0  0  0  0  0
   18.5450   -5.7149   12.5371 N   0  0  0  0  0  0
   16.3739   -5.7075   11.7089 C   0  0  0  0  0  0
   17.6858   -5.2024   11.6233 C   0  0  0  0  0  0
   15.9776   -9.0894   16.9772 C   0  0  0  0  0  0
   16.3110   -6.9024   12.9813 S   0  0  0  0  0  0
   18.8129   -7.2755   14.4183 C   0  0  0  0  0  0
   15.6034   -6.6298   17.8414 C   0  0  0  0  0  0
   15.3642   -5.2336   10.8730 C   0  0  0  0  0  0
   18.0029   -4.2297   10.6624 C   0  0  0  0  0  0
   16.3495   -6.0371   19.0508 C   0  0  0  0  0  0
   15.7017   -4.2731    9.9225 C   0  0  0  0  0  0
   15.0023   -9.5567   17.8036 N   0  0  0  0  0  0
   18.2725  -10.0261   14.2475 O   0  0  0  0  0  0
   16.9948   -3.7735    9.8207 C   0  0  0  0  0  0
   15.7454   -5.4899   19.9667 O   0  0  0  0  0  0
   14.0970   -5.6800   10.9979 F   0  0  0  0  0  0
   16.3196  -11.2747   16.0140 C   0  0  0  0  0  0
   17.2749   -2.8234    8.9043 F   0  0  0  0  0  0
   17.7085   -6.1113   18.9803 O   0  0  0  0  0  0
   14.6931  -10.8776   17.7377 C   0  0  0  0  0  0
   15.3214  -11.7634   16.8597 C   0  0  0  0  0  0
   19.3865   -6.5278   14.9689 H   0  0  0  0  0  0
   19.5814   -7.9123   13.9726 H   0  0  0  0  0  0
   15.3455   -5.7902   17.1962 H   0  0  0  0  0  0
   14.6454   -7.0229   18.1812 H   0  0  0  0  0  0
   18.9915   -3.8145   10.5826 H   0  0  0  0  0  0
   14.9453   -3.9031    9.2540 H   0  0  0  0  0  0
   16.8083  -11.9476   15.3223 H   0  0  0  0  0  0
   17.9899   -6.5139   18.1531 H   0  0  0  0  0  0
   13.9178  -11.2274   18.4047 H   0  0  0  0  0  0
   15.0330  -12.8033   16.8313 H   0  0  0  0  0  0
  1  2  1  0  0  0
  1  4  1  0  0  0
  1 12  1  0  0  0
  2  3  2  0  0  0
  3 13  1  0  0  0
  3 10  1  0  0  0
  4  5  1  0  0  0
  4 19  2  0  0  0
  5 10  1  0  0  0
  5 23  2  0  0  0
  6 12  1  0  0  0
  6  7  2  0  0  0
  6 11  1  0  0  0
  7  9  1  0  0  0
  8 11  1  0  0  0
  8 14  1  0  0  0
  8  9  2  0  0  0
  9 15  1  0  0  0
 10 18  2  0  0  0
 12 28  1  0  0  0
 12 29  1  0  0  0
 13 16  1  0  0  0
 13 30  1  0  0  0
 13 31  1  0  0  0
 14 17  2  0  0  0
 14 22  1  0  0  0
 15 20  2  0  0  0
 15 32  1  0  0  0
 16 21  2  0  0  0
 16 25  1  0  0  0
 17 20  1  0  0  0
 17 33  1  0  0  0
 18 26  1  0  0  0
 20 24  1  0  0  0
 23 27  1  0  0  0
 23 34  1  0  0  0
 25 35  1  0  0  0
 26 27  2  0  0  0
 26 36  1  0  0  0
 27 37  1  0  0  0
M  END
> <s_m_entry_id>
6207

> <s_m_entry_name>
dock_pv.42

> <s_m_Source_Path>
/home/csk/Desktop/cluster/DUD-E-result/aldr

> <s_m_Source_File>
dock_pv.maegz

> <i_m_Source_File_Index>
42

> <chembl_id>
CHEMBL305064

> <chembl_pref_name>
None

> <i_lp_mmshare_version>
53161

> <i_f3d_flags>
0

> <r_lp_tautomer_probability>
1

> <s_lp_Force_Field>
OPLS_2005

> <r_lp_Energy>
18.263942

> <b_lp_Chiralities_Consistent>
1

> <s_lp_Variant>
CHEMBL1900_lig50-1

> <s_i_glide_gridfile>
glide-grid_2hv5

> <i_i_glide_lignum>
85

> <i_i_glide_rotatable_bonds>
5

> <r_i_docking_score>
-10.3549071663355

> <r_i_glide_ligand_efficiency>
-0.383515080234649

> <r_i_glide_ligand_efficiency_sa>
-1.15054523943994

> <r_i_glide_ligand_efficiency_ln>
-2.41045167433625

> <r_i_glide_gscore>
-10.3549071663355

> <r_i_glide_lipo>
-4.58639692593019

> <r_i_glide_hbond>
-0.32

> <r_i_glide_metal>
0

> <r_i_glide_rewards>
-2.97005214037463

> <r_i_glide_evdw>
-49.2343711853027

> <r_i_glide_ecoul>
-3.55654048919678

> <r_i_glide_erotb>
0.516741532613959

> <r_i_glide_esite>
0

> <r_i_glide_emodel>
-80.9974123099937

> <r_i_glide_energy>
-52.7909116744995

> <r_i_glide_einternal>
7.41329336166382

> <i_i_glide_confnum>
2

> <i_i_glide_posenum>
109

> <r_i_glide_eff_state_penalty>
0

> <s_user_duplicate_titles>
CHEMBL1900_lig50,107859

> <s_m_subgroup_title>
dock_pv

> <s_m_subgroupid>
dock_pv

> <b_m_subgroup_collapsed>
1

$$$$
CHEMBL1900_lig295
                    3D
 Schrodinger Suite 2021-1.
 44 48  0  0  1  0            999 V2000
   18.1450   -8.3309   15.4121 N   0  0  0  0  0  0
   17.5645   -7.7822   16.5584 N   0  0  0  0  0  0
   17.9818   -9.6243   14.9531 C   0  0  0  0  0  0
   16.6520   -8.4164   17.2058 C   0  0  0  0  0  0
   17.8684   -6.6880   13.5445 C   0  0  0  0  0  0
   18.2296   -5.8792   12.5810 N   0  0  0  0  0  0
   17.1491   -5.4613   11.8534 C   0  0  0  0  0  0
   18.8309   -7.3558   14.5226 C   0  0  0  0  0  0
   16.9642  -10.4002   15.7809 C   0  0  0  0  0  0
   16.1465   -6.9151   13.6713 S   0  0  0  0  0  0
   16.2666   -9.7942   16.8461 C   0  0  0  0  0  0
   15.9101   -6.0141   12.2244 C   0  0  0  0  0  0
   15.9179   -7.7281   18.3844 C   0  0  0  0  0  0
   17.1566   -4.4473   10.8595 C   0  0  0  0  0  0
   16.4417   -6.4014   18.9812 C   0  0  0  0  0  0
   18.5448  -10.0799   13.9530 O   0  0  0  0  0  0
   14.7164   -5.7189   11.5748 C   0  0  0  0  0  0
   15.9218   -4.0738   10.2471 C   0  0  0  0  0  0
   15.7453   -5.7150   19.7255 O   0  0  0  0  0  0
   14.7390   -4.7662   10.5810 C   0  0  0  0  0  0
   17.7338   -6.1149   18.6793 O   0  0  0  0  0  0
   16.6886  -11.7295   15.4336 C   0  0  0  0  0  0
   15.2752  -10.5246   17.5209 C   0  0  0  0  0  0
   18.3242   -3.7067   10.5538 C   0  0  0  0  0  0
   15.8875   -2.9605    9.3901 C   0  0  0  0  0  0
   15.7170  -12.4489   16.1305 C   0  0  0  0  0  0
   15.0033  -11.8441   17.1634 C   0  0  0  0  0  0
   18.2279   -2.5549    9.7809 C   0  0  0  0  0  0
   17.0231   -2.1968    9.1865 C   0  0  0  0  0  0
   19.3537   -6.6163   15.1341 H   0  0  0  0  0  0
   19.6371   -7.8364   13.9627 H   0  0  0  0  0  0
   14.8819   -7.5561   18.0919 H   0  0  0  0  0  0
   15.8853   -8.4155   19.2287 H   0  0  0  0  0  0
   13.7759   -6.1505   11.8790 H   0  0  0  0  0  0
   13.8033   -4.5150   10.1116 H   0  0  0  0  0  0
   18.0423   -6.7127   17.9869 H   0  0  0  0  0  0
   17.2131  -12.2069   14.6161 H   0  0  0  0  0  0
   14.7035  -10.0929   18.3292 H   0  0  0  0  0  0
   19.2684   -3.9850   10.9814 H   0  0  0  0  0  0
   14.9450   -2.6448    8.9811 H   0  0  0  0  0  0
   15.5056  -13.4721   15.8557 H   0  0  0  0  0  0
   14.2380  -12.3990   17.6888 H   0  0  0  0  0  0
   19.0968   -1.9331    9.6341 H   0  0  0  0  0  0
   16.9451   -1.3156    8.5685 H   0  0  0  0  0  0
  1  2  1  0  0  0
  1  3  1  0  0  0
  1  8  1  0  0  0
  2  4  2  0  0  0
  3  9  1  0  0  0
  3 16  2  0  0  0
  4 13  1  0  0  0
  4 11  1  0  0  0
  5  8  1  0  0  0
  5  6  2  0  0  0
  5 10  1  0  0  0
  6  7  1  0  0  0
  7 14  1  0  0  0
  7 12  2  0  0  0
  8 30  1  0  0  0
  8 31  1  0  0  0
  9 11  1  0  0  0
  9 22  2  0  0  0
 10 12  1  0  0  0
 11 23  2  0  0  0
 12 17  1  0  0  0
 13 15  1  0  0  0
 13 32  1  0  0  0
 13 33  1  0  0  0
 14 18  2  0  0  0
 14 24  1  0  0  0
 15 19  2  0  0  0
 15 21  1  0  0  0
 17 20  2  0  0  0
 17 34  1  0  0  0
 18 25  1  0  0  0
 18 20  1  0  0  0
 20 35  1  0  0  0
 21 36  1  0  0  0
 22 26  1  0  0  0
 22 37  1  0  0  0
 23 27  1  0  0  0
 23 38  1  0  0  0
 24 28  2  0  0  0
 24 39  1  0  0  0
 25 29  2  0  0  0
 25 40  1  0  0  0
 26 27  2  0  0  0
 26 41  1  0  0  0
 27 42  1  0  0  0
 28 29  1  0  0  0
 28 43  1  0  0  0
 29 44  1  0  0  0
M  END
> <s_m_entry_id>
6208

> <s_m_entry_name>
dock_pv.43

> <s_m_Source_Path>
/home/csk/Desktop/cluster/DUD-E-result/aldr

> <s_m_Source_File>
dock_pv.maegz

> <i_m_Source_File_Index>
43

> <chembl_id>
CHEMBL20756

> <chembl_pref_name>
None

> <i_lp_mmshare_version>
53161

> <i_f3d_flags>
0

> <r_lp_tautomer_probability>
1

> <s_lp_Force_Field>
OPLS_2005

> <r_lp_Energy>
39.317279

> <b_lp_Chiralities_Consistent>
1

> <s_lp_Variant>
CHEMBL1900_lig295-1

> <s_i_glide_gridfile>
glide-grid_2hv5

> <i_i_glide_lignum>
411

> <i_i_glide_rotatable_bonds>
5

> <r_i_docking_score>
-10.3463510345337

> <r_i_glide_ligand_efficiency>
-0.356770725328747

> <r_i_glide_ligand_efficiency_sa>
-1.09611270110934

> <r_i_glide_ligand_efficiency_ln>
-2.36905202608308

> <r_i_glide_gscore>
-10.3463510345337

> <r_i_glide_lipo>
-5.44319750388625

> <r_i_glide_hbond>
-0.32

> <r_i_glide_metal>
0

> <r_i_glide_rewards>
-2.16049181018865

> <r_i_glide_evdw>
-46.337646484375

> <r_i_glide_ecoul>
-3.95081496238708

> <r_i_glide_erotb>
0.486842848118064

> <r_i_glide_esite>
0

> <r_i_glide_emodel>
-67.4668658751933

> <r_i_glide_energy>
-50.2884614467621

> <r_i_glide_einternal>
3.06001281738281

> <i_i_glide_confnum>
19

> <i_i_glide_posenum>
272

> <r_i_glide_eff_state_penalty>
0

> <s_user_duplicate_titles>
CHEMBL1900_lig295,24282

> <s_m_subgroup_title>
dock_pv

> <s_m_subgroupid>
dock_pv

> <b_m_subgroup_collapsed>
1

$$$$
CHEMBL1900_lig180
                    3D
 Schrodinger Suite 2021-1.
 43 45  0  0  1  0            999 V2000
   18.0662   -8.9828   14.9712 N   0  0  0  0  0  0
   17.7450   -8.1252   16.0242 N   0  0  0  0  0  0
   17.6989  -10.3147   14.8741 C   0  0  0  0  0  0
   16.9592   -8.5014   16.9594 C   0  0  0  0  0  0
   16.6636  -10.7003   15.9283 C   0  0  0  0  0  0
   18.9424   -8.4250   13.9055 C   0  0  0  0  0  0
   17.6341   -2.9538    9.8315 C   0  0  0  0  0  0
   16.2543   -9.7897   16.9240 C   0  0  0  0  0  0
   16.9008   -7.5841   18.1804 C   0  0  0  0  0  0
   18.4072   -7.0829   13.3810 C   0  0  0  0  0  0
   16.8500   -4.0780   10.4979 C   0  0  0  0  0  0
   16.0980   -6.3016   17.9371 C   0  0  0  0  0  0
   17.3453   -7.1529   12.5580 N   0  0  0  0  0  0
   18.1351  -11.0989   14.0249 O   0  0  0  0  0  0
   17.4980   -5.0672   11.2491 C   0  0  0  0  0  0
   16.7569   -6.0930   11.8559 C   0  0  0  0  0  0
   18.9559   -6.0346   13.7156 O   0  0  0  0  0  0
   15.3443   -6.1147   16.9816 O   0  0  0  0  0  0
   18.8094   -2.7326   10.4254 F   0  0  0  0  0  0
   16.9454   -1.8126    9.7981 F   0  0  0  0  0  0
   17.8595   -3.3149    8.5810 F   0  0  0  0  0  0
   16.2798   -5.4246   18.9639 O   0  0  0  0  0  0
   16.0851  -11.9753   15.8775 C   0  0  0  0  0  0
   15.1750  -10.1167   17.7583 C   0  0  0  0  0  0
   15.4577   -4.1206   10.3621 C   0  0  0  0  0  0
   14.7197   -5.1282   10.9810 C   0  0  0  0  0  0
   15.3721   -6.1149   11.7133 C   0  0  0  0  0  0
   15.0487  -12.3092   16.7505 C   0  0  0  0  0  0
   14.5805  -11.3752   17.6741 C   0  0  0  0  0  0
   19.0312   -9.0754   13.0325 H   0  0  0  0  0  0
   19.9682   -8.3081   14.2505 H   0  0  0  0  0  0
   16.4774   -8.0969   19.0412 H   0  0  0  0  0  0
   17.9170   -7.3137   18.4714 H   0  0  0  0  0  0
   16.8812   -8.0441   12.4803 H   0  0  0  0  0  0
   18.5729   -5.0502   11.3471 H   0  0  0  0  0  0
   16.9441   -5.7308   19.5842 H   0  0  0  0  0  0
   16.4050  -12.6951   15.1365 H   0  0  0  0  0  0
   14.7918   -9.4140   18.4829 H   0  0  0  0  0  0
   14.9448   -3.3659    9.7833 H   0  0  0  0  0  0
   13.6441   -5.1466   10.8817 H   0  0  0  0  0  0
   14.8030   -6.8990   12.1784 H   0  0  0  0  0  0
   14.5867  -13.2836   16.6914 H   0  0  0  0  0  0
   13.7491  -11.6273   18.3194 H   0  0  0  0  0  0
  1  2  1  0  0  0
  1  3  1  0  0  0
  1  6  1  0  0  0
  2  4  2  0  0  0
  3  5  1  0  0  0
  3 14  2  0  0  0
  4  9  1  0  0  0
  4  8  1  0  0  0
  5  8  2  0  0  0
  5 23  1  0  0  0
  6 10  1  0  0  0
  6 30  1  0  0  0
  6 31  1  0  0  0
  7 11  1  0  0  0
  7 19  1  0  0  0
  7 20  1  0  0  0
  7 21  1  0  0  0
  8 24  1  0  0  0
  9 12  1  0  0  0
  9 32  1  0  0  0
  9 33  1  0  0  0
 10 13  1  0  0  0
 10 17  2  0  0  0
 11 15  2  0  0  0
 11 25  1  0  0  0
 12 18  2  0  0  0
 12 22  1  0  0  0
 13 16  1  0  0  0
 13 34  1  0  0  0
 15 16  1  0  0  0
 15 35  1  0  0  0
 16 27  2  0  0  0
 22 36  1  0  0  0
 23 28  2  0  0  0
 23 37  1  0  0  0
 24 29  2  0  0  0
 24 38  1  0  0  0
 25 26  2  0  0  0
 25 39  1  0  0  0
 26 27  1  0  0  0
 26 40  1  0  0  0
 27 41  1  0  0  0
 28 29  1  0  0  0
 28 42  1  0  0  0
 29 43  1  0  0  0
M  END
> <s_m_entry_id>
6209

> <s_m_entry_name>
dock_pv.44

> <s_m_Source_Path>
/home/csk/Desktop/cluster/DUD-E-result/aldr

> <s_m_Source_File>
dock_pv.maegz

> <i_m_Source_File_Index>
44

> <chembl_id>
CHEMBL344057

> <chembl_pref_name>
None

> <i_lp_mmshare_version>
53161

> <i_f3d_flags>
0

> <r_lp_tautomer_probability>
1

> <s_lp_Force_Field>
OPLS_2005

> <r_lp_Energy>
35.099096

> <b_lp_Chiralities_Consistent>
1

> <s_lp_Variant>
CHEMBL1900_lig180-1

> <s_i_glide_gridfile>
glide-grid_2hv5

> <i_i_glide_lignum>
256

> <i_i_glide_rotatable_bonds>
8

> <r_i_docking_score>
-10.3450122779347

> <r_i_glide_ligand_efficiency>
-0.356724561308093

> <r_i_glide_ligand_efficiency_sa>
-1.09597087061211

> <r_i_glide_ligand_efficiency_ln>
-2.36874548476986

> <r_i_glide_gscore>
-10.3450122779347

> <r_i_glide_lipo>
-4.17150157240513

> <r_i_glide_hbond>
-0.310586858278458

> <r_i_glide_metal>
0

> <r_i_glide_rewards>
-3.23246662419098

> <r_i_glide_evdw>
-51.3650093078613

> <r_i_glide_ecoul>
-5.19933032989502

> <r_i_glide_erotb>
0.717692791817177

> <r_i_glide_esite>
0

> <r_i_glide_emodel>
-84.2765744748261

> <r_i_glide_energy>
-56.5643396377563

> <r_i_glide_einternal>
7.22513580322266

> <i_i_glide_confnum>
73

> <i_i_glide_posenum>
320

> <r_i_glide_eff_state_penalty>
0

> <s_user_duplicate_titles>
CHEMBL1900_lig180,235742

> <s_m_subgroup_title>
dock_pv

> <s_m_subgroupid>
dock_pv

> <b_m_subgroup_collapsed>
1

$$$$
CHEMBL1900_lig314
                    3D
 Schrodinger Suite 2021-1.
 38 41  0  0  1  0            999 V2000
   17.9862   -8.1567   15.3108 N   0  0  0  0  0  0
   17.4328   -7.3153   16.2687 N   0  0  0  0  0  0
   17.6762   -9.4898   15.1061 C   0  0  0  0  0  0
   16.4100   -7.6885   16.9395 C   0  0  0  0  0  0
   18.0035   -6.6646   13.2982 C   0  0  0  0  0  0
   18.5459   -5.7233   12.5812 N   0  0  0  0  0  0
   16.3668   -5.6678   11.7543 C   0  0  0  0  0  0
   17.6814   -5.1611   11.7017 C   0  0  0  0  0  0
   16.3007   -6.9115   12.9809 S   0  0  0  0  0  0
   18.8211   -7.4577   14.3118 C   0  0  0  0  0  0
   16.5677   -9.9649   16.0424 C   0  0  0  0  0  0
   15.9312   -9.0809   16.9370 C   0  0  0  0  0  0
   15.6820   -6.5701   17.6883 C   0  0  0  0  0  0
   15.3668   -5.1570   10.9241 C   0  0  0  0  0  0
   18.0068   -4.1350   10.8081 C   0  0  0  0  0  0
   16.3821   -6.1063   18.9770 C   0  0  0  0  0  0
   15.7052   -4.1260   10.0509 C   0  0  0  0  0  0
   16.9974   -3.6123   10.0052 C   0  0  0  0  0  0
   18.1928  -10.1988   14.2392 O   0  0  0  0  0  0
   15.7456   -5.7124   19.9457 O   0  0  0  0  0  0
   14.1036   -5.6262   10.9831 F   0  0  0  0  0  0
   17.3439   -2.2759    8.9808 Cl  0  0  0  0  0  0
   17.7433   -6.1149   18.9075 O   0  0  0  0  0  0
   16.1734  -11.3094   15.9954 C   0  0  0  0  0  0
   14.9561   -9.5741   17.8162 C   0  0  0  0  0  0
   15.1788  -11.7788   16.8524 C   0  0  0  0  0  0
   14.5756  -10.9156   17.7661 C   0  0  0  0  0  0
   19.5339   -6.8223   14.8391 H   0  0  0  0  0  0
   19.4622   -8.1508   13.7654 H   0  0  0  0  0  0
   15.5912   -5.6961   17.0434 H   0  0  0  0  0  0
   14.6560   -6.8526   17.9228 H   0  0  0  0  0  0
   18.9985   -3.7186   10.7772 H   0  0  0  0  0  0
   14.9451   -3.6999    9.4130 H   0  0  0  0  0  0
   18.0384   -6.4211   18.0459 H   0  0  0  0  0  0
   16.6361  -11.9988   15.3010 H   0  0  0  0  0  0
   14.4867   -8.9357   18.5460 H   0  0  0  0  0  0
   14.8760  -12.8155   16.8162 H   0  0  0  0  0  0
   13.8102  -11.2869   18.4336 H   0  0  0  0  0  0
  1  2  1  0  0  0
  1  3  1  0  0  0
  1 10  1  0  0  0
  2  4  2  0  0  0
  3 11  1  0  0  0
  3 19  2  0  0  0
  4 13  1  0  0  0
  4 12  1  0  0  0
  5 10  1  0  0  0
  5  6  2  0  0  0
  5  9  1  0  0  0
  6  8  1  0  0  0
  7  9  1  0  0  0
  7 14  1  0  0  0
  7  8  2  0  0  0
  8 15  1  0  0  0
 10 28  1  0  0  0
 10 29  1  0  0  0
 11 12  1  0  0  0
 11 24  2  0  0  0
 12 25  2  0  0  0
 13 16  1  0  0  0
 13 30  1  0  0  0
 13 31  1  0  0  0
 14 17  2  0  0  0
 14 21  1  0  0  0
 15 18  2  0  0  0
 15 32  1  0  0  0
 16 20  2  0  0  0
 16 23  1  0  0  0
 17 18  1  0  0  0
 17 33  1  0  0  0
 18 22  1  0  0  0
 23 34  1  0  0  0
 24 26  1  0  0  0
 24 35  1  0  0  0
 25 27  1  0  0  0
 25 36  1  0  0  0
 26 27  2  0  0  0
 26 37  1  0  0  0
 27 38  1  0  0  0
M  END
> <s_m_entry_id>
6210

> <s_m_entry_name>
dock_pv.45

> <s_m_Source_Path>
/home/csk/Desktop/cluster/DUD-E-result/aldr

> <s_m_Source_File>
dock_pv.maegz

> <i_m_Source_File_Index>
45

> <chembl_id>
CHEMBL20518

> <chembl_pref_name>
None

> <i_lp_mmshare_version>
53161

> <i_f3d_flags>
0

> <r_lp_tautomer_probability>
1

> <s_lp_Force_Field>
OPLS_2005

> <r_lp_Energy>
24.533817

> <b_lp_Chiralities_Consistent>
1

> <s_lp_Variant>
CHEMBL1900_lig314-1

> <s_i_glide_gridfile>
glide-grid_2hv5

> <i_i_glide_lignum>
431

> <i_i_glide_rotatable_bonds>
5

> <r_i_docking_score>
-10.3390678053518

> <r_i_glide_ligand_efficiency>
-0.382928437235251

> <r_i_glide_ligand_efficiency_sa>
-1.14878531044368

> <r_i_glide_ligand_efficiency_ln>
-2.40676453223151

> <r_i_glide_gscore>
-10.3390678053518

> <r_i_glide_lipo>
-5.03340205035046

> <r_i_glide_hbond>
-0.32

> <r_i_glide_metal>
0

> <r_i_glide_rewards>
-2.45664218380768

> <r_i_glide_evdw>
-49.7794609069824

> <r_i_glide_ecoul>
-3.47830152511597

> <r_i_glide_erotb>
0.481694702922884

> <r_i_glide_esite>
0

> <r_i_glide_emodel>
-83.5575657392557

> <r_i_glide_energy>
-53.2577624320984

> <r_i_glide_einternal>
3.54993438720703

> <i_i_glide_confnum>
33

> <i_i_glide_posenum>
129

> <r_i_glide_eff_state_penalty>
0

> <s_user_duplicate_titles>
CHEMBL1900_lig314,24263

> <s_m_subgroup_title>
dock_pv

> <s_m_subgroupid>
dock_pv

> <b_m_subgroup_collapsed>
1

$$$$
CHEMBL1900_lig179
                    3D
 Schrodinger Suite 2021-1.
 41 44  0  0  1  0            999 V2000
   17.7365   -8.5294   15.3981 N   0  0  0  0  0  0
   17.2386   -7.6628   16.3614 N   0  0  0  0  0  0
   17.3886   -9.8570   15.2195 C   0  0  0  0  0  0
   16.2552   -8.0166   17.0970 C   0  0  0  0  0  0
   17.3293   -2.3556    9.4500 N   0  3  0  0  0  0
   17.9462   -6.9148   13.4685 C   0  0  0  0  0  0
   16.3371  -10.3083   16.2259 C   0  0  0  0  0  0
   16.2293   -6.9150   13.0995 S   0  0  0  0  0  0
   15.7941   -9.4128   17.1704 C   0  0  0  0  0  0
   15.5136   -6.8675   17.7890 C   0  0  0  0  0  0
   18.6322   -7.8883   14.4195 C   0  0  0  0  0  0
   17.7275   -5.2250   11.8446 C   0  0  0  0  0  0
   18.5450   -5.8801   12.8001 C   0  0  0  0  0  0
   17.0400   -3.6038   10.1810 C   0  0  0  0  0  0
   16.4068   -5.7231   11.8468 C   0  0  0  0  0  0
   18.0379   -4.1782   10.9758 C   0  0  0  0  0  0
   16.3054   -6.1374   18.8913 C   0  0  0  0  0  0
   18.3258   -1.7150    9.7810 O   0  5  0  0  0  0
   16.5450   -1.9969    8.5810 O   0  0  0  0  0  0
   17.8607  -10.5901   14.3454 O   0  0  0  0  0  0
   15.4198   -5.2322   10.9827 C   0  0  0  0  0  0
   15.7568   -4.1627   10.1605 C   0  0  0  0  0  0
   15.7450   -5.5841   19.8283 O   0  0  0  0  0  0
   17.6521   -6.1150   18.6954 O   0  0  0  0  0  0
   15.9270  -11.6483   16.2186 C   0  0  0  0  0  0
   14.9450   -9.9073   18.1684 C   0  0  0  0  0  0
   15.0243  -12.1090   17.1767 C   0  0  0  0  0  0
   14.5452  -11.2440   18.1583 C   0  0  0  0  0  0
   15.2576   -6.1150   17.0438 H   0  0  0  0  0  0
   14.5529   -7.1929   18.1810 H   0  0  0  0  0  0
   19.4260   -7.3831   14.9717 H   0  0  0  0  0  0
   19.1743   -8.6178   13.8144 H   0  0  0  0  0  0
   19.5777   -5.6368   12.9810 H   0  0  0  0  0  0
   19.0259   -3.7532   10.9810 H   0  0  0  0  0  0
   14.4104   -5.6202   11.0020 H   0  0  0  0  0  0
   14.9838   -3.7239    9.5419 H   0  0  0  0  0  0
   17.8794   -6.5728   17.8785 H   0  0  0  0  0  0
   16.3167  -12.3408   15.4846 H   0  0  0  0  0  0
   14.5693   -9.2723   18.9543 H   0  0  0  0  0  0
   14.7087  -13.1424   17.1705 H   0  0  0  0  0  0
   13.8610  -11.6118   18.9103 H   0  0  0  0  0  0
  1  2  1  0  0  0
  1  3  1  0  0  0
  1 11  1  0  0  0
  2  4  2  0  0  0
  3  7  1  0  0  0
  3 20  2  0  0  0
  4 10  1  0  0  0
  4  9  1  0  0  0
  5 14  1  0  0  0
  5 18  1  0  0  0
  5 19  2  0  0  0
  6 11  1  0  0  0
  6  8  1  0  0  0
  6 13  2  0  0  0
  7  9  2  0  0  0
  7 25  1  0  0  0
  8 15  1  0  0  0
  9 26  1  0  0  0
 10 17  1  0  0  0
 10 29  1  0  0  0
 10 30  1  0  0  0
 11 31  1  0  0  0
 11 32  1  0  0  0
 12 13  1  0  0  0
 12 16  1  0  0  0
 12 15  2  0  0  0
 13 33  1  0  0  0
 14 16  2  0  0  0
 14 22  1  0  0  0
 15 21  1  0  0  0
 16 34  1  0  0  0
 17 23  2  0  0  0
 17 24  1  0  0  0
 21 22  2  0  0  0
 21 35  1  0  0  0
 22 36  1  0  0  0
 24 37  1  0  0  0
 25 27  2  0  0  0
 25 38  1  0  0  0
 26 28  2  0  0  0
 26 39  1  0  0  0
 27 28  1  0  0  0
 27 40  1  0  0  0
 28 41  1  0  0  0
M  CHG  2   5   1  18  -1
M  END
> <s_m_entry_id>
6211

> <s_m_entry_name>
dock_pv.46

> <s_m_Source_Path>
/home/csk/Desktop/cluster/DUD-E-result/aldr

> <s_m_Source_File>
dock_pv.maegz

> <i_m_Source_File_Index>
46

> <chembl_id>
CHEMBL142647

> <chembl_pref_name>
None

> <i_lp_mmshare_version>
53161

> <i_f3d_flags>
0

> <r_lp_tautomer_probability>
1

> <s_lp_Force_Field>
OPLS_2005

> <r_lp_Energy>
29.63748

> <b_lp_Chiralities_Consistent>
1

> <s_lp_Variant>
CHEMBL1900_lig179-1

> <s_i_glide_gridfile>
glide-grid_2hv5

> <i_i_glide_lignum>
255

> <i_i_glide_rotatable_bonds>
6

> <r_i_docking_score>
-10.3352277182096

> <r_i_glide_ligand_efficiency>
-0.369115275650341

> <r_i_glide_ligand_efficiency_sa>
-1.1208513741457

> <r_i_glide_ligand_efficiency_ln>
-2.38567401283454

> <r_i_glide_gscore>
-10.3352277182096

> <r_i_glide_lipo>
-4.79093309799187

> <r_i_glide_hbond>
-0.32

> <r_i_glide_metal>
0

> <r_i_glide_rewards>
-2.68718000937343

> <r_i_glide_evdw>
-49.7610206604004

> <r_i_glide_ecoul>
-3.66260361671448

> <r_i_glide_erotb>
0.500326964682937

> <r_i_glide_esite>
0

> <r_i_glide_emodel>
-79.5121777500746

> <r_i_glide_energy>
-53.4236242771149

> <r_i_glide_einternal>
5.97663593292236

> <i_i_glide_confnum>
4

> <i_i_glide_posenum>
55

> <r_i_glide_eff_state_penalty>
0

> <s_user_duplicate_titles>
CHEMBL1900_lig179

> <s_m_subgroup_title>
dock_pv

> <s_m_subgroupid>
dock_pv

> <b_m_subgroup_collapsed>
1

$$$$
CHEMBL1900_lig286
                    3D
 Schrodinger Suite 2021-1.
 38 41  0  0  1  0            999 V2000
   18.1119   -8.0444   15.2850 N   0  0  0  0  0  0
   17.5417   -7.2340   16.2649 N   0  0  0  0  0  0
   17.8118   -9.3754   15.0457 C   0  0  0  0  0  0
   16.5205   -7.6373   16.9216 C   0  0  0  0  0  0
   18.0518   -6.6062   13.2335 C   0  0  0  0  0  0
   18.5437   -5.7140   12.4161 N   0  0  0  0  0  0
   18.9132   -7.3094   14.2801 C   0  0  0  0  0  0
   16.7257   -9.8933   15.9795 C   0  0  0  0  0  0
   16.3387   -6.9119   13.0270 S   0  0  0  0  0  0
   17.6025   -5.2094   11.5680 C   0  0  0  0  0  0
   16.0759   -9.0397   16.8969 C   0  0  0  0  0  0
   15.7434   -6.5495   17.6763 C   0  0  0  0  0  0
   16.3010   -5.7363   11.7488 C   0  0  0  0  0  0
   16.3994   -6.0669   18.9799 C   0  0  0  0  0  0
   17.8233   -4.2326   10.5819 C   0  0  0  0  0  0
   18.3303  -10.0534   14.1526 O   0  0  0  0  0  0
   15.7450   -5.6263   19.9135 O   0  0  0  0  0  0
   15.2181   -5.3150   10.9764 C   0  0  0  0  0  0
   16.7347   -3.8095    9.8131 C   0  0  0  0  0  0
   17.7539   -6.1139   18.9731 O   0  0  0  0  0  0
   15.4666   -4.3532   10.0028 C   0  0  0  0  0  0
   16.9450   -2.5820    8.6194 Cl  0  0  0  0  0  0
   16.3584  -11.2439   15.9063 C   0  0  0  0  0  0
   15.1320   -9.5744   17.7825 C   0  0  0  0  0  0
   15.3864  -11.7538   16.7677 C   0  0  0  0  0  0
   14.7815  -10.9229   17.7107 C   0  0  0  0  0  0
   19.5682   -6.6075   14.7992 H   0  0  0  0  0  0
   19.6131   -7.9720   13.7664 H   0  0  0  0  0  0
   15.6354   -5.6713   17.0383 H   0  0  0  0  0  0
   14.7228   -6.8662   17.8915 H   0  0  0  0  0  0
   18.8015   -3.8028   10.4355 H   0  0  0  0  0  0
   14.2255   -5.7212   11.1222 H   0  0  0  0  0  0
   18.0814   -6.4384   18.1282 H   0  0  0  0  0  0
   14.6487   -4.0262    9.3818 H   0  0  0  0  0  0
   16.8268  -11.9037   15.1879 H   0  0  0  0  0  0
   14.6567   -8.9647   18.5369 H   0  0  0  0  0  0
   15.1079  -12.7969   16.7119 H   0  0  0  0  0  0
   14.0364  -11.3254   18.3840 H   0  0  0  0  0  0
  1  2  1  0  0  0
  1  3  1  0  0  0
  1  7  1  0  0  0
  2  4  2  0  0  0
  3  8  1  0  0  0
  3 16  2  0  0  0
  4 12  1  0  0  0
  4 11  1  0  0  0
  5  7  1  0  0  0
  5  6  2  0  0  0
  5  9  1  0  0  0
  6 10  1  0  0  0
  7 27  1  0  0  0
  7 28  1  0  0  0
  8 11  1  0  0  0
  8 23  2  0  0  0
  9 13  1  0  0  0
 10 15  1  0  0  0
 10 13  2  0  0  0
 11 24  2  0  0  0
 12 14  1  0  0  0
 12 29  1  0  0  0
 12 30  1  0  0  0
 13 18  1  0  0  0
 14 17  2  0  0  0
 14 20  1  0  0  0
 15 19  2  0  0  0
 15 31  1  0  0  0
 18 21  2  0  0  0
 18 32  1  0  0  0
 19 22  1  0  0  0
 19 21  1  0  0  0
 20 33  1  0  0  0
 21 34  1  0  0  0
 23 25  1  0  0  0
 23 35  1  0  0  0
 24 26  1  0  0  0
 24 36  1  0  0  0
 25 26  2  0  0  0
 25 37  1  0  0  0
 26 38  1  0  0  0
M  END
> <s_m_entry_id>
6212

> <s_m_entry_name>
dock_pv.47

> <s_m_Source_Path>
/home/csk/Desktop/cluster/DUD-E-result/aldr

> <s_m_Source_File>
dock_pv.maegz

> <i_m_Source_File_Index>
47

> <chembl_id>
CHEMBL20197

> <chembl_pref_name>
None

> <i_lp_mmshare_version>
53161

> <i_f3d_flags>
0

> <r_lp_tautomer_probability>
1

> <s_lp_Force_Field>
OPLS_2005

> <r_lp_Energy>
23.94508

> <b_lp_Chiralities_Consistent>
1

> <s_lp_Variant>
CHEMBL1900_lig286-1

> <s_i_glide_gridfile>
glide-grid_2hv5

> <i_i_glide_lignum>
401

> <i_i_glide_rotatable_bonds>
5

> <r_i_docking_score>
-10.3269867400726

> <r_i_glide_ligand_efficiency>
-0.397191797695099

> <r_i_glide_ligand_efficiency_sa>
-1.17667913779747

> <r_i_glide_ligand_efficiency_ln>
-2.42525895029871

> <r_i_glide_gscore>
-10.3269867400726

> <r_i_glide_lipo>
-5.13135500905376

> <r_i_glide_hbond>
-0.32

> <r_i_glide_metal>
0

> <r_i_glide_rewards>
-2.33184539958235

> <r_i_glide_evdw>
-49.1835289001465

> <r_i_glide_ecoul>
-4.04956388473511

> <r_i_glide_erotb>
0.522824696281137

> <r_i_glide_esite>
0

> <r_i_glide_emodel>
-83.0339321965333

> <r_i_glide_energy>
-53.2330927848816

> <r_i_glide_einternal>
5.8756890296936

> <i_i_glide_confnum>
14

> <i_i_glide_posenum>
332

> <r_i_glide_eff_state_penalty>
0

> <s_user_duplicate_titles>
CHEMBL1900_lig286,24229

> <s_m_subgroup_title>
dock_pv

> <s_m_subgroupid>
dock_pv

> <b_m_subgroup_collapsed>
1

$$$$
CHEMBL1900_lig643
                    3D
 Schrodinger Suite 2021-1.
 39 40  0  0  1  0            999 V2000
   16.5450   -5.0033   21.9510 C   0  0  0  0  0  0
   16.0896   -3.7151   22.1711 C   0  0  0  0  0  0
   15.7443   -2.8979   21.0975 C   0  0  0  0  0  0
   15.8118   -3.3908   19.7956 C   0  0  0  0  0  0
   16.1980   -4.7155   19.5698 C   0  0  0  0  0  0
   16.5688   -5.5043   20.6575 C   0  0  0  0  0  0
   16.1516   -5.2783   18.2044 C   0  0  0  0  0  0
   16.5915   -6.5028   17.8308 C   0  0  0  0  0  0
   16.3956   -7.0015   16.4812 C   0  0  0  0  0  0
   17.2478   -8.1008   16.0363 C   0  0  0  0  0  0
   15.4886   -6.5605   15.7809 O   0  0  0  0  0  0
   17.8350   -8.2387   14.8215 C   0  0  0  0  0  0
   17.7754   -7.2641   13.7400 C   0  0  0  0  0  0
   16.6437   -6.9415   13.0882 C   0  0  0  0  0  0
   16.4706   -5.9779   11.9856 C   0  0  0  0  0  0
   15.1652   -5.6889   11.5797 C   0  0  0  0  0  0
   14.9297   -4.7532   10.5811 C   0  0  0  0  0  0
   15.9981   -4.1155    9.9658 C   0  0  0  0  0  0
   17.3071   -4.4011   10.3458 C   0  0  0  0  0  0
   17.5441   -5.3269   11.3614 C   0  0  0  0  0  0
   18.5450   -9.3686   14.5872 O   0  0  0  0  0  0
   15.8967   -3.3134   23.4599 O   0  0  0  0  0  0
   15.7451   -3.1935    8.9896 O   0  0  0  0  0  0
   16.8025   -5.6393   22.7855 H   0  0  0  0  0  0
   15.3993   -1.8894   21.2658 H   0  0  0  0  0  0
   15.5254   -2.7491   18.9742 H   0  0  0  0  0  0
   16.8688   -6.5261   20.5199 H   0  0  0  0  0  0
   15.7043   -4.6363   17.4558 H   0  0  0  0  0  0
   17.0862   -7.1751   18.5149 H   0  0  0  0  0  0
   17.4022   -8.8739   16.7748 H   0  0  0  0  0  0
   18.9746   -9.3011   13.7307 H   0  0  0  0  0  0
   18.7020   -6.7877   13.4610 H   0  0  0  0  0  0
   15.7448   -7.4462   13.4028 H   0  0  0  0  0  0
   14.3158   -6.1516   12.0590 H   0  0  0  0  0  0
   13.9145   -4.5238   10.2931 H   0  0  0  0  0  0
   18.1307   -3.8943    9.8658 H   0  0  0  0  0  0
   18.5624   -5.5242   11.6556 H   0  0  0  0  0  0
   15.2978   -2.5596   23.5223 H   0  0  0  0  0  0
   14.7940   -3.0579    8.8712 H   0  0  0  0  0  0
  1  6  1  0  0  0
  1  2  2  0  0  0
  1 24  1  0  0  0
  2  3  1  0  0  0
  2 22  1  0  0  0
  3  4  2  0  0  0
  3 25  1  0  0  0
  4  5  1  0  0  0
  4 26  1  0  0  0
  5  6  2  0  0  0
  5  7  1  0  0  0
  6 27  1  0  0  0
  7  8  2  0  0  0
  7 28  1  0  0  0
  8 29  1  0  0  0
  8  9  1  0  0  0
  9 10  1  0  0  0
  9 11  2  0  0  0
 10 12  2  0  0  0
 10 30  1  0  0  0
 12 13  1  0  0  0
 12 21  1  0  0  0
 13 14  2  0  0  0
 13 32  1  0  0  0
 14 15  1  0  0  0
 14 33  1  0  0  0
 15 16  2  0  0  0
 15 20  1  0  0  0
 16 17  1  0  0  0
 16 34  1  0  0  0
 17 18  2  0  0  0
 17 35  1  0  0  0
 18 19  1  0  0  0
 18 23  1  0  0  0
 19 20  2  0  0  0
 19 36  1  0  0  0
 20 37  1  0  0  0
 21 31  1  0  0  0
 22 38  1  0  0  0
 23 39  1  0  0  0
M  END
> <s_m_entry_id>
6213

> <s_m_entry_name>
dock_pv.48

> <s_m_Source_Path>
/home/csk/Desktop/cluster/DUD-E-result/aldr

> <s_m_Source_File>
dock_pv.maegz

> <i_m_Source_File_Index>
48

> <chembl_id>
CHEMBL105350

> <chembl_pref_name>
BISDEMETHOXYCURCUMIN

> <i_lp_mmshare_version>
53161

> <i_f3d_flags>
0

> <r_lp_tautomer_probability>
0.0769230769230769

> <s_lp_Force_Field>
OPLS_2005

> <r_lp_Energy>
20.208009

> <b_lp_Chiralities_Consistent>
1

> <s_lp_Variant>
CHEMBL1900_lig643-3

> <s_i_glide_gridfile>
glide-grid_2hv5

> <i_i_glide_lignum>
769

> <i_i_glide_rotatable_bonds>
8

> <r_i_docking_score>
-10.3267622773794

> <r_i_glide_ligand_efficiency>
-0.448989664233887

> <r_i_glide_ligand_efficiency_sa>
-1.27686687907486

> <r_i_glide_ligand_efficiency_ln>
-2.49710475657363

> <r_i_glide_gscore>
-10.3267622773794

> <r_i_glide_lipo>
-4.586533919566

> <r_i_glide_hbond>
-0.739744399059315

> <r_i_glide_metal>
0

> <r_i_glide_rewards>
-2.55033915872673

> <r_i_glide_evdw>
-39.0149345397949

> <r_i_glide_ecoul>
-11.1133432388306

> <r_i_glide_erotb>
1.16760341278698

> <r_i_glide_esite>
0

> <r_i_glide_emodel>
-69.5243409237477

> <r_i_glide_energy>
-50.1282777786255

> <r_i_glide_einternal>
13.1477975845337

> <i_i_glide_confnum>
13

> <i_i_glide_posenum>
312

> <r_i_glide_eff_state_penalty>
0

> <s_user_duplicate_titles>
CHEMBL1900_lig643,CHEMBL1900_lig643,CHEMBL1900_lig643

> <s_m_subgroup_title>
dock_pv

> <s_m_subgroupid>
dock_pv

> <b_m_subgroup_collapsed>
1

$$$$
CHEMBL1900_lig172
                    3D
 Schrodinger Suite 2021-1.
 38 41  0  0  1  0            999 V2000
   17.7967   -8.1789   15.0598 N   0  0  0  0  0  0
   17.2093   -7.2897   15.9529 N   0  0  0  0  0  0
   17.5701   -9.5410   14.9810 C   0  0  0  0  0  0
   16.2685   -7.6765   16.7290 C   0  0  0  0  0  0
   17.9848   -6.6564   13.0872 C   0  0  0  0  0  0
   18.5451   -5.6717   12.4277 N   0  0  0  0  0  0
   17.5760   -5.2365   11.5801 C   0  0  0  0  0  0
   16.4054   -5.9653   11.8217 C   0  0  0  0  0  0
   18.7020   -7.5556   14.0772 C   0  0  0  0  0  0
   16.5113  -10.0007   15.9770 C   0  0  0  0  0  0
   16.6755   -6.8995   12.7780 O   0  0  0  0  0  0
   15.8696   -9.0904   16.8424 C   0  0  0  0  0  0
   15.5753   -6.5625   17.5223 C   0  0  0  0  0  0
   15.2166   -5.7154   11.1413 C   0  0  0  0  0  0
   17.5950   -4.2381   10.5920 C   0  0  0  0  0  0
   16.3322   -6.1089   18.7807 C   0  0  0  0  0  0
   15.2447   -4.7051   10.1810 C   0  0  0  0  0  0
   16.4068   -3.9796    9.9064 C   0  0  0  0  0  0
   18.1435  -10.2988   14.1921 O   0  0  0  0  0  0
   15.7450   -5.7151   19.7811 O   0  0  0  0  0  0
   14.0958   -6.4249   11.3808 F   0  0  0  0  0  0
   16.3848   -3.0095    8.9663 F   0  0  0  0  0  0
   17.6869   -6.1164   18.6480 O   0  0  0  0  0  0
   16.1833  -11.3621   16.0294 C   0  0  0  0  0  0
   14.9486   -9.5719   17.7830 C   0  0  0  0  0  0
   15.2383  -11.8210   16.9464 C   0  0  0  0  0  0
   14.6271  -10.9290   17.8250 C   0  0  0  0  0  0
   19.4635   -6.9978   14.6239 H   0  0  0  0  0  0
   19.2795   -8.2840   13.5057 H   0  0  0  0  0  0
   15.4609   -5.6786   16.8972 H   0  0  0  0  0  0
   14.5606   -6.8461   17.7965 H   0  0  0  0  0  0
   18.4854   -3.6644   10.3905 H   0  0  0  0  0  0
   14.3424   -4.5137    9.6217 H   0  0  0  0  0  0
   17.9501   -6.4071   17.7697 H   0  0  0  0  0  0
   16.6590  -12.0689   15.3632 H   0  0  0  0  0  0
   14.4686   -8.9135   18.4897 H   0  0  0  0  0  0
   14.9830  -12.8702   16.9820 H   0  0  0  0  0  0
   13.9006  -11.2922   18.5393 H   0  0  0  0  0  0
  1  2  1  0  0  0
  1  3  1  0  0  0
  1  9  1  0  0  0
  2  4  2  0  0  0
  3 10  1  0  0  0
  3 19  2  0  0  0
  4 13  1  0  0  0
  4 12  1  0  0  0
  5  9  1  0  0  0
  5  6  2  0  0  0
  5 11  1  0  0  0
  6  7  1  0  0  0
  7 15  1  0  0  0
  7  8  2  0  0  0
  8 11  1  0  0  0
  8 14  1  0  0  0
  9 28  1  0  0  0
  9 29  1  0  0  0
 10 12  2  0  0  0
 10 24  1  0  0  0
 12 25  1  0  0  0
 13 16  1  0  0  0
 13 30  1  0  0  0
 13 31  1  0  0  0
 14 17  2  0  0  0
 14 21  1  0  0  0
 15 18  2  0  0  0
 15 32  1  0  0  0
 16 20  2  0  0  0
 16 23  1  0  0  0
 17 18  1  0  0  0
 17 33  1  0  0  0
 18 22  1  0  0  0
 23 34  1  0  0  0
 24 26  2  0  0  0
 24 35  1  0  0  0
 25 27  2  0  0  0
 25 36  1  0  0  0
 26 27  1  0  0  0
 26 37  1  0  0  0
 27 38  1  0  0  0
M  END
> <s_m_entry_id>
6214

> <s_m_entry_name>
dock_pv.49

> <s_m_Source_Path>
/home/csk/Desktop/cluster/DUD-E-result/aldr

> <s_m_Source_File>
dock_pv.maegz

> <i_m_Source_File_Index>
49

> <chembl_id>
CHEMBL143234

> <chembl_pref_name>
None

> <i_lp_mmshare_version>
53161

> <i_f3d_flags>
0

> <r_lp_tautomer_probability>
1

> <s_lp_Force_Field>
OPLS_2005

> <r_lp_Energy>
27.114764

> <b_lp_Chiralities_Consistent>
1

> <s_lp_Variant>
CHEMBL1900_lig172-1

> <s_i_glide_gridfile>
glide-grid_2hv5

> <i_i_glide_lignum>
248

> <i_i_glide_rotatable_bonds>
5

> <r_i_docking_score>
-10.3233875267304

> <r_i_glide_ligand_efficiency>
-0.3823476861752

> <r_i_glide_ligand_efficiency_sa>
-1.14704305726544

> <r_i_glide_ligand_efficiency_ln>
-2.40311442187805

> <r_i_glide_gscore>
-10.3233875267304

> <r_i_glide_lipo>
-4.56128575155314

> <r_i_glide_hbond>
-0.32

> <r_i_glide_metal>
0

> <r_i_glide_rewards>
-3.01657180678527

> <r_i_glide_evdw>
-49.2615966796875

> <r_i_glide_ecoul>
-3.48323535919189

> <r_i_glide_erotb>
0.560035169471166

> <r_i_glide_esite>
0

> <r_i_glide_emodel>
-82.3313798922921

> <r_i_glide_energy>
-52.7448320388794

> <r_i_glide_einternal>
3.52044010162354

> <i_i_glide_confnum>
25

> <i_i_glide_posenum>
290

> <r_i_glide_eff_state_penalty>
0

> <s_user_duplicate_titles>
CHEMBL1900_lig172,236161

> <s_m_subgroup_title>
dock_pv

> <s_m_subgroupid>
dock_pv

> <b_m_subgroup_collapsed>
1

$$$$
CHEMBL1900_lig280
                    3D
 Schrodinger Suite 2021-1.
 38 41  0  0  1  0            999 V2000
   17.9663   -7.7294   14.9589 N   0  0  0  0  0  0
   17.3654   -6.9152   15.9126 N   0  0  0  0  0  0
   17.7541   -9.0861   14.7852 C   0  0  0  0  0  0
   16.4359   -7.3701   16.6621 C   0  0  0  0  0  0
   17.9804   -6.2583   12.9126 C   0  0  0  0  0  0
   18.5450   -5.3532   12.1621 N   0  0  0  0  0  0
   17.6988   -4.8000   11.2544 C   0  0  0  0  0  0
   18.7909   -7.0021   13.9710 C   0  0  0  0  0  0
   16.7468   -9.6393   15.7886 C   0  0  0  0  0  0
   16.2754   -6.5149   12.5794 S   0  0  0  0  0  0
   16.0879   -8.7983   16.7100 C   0  0  0  0  0  0
   15.7139   -6.3239   17.5135 C   0  0  0  0  0  0
   16.3690   -5.2847   11.3320 C   0  0  0  0  0  0
   16.3886   -6.0384   18.8630 C   0  0  0  0  0  0
   18.2957   -9.7667   13.9088 O   0  0  0  0  0  0
   18.0358   -3.8117   10.3035 C   0  0  0  0  0  0
   15.7450   -5.7146   19.8516 O   0  0  0  0  0  0
   19.2901   -3.3152   10.1812 F   0  0  0  0  0  0
   17.7453   -6.1149   18.8338 O   0  0  0  0  0  0
   16.4689  -11.0127   15.7807 C   0  0  0  0  0  0
   15.3649   -4.7780   10.5015 C   0  0  0  0  0  0
   15.2089   -9.3575   17.6483 C   0  0  0  0  0  0
   15.7235   -3.7980    9.5758 C   0  0  0  0  0  0
   17.0278   -3.3242    9.4744 C   0  0  0  0  0  0
   15.5664  -11.5508   16.6977 C   0  0  0  0  0  0
   14.9437  -10.7267   17.6333 C   0  0  0  0  0  0
   19.4523   -6.3225   14.5119 H   0  0  0  0  0  0
   19.4890   -7.6684   13.4590 H   0  0  0  0  0  0
   15.6560   -5.3746   16.9806 H   0  0  0  0  0  0
   14.6793   -6.6169   17.6898 H   0  0  0  0  0  0
   18.0668   -6.3169   17.9501 H   0  0  0  0  0  0
   16.9509  -11.6685   15.0681 H   0  0  0  0  0  0
   14.3440   -5.1268   10.5782 H   0  0  0  0  0  0
   14.7168   -8.7499   18.3923 H   0  0  0  0  0  0
   14.9585   -3.3943    8.9278 H   0  0  0  0  0  0
   17.2600   -2.5611    8.7458 H   0  0  0  0  0  0
   15.3524  -12.6098   16.6863 H   0  0  0  0  0  0
   14.2488  -11.1498   18.3452 H   0  0  0  0  0  0
  1  2  1  0  0  0
  1  3  1  0  0  0
  1  8  1  0  0  0
  2  4  2  0  0  0
  3  9  1  0  0  0
  3 15  2  0  0  0
  4 12  1  0  0  0
  4 11  1  0  0  0
  5  8  1  0  0  0
  5  6  2  0  0  0
  5 10  1  0  0  0
  6  7  1  0  0  0
  7 16  1  0  0  0
  7 13  2  0  0  0
  8 27  1  0  0  0
  8 28  1  0  0  0
  9 11  1  0  0  0
  9 20  2  0  0  0
 10 13  1  0  0  0
 11 22  2  0  0  0
 12 14  1  0  0  0
 12 29  1  0  0  0
 12 30  1  0  0  0
 13 21  1  0  0  0
 14 17  2  0  0  0
 14 19  1  0  0  0
 16 18  1  0  0  0
 16 24  2  0  0  0
 19 31  1  0  0  0
 20 25  1  0  0  0
 20 32  1  0  0  0
 21 23  2  0  0  0
 21 33  1  0  0  0
 22 26  1  0  0  0
 22 34  1  0  0  0
 23 24  1  0  0  0
 23 35  1  0  0  0
 24 36  1  0  0  0
 25 26  2  0  0  0
 25 37  1  0  0  0
 26 38  1  0  0  0
M  END
> <s_m_entry_id>
6215

> <s_m_entry_name>
dock_pv.50

> <s_m_Source_Path>
/home/csk/Desktop/cluster/DUD-E-result/aldr

> <s_m_Source_File>
dock_pv.maegz

> <i_m_Source_File_Index>
50

> <chembl_id>
CHEMBL20024

> <chembl_pref_name>
None

> <i_lp_mmshare_version>
53161

> <i_f3d_flags>
0

> <r_lp_tautomer_probability>
1

> <s_lp_Force_Field>
OPLS_2005

> <r_lp_Energy>
28.052494

> <b_lp_Chiralities_Consistent>
1

> <s_lp_Variant>
CHEMBL1900_lig280-1

> <s_i_glide_gridfile>
glide-grid_2hv5

> <i_i_glide_lignum>
395

> <i_i_glide_rotatable_bonds>
5

> <r_i_docking_score>
-10.318957112117

> <r_i_glide_ligand_efficiency>
-0.396882965850653

> <r_i_glide_ligand_efficiency_sa>
-1.1757642246735

> <r_i_glide_ligand_efficiency_ln>
-2.4233732185207

> <r_i_glide_gscore>
-10.318957112117

> <r_i_glide_lipo>
-4.73191951706552

> <r_i_glide_hbond>
-0.32

> <r_i_glide_metal>
0

> <r_i_glide_rewards>
-2.56154270576013

> <r_i_glide_evdw>
-49.6544227600098

> <r_i_glide_ecoul>
-5.25355529785156

> <r_i_glide_erotb>
0.56525954338689

> <r_i_glide_esite>
0

> <r_i_glide_emodel>
-84.7144655266561

> <r_i_glide_energy>
-54.9079780578613

> <r_i_glide_einternal>
5.34126853942871

> <i_i_glide_confnum>
12

> <i_i_glide_posenum>
140

> <r_i_glide_eff_state_penalty>
0

> <s_user_duplicate_titles>
CHEMBL1900_lig280,24204

> <s_m_subgroup_title>
dock_pv

> <s_m_subgroupid>
dock_pv

> <b_m_subgroup_collapsed>
1

$$$$
CHEMBL1900_lig294
                    3D
 Schrodinger Suite 2021-1.
 44 47  0  0  1  0            999 V2000
   17.9360   -9.6023   15.0998 N   0  0  0  0  0  0
   17.7425   -8.6591   16.1012 N   0  0  0  0  0  0
   16.8469   -8.8242   16.9937 C   0  0  0  0  0  0
   17.3573  -10.8563   15.0349 C   0  0  0  0  0  0
   18.6264   -5.8358   12.5819 N   0  0  0  0  0  0
   18.2717   -6.8500   13.3055 C   0  0  0  0  0  0
   16.3263  -11.0658   16.1338 C   0  0  0  0  0  0
   16.6921   -2.5671    9.4450 C   0  0  0  0  0  0
   16.5450   -7.1080   13.3612 S   0  0  0  0  0  0
   16.0432  -10.0546   17.0794 C   0  0  0  0  0  0
   17.6054   -5.3264   11.8668 C   0  0  0  0  0  0
   16.7349   -7.6845   18.0150 C   0  0  0  0  0  0
   16.3488   -5.9210   12.0933 C   0  0  0  0  0  0
   16.6093   -3.8251   10.2931 C   0  0  0  0  0  0
   19.3175   -7.7487   13.9385 C   0  0  0  0  0  0
   17.7479   -4.2827   10.9584 C   0  0  0  0  0  0
   15.8498   -6.5207   17.5413 C   0  0  0  0  0  0
   18.8972   -9.2431   14.0310 C   0  0  0  0  0  0
   17.6512  -11.7081   14.1891 O   0  0  0  0  0  0
   15.2155   -5.5142   11.3802 C   0  0  0  0  0  0
   15.3779   -4.4672   10.4731 C   0  0  0  0  0  0
   14.9675   -6.6005   16.6864 O   0  0  0  0  0  0
   17.8646   -1.9497    9.5898 F   0  0  0  0  0  0
   16.5450   -2.9098    8.1810 F   0  0  0  0  0  0
   15.7235   -1.7123    9.7685 F   0  0  0  0  0  0
   16.1453   -5.3838   18.2310 O   0  0  0  0  0  0
   15.6638  -12.2967   16.2074 C   0  0  0  0  0  0
   15.0799  -10.2923   18.0699 C   0  0  0  0  0  0
   14.7383  -12.5312   17.2230 C   0  0  0  0  0  0
   14.4586  -11.5345   18.1545 C   0  0  0  0  0  0
   16.3562   -8.0392   18.9724 H   0  0  0  0  0  0
   17.7338   -7.3045   18.2331 H   0  0  0  0  0  0
   19.6339   -7.3545   14.9057 H   0  0  0  0  0  0
   20.2183   -7.7149   13.3281 H   0  0  0  0  0  0
   18.7077   -3.8101   10.8248 H   0  0  0  0  0  0
   19.7909   -9.8452   14.1768 H   0  0  0  0  0  0
   18.5158   -9.5533   13.0550 H   0  0  0  0  0  0
   14.2458   -5.9645   11.5457 H   0  0  0  0  0  0
   14.5257   -4.1089    9.9228 H   0  0  0  0  0  0
   16.8942   -5.4975   18.8187 H   0  0  0  0  0  0
   15.8714  -13.0804   15.4887 H   0  0  0  0  0  0
   14.8294   -9.5471   18.8087 H   0  0  0  0  0  0
   14.2347  -13.4834   17.2874 H   0  0  0  0  0  0
   13.7450  -11.7228   18.9407 H   0  0  0  0  0  0
  1  2  1  0  0  0
  1  4  1  0  0  0
  1 18  1  0  0  0
  2  3  2  0  0  0
  3 12  1  0  0  0
  3 10  1  0  0  0
  4  7  1  0  0  0
  4 19  2  0  0  0
  5  6  2  0  0  0
  5 11  1  0  0  0
  6 15  1  0  0  0
  6  9  1  0  0  0
  7 10  1  0  0  0
  7 27  2  0  0  0
  8 14  1  0  0  0
  8 23  1  0  0  0
  8 24  1  0  0  0
  8 25  1  0  0  0
  9 13  1  0  0  0
 10 28  2  0  0  0
 11 16  1  0  0  0
 11 13  2  0  0  0
 12 17  1  0  0  0
 12 31  1  0  0  0
 12 32  1  0  0  0
 13 20  1  0  0  0
 14 16  2  0  0  0
 14 21  1  0  0  0
 15 18  1  0  0  0
 15 33  1  0  0  0
 15 34  1  0  0  0
 16 35  1  0  0  0
 17 22  2  0  0  0
 17 26  1  0  0  0
 18 36  1  0  0  0
 18 37  1  0  0  0
 20 21  2  0  0  0
 20 38  1  0  0  0
 21 39  1  0  0  0
 26 40  1  0  0  0
 27 29  1  0  0  0
 27 41  1  0  0  0
 28 30  1  0  0  0
 28 42  1  0  0  0
 29 30  2  0  0  0
 29 43  1  0  0  0
 30 44  1  0  0  0
M  END
> <s_m_entry_id>
6216

> <s_m_entry_name>
dock_pv.51

> <s_m_Source_Path>
/home/csk/Desktop/cluster/DUD-E-result/aldr

> <s_m_Source_File>
dock_pv.maegz

> <i_m_Source_File_Index>
51

> <chembl_id>
CHEMBL21101

> <chembl_pref_name>
None

> <i_lp_mmshare_version>
53161

> <i_f3d_flags>
0

> <r_lp_tautomer_probability>
1

> <s_lp_Force_Field>
OPLS_2005

> <r_lp_Energy>
26.867158

> <b_lp_Chiralities_Consistent>
1

> <s_lp_Variant>
CHEMBL1900_lig294-1

> <s_i_glide_gridfile>
glide-grid_2hv5

> <i_i_glide_lignum>
410

> <i_i_glide_rotatable_bonds>
7

> <r_i_docking_score>
-10.3173197827163

> <r_i_glide_ligand_efficiency>
-0.343910659423877

> <r_i_glide_ligand_efficiency_sa>
-1.06861037889438

> <r_i_glide_ligand_efficiency_ln>
-2.34420747083601

> <r_i_glide_gscore>
-10.3173197827163

> <r_i_glide_lipo>
-4.73650561015214

> <r_i_glide_hbond>
-0.32

> <r_i_glide_metal>
0

> <r_i_glide_rewards>
-2.64966507028039

> <r_i_glide_evdw>
-46.8524894714355

> <r_i_glide_ecoul>
-5.32276391983032

> <r_i_glide_erotb>
0.529889959262542

> <r_i_glide_esite>
0

> <r_i_glide_emodel>
-74.3358633517831

> <r_i_glide_energy>
-52.1752533912659

> <r_i_glide_einternal>
9.41433048248291

> <i_i_glide_confnum>
97

> <i_i_glide_posenum>
400

> <r_i_glide_eff_state_penalty>
0

> <s_user_duplicate_titles>
CHEMBL1900_lig294,24153

> <s_m_subgroup_title>
dock_pv

> <s_m_subgroupid>
dock_pv

> <b_m_subgroup_collapsed>
1

$$$$
CHEMBL1900_lig272
                    3D
 Schrodinger Suite 2021-1.
 38 41  0  0  1  0            999 V2000
   17.9901   -7.7170   14.9620 N   0  0  0  0  0  0
   17.3775   -6.9150   15.9173 N   0  0  0  0  0  0
   17.7956   -9.0761   14.7872 C   0  0  0  0  0  0
   16.4445   -7.3781   16.6575 C   0  0  0  0  0  0
   17.9936   -6.2334   12.9192 C   0  0  0  0  0  0
   18.5450   -5.3150   12.1728 N   0  0  0  0  0  0
   17.6896   -4.7780   11.2603 C   0  0  0  0  0  0
   18.8087   -6.9740   13.9782 C   0  0  0  0  0  0
   16.7835   -9.6411   15.7810 C   0  0  0  0  0  0
   16.2943   -6.5150   12.5810 S   0  0  0  0  0  0
   16.1024   -8.8077   16.6930 C   0  0  0  0  0  0
   15.7141   -6.3394   17.5121 C   0  0  0  0  0  0
   16.3729   -5.2993   11.3248 C   0  0  0  0  0  0
   16.3884   -6.0443   18.8595 C   0  0  0  0  0  0
   18.3516   -9.7492   13.9140 O   0  0  0  0  0  0
   17.9990   -3.7755   10.3140 C   0  0  0  0  0  0
   15.7450   -5.7150   19.8463 O   0  0  0  0  0  0
   19.5598   -3.0545   10.1810 Cl  0  0  0  0  0  0
   17.7450   -6.1150   18.8293 O   0  0  0  0  0  0
   16.5157  -11.0164   15.7653 C   0  0  0  0  0  0
   15.3626   -4.8319   10.4800 C   0  0  0  0  0  0
   15.2033   -9.3743   17.6078 C   0  0  0  0  0  0
   15.7038   -3.8547    9.5463 C   0  0  0  0  0  0
   16.9884   -3.3322    9.4646 C   0  0  0  0  0  0
   15.5961  -11.5626   16.6606 C   0  0  0  0  0  0
   14.9450  -10.7446   17.5822 C   0  0  0  0  0  0
   19.4617   -6.2899   14.5236 H   0  0  0  0  0  0
   19.5146   -7.6309   13.4651 H   0  0  0  0  0  0
   15.6503   -5.3897   16.9810 H   0  0  0  0  0  0
   14.6819   -6.6393   17.6897 H   0  0  0  0  0  0
   18.0659   -6.3193   17.9457 H   0  0  0  0  0  0
   17.0152  -11.6671   15.0601 H   0  0  0  0  0  0
   14.3526   -5.2120   10.5500 H   0  0  0  0  0  0
   14.6902   -8.7721   18.3417 H   0  0  0  0  0  0
   14.9450   -3.4836    8.8745 H   0  0  0  0  0  0
   17.1992   -2.5643    8.7343 H   0  0  0  0  0  0
   15.3891  -12.6230   16.6415 H   0  0  0  0  0  0
   14.2357  -11.1736   18.2763 H   0  0  0  0  0  0
  1  2  1  0  0  0
  1  3  1  0  0  0
  1  8  1  0  0  0
  2  4  2  0  0  0
  3  9  1  0  0  0
  3 15  2  0  0  0
  4 12  1  0  0  0
  4 11  1  0  0  0
  5  8  1  0  0  0
  5  6  2  0  0  0
  5 10  1  0  0  0
  6  7  1  0  0  0
  7 16  1  0  0  0
  7 13  2  0  0  0
  8 27  1  0  0  0
  8 28  1  0  0  0
  9 11  1  0  0  0
  9 20  2  0  0  0
 10 13  1  0  0  0
 11 22  2  0  0  0
 12 14  1  0  0  0
 12 29  1  0  0  0
 12 30  1  0  0  0
 13 21  1  0  0  0
 14 17  2  0  0  0
 14 19  1  0  0  0
 16 18  1  0  0  0
 16 24  2  0  0  0
 19 31  1  0  0  0
 20 25  1  0  0  0
 20 32  1  0  0  0
 21 23  2  0  0  0
 21 33  1  0  0  0
 22 26  1  0  0  0
 22 34  1  0  0  0
 23 24  1  0  0  0
 23 35  1  0  0  0
 24 36  1  0  0  0
 25 26  2  0  0  0
 25 37  1  0  0  0
 26 38  1  0  0  0
M  END
> <s_m_entry_id>
6217

> <s_m_entry_name>
dock_pv.52

> <s_m_Source_Path>
/home/csk/Desktop/cluster/DUD-E-result/aldr

> <s_m_Source_File>
dock_pv.maegz

> <i_m_Source_File_Index>
52

> <chembl_id>
CHEMBL20015

> <chembl_pref_name>
None

> <i_lp_mmshare_version>
53161

> <i_f3d_flags>
0

> <r_lp_tautomer_probability>
1

> <s_lp_Force_Field>
OPLS_2005

> <r_lp_Energy>
27.741602

> <b_lp_Chiralities_Consistent>
1

> <s_lp_Variant>
CHEMBL1900_lig272-1

> <s_i_glide_gridfile>
glide-grid_2hv5

> <i_i_glide_lignum>
387

> <i_i_glide_rotatable_bonds>
5

> <r_i_docking_score>
-10.31163195508

> <r_i_glide_ligand_efficiency>
-0.396601229041539

> <r_i_glide_ligand_efficiency_sa>
-1.17492958048508

> <r_i_glide_ligand_efficiency_ln>
-2.42165292942637

> <r_i_glide_gscore>
-10.31163195508

> <r_i_glide_lipo>
-4.82671937794972

> <r_i_glide_hbond>
-0.32

> <r_i_glide_metal>
0

> <r_i_glide_rewards>
-2.42097346706834

> <r_i_glide_evdw>
-50.369701385498

> <r_i_glide_ecoul>
-4.98852491378784

> <r_i_glide_erotb>
0.522824696281137

> <r_i_glide_esite>
0

> <r_i_glide_emodel>
-85.4932214496526

> <r_i_glide_energy>
-55.3582262992859

> <r_i_glide_einternal>
5.22314834594727

> <i_i_glide_confnum>
6

> <i_i_glide_posenum>
162

> <r_i_glide_eff_state_penalty>
0

> <s_user_duplicate_titles>
CHEMBL1900_lig272,24142

> <s_m_subgroup_title>
dock_pv

> <s_m_subgroupid>
dock_pv

> <b_m_subgroup_collapsed>
1

$$$$
CHEMBL1900_lig181
                    3D
 Schrodinger Suite 2021-1.
 39 42  0  0  1  0            999 V2000
   17.9202   -8.2968   15.4078 N   0  0  0  0  0  0
   17.3692   -7.4525   16.3644 N   0  0  0  0  0  0
   17.6168   -9.6325   15.2113 C   0  0  0  0  0  0
   16.3564   -7.8290   17.0480 C   0  0  0  0  0  0
   18.0385   -6.7515   13.4272 C   0  0  0  0  0  0
   16.5197  -10.1102   16.1551 C   0  0  0  0  0  0
   16.3251   -6.9151   13.0970 S   0  0  0  0  0  0
   15.8914   -9.2268   17.0578 C   0  0  0  0  0  0
   15.6103   -6.7050   17.7783 C   0  0  0  0  0  0
   18.7917   -7.6150   14.4321 C   0  0  0  0  0  0
   18.5447   -5.7150   12.6848 C   0  0  0  0  0  0
   17.6496   -5.1476   11.7367 C   0  0  0  0  0  0
   16.3695   -5.7478   11.8148 C   0  0  0  0  0  0
   16.3517   -6.0905   18.9794 C   0  0  0  0  0  0
   18.1429  -10.3492   14.3540 O   0  0  0  0  0  0
   17.8437   -4.1176   10.8029 C   0  0  0  0  0  0
   15.7452   -5.5749   19.9112 O   0  0  0  0  0  0
   15.3105   -5.3727   10.9819 C   0  0  0  0  0  0
   16.7712   -3.7113   10.0122 C   0  0  0  0  0  0
   17.7094   -6.1143   18.8788 O   0  0  0  0  0  0
   15.5385   -4.3442   10.0815 C   0  0  0  0  0  0
   16.9450   -2.3534    8.9810 Cl  0  0  0  0  0  0
   16.1329  -11.4571   16.1151 C   0  0  0  0  0  0
   14.9450   -9.7304   17.9586 C   0  0  0  0  0  0
   15.1518  -11.9309   16.9860 C   0  0  0  0  0  0
   14.5641  -11.0712   17.9113 C   0  0  0  0  0  0
   15.4219   -5.8908   17.0794 H   0  0  0  0  0  0
   14.6212   -7.0202   18.1030 H   0  0  0  0  0  0
   19.5285   -7.0242   14.9796 H   0  0  0  0  0  0
   19.4065   -8.3216   13.8728 H   0  0  0  0  0  0
   19.5515   -5.3803   12.8343 H   0  0  0  0  0  0
   18.7897   -3.6055   10.7349 H   0  0  0  0  0  0
   14.3370   -5.8375   11.0602 H   0  0  0  0  0  0
   17.9781   -6.5246   18.0486 H   0  0  0  0  0  0
   14.7326   -4.0138    9.4454 H   0  0  0  0  0  0
   16.5928  -12.1432   15.4160 H   0  0  0  0  0  0
   14.4876   -9.0964   18.6992 H   0  0  0  0  0  0
   14.8516  -12.9685   16.9501 H   0  0  0  0  0  0
   13.8096  -11.4461   18.5894 H   0  0  0  0  0  0
  1  2  1  0  0  0
  1  3  1  0  0  0
  1 10  1  0  0  0
  2  4  2  0  0  0
  3  6  1  0  0  0
  3 15  2  0  0  0
  4  9  1  0  0  0
  4  8  1  0  0  0
  5 10  1  0  0  0
  5  7  1  0  0  0
  5 11  2  0  0  0
  6  8  2  0  0  0
  6 23  1  0  0  0
  7 13  1  0  0  0
  8 24  1  0  0  0
  9 14  1  0  0  0
  9 27  1  0  0  0
  9 28  1  0  0  0
 10 29  1  0  0  0
 10 30  1  0  0  0
 11 12  1  0  0  0
 11 31  1  0  0  0
 12 16  1  0  0  0
 12 13  2  0  0  0
 13 18  1  0  0  0
 14 17  2  0  0  0
 14 20  1  0  0  0
 16 19  2  0  0  0
 16 32  1  0  0  0
 18 21  2  0  0  0
 18 33  1  0  0  0
 19 22  1  0  0  0
 19 21  1  0  0  0
 20 34  1  0  0  0
 21 35  1  0  0  0
 23 25  2  0  0  0
 23 36  1  0  0  0
 24 26  2  0  0  0
 24 37  1  0  0  0
 25 26  1  0  0  0
 25 38  1  0  0  0
 26 39  1  0  0  0
M  END
> <s_m_entry_id>
6218

> <s_m_entry_name>
dock_pv.53

> <s_m_Source_Path>
/home/csk/Desktop/cluster/DUD-E-result/aldr

> <s_m_Source_File>
dock_pv.maegz

> <i_m_Source_File_Index>
53

> <chembl_id>
CHEMBL141135

> <chembl_pref_name>
None

> <i_lp_mmshare_version>
53161

> <i_f3d_flags>
0

> <r_lp_tautomer_probability>
1

> <s_lp_Force_Field>
OPLS_2005

> <r_lp_Energy>
26.546571

> <b_lp_Chiralities_Consistent>
1

> <s_lp_Variant>
CHEMBL1900_lig181-1

> <s_i_glide_gridfile>
glide-grid_2hv5

> <i_i_glide_lignum>
257

> <i_i_glide_rotatable_bonds>
5

> <r_i_docking_score>
-10.2994156975589

> <r_i_glide_ligand_efficiency>
-0.396131372983036

> <r_i_glide_ligand_efficiency_sa>
-1.17353763376056

> <r_i_glide_ligand_efficiency_ln>
-2.41878398143236

> <r_i_glide_gscore>
-10.2994156975589

> <r_i_glide_lipo>
-5.32540397752167

> <r_i_glide_hbond>
-0.32

> <r_i_glide_metal>
0

> <r_i_glide_rewards>
-2.31168775066897

> <r_i_glide_evdw>
-47.3850440979004

> <r_i_glide_ecoul>
-3.32204675674438

> <r_i_glide_erotb>
0.525235249038387

> <r_i_glide_esite>
0

> <r_i_glide_emodel>
-77.233859144041

> <r_i_glide_energy>
-50.7070908546448

> <r_i_glide_einternal>
5.60278463363647

> <i_i_glide_confnum>
11

> <i_i_glide_posenum>
340

> <r_i_glide_eff_state_penalty>
0

> <s_user_duplicate_titles>
CHEMBL1900_lig181,236008

> <s_m_subgroup_title>
dock_pv

> <s_m_subgroupid>
dock_pv

> <b_m_subgroup_collapsed>
1

$$$$
CHEMBL1900_lig196
                    3D
 Schrodinger Suite 2021-1.
 39 42  0  0  1  0            999 V2000
   17.9264   -8.1875   15.3195 N   0  0  0  0  0  0
   17.3787   -7.3483   16.2827 N   0  0  0  0  0  0
   17.6301   -9.5261   15.1238 C   0  0  0  0  0  0
   16.3701   -7.7301   16.9682 C   0  0  0  0  0  0
   17.9534   -6.6822   13.3041 C   0  0  0  0  0  0
   16.5404  -10.0093   16.0726 C   0  0  0  0  0  0
   17.5010   -5.1153   11.5769 C   0  0  0  0  0  0
   16.2449   -6.9150   12.9986 S   0  0  0  0  0  0
   15.9059   -9.1277   16.9714 C   0  0  0  0  0  0
   15.6381   -6.6169   17.7239 C   0  0  0  0  0  0
   18.7561   -7.4942   14.3159 C   0  0  0  0  0  0
   18.4158   -5.6576   12.5172 C   0  0  0  0  0  0
   16.2256   -5.7149   11.7345 C   0  0  0  0  0  0
   16.3628   -6.0986   18.9781 C   0  0  0  0  0  0
   18.1452  -10.2347   14.2544 O   0  0  0  0  0  0
   17.6675   -4.1243   10.5809 C   0  0  0  0  0  0
   15.7451   -5.6560   19.9395 O   0  0  0  0  0  0
   19.1703   -3.3155   10.3069 Cl  0  0  0  0  0  0
   17.7217   -6.1147   18.8881 O   0  0  0  0  0  0
   16.1579  -11.3567   16.0302 C   0  0  0  0  0  0
   15.1323   -5.3401   10.9508 C   0  0  0  0  0  0
   14.9450   -9.6289   17.8582 C   0  0  0  0  0  0
   15.3456   -4.3887    9.9611 C   0  0  0  0  0  0
   16.5815   -3.7847    9.7807 C   0  0  0  0  0  0
   15.1699  -11.8323   16.8921 C   0  0  0  0  0  0
   14.5694  -10.9714   17.8083 C   0  0  0  0  0  0
   15.5046   -5.7595   17.0638 H   0  0  0  0  0  0
   14.6272   -6.9143   17.9980 H   0  0  0  0  0  0
   19.4798   -6.8676   14.8401 H   0  0  0  0  0  0
   19.3901   -8.1903   13.7617 H   0  0  0  0  0  0
   19.4186   -5.3152   12.6005 H   0  0  0  0  0  0
   18.0048   -6.4593   18.0349 H   0  0  0  0  0  0
   16.6221  -12.0405   15.3319 H   0  0  0  0  0  0
   14.1605   -5.7965   11.0824 H   0  0  0  0  0  0
   14.4691   -8.9927   18.5845 H   0  0  0  0  0  0
   14.5450   -4.1149    9.3013 H   0  0  0  0  0  0
   16.6956   -3.0427    9.0034 H   0  0  0  0  0  0
   14.8720  -12.8702   16.8532 H   0  0  0  0  0  0
   13.8056  -11.3443   18.4767 H   0  0  0  0  0  0
  1  2  1  0  0  0
  1  3  1  0  0  0
  1 11  1  0  0  0
  2  4  2  0  0  0
  3  6  1  0  0  0
  3 15  2  0  0  0
  4 10  1  0  0  0
  4  9  1  0  0  0
  5 11  1  0  0  0
  5  8  1  0  0  0
  5 12  2  0  0  0
  6  9  2  0  0  0
  6 20  1  0  0  0
  7 12  1  0  0  0
  7 16  1  0  0  0
  7 13  2  0  0  0
  8 13  1  0  0  0
  9 22  1  0  0  0
 10 14  1  0  0  0
 10 27  1  0  0  0
 10 28  1  0  0  0
 11 29  1  0  0  0
 11 30  1  0  0  0
 12 31  1  0  0  0
 13 21  1  0  0  0
 14 17  2  0  0  0
 14 19  1  0  0  0
 16 18  1  0  0  0
 16 24  2  0  0  0
 19 32  1  0  0  0
 20 25  2  0  0  0
 20 33  1  0  0  0
 21 23  2  0  0  0
 21 34  1  0  0  0
 22 26  2  0  0  0
 22 35  1  0  0  0
 23 24  1  0  0  0
 23 36  1  0  0  0
 24 37  1  0  0  0
 25 26  1  0  0  0
 25 38  1  0  0  0
 26 39  1  0  0  0
M  END
> <s_m_entry_id>
6219

> <s_m_entry_name>
dock_pv.54

> <s_m_Source_Path>
/home/csk/Desktop/cluster/DUD-E-result/aldr

> <s_m_Source_File>
dock_pv.maegz

> <i_m_Source_File_Index>
54

> <chembl_id>
CHEMBL142879

> <chembl_pref_name>
None

> <i_lp_mmshare_version>
53161

> <i_f3d_flags>
0

> <r_lp_tautomer_probability>
1

> <s_lp_Force_Field>
OPLS_2005

> <r_lp_Energy>
29.50843

> <b_lp_Chiralities_Consistent>
1

> <s_lp_Variant>
CHEMBL1900_lig196-1

> <s_i_glide_gridfile>
glide-grid_2hv5

> <i_i_glide_lignum>
272

> <i_i_glide_rotatable_bonds>
5

> <r_i_docking_score>
-10.2934822451888

> <r_i_glide_ligand_efficiency>
-0.395903163276491

> <r_i_glide_ligand_efficiency_sa>
-1.17286156340288

> <r_i_glide_ligand_efficiency_ln>
-2.41739052961247

> <r_i_glide_gscore>
-10.2934822451888

> <r_i_glide_lipo>
-5.16824606645955

> <r_i_glide_hbond>
-0.32

> <r_i_glide_metal>
0

> <r_i_glide_rewards>
-2.3372468069485

> <r_i_glide_evdw>
-46.1117324829102

> <r_i_glide_ecoul>
-4.58425331115723

> <r_i_glide_erotb>
0.525235249038387

> <r_i_glide_esite>
0

> <r_i_glide_emodel>
-77.5751809492521

> <r_i_glide_energy>
-50.6959857940674

> <r_i_glide_einternal>
5.74126529693604

> <i_i_glide_confnum>
31

> <i_i_glide_posenum>
362

> <r_i_glide_eff_state_penalty>
0

> <s_user_duplicate_titles>
CHEMBL1900_lig196,235241

> <s_m_subgroup_title>
dock_pv

> <s_m_subgroupid>
dock_pv

> <b_m_subgroup_collapsed>
1

$$$$
CHEMBL1900_lig39
                    3D
 Schrodinger Suite 2021-1.
 40 43  0  0  1  0            999 V2000
   18.1451   -8.6742   15.2199 N   0  0  0  0  0  0
   17.7439   -8.0772   16.4060 N   0  0  0  0  0  0
   16.8484   -8.6233   17.1396 C   0  0  0  0  0  0
   17.8035   -9.9402   14.7760 C   0  0  0  0  0  0
   16.8232  -10.6230   15.7199 C   0  0  0  0  0  0
   18.0343   -6.9164   13.4387 C   0  0  0  0  0  0
   18.5448   -6.0760   12.5844 N   0  0  0  0  0  0
   16.2966   -9.9535   16.8399 C   0  0  0  0  0  0
   18.9147   -7.7802   14.3295 C   0  0  0  0  0  0
   16.2839   -6.9151   13.4922 S   0  0  0  0  0  0
   16.8980   -2.6083    9.4466 C   0  0  0  0  0  0
   17.5871   -5.4633   11.8415 C   0  0  0  0  0  0
   16.4788   -7.8589   18.4112 C   0  0  0  0  0  0
   16.2622   -5.8705   12.1115 C   0  0  0  0  0  0
   16.7200   -3.8741   10.2659 C   0  0  0  0  0  0
   17.8225   -4.4670   10.8928 C   0  0  0  0  0  0
   15.8684   -6.4746   18.1628 C   0  0  0  0  0  0
   15.3536  -10.5086   17.6503 N   0  0  0  0  0  0
   18.2145  -10.4437   13.7276 O   0  0  0  0  0  0
   15.1744   -5.3911   11.3812 C   0  0  0  0  0  0
   15.4318   -4.3788   10.4689 C   0  0  0  0  0  0
   15.3449   -6.1149   17.1081 O   0  0  0  0  0  0
   18.1130   -2.0829    9.6040 F   0  0  0  0  0  0
   16.7203   -2.9149    8.1809 F   0  0  0  0  0  0
   15.9932   -1.6902    9.7762 F   0  0  0  0  0  0
   16.3890  -11.9275   15.4562 C   0  0  0  0  0  0
   15.9427   -5.7159   19.2949 O   0  0  0  0  0  0
   14.9335  -11.7674   17.3643 C   0  0  0  0  0  0
   15.4294  -12.5089   16.2895 C   0  0  0  0  0  0
   19.5605   -7.1425   14.9362 H   0  0  0  0  0  0
   19.6171   -8.3476   13.7151 H   0  0  0  0  0  0
   15.7996   -8.4255   19.0465 H   0  0  0  0  0  0
   17.3924   -7.7148   18.9814 H   0  0  0  0  0  0
   18.8227   -4.1046   10.7220 H   0  0  0  0  0  0
   14.1631   -5.7128   11.5905 H   0  0  0  0  0  0
   14.5905   -3.9293    9.9743 H   0  0  0  0  0  0
   16.7695  -12.4808   14.6081 H   0  0  0  0  0  0
   16.4686   -6.1423   19.9746 H   0  0  0  0  0  0
   14.1771  -12.1807   18.0171 H   0  0  0  0  0  0
   15.0685  -13.5086   16.0966 H   0  0  0  0  0  0
  1  2  1  0  0  0
  1  4  1  0  0  0
  1  9  1  0  0  0
  2  3  2  0  0  0
  3 13  1  0  0  0
  3  8  1  0  0  0
  4  5  1  0  0  0
  4 19  2  0  0  0
  5  8  1  0  0  0
  5 26  2  0  0  0
  6  9  1  0  0  0
  6  7  2  0  0  0
  6 10  1  0  0  0
  7 12  1  0  0  0
  8 18  2  0  0  0
  9 30  1  0  0  0
  9 31  1  0  0  0
 10 14  1  0  0  0
 11 15  1  0  0  0
 11 23  1  0  0  0
 11 24  1  0  0  0
 11 25  1  0  0  0
 12 16  1  0  0  0
 12 14  2  0  0  0
 13 17  1  0  0  0
 13 32  1  0  0  0
 13 33  1  0  0  0
 14 20  1  0  0  0
 15 16  2  0  0  0
 15 21  1  0  0  0
 16 34  1  0  0  0
 17 22  2  0  0  0
 17 27  1  0  0  0
 18 28  1  0  0  0
 20 21  2  0  0  0
 20 35  1  0  0  0
 21 36  1  0  0  0
 26 29  1  0  0  0
 26 37  1  0  0  0
 27 38  1  0  0  0
 28 29  2  0  0  0
 28 39  1  0  0  0
 29 40  1  0  0  0
M  END
> <s_m_entry_id>
6220

> <s_m_entry_name>
dock_pv.55

> <s_m_Source_Path>
/home/csk/Desktop/cluster/DUD-E-result/aldr

> <s_m_Source_File>
dock_pv.maegz

> <i_m_Source_File_Index>
55

> <chembl_id>
CHEMBL309132

> <chembl_pref_name>
None

> <i_lp_mmshare_version>
53161

> <i_f3d_flags>
0

> <r_lp_tautomer_probability>
1

> <s_lp_Force_Field>
OPLS_2005

> <r_lp_Energy>
21.720147

> <b_lp_Chiralities_Consistent>
1

> <s_lp_Variant>
CHEMBL1900_lig39-1

> <s_i_glide_gridfile>
glide-grid_2hv5

> <i_i_glide_lignum>
74

> <i_i_glide_rotatable_bonds>
6

> <r_i_docking_score>
-10.2928840630717

> <r_i_glide_ligand_efficiency>
-0.354927036657643

> <r_i_glide_ligand_efficiency_sa>
-1.09044830539014

> <r_i_glide_ligand_efficiency_ln>
-2.3568094454237

> <r_i_glide_gscore>
-10.2928840630717

> <r_i_glide_lipo>
-4.53275691069551

> <r_i_glide_hbond>
-0.243426657318275

> <r_i_glide_metal>
0

> <r_i_glide_rewards>
-2.84566051668794

> <r_i_glide_evdw>
-45.272045135498

> <r_i_glide_ecoul>
-5.70299577713013

> <r_i_glide_erotb>
0.448011644974498

> <r_i_glide_esite>
0

> <r_i_glide_emodel>
-74.8479776252931

> <r_i_glide_energy>
-50.9750409126282

> <r_i_glide_einternal>
4.52687501907349

> <i_i_glide_confnum>
11

> <i_i_glide_posenum>
295

> <r_i_glide_eff_state_penalty>
0

> <s_user_duplicate_titles>
CHEMBL1900_lig39,108485

> <s_m_subgroup_title>
dock_pv

> <s_m_subgroupid>
dock_pv

> <b_m_subgroup_collapsed>
1

$$$$
CHEMBL1900_lig62
                    3D
 Schrodinger Suite 2021-1.
 42 45  0  0  1  0            999 V2000
   17.9678   -8.0347   15.3762 N   0  0  0  0  0  0
   17.3084   -7.2386   16.3020 N   0  0  0  0  0  0
   17.7450   -9.3828   15.1706 C   0  0  0  0  0  0
   16.3298   -7.6967   16.9946 C   0  0  0  0  0  0
   16.7052   -9.9231   16.0578 C   0  0  0  0  0  0
   18.0040   -6.6123   13.3192 C   0  0  0  0  0  0
   18.5450   -5.7134   12.5519 N   0  0  0  0  0  0
   16.0017   -9.1119   16.9115 C   0  0  0  0  0  0
   16.3727   -5.7087   11.7192 C   0  0  0  0  0  0
   17.6829   -5.1957   11.6431 C   0  0  0  0  0  0
   16.3135   -6.9148   12.9813 S   0  0  0  0  0  0
   18.8099   -7.2919   14.4197 C   0  0  0  0  0  0
   15.5888   -6.6523   17.8332 C   0  0  0  0  0  0
   15.3653   -5.2343   10.8807 C   0  0  0  0  0  0
   17.9983   -4.2094   10.6964 C   0  0  0  0  0  0
   16.3466   -6.1105   19.0530 C   0  0  0  0  0  0
   15.7012   -4.2581    9.9468 C   0  0  0  0  0  0
   18.3242  -10.0583   14.3147 O   0  0  0  0  0  0
   16.9897   -3.7463    9.8598 C   0  0  0  0  0  0
   15.7450   -5.6490   20.0154 O   0  0  0  0  0  0
   14.1016   -5.6944   10.9839 F   0  0  0  0  0  0
   16.4080  -11.4267   15.9231 C   0  0  0  0  0  0
   17.2657   -2.7721    8.9673 F   0  0  0  0  0  0
   17.7029   -6.1141   18.9282 O   0  0  0  0  0  0
   14.8615   -9.6489   17.7863 C   0  0  0  0  0  0
   14.9899  -11.7789   16.4055 C   0  0  0  0  0  0
   14.7344  -11.1841   17.7899 C   0  0  0  0  0  0
   19.4074   -6.5673   14.9766 H   0  0  0  0  0  0
   19.5709   -7.9360   13.9730 H   0  0  0  0  0  0
   15.3498   -5.7934   17.2072 H   0  0  0  0  0  0
   14.6279   -7.0306   18.1799 H   0  0  0  0  0  0
   18.9820   -3.7850   10.6234 H   0  0  0  0  0  0
   14.9452   -3.8839    9.2802 H   0  0  0  0  0  0
   17.1421  -11.9855   16.5051 H   0  0  0  0  0  0
   16.5356  -11.7788   14.8979 H   0  0  0  0  0  0
   17.9668   -6.4490   18.0644 H   0  0  0  0  0  0
   13.9437   -9.2213   17.3810 H   0  0  0  0  0  0
   14.9427   -9.3009   18.8178 H   0  0  0  0  0  0
   14.8587  -12.8614   16.4291 H   0  0  0  0  0  0
   14.2473  -11.3933   15.7055 H   0  0  0  0  0  0
   15.4414  -11.6105   18.5022 H   0  0  0  0  0  0
   13.7451  -11.4731   18.1471 H   0  0  0  0  0  0
  1  2  1  0  0  0
  1  3  1  0  0  0
  1 12  1  0  0  0
  2  4  2  0  0  0
  3  5  1  0  0  0
  3 18  2  0  0  0
  4 13  1  0  0  0
  4  8  1  0  0  0
  5  8  2  0  0  0
  5 22  1  0  0  0
  6 12  1  0  0  0
  6  7  2  0  0  0
  6 11  1  0  0  0
  7 10  1  0  0  0
  8 25  1  0  0  0
  9 11  1  0  0  0
  9 14  1  0  0  0
  9 10  2  0  0  0
 10 15  1  0  0  0
 12 28  1  0  0  0
 12 29  1  0  0  0
 13 16  1  0  0  0
 13 30  1  0  0  0
 13 31  1  0  0  0
 14 17  2  0  0  0
 14 21  1  0  0  0
 15 19  2  0  0  0
 15 32  1  0  0  0
 16 20  2  0  0  0
 16 24  1  0  0  0
 17 19  1  0  0  0
 17 33  1  0  0  0
 19 23  1  0  0  0
 22 26  1  0  0  0
 22 34  1  0  0  0
 22 35  1  0  0  0
 24 36  1  0  0  0
 25 27  1  0  0  0
 25 37  1  0  0  0
 25 38  1  0  0  0
 26 27  1  0  0  0
 26 39  1  0  0  0
 26 40  1  0  0  0
 27 41  1  0  0  0
 27 42  1  0  0  0
M  END
> <s_m_entry_id>
6221

> <s_m_entry_name>
dock_pv.56

> <s_m_Source_Path>
/home/csk/Desktop/cluster/DUD-E-result/aldr

> <s_m_Source_File>
dock_pv.maegz

> <i_m_Source_File_Index>
56

> <chembl_id>
CHEMBL304995

> <chembl_pref_name>
None

> <i_lp_mmshare_version>
53161

> <i_f3d_flags>
0

> <r_lp_tautomer_probability>
1

> <s_lp_Force_Field>
OPLS_2005

> <r_lp_Energy>
23.501736

> <b_lp_Chiralities_Consistent>
1

> <s_lp_Variant>
CHEMBL1900_lig62-1

> <s_i_glide_gridfile>
glide-grid_2hv5

> <i_i_glide_lignum>
97

> <i_i_glide_rotatable_bonds>
5

> <r_i_docking_score>
-10.2905812139524

> <r_i_glide_ligand_efficiency>
-0.381132637553792

> <r_i_glide_ligand_efficiency_sa>
-1.14339791140523

> <r_i_glide_ligand_efficiency_ln>
-2.39547765311766

> <r_i_glide_gscore>
-10.2905812139524

> <r_i_glide_lipo>
-4.70685347461839

> <r_i_glide_hbond>
-0.32

> <r_i_glide_metal>
0

> <r_i_glide_rewards>
-2.98009498971846

> <r_i_glide_evdw>
-46.8149757385254

> <r_i_glide_ecoul>
-3.0162079334259

> <r_i_glide_erotb>
0.509547227324617

> <r_i_glide_esite>
0

> <r_i_glide_emodel>
-77.4410780874424

> <r_i_glide_energy>
-49.8311836719513

> <r_i_glide_einternal>
5.47336387634277

> <i_i_glide_confnum>
13

> <i_i_glide_posenum>
261

> <r_i_glide_eff_state_penalty>
0

> <s_user_duplicate_titles>
CHEMBL1900_lig62,108127

> <s_m_subgroup_title>
dock_pv

> <s_m_subgroupid>
dock_pv

> <b_m_subgroup_collapsed>
1

$$$$
CHEMBL1900_lig413
                    3D
 Schrodinger Suite 2021-1.
 40 43  0  0  1  0            999 V2000
   16.3586   -8.0811   16.3992 N   0  0  0  0  0  0
   17.7785   -4.9076   11.3095 C   0  0  0  0  0  0
   16.3952   -5.2001   11.3388 C   0  0  0  0  0  0
   17.1796   -7.4142   15.5339 C   0  0  0  0  0  0
   18.5450   -5.7141   12.0908 N   0  0  0  0  0  0
   17.7629   -8.2413   14.6194 C   0  0  0  0  0  0
   17.8610   -6.6564   12.6666 C   0  0  0  0  0  0
   16.5957   -9.4452   16.2257 C   0  0  0  0  0  0
   18.2531   -3.8600   10.4993 C   0  0  0  0  0  0
   16.1299   -6.5150   12.4506 S   0  0  0  0  0  0
   17.4598   -9.5653   15.0818 C   0  0  0  0  0  0
   15.4799   -4.4789   10.5673 C   0  0  0  0  0  0
   15.5388   -7.3440   17.3776 C   0  0  2  0  0  0
   17.3303   -3.1388    9.7525 C   0  0  0  0  0  0
   15.9810   -3.4481    9.7786 C   0  0  0  0  0  0
   16.3027   -6.7386   18.5799 C   0  0  0  0  0  0
   18.5514   -7.7981   13.4079 C   0  0  0  0  0  0
   15.7452   -6.1147   19.4788 O   0  0  0  0  0  0
   19.5635   -3.5391   10.4196 F   0  0  0  0  0  0
   14.1568   -4.7564   10.5887 F   0  0  0  0  0  0
   17.7449   -2.1152    8.9831 F   0  0  0  0  0  0
   17.6501   -6.9145   18.5202 O   0  0  0  0  0  0
   16.1405  -10.5826   16.9141 C   0  0  0  0  0  0
   17.8156  -10.8450   14.6281 C   0  0  0  0  0  0
   14.2751   -8.1217   17.7810 C   0  0  0  0  0  0
   16.5366  -11.8297   16.4330 C   0  0  0  0  0  0
   17.3498  -11.9628   15.3139 C   0  0  0  0  0  0
   17.2039   -6.3428   15.5655 H   0  0  0  0  0  0
   15.1541   -6.4849   16.8272 H   0  0  0  0  0  0
   15.3332   -2.8548    9.1640 H   0  0  0  0  0  0
   19.5642   -7.5184   13.7041 H   0  0  0  0  0  0
   18.6825   -8.6368   12.7244 H   0  0  0  0  0  0
   18.0806   -6.5479   19.2953 H   0  0  0  0  0  0
   15.5016  -10.5295   17.7784 H   0  0  0  0  0  0
   18.4475  -10.9628   13.7603 H   0  0  0  0  0  0
   13.5289   -7.4365   18.1797 H   0  0  0  0  0  0
   13.8119   -8.6152   16.9244 H   0  0  0  0  0  0
   14.4717   -8.8719   18.5474 H   0  0  0  0  0  0
   16.1934  -12.7218   16.9376 H   0  0  0  0  0  0
   17.6227  -12.9509   14.9712 H   0  0  0  0  0  0
  1  4  1  0  0  0
  1  8  1  0  0  0
  1 13  1  0  0  0
  2  5  1  0  0  0
  2  9  1  0  0  0
  2  3  2  0  0  0
  3 10  1  0  0  0
  3 12  1  0  0  0
  4  6  2  0  0  0
  4 28  1  0  0  0
  5  7  2  0  0  0
  6 17  1  0  0  0
  6 11  1  0  0  0
  7 17  1  0  0  0
  7 10  1  0  0  0
  8 11  2  0  0  0
  8 23  1  0  0  0
  9 14  2  0  0  0
  9 19  1  0  0  0
 11 24  1  0  0  0
 12 15  2  0  0  0
 12 20  1  0  0  0
 13 16  1  0  0  0
 13 25  1  0  0  0
 13 29  1  0  0  0
 14 21  1  0  0  0
 14 15  1  0  0  0
 15 30  1  0  0  0
 16 18  2  0  0  0
 16 22  1  0  0  0
 17 31  1  0  0  0
 17 32  1  0  0  0
 22 33  1  0  0  0
 23 26  2  0  0  0
 23 34  1  0  0  0
 24 27  2  0  0  0
 24 35  1  0  0  0
 25 36  1  0  0  0
 25 37  1  0  0  0
 25 38  1  0  0  0
 26 27  1  0  0  0
 26 39  1  0  0  0
 27 40  1  0  0  0
M  END
> <s_m_entry_id>
6222

> <s_m_entry_name>
dock_pv.57

> <s_m_Source_Path>
/home/csk/Desktop/cluster/DUD-E-result/aldr

> <s_m_Source_File>
dock_pv.maegz

> <i_m_Source_File_Index>
57

> <chembl_id>
CHEMBL193307

> <chembl_pref_name>
None

> <i_lp_mmshare_version>
53161

> <i_f3d_flags>
0

> <r_lp_tautomer_probability>
1

> <s_lp_Force_Field>
OPLS_2005

> <r_lp_Energy>
16.386311

> <b_lp_Chiralities_Consistent>
1

> <s_lp_Variant>
CHEMBL1900_lig413-1

> <s_i_glide_gridfile>
glide-grid_2hv5

> <i_i_glide_lignum>
534

> <i_i_glide_rotatable_bonds>
5

> <r_i_docking_score>
-10.2609856978462

> <r_i_glide_ligand_efficiency>
-0.380036507327639

> <r_i_glide_ligand_efficiency_sa>
-1.14010952073038

> <r_i_glide_ligand_efficiency_ln>
-2.38858830488837

> <r_i_glide_gscore>
-10.2609856978462

> <r_i_glide_lipo>
-4.6880190612221

> <r_i_glide_hbond>
-0.216966314963656

> <r_i_glide_metal>
0

> <r_i_glide_rewards>
-3.12504165450543

> <r_i_glide_evdw>
-40.9277153015137

> <r_i_glide_ecoul>
-4.52930879592896

> <r_i_glide_erotb>
0.51192449262393

> <r_i_glide_esite>
-0.0171010753139589

> <r_i_glide_emodel>
-71.4105003714528

> <r_i_glide_energy>
-45.4570240974426

> <r_i_glide_einternal>
3.9863600730896

> <i_i_glide_confnum>
28

> <i_i_glide_posenum>
375

> <r_i_glide_eff_state_penalty>
0

> <s_user_duplicate_titles>
CHEMBL1900_lig413

> <s_m_subgroup_title>
dock_pv

> <s_m_subgroupid>
dock_pv

> <b_m_subgroup_collapsed>
1

$$$$
CHEMBL1900_lig409
                    3D
 Schrodinger Suite 2021-1.
 40 43  0  0  1  0            999 V2000
   17.6795   -5.1357   11.5967 C   0  0  0  0  0  0
   16.7840   -8.3933   16.9193 N   0  0  0  0  0  0
   16.3627   -5.6365   11.6824 C   0  0  0  0  0  0
   18.5491   -5.7181   12.4515 N   0  0  0  0  0  0
   18.1368   -8.2529   15.0940 C   0  0  0  0  0  0
   18.0464   -6.7104   13.1189 C   0  0  0  0  0  0
   17.6587   -7.6077   16.1995 C   0  0  0  0  0  0
   18.0044   -4.1220   10.6775 C   0  0  0  0  0  0
   16.3235   -6.9098   12.8906 S   0  0  0  0  0  0
   16.7779   -9.6650   16.3482 C   0  0  0  0  0  0
   17.6727   -9.6040   15.2213 C   0  0  0  0  0  0
   15.3468   -5.1145   10.8803 C   0  0  0  0  0  0
   16.9878   -3.6255    9.8673 C   0  0  0  0  0  0
   15.6933   -4.1206    9.9657 C   0  0  0  0  0  0
   18.9276   -7.6179   13.9707 C   0  0  0  0  0  0
   16.0515   -7.9682   18.1219 C   0  0  0  0  0  0
   15.8717   -6.4557   18.3154 C   0  0  0  0  0  0
   16.0814  -10.8501   16.6821 C   0  0  0  0  0  0
   15.7455   -5.6655   17.3821 O   0  0  0  0  0  0
   19.2609   -3.6305   10.5708 F   0  0  0  0  0  0
   14.0745   -5.5564   10.9807 F   0  0  0  0  0  0
   17.2563   -2.6420    8.9815 F   0  0  0  0  0  0
   15.7945   -6.1146   19.6344 O   0  0  0  0  0  0
   17.8953  -10.7644   14.4656 C   0  0  0  0  0  0
   17.2634  -11.9435   14.8349 C   0  0  0  0  0  0
   16.3773  -11.9753   15.9051 C   0  0  0  0  0  0
   15.0157  -11.0119   17.7591 C   0  0  0  0  0  0
   17.8257   -6.5779   16.4807 H   0  0  0  0  0  0
   14.9450   -3.7162    9.3152 H   0  0  0  0  0  0
   19.7675   -7.0490   14.3754 H   0  0  0  0  0  0
   19.3796   -8.3845   13.3403 H   0  0  0  0  0  0
   15.0465   -8.3791   18.0696 H   0  0  0  0  0  0
   16.5451   -8.4148   18.9807 H   0  0  0  0  0  0
   16.0441   -6.8383   20.2150 H   0  0  0  0  0  0
   18.5525  -10.7431   13.6082 H   0  0  0  0  0  0
   17.4327  -12.8438   14.2607 H   0  0  0  0  0  0
   15.8831  -12.9128   16.1150 H   0  0  0  0  0  0
   15.3447  -10.6316   18.7203 H   0  0  0  0  0  0
   14.1206  -10.4652   17.4672 H   0  0  0  0  0  0
   14.7242  -12.0512   17.9066 H   0  0  0  0  0  0
  1  3  2  0  0  0
  1  4  1  0  0  0
  1  8  1  0  0  0
  2  7  1  0  0  0
  2 16  1  0  0  0
  2 10  1  0  0  0
  3  9  1  0  0  0
  3 12  1  0  0  0
  4  6  2  0  0  0
  5 15  1  0  0  0
  5  7  2  0  0  0
  5 11  1  0  0  0
  6 15  1  0  0  0
  6  9  1  0  0  0
  7 28  1  0  0  0
  8 13  2  0  0  0
  8 20  1  0  0  0
 10 11  2  0  0  0
 10 18  1  0  0  0
 11 24  1  0  0  0
 12 21  1  0  0  0
 12 14  2  0  0  0
 13 14  1  0  0  0
 13 22  1  0  0  0
 14 29  1  0  0  0
 15 30  1  0  0  0
 15 31  1  0  0  0
 16 17  1  0  0  0
 16 32  1  0  0  0
 16 33  1  0  0  0
 17 19  2  0  0  0
 17 23  1  0  0  0
 18 27  1  0  0  0
 18 26  2  0  0  0
 23 34  1  0  0  0
 24 25  2  0  0  0
 24 35  1  0  0  0
 25 26  1  0  0  0
 25 36  1  0  0  0
 26 37  1  0  0  0
 27 38  1  0  0  0
 27 39  1  0  0  0
 27 40  1  0  0  0
M  END
> <s_m_entry_id>
6223

> <s_m_entry_name>
dock_pv.58

> <s_m_Source_Path>
/home/csk/Desktop/cluster/DUD-E-result/aldr

> <s_m_Source_File>
dock_pv.maegz

> <i_m_Source_File_Index>
58

> <chembl_id>
CHEMBL192886

> <chembl_pref_name>
None

> <i_lp_mmshare_version>
53161

> <i_f3d_flags>
0

> <r_lp_tautomer_probability>
1

> <s_lp_Force_Field>
OPLS_2005

> <r_lp_Energy>
13.708732

> <b_lp_Chiralities_Consistent>
1

> <s_lp_Variant>
CHEMBL1900_lig409-1

> <s_i_glide_gridfile>
glide-grid_2hv5

> <i_i_glide_lignum>
530

> <i_i_glide_rotatable_bonds>
5

> <r_i_docking_score>
-10.2438646450937

> <r_i_glide_ligand_efficiency>
-0.379402394262731

> <r_i_glide_ligand_efficiency_sa>
-1.13820718153774

> <r_i_glide_ligand_efficiency_ln>
-2.3846028060702

> <r_i_glide_gscore>
-10.2438646450937

> <r_i_glide_lipo>
-4.54950126134076

> <r_i_glide_hbond>
-0.0380260449885143

> <r_i_glide_metal>
0

> <r_i_glide_rewards>
-2.98493735936739

> <r_i_glide_evdw>
-43.0992774963379

> <r_i_glide_ecoul>
-6.73666763305664

> <r_i_glide_erotb>
0.51192449262393

> <r_i_glide_esite>
-0.0178604522456082

> <r_i_glide_emodel>
-74.2718160337371

> <r_i_glide_energy>
-49.8359451293945

> <r_i_glide_einternal>
7.03946399688721

> <i_i_glide_confnum>
4

> <i_i_glide_posenum>
281

> <r_i_glide_eff_state_penalty>
0

> <s_user_duplicate_titles>
CHEMBL1900_lig409,321593

> <s_m_subgroup_title>
dock_pv

> <s_m_subgroupid>
dock_pv

> <b_m_subgroup_collapsed>
1

$$$$
CHEMBL1900_lig376
                    3D
 Schrodinger Suite 2021-1.
 40 43  0  0  1  0            999 V2000
   16.9703   -8.3429   17.3201 N   0  0  0  0  0  0
   18.1436   -8.3540   15.3763 C   0  0  0  0  0  0
   18.5449   -5.9730   12.5810 N   0  0  0  0  0  0
   18.0423   -6.8766   13.3721 C   0  0  0  0  0  0
   17.7731   -7.6242   16.4746 C   0  0  0  0  0  0
   16.2908   -6.9158   13.3891 S   0  0  0  0  0  0
   16.8827   -2.5815    9.3623 C   0  0  0  0  0  0
   16.8183   -9.6176   16.7992 C   0  0  0  0  0  0
   17.5912   -5.3725   11.8255 C   0  0  0  0  0  0
   17.5752   -9.6590   15.5804 C   0  0  0  0  0  0
   16.2737   -5.8306   12.0448 C   0  0  0  0  0  0
   16.7274   -3.8243   10.2129 C   0  0  0  0  0  0
   18.9131   -7.8188   14.1877 C   0  0  0  0  0  0
   16.4573   -7.8189   18.5812 C   0  0  0  0  0  0
   17.8251   -4.3579   10.8967 C   0  0  0  0  0  0
   15.8222   -6.4319   18.5226 C   0  0  0  0  0  0
   15.1934   -5.3783   11.2900 C   0  0  0  0  0  0
   15.4544   -4.3827   10.3611 C   0  0  0  0  0  0
   15.7451   -5.7143   19.5162 O   0  0  0  0  0  0
   18.1304   -2.1149    9.3813 F   0  0  0  0  0  0
   16.5458   -2.8998    8.1301 F   0  0  0  0  0  0
   16.0625   -1.6223    9.7809 F   0  0  0  0  0  0
   15.3452   -6.1149   17.2817 O   0  0  0  0  0  0
   16.0961  -10.7283   17.2616 C   0  0  0  0  0  0
   17.6100  -10.8572   14.8501 C   0  0  0  0  0  0
   16.1687  -11.8961   16.5026 C   0  0  0  0  0  0
   16.9143  -11.9650   15.3290 C   0  0  0  0  0  0
   18.0118   -6.5959   16.7082 H   0  0  0  0  0  0
   19.8127   -7.2982   14.5219 H   0  0  0  0  0  0
   19.2676   -8.6358   13.5578 H   0  0  0  0  0  0
   15.7500   -8.5197   19.0225 H   0  0  0  0  0  0
   17.3112   -7.7149   19.2433 H   0  0  0  0  0  0
   18.8171   -3.9593   10.7651 H   0  0  0  0  0  0
   14.1892   -5.7447   11.4524 H   0  0  0  0  0  0
   14.6313   -4.0043    9.7830 H   0  0  0  0  0  0
   15.5199   -6.8287   16.6628 H   0  0  0  0  0  0
   15.4990  -10.6935   18.1615 H   0  0  0  0  0  0
   18.1668  -10.9200   13.9265 H   0  0  0  0  0  0
   15.6258  -12.7718   16.8287 H   0  0  0  0  0  0
   16.9385  -12.8905   14.7716 H   0  0  0  0  0  0
  1  5  1  0  0  0
  1  8  1  0  0  0
  1 14  1  0  0  0
  2  5  2  0  0  0
  2 13  1  0  0  0
  2 10  1  0  0  0
  3  4  2  0  0  0
  3  9  1  0  0  0
  4 13  1  0  0  0
  4  6  1  0  0  0
  5 28  1  0  0  0
  6 11  1  0  0  0
  7 12  1  0  0  0
  7 20  1  0  0  0
  7 21  1  0  0  0
  7 22  1  0  0  0
  8 10  2  0  0  0
  8 24  1  0  0  0
  9 15  1  0  0  0
  9 11  2  0  0  0
 10 25  1  0  0  0
 11 17  1  0  0  0
 12 15  2  0  0  0
 12 18  1  0  0  0
 13 29  1  0  0  0
 13 30  1  0  0  0
 14 16  1  0  0  0
 14 31  1  0  0  0
 14 32  1  0  0  0
 15 33  1  0  0  0
 16 19  2  0  0  0
 16 23  1  0  0  0
 17 18  2  0  0  0
 17 34  1  0  0  0
 18 35  1  0  0  0
 23 36  1  0  0  0
 24 26  2  0  0  0
 24 37  1  0  0  0
 25 27  2  0  0  0
 25 38  1  0  0  0
 26 27  1  0  0  0
 26 39  1  0  0  0
 27 40  1  0  0  0
M  END
> <s_m_entry_id>
6224

> <s_m_entry_name>
dock_pv.59

> <s_m_Source_Path>
/home/csk/Desktop/cluster/DUD-E-result/aldr

> <s_m_Source_File>
dock_pv.maegz

> <i_m_Source_File_Index>
59

> <chembl_id>
CHEMBL410917

> <chembl_pref_name>
None

> <i_lp_mmshare_version>
53161

> <i_f3d_flags>
0

> <r_lp_tautomer_probability>
1

> <s_lp_Force_Field>
OPLS_2005

> <r_lp_Energy>
12.154105

> <b_lp_Chiralities_Consistent>
1

> <s_lp_Variant>
CHEMBL1900_lig376-1

> <s_i_glide_gridfile>
glide-grid_2hv5

> <i_i_glide_lignum>
497

> <i_i_glide_rotatable_bonds>
6

> <r_i_docking_score>
-10.2318005462167

> <r_i_glide_ligand_efficiency>
-0.378955575785803

> <r_i_glide_ligand_efficiency_sa>
-1.13686672610843

> <r_i_glide_ligand_efficiency_ln>
-2.38179448274383

> <r_i_glide_gscore>
-10.2318005462167

> <r_i_glide_lipo>
-4.52526010943981

> <r_i_glide_hbond>
-0.296909915731143

> <r_i_glide_metal>
0

> <r_i_glide_rewards>
-3.15900010587089

> <r_i_glide_evdw>
-37.6425704956055

> <r_i_glide_ecoul>
-5.86950922012329

> <r_i_glide_erotb>
0.51192449262393

> <r_i_glide_esite>
0

> <r_i_glide_emodel>
-60.1754990770661

> <r_i_glide_energy>
-43.5120797157288

> <r_i_glide_einternal>
4.91750717163086

> <i_i_glide_confnum>
2

> <i_i_glide_posenum>
214

> <r_i_glide_eff_state_penalty>
0

> <s_user_duplicate_titles>
CHEMBL1900_lig376,321278

> <s_m_subgroup_title>
dock_pv

> <s_m_subgroupid>
dock_pv

> <b_m_subgroup_collapsed>
1

$$$$
CHEMBL1900_lig413
                    3D
 Schrodinger Suite 2021-1.
 40 43  0  0  1  0            999 V2000
   16.5739   -9.9883   16.1329 N   0  0  0  0  0  0
   17.7115   -5.2145   11.6881 C   0  0  0  0  0  0
   16.3885   -5.7148   11.7536 C   0  0  0  0  0  0
   17.0387   -8.6850   16.0596 C   0  0  0  0  0  0
   18.5453   -5.7151   12.6432 N   0  0  0  0  0  0
   17.9807   -8.5217   15.0649 C   0  0  0  0  0  0
   17.9568   -6.5834   13.4271 C   0  0  0  0  0  0
   17.2604  -10.7275   15.1716 C   0  0  0  0  0  0
   18.0458   -4.2622   10.7012 C   0  0  0  0  0  0
   16.2780   -6.8862   13.0392 S   0  0  0  0  0  0
   18.1452   -9.8260   14.4995 C   0  0  0  0  0  0
   15.3927   -5.2680   10.8862 C   0  0  0  0  0  0
   15.4532  -10.4781   16.9757 C   0  0  1  0  0  0
   17.0417   -3.8320    9.8332 C   0  0  0  0  0  0
   15.7441   -4.3265    9.9256 C   0  0  0  0  0  0
   15.7433  -11.7708   17.7743 C   0  0  0  0  0  0
   18.6652   -7.2375   14.6090 C   0  0  0  0  0  0
   16.8749  -12.1158   18.1120 O   0  0  0  0  0  0
   19.2940   -3.7495   10.5807 F   0  0  0  0  0  0
   14.1250   -5.7278   10.9804 F   0  0  0  0  0  0
   17.3313   -2.9120    8.8869 F   0  0  0  0  0  0
   14.6023  -12.4426   18.1150 O   0  0  0  0  0  0
   17.1851  -12.0834   14.8091 C   0  0  0  0  0  0
   18.9590  -10.3138   13.4697 C   0  0  0  0  0  0
   14.9322   -9.3831   17.9386 C   0  0  0  0  0  0
   18.0152  -12.5205   13.7773 C   0  0  0  0  0  0
   18.8875  -11.6585   13.1200 C   0  0  0  0  0  0
   16.6282   -7.9238   16.7067 H   0  0  0  0  0  0
   14.6430  -10.6942   16.2751 H   0  0  0  0  0  0
   14.9898   -3.9733    9.2417 H   0  0  0  0  0  0
   18.6789   -6.5200   15.4298 H   0  0  0  0  0  0
   19.7135   -7.4249   14.3651 H   0  0  0  0  0  0
   13.7844  -12.0366   17.8186 H   0  0  0  0  0  0
   16.5189  -12.7789   15.2959 H   0  0  0  0  0  0
   19.6422   -9.6411   12.9811 H   0  0  0  0  0  0
   14.1470   -9.7690   18.5836 H   0  0  0  0  0  0
   15.7208   -9.0034   18.5911 H   0  0  0  0  0  0
   14.4977   -8.5420   17.3961 H   0  0  0  0  0  0
   17.9819  -13.5576   13.4763 H   0  0  0  0  0  0
   19.5170  -12.0394   12.3291 H   0  0  0  0  0  0
  1  4  1  0  0  0
  1  8  1  0  0  0
  1 13  1  0  0  0
  2  5  1  0  0  0
  2  9  1  0  0  0
  2  3  2  0  0  0
  3 10  1  0  0  0
  3 12  1  0  0  0
  4  6  2  0  0  0
  4 28  1  0  0  0
  5  7  2  0  0  0
  6 17  1  0  0  0
  6 11  1  0  0  0
  7 17  1  0  0  0
  7 10  1  0  0  0
  8 11  2  0  0  0
  8 23  1  0  0  0
  9 14  2  0  0  0
  9 19  1  0  0  0
 11 24  1  0  0  0
 12 15  2  0  0  0
 12 20  1  0  0  0
 13 16  1  0  0  0
 13 25  1  0  0  0
 13 29  1  0  0  0
 14 21  1  0  0  0
 14 15  1  0  0  0
 15 30  1  0  0  0
 16 18  2  0  0  0
 16 22  1  0  0  0
 17 31  1  0  0  0
 17 32  1  0  0  0
 22 33  1  0  0  0
 23 26  2  0  0  0
 23 34  1  0  0  0
 24 27  2  0  0  0
 24 35  1  0  0  0
 25 36  1  0  0  0
 25 37  1  0  0  0
 25 38  1  0  0  0
 26 27  1  0  0  0
 26 39  1  0  0  0
 27 40  1  0  0  0
M  END
> <s_m_entry_id>
6225

> <s_m_entry_name>
dock_pv.60

> <s_m_Source_Path>
/home/csk/Desktop/cluster/DUD-E-result/aldr

> <s_m_Source_File>
dock_pv.maegz

> <i_m_Source_File_Index>
60

> <chembl_id>
CHEMBL193307

> <chembl_pref_name>
None

> <i_lp_mmshare_version>
53161

> <i_f3d_flags>
0

> <r_lp_tautomer_probability>
1

> <s_lp_Force_Field>
OPLS_2005

> <r_lp_Energy>
15.791178

> <b_lp_Chiralities_Consistent>
1

> <s_lp_Variant>
CHEMBL1900_lig413-2

> <s_i_glide_gridfile>
glide-grid_2hv5

> <i_i_glide_lignum>
535

> <i_i_glide_rotatable_bonds>
5

> <r_i_docking_score>
-10.2294238561111

> <r_i_glide_ligand_efficiency>
-0.378867550226336

> <r_i_glide_ligand_efficiency_sa>
-1.13660264943032

> <r_i_glide_ligand_efficiency_ln>
-2.38124122847005

> <r_i_glide_gscore>
-10.2294238561111

> <r_i_glide_lipo>
-4.7498934436919

> <r_i_glide_hbond>
-0.32

> <r_i_glide_metal>
0

> <r_i_glide_rewards>
-2.55116625830167

> <r_i_glide_evdw>
-40.1737022399902

> <r_i_glide_ecoul>
-7.10423994064331

> <r_i_glide_erotb>
0.51192449262393

> <r_i_glide_esite>
-0.0459675436454103

> <r_i_glide_emodel>
-72.8961654141439

> <r_i_glide_energy>
-47.2779421806335

> <r_i_glide_einternal>
1.78058171272278

> <i_i_glide_confnum>
7

> <i_i_glide_posenum>
382

> <r_i_glide_eff_state_penalty>
0

> <s_user_duplicate_titles>
CHEMBL1900_lig413,321465

> <s_m_subgroup_title>
dock_pv

> <s_m_subgroupid>
dock_pv

> <b_m_subgroup_collapsed>
1

$$$$
CHEMBL1900_lig262
                    3D
 Schrodinger Suite 2021-1.
 38 41  0  0  1  0            999 V2000
   18.1448   -7.9529   15.3113 N   0  0  0  0  0  0
   17.5909   -7.2741   16.3938 N   0  0  0  0  0  0
   17.9363   -9.2809   14.9829 C   0  0  0  0  0  0
   17.5666   -5.1150   11.5699 C   0  0  0  0  0  0
   16.7114   -7.8301   17.1473 C   0  0  0  0  0  0
   18.5173   -5.5775   12.4385 N   0  0  0  0  0  0
   18.0576   -6.4875   13.2614 C   0  0  0  0  0  0
   18.9146   -7.1076   14.3637 C   0  0  0  0  0  0
   16.9135   -9.9418   15.8985 C   0  0  0  0  0  0
   16.3806   -6.9094   13.0076 S   0  0  0  0  0  0
   17.7303   -4.1191   10.5765 C   0  0  0  0  0  0
   16.2948   -5.7183   11.7445 C   0  0  0  0  0  0
   16.2802   -9.2237   16.9341 C   0  0  0  0  0  0
   16.0776   -7.0337   18.3094 C   0  0  0  0  0  0
   16.6452   -5.6314   18.5814 C   0  0  0  0  0  0
   16.6132   -3.7715    9.8022 C   0  0  0  0  0  0
   18.4816   -9.8527   14.0335 O   0  0  0  0  0  0
   15.1884   -5.3544   10.9804 C   0  0  0  0  0  0
   16.1450   -4.6045   18.1347 O   0  0  0  0  0  0
   15.3805   -4.3874   10.0028 C   0  0  0  0  0  0
   19.2448   -3.3178   10.3122 Cl  0  0  0  0  0  0
   16.7176   -2.5507    8.5816 Cl  0  0  0  0  0  0
   17.7450   -5.6720   19.3809 O   0  0  0  0  0  0
   16.5720  -11.2817   15.6709 C   0  0  0  0  0  0
   15.2846   -9.8540   17.6979 C   0  0  0  0  0  0
   15.5922  -11.8982   16.4487 C   0  0  0  0  0  0
   14.9447  -11.1841   17.4547 C   0  0  0  0  0  0
   19.4528   -6.3424   14.9261 H   0  0  0  0  0  0
   19.7184   -7.6834   13.8993 H   0  0  0  0  0  0
   15.0130   -6.9122   18.1081 H   0  0  0  0  0  0
   16.1454   -7.6100   19.2328 H   0  0  0  0  0  0
   14.2205   -5.8145   11.1288 H   0  0  0  0  0  0
   14.5450   -4.1147    9.3806 H   0  0  0  0  0  0
   18.0335   -6.5669   19.5702 H   0  0  0  0  0  0
   17.0467  -11.8452   14.8788 H   0  0  0  0  0  0
   14.7645   -9.3330   18.4882 H   0  0  0  0  0  0
   15.3239  -12.9279   16.2617 H   0  0  0  0  0  0
   14.1745  -11.6623   18.0447 H   0  0  0  0  0  0
  1  2  1  0  0  0
  1  3  1  0  0  0
  1  8  1  0  0  0
  2  5  2  0  0  0
  3  9  1  0  0  0
  3 17  2  0  0  0
  4  6  1  0  0  0
  4 11  1  0  0  0
  4 12  2  0  0  0
  5 14  1  0  0  0
  5 13  1  0  0  0
  6  7  2  0  0  0
  7  8  1  0  0  0
  7 10  1  0  0  0
  8 28  1  0  0  0
  8 29  1  0  0  0
  9 13  1  0  0  0
  9 24  2  0  0  0
 10 12  1  0  0  0
 11 16  2  0  0  0
 11 21  1  0  0  0
 12 18  1  0  0  0
 13 25  2  0  0  0
 14 15  1  0  0  0
 14 30  1  0  0  0
 14 31  1  0  0  0
 15 19  2  0  0  0
 15 23  1  0  0  0
 16 22  1  0  0  0
 16 20  1  0  0  0
 18 20  2  0  0  0
 18 32  1  0  0  0
 20 33  1  0  0  0
 23 34  1  0  0  0
 24 26  1  0  0  0
 24 35  1  0  0  0
 25 27  1  0  0  0
 25 36  1  0  0  0
 26 27  2  0  0  0
 26 37  1  0  0  0
 27 38  1  0  0  0
M  END
> <s_m_entry_id>
6226

> <s_m_entry_name>
dock_pv.61

> <s_m_Source_Path>
/home/csk/Desktop/cluster/DUD-E-result/aldr

> <s_m_Source_File>
dock_pv.maegz

> <i_m_Source_File_Index>
61

> <chembl_id>
CHEMBL283364

> <chembl_pref_name>
None

> <i_lp_mmshare_version>
53161

> <i_f3d_flags>
0

> <r_lp_tautomer_probability>
1

> <s_lp_Force_Field>
OPLS_2005

> <r_lp_Energy>
27.674902

> <b_lp_Chiralities_Consistent>
1

> <s_lp_Variant>
CHEMBL1900_lig262-1

> <s_i_glide_gridfile>
glide-grid_2hv5

> <i_i_glide_lignum>
376

> <i_i_glide_rotatable_bonds>
5

> <r_i_docking_score>
-10.2102068765468

> <r_i_glide_ligand_efficiency>
-0.378155810242474

> <r_i_glide_ligand_efficiency_sa>
-1.13446742948108

> <r_i_glide_ligand_efficiency_ln>
-2.37676783244415

> <r_i_glide_gscore>
-10.2102068765468

> <r_i_glide_lipo>
-5.20889497493495

> <r_i_glide_hbond>
0

> <r_i_glide_metal>
0

> <r_i_glide_rewards>
-2.08927219051351

> <r_i_glide_evdw>
-51.890209197998

> <r_i_glide_ecoul>
-5.10484600067139

> <r_i_glide_erotb>
0.44819764890227

> <r_i_glide_esite>
0

> <r_i_glide_emodel>
-89.5009753100097

> <r_i_glide_energy>
-56.9950551986694

> <r_i_glide_einternal>
3.63027477264404

> <i_i_glide_confnum>
22

> <i_i_glide_posenum>
361

> <r_i_glide_eff_state_penalty>
0

> <s_user_duplicate_titles>
CHEMBL1900_lig262,24061

> <s_m_subgroup_title>
dock_pv

> <s_m_subgroupid>
dock_pv

> <b_m_subgroup_collapsed>
1

$$$$
CHEMBL1900_lig243
                    3D
 Schrodinger Suite 2021-1.
 43 46  0  0  1  0            999 V2000
   17.9746   -8.5189   15.5798 N   0  0  0  0  0  0
   17.4832   -7.7086   16.5940 N   0  0  0  0  0  0
   17.6013   -9.8240   15.3135 C   0  0  0  0  0  0
   16.4201   -8.0439   17.2192 C   0  0  0  0  0  0
   17.9703   -6.9291   13.6542 C   0  0  0  0  0  0
   18.5420   -6.1154   12.8185 N   0  0  0  0  0  0
   18.7981   -7.7935   14.5926 C   0  0  0  0  0  0
   16.4911  -10.2950   16.2474 C   0  0  0  0  0  0
   16.2154   -6.9152   13.5888 S   0  0  0  0  0  0
   17.6391   -5.5459   11.9824 C   0  0  0  0  0  0
   15.8969   -9.4200   17.1829 C   0  0  0  0  0  0
   15.6430   -6.8813   17.8496 C   0  0  0  0  0  0
   16.2919   -5.9308   12.1661 C   0  0  0  0  0  0
   17.9577   -4.6161   11.0021 C   0  0  0  0  0  0
   17.3449   -2.7085    9.1678 S   0  0  2  0  0  0
   16.9244   -4.0935   10.2336 C   0  0  0  0  0  0
   16.3663   -6.1158   18.9774 C   0  0  0  0  0  0
   18.0773  -10.5109   14.4047 O   0  0  0  0  0  0
   18.6293   -2.1411    9.7810 O   0  0  0  0  0  0
   15.2673   -5.4831   11.3230 C   0  0  0  0  0  0
   15.6134   -4.5637   10.3355 C   0  0  0  0  0  0
   15.7484   -5.5166   19.8476 O   0  0  0  0  0  0
   17.7240   -6.1146   18.8805 O   0  0  0  0  0  0
   16.0574  -11.6244   16.1639 C   0  0  0  0  0  0
   14.9520   -9.9240   18.0876 C   0  0  0  0  0  0
   16.0628   -1.5340    9.7806 C   0  0  0  0  0  0
   15.0830  -12.0989   17.0411 C   0  0  0  0  0  0
   14.5451  -11.2555   18.0107 C   0  0  0  0  0  0
   19.5372   -7.1884   15.1182 H   0  0  0  0  0  0
   19.4072   -8.4752   13.9951 H   0  0  0  0  0  0
   15.4359   -6.1448   17.0737 H   0  0  0  0  0  0
   14.6566   -7.1954   18.1810 H   0  0  0  0  0  0
   18.9668   -4.2597   10.8923 H   0  0  0  0  0  0
   14.2404   -5.7915   11.4660 H   0  0  0  0  0  0
   14.8389   -4.1628    9.6965 H   0  0  0  0  0  0
   18.0011   -6.6101   18.1009 H   0  0  0  0  0  0
   16.4836  -12.2990   15.4333 H   0  0  0  0  0  0
   14.5412   -9.3059   18.8688 H   0  0  0  0  0  0
   15.1685   -2.0050   10.1808 H   0  0  0  0  0  0
   16.5450   -0.8916   10.5163 H   0  0  0  0  0  0
   15.7450   -0.9151    8.9635 H   0  0  0  0  0  0
   14.7536  -13.1262   16.9800 H   0  0  0  0  0  0
   13.8035  -11.6348   18.7001 H   0  0  0  0  0  0
  1  2  1  0  0  0
  1  3  1  0  0  0
  1  7  1  0  0  0
  2  4  2  0  0  0
  3  8  1  0  0  0
  3 18  2  0  0  0
  4 12  1  0  0  0
  4 11  1  0  0  0
  5  7  1  0  0  0
  5  6  2  0  0  0
  5  9  1  0  0  0
  6 10  1  0  0  0
  7 29  1  0  0  0
  7 30  1  0  0  0
  8 11  2  0  0  0
  8 24  1  0  0  0
  9 13  1  0  0  0
 10 14  2  0  0  0
 10 13  1  0  0  0
 11 25  1  0  0  0
 12 17  1  0  0  0
 12 31  1  0  0  0
 12 32  1  0  0  0
 13 20  2  0  0  0
 14 16  1  0  0  0
 14 33  1  0  0  0
 15 16  1  0  0  0
 15 19  2  0  0  0
 15 26  1  0  0  0
 16 21  2  0  0  0
 17 22  2  0  0  0
 17 23  1  0  0  0
 20 21  1  0  0  0
 20 34  1  0  0  0
 21 35  1  0  0  0
 23 36  1  0  0  0
 24 27  2  0  0  0
 24 37  1  0  0  0
 25 28  2  0  0  0
 25 38  1  0  0  0
 26 39  1  0  0  0
 26 40  1  0  0  0
 26 41  1  0  0  0
 27 28  1  0  0  0
 27 42  1  0  0  0
 28 43  1  0  0  0
M  END
> <s_m_entry_id>
6227

> <s_m_entry_name>
dock_pv.62

> <s_m_Source_Path>
/home/csk/Desktop/cluster/DUD-E-result/aldr

> <s_m_Source_File>
dock_pv.maegz

> <i_m_Source_File_Index>
62

> <chembl_id>
CHEMBL430911

> <chembl_pref_name>
None

> <i_lp_mmshare_version>
53161

> <i_f3d_flags>
0

> <r_lp_tautomer_probability>
1

> <s_lp_Force_Field>
OPLS_2005

> <r_lp_Energy>
22.699843

> <b_lp_Chiralities_Consistent>
1

> <s_lp_Variant>
CHEMBL1900_lig243-1

> <s_i_glide_gridfile>
glide-grid_2hv5

> <i_i_glide_lignum>
355

> <i_i_glide_rotatable_bonds>
6

> <r_i_docking_score>
-10.209660496428

> <r_i_glide_ligand_efficiency>
-0.364630732015284

> <r_i_glide_ligand_efficiency_sa>
-1.10723365841472

> <r_i_glide_ligand_efficiency_ln>
-2.35668941123351

> <r_i_glide_gscore>
-10.209660496428

> <r_i_glide_lipo>
-4.67965314549354

> <r_i_glide_hbond>
-0.32

> <r_i_glide_metal>
0

> <r_i_glide_rewards>
-2.49388355795367

> <r_i_glide_evdw>
-50.6474838256836

> <r_i_glide_ecoul>
-4.30231094360352

> <r_i_glide_erotb>
0.461597039843965

> <r_i_glide_esite>
0

> <r_i_glide_emodel>
-76.1024689195821

> <r_i_glide_energy>
-54.9497947692871

> <r_i_glide_einternal>
6.37212133407593

> <i_i_glide_confnum>
4

> <i_i_glide_posenum>
263

> <r_i_glide_eff_state_penalty>
0

> <s_user_duplicate_titles>
CHEMBL1900_lig243

> <s_m_subgroup_title>
dock_pv

> <s_m_subgroupid>
dock_pv

> <b_m_subgroup_collapsed>
1

$$$$
CHEMBL1900_lig412
                    3D
 Schrodinger Suite 2021-1.
 40 43  0  0  1  0            999 V2000
   17.6885   -5.1945   11.6487 C   0  0  0  0  0  0
   16.3739   -5.7073   11.7234 C   0  0  0  0  0  0
   18.5450   -5.7150   12.5650 N   0  0  0  0  0  0
   16.5335   -7.9655   17.2901 N   0  0  0  0  0  0
   17.9055   -7.9121   15.4739 C   0  0  0  0  0  0
   17.9998   -6.6289   13.3145 C   0  0  0  0  0  0
   18.0109   -4.2178   10.6880 C   0  0  0  0  0  0
   16.3076   -6.9148   12.9811 S   0  0  0  0  0  0
   17.3445   -7.1897   16.4999 C   0  0  0  0  0  0
   16.5260   -9.2498   16.7695 C   0  0  0  0  0  0
   17.4120   -9.2512   15.6442 C   0  0  0  0  0  0
   15.3646   -5.2385   10.8817 C   0  0  0  0  0  0
   16.9976   -3.7651    9.8449 C   0  0  0  0  0  0
   15.7046   -4.2701    9.9403 C   0  0  0  0  0  0
   18.7985   -7.3761   14.3722 C   0  0  0  0  0  0
   16.5589   -6.5944   19.3996 C   0  0  0  0  0  0
   15.7452   -7.4898   18.4281 C   0  0  0  0  0  0
   16.5540   -5.0858   19.1313 C   0  0  0  0  0  0
   16.1451   -4.5630   18.1011 O   0  0  0  0  0  0
   19.2626   -3.7121   10.5807 F   0  0  0  0  0  0
   14.0987   -5.7016   10.9810 F   0  0  0  0  0  0
   17.2689   -2.8126    8.9264 F   0  0  0  0  0  0
   17.0832   -4.4012   20.1792 O   0  0  0  0  0  0
   15.8401  -10.4056   17.1721 C   0  0  0  0  0  0
   17.6132  -10.4526   14.9461 C   0  0  0  0  0  0
   16.9441  -11.6018   15.3620 C   0  0  0  0  0  0
   16.0731  -11.5720   16.4456 C   0  0  0  0  0  0
   17.4554   -6.1402   16.7148 H   0  0  0  0  0  0
   14.9453   -3.9036    9.2714 H   0  0  0  0  0  0
   19.5534   -6.7123   14.7972 H   0  0  0  0  0  0
   19.3577   -8.1863   13.9027 H   0  0  0  0  0  0
   16.2029   -6.7614   20.4175 H   0  0  0  0  0  0
   17.6019   -6.9140   19.3809 H   0  0  0  0  0  0
   14.8532   -6.9914   18.0450 H   0  0  0  0  0  0
   15.3969   -8.3637   18.9809 H   0  0  0  0  0  0
   17.0980   -3.4600   19.9934 H   0  0  0  0  0  0
   15.1562  -10.4096   18.0083 H   0  0  0  0  0  0
   18.2680  -10.4846   14.0876 H   0  0  0  0  0  0
   17.0906  -12.5284   14.8247 H   0  0  0  0  0  0
   15.5591  -12.4804   16.7294 H   0  0  0  0  0  0
  1  2  2  0  0  0
  1  3  1  0  0  0
  1  7  1  0  0  0
  2  8  1  0  0  0
  2 12  1  0  0  0
  3  6  2  0  0  0
  4  9  1  0  0  0
  4 17  1  0  0  0
  4 10  1  0  0  0
  5 15  1  0  0  0
  5  9  2  0  0  0
  5 11  1  0  0  0
  6 15  1  0  0  0
  6  8  1  0  0  0
  7 13  2  0  0  0
  7 20  1  0  0  0
  9 28  1  0  0  0
 10 11  2  0  0  0
 10 24  1  0  0  0
 11 25  1  0  0  0
 12 21  1  0  0  0
 12 14  2  0  0  0
 13 14  1  0  0  0
 13 22  1  0  0  0
 14 29  1  0  0  0
 15 30  1  0  0  0
 15 31  1  0  0  0
 16 17  1  0  0  0
 16 18  1  0  0  0
 16 32  1  0  0  0
 16 33  1  0  0  0
 17 34  1  0  0  0
 17 35  1  0  0  0
 18 19  2  0  0  0
 18 23  1  0  0  0
 23 36  1  0  0  0
 24 27  2  0  0  0
 24 37  1  0  0  0
 25 26  2  0  0  0
 25 38  1  0  0  0
 26 27  1  0  0  0
 26 39  1  0  0  0
 27 40  1  0  0  0
M  END
> <s_m_entry_id>
6228

> <s_m_entry_name>
dock_pv.63

> <s_m_Source_Path>
/home/csk/Desktop/cluster/DUD-E-result/aldr

> <s_m_Source_File>
dock_pv.maegz

> <i_m_Source_File_Index>
63

> <chembl_id>
CHEMBL193839

> <chembl_pref_name>
None

> <i_lp_mmshare_version>
53161

> <i_f3d_flags>
0

> <r_lp_tautomer_probability>
1

> <s_lp_Force_Field>
OPLS_2005

> <r_lp_Energy>
10.469163

> <b_lp_Chiralities_Consistent>
1

> <s_lp_Variant>
CHEMBL1900_lig412-1

> <s_i_glide_gridfile>
glide-grid_2hv5

> <i_i_glide_lignum>
533

> <i_i_glide_rotatable_bonds>
6

> <r_i_docking_score>
-10.2079859501353

> <r_i_glide_ligand_efficiency>
-0.378073553708715

> <r_i_glide_ligand_efficiency_sa>
-1.13422065988008

> <r_i_glide_ligand_efficiency_ln>
-2.37625083739039

> <r_i_glide_gscore>
-10.2079859501353

> <r_i_glide_lipo>
-4.76545818736705

> <r_i_glide_hbond>
0

> <r_i_glide_metal>
0

> <r_i_glide_rewards>
-3.08841815753321

> <r_i_glide_evdw>
-47.1644515991211

> <r_i_glide_ecoul>
-4.03413915634155

> <r_i_glide_erotb>
0.639905615779912

> <r_i_glide_esite>
-0.0306717676076563

> <r_i_glide_emodel>
-79.4735208985207

> <r_i_glide_energy>
-51.1985907554626

> <r_i_glide_einternal>
4.34647989273071

> <i_i_glide_confnum>
22

> <i_i_glide_posenum>
12

> <r_i_glide_eff_state_penalty>
0

> <s_user_duplicate_titles>
CHEMBL1900_lig412,321562

> <s_m_subgroup_title>
dock_pv

> <s_m_subgroupid>
dock_pv

> <b_m_subgroup_collapsed>
1

$$$$
CHEMBL1900_lig393
                    3D
 Schrodinger Suite 2021-1.
 37 40  0  0  1  0            999 V2000
   17.6911   -5.1561   11.6158 C   0  0  0  0  0  0
   16.6325   -7.9840   17.2215 N   0  0  0  0  0  0
   16.3691   -5.6499   11.6922 C   0  0  0  0  0  0
   18.5452   -5.7156   12.5086 N   0  0  0  0  0  0
   17.9463   -7.9811   15.3586 C   0  0  0  0  0  0
   18.0044   -6.6605   13.2198 C   0  0  0  0  0  0
   17.3500   -7.2194   16.3315 C   0  0  0  0  0  0
   17.5106   -9.3254   15.6161 C   0  0  0  0  0  0
   18.0229   -4.1596   10.6821 C   0  0  0  0  0  0
   16.3025   -6.9116   12.9053 S   0  0  0  0  0  0
   16.6524   -9.2917   16.7636 C   0  0  0  0  0  0
   15.3584   -5.1304   10.8822 C   0  0  0  0  0  0
   17.0087   -3.6576    9.8700 C   0  0  0  0  0  0
   15.7048   -4.1354    9.9733 C   0  0  0  0  0  0
   18.8129   -7.4744   14.2184 C   0  0  0  0  0  0
   15.8573   -7.4695   18.3572 C   0  0  0  0  0  0
   16.0105  -10.4440   17.2424 C   0  0  0  0  0  0
   16.4264   -6.2443   19.0972 C   0  0  0  0  0  0
   17.7412  -10.5539   14.9793 C   0  0  0  0  0  0
   15.7355   -5.5010   19.7809 O   0  0  0  0  0  0
   19.2853   -3.6799   10.5713 F   0  0  0  0  0  0
   14.0836   -5.5705   10.9808 F   0  0  0  0  0  0
   17.2845   -2.6784    8.9808 F   0  0  0  0  0  0
   17.1093  -11.6952   15.4630 C   0  0  0  0  0  0
   16.2624  -11.6377   16.5670 C   0  0  0  0  0  0
   17.7707   -6.1138   18.9809 O   0  0  0  0  0  0
   17.3835  -13.3563   14.5799 Br  0  0  0  0  0  0
   17.3962   -6.1497   16.4681 H   0  0  0  0  0  0
   14.9460   -3.7236    9.3333 H   0  0  0  0  0  0
   19.6337   -6.8721   14.6122 H   0  0  0  0  0  0
   19.2917   -8.3096   13.7041 H   0  0  0  0  0  0
   14.8513   -7.2486   17.9992 H   0  0  0  0  0  0
   15.7683   -8.2680   19.0949 H   0  0  0  0  0  0
   15.3456  -10.4215   18.0939 H   0  0  0  0  0  0
   18.3774  -10.6141   14.1096 H   0  0  0  0  0  0
   15.7818  -12.5443   16.9040 H   0  0  0  0  0  0
   18.1682   -6.8268   18.4768 H   0  0  0  0  0  0
  1  3  2  0  0  0
  1  4  1  0  0  0
  1  9  1  0  0  0
  2  7  1  0  0  0
  2 16  1  0  0  0
  2 11  1  0  0  0
  3 10  1  0  0  0
  3 12  1  0  0  0
  4  6  2  0  0  0
  5 15  1  0  0  0
  5  7  2  0  0  0
  5  8  1  0  0  0
  6 15  1  0  0  0
  6 10  1  0  0  0
  7 28  1  0  0  0
  8 11  2  0  0  0
  8 19  1  0  0  0
  9 13  2  0  0  0
  9 21  1  0  0  0
 11 17  1  0  0  0
 12 22  1  0  0  0
 12 14  2  0  0  0
 13 14  1  0  0  0
 13 23  1  0  0  0
 14 29  1  0  0  0
 15 30  1  0  0  0
 15 31  1  0  0  0
 16 18  1  0  0  0
 16 32  1  0  0  0
 16 33  1  0  0  0
 17 25  2  0  0  0
 17 34  1  0  0  0
 18 20  2  0  0  0
 18 26  1  0  0  0
 19 24  2  0  0  0
 19 35  1  0  0  0
 24 25  1  0  0  0
 24 27  1  0  0  0
 25 36  1  0  0  0
 26 37  1  0  0  0
M  END
> <s_m_entry_id>
6229

> <s_m_entry_name>
dock_pv.64

> <s_m_Source_Path>
/home/csk/Desktop/cluster/DUD-E-result/aldr

> <s_m_Source_File>
dock_pv.maegz

> <i_m_Source_File_Index>
64

> <chembl_id>
CHEMBL192434

> <chembl_pref_name>
None

> <i_lp_mmshare_version>
53161

> <i_f3d_flags>
0

> <r_lp_tautomer_probability>
1

> <s_lp_Force_Field>
OPLS_2005

> <r_lp_Energy>
12.68289

> <b_lp_Chiralities_Consistent>
1

> <s_lp_Variant>
CHEMBL1900_lig393-1

> <s_i_glide_gridfile>
glide-grid_2hv5

> <i_i_glide_lignum>
514

> <i_i_glide_rotatable_bonds>
5

> <r_i_docking_score>
-10.1874902873565

> <r_i_glide_ligand_efficiency>
-0.377314455087276

> <r_i_glide_ligand_efficiency_sa>
-1.13194336401826

> <r_i_glide_ligand_efficiency_ln>
-2.37147978499289

> <r_i_glide_gscore>
-10.1874902873565

> <r_i_glide_lipo>
-4.44547160317813

> <r_i_glide_hbond>
-0.32

> <r_i_glide_metal>
0

> <r_i_glide_rewards>
-2.68835065644155

> <r_i_glide_evdw>
-42.8062973022461

> <r_i_glide_ecoul>
-6.34347581863403

> <r_i_glide_erotb>
0.387693553823976

> <r_i_glide_esite>
-0.0295253436533432

> <r_i_glide_emodel>
-74.6076883528429

> <r_i_glide_energy>
-49.1497731208801

> <r_i_glide_einternal>
6.59682083129883

> <i_i_glide_confnum>
11

> <i_i_glide_posenum>
275

> <r_i_glide_eff_state_penalty>
0

> <s_user_duplicate_titles>
CHEMBL1900_lig393,321459

> <s_m_subgroup_title>
dock_pv

> <s_m_subgroupid>
dock_pv

> <b_m_subgroup_collapsed>
1

$$$$
CHEMBL1900_lig256
                    3D
 Schrodinger Suite 2021-1.
 41 44  0  0  1  0            999 V2000
   17.7636   -7.8940   14.8813 N   0  0  0  0  0  0
   17.0752   -7.0136   15.7138 N   0  0  0  0  0  0
   17.8784   -6.4081   12.8556 C   0  0  0  0  0  0
   17.6786   -9.2757   14.9054 C   0  0  0  0  0  0
   16.2253   -7.4390   16.5624 C   0  0  0  0  0  0
   18.4955   -5.5623   12.0768 N   0  0  0  0  0  0
   18.6534   -7.2376   13.8858 C   0  0  1  0  0  0
   16.1477   -6.5150   12.5700 S   0  0  0  0  0  0
   16.6506   -9.7660   15.9225 C   0  0  0  0  0  0
   15.9198   -8.8676   16.7267 C   0  0  0  0  0  0
   15.6116   -6.3606   17.4562 C   0  0  0  0  0  0
   17.6639   -4.9142   11.2290 C   0  0  0  0  0  0
   16.3025   -5.2753   11.3416 C   0  0  0  0  0  0
   16.3241   -6.1755   18.8063 C   0  0  0  0  0  0
   18.3308  -10.0303   14.1778 O   0  0  0  0  0  0
   15.7451   -5.7146   19.7817 O   0  0  0  0  0  0
   17.6441   -6.5116   18.8026 O   0  0  0  0  0  0
   19.7369   -6.3881   14.5812 C   0  0  0  0  0  0
   16.4176  -11.1429   16.0359 C   0  0  0  0  0  0
   14.9515   -9.3599   17.6115 C   0  0  0  0  0  0
   18.0665   -3.9364   10.3065 C   0  0  0  0  0  0
   15.3243   -4.6553   10.5540 C   0  0  0  0  0  0
   15.4555  -11.6200   16.9250 C   0  0  0  0  0  0
   14.7217  -10.7321   17.7084 C   0  0  0  0  0  0
   17.0874   -3.3249    9.5243 C   0  0  0  0  0  0
   15.7460   -3.6818    9.6475 C   0  0  0  0  0  0
   19.2165   -7.9826   13.3167 H   0  0  0  0  0  0
   15.6326   -5.3890   16.9638 H   0  0  0  0  0  0
   14.5601   -6.5716   17.6346 H   0  0  0  0  0  0
   18.0308   -6.4003   19.6722 H   0  0  0  0  0  0
   20.5388   -6.1144   13.9065 H   0  0  0  0  0  0
   19.3042   -5.4698   14.9799 H   0  0  0  0  0  0
   20.2008   -6.9149   15.4050 H   0  0  0  0  0  0
   16.9610  -11.8486   15.4230 H   0  0  0  0  0  0
   14.3662   -8.6985   18.2287 H   0  0  0  0  0  0
   19.1000   -3.6456   10.2206 H   0  0  0  0  0  0
   14.2798   -4.9158   10.6443 H   0  0  0  0  0  0
   15.2666  -12.6822   16.9969 H   0  0  0  0  0  0
   13.9700  -11.1072   18.3890 H   0  0  0  0  0  0
   17.3672   -2.5622    8.8100 H   0  0  0  0  0  0
   15.0067   -3.1926    9.0303 H   0  0  0  0  0  0
  1  2  1  0  0  0
  1  4  1  0  0  0
  1  7  1  0  0  0
  2  5  2  0  0  0
  3  7  1  0  0  0
  3  6  2  0  0  0
  3  8  1  0  0  0
  4  9  1  0  0  0
  4 15  2  0  0  0
  5 11  1  0  0  0
  5 10  1  0  0  0
  6 12  1  0  0  0
  7 18  1  0  0  0
  7 27  1  0  0  0
  8 13  1  0  0  0
  9 10  1  0  0  0
  9 19  2  0  0  0
 10 20  2  0  0  0
 11 14  1  0  0  0
 11 28  1  0  0  0
 11 29  1  0  0  0
 12 21  1  0  0  0
 12 13  2  0  0  0
 13 22  1  0  0  0
 14 16  2  0  0  0
 14 17  1  0  0  0
 17 30  1  0  0  0
 18 31  1  0  0  0
 18 32  1  0  0  0
 18 33  1  0  0  0
 19 23  1  0  0  0
 19 34  1  0  0  0
 20 24  1  0  0  0
 20 35  1  0  0  0
 21 25  2  0  0  0
 21 36  1  0  0  0
 22 26  2  0  0  0
 22 37  1  0  0  0
 23 24  2  0  0  0
 23 38  1  0  0  0
 24 39  1  0  0  0
 25 26  1  0  0  0
 25 40  1  0  0  0
 26 41  1  0  0  0
M  END
> <s_m_entry_id>
6230

> <s_m_entry_name>
dock_pv.65

> <s_m_Source_Path>
/home/csk/Desktop/cluster/DUD-E-result/aldr

> <s_m_Source_File>
dock_pv.maegz

> <i_m_Source_File_Index>
65

> <chembl_id>
CHEMBL282017

> <chembl_pref_name>
None

> <i_lp_mmshare_version>
53161

> <i_f3d_flags>
0

> <r_lp_tautomer_probability>
1

> <s_lp_Force_Field>
OPLS_2005

> <r_lp_Energy>
23.58866

> <b_lp_Chiralities_Consistent>
1

> <s_lp_Variant>
CHEMBL1900_lig256-1

> <s_i_glide_gridfile>
glide-grid_2hv5

> <i_i_glide_lignum>
369

> <i_i_glide_rotatable_bonds>
5

> <r_i_docking_score>
-10.177357596577

> <r_i_glide_ligand_efficiency>
-0.391436830637575

> <r_i_glide_ligand_efficiency_sa>
-1.15963007053426

> <r_i_glide_ligand_efficiency_ln>
-2.39011903692204

> <r_i_glide_gscore>
-10.177357596577

> <r_i_glide_lipo>
-4.96078634852055

> <r_i_glide_hbond>
-0.32

> <r_i_glide_metal>
0

> <r_i_glide_rewards>
-2.55295978637794

> <r_i_glide_evdw>
-48.6936798095703

> <r_i_glide_ecoul>
-3.23456954956055

> <r_i_glide_erotb>
0.576257961234132

> <r_i_glide_esite>
0

> <r_i_glide_emodel>
-74.5542419479772

> <r_i_glide_energy>
-51.9282493591309

> <r_i_glide_einternal>
5.85104370117188

> <i_i_glide_confnum>
20

> <i_i_glide_posenum>
352

> <r_i_glide_eff_state_penalty>
0

> <s_user_duplicate_titles>
CHEMBL1900_lig256,24360

> <s_m_subgroup_title>
dock_pv

> <s_m_subgroupid>
dock_pv

> <b_m_subgroup_collapsed>
1

$$$$
CHEMBL1900_lig46
                    3D
 Schrodinger Suite 2021-1.
 39 42  0  0  1  0            999 V2000
   17.9643   -7.8411   15.8940 N   0  0  0  0  0  0
   17.6068   -6.9143   16.7950 N   0  0  0  0  0  0
   16.6961   -7.4221   17.5903 C   0  0  0  0  0  0
   18.1413   -6.8084   13.6468 C   0  0  0  0  0  0
   18.6348   -5.8443   12.9182 N   0  0  0  0  0  0
   16.4011   -8.7632   17.1849 C   0  0  0  0  0  0
   18.8747   -7.4580   14.8074 C   0  0  0  0  0  0
   17.2647   -9.0202   16.0857 C   0  0  0  0  0  0
   16.5450   -7.3088   13.1842 S   0  0  0  0  0  0
   17.0412   -2.6255    9.4696 C   0  0  0  0  0  0
   17.7597   -5.4102   11.9672 C   0  0  0  0  0  0
   16.0624   -6.6354   18.7386 C   0  0  0  0  0  0
   16.5115   -6.0700   11.9640 C   0  0  0  0  0  0
   16.9259   -3.9158   10.2704 C   0  0  0  0  0  0
   17.9918   -4.3665   11.0592 C   0  0  0  0  0  0
   16.6335   -5.2347   19.0011 C   0  0  0  0  0  0
   15.4799   -5.6946   11.0988 C   0  0  0  0  0  0
   15.7079   -4.5970   10.2733 C   0  0  0  0  0  0
   16.1451   -4.2069   18.5396 O   0  0  0  0  0  0
   16.9451   -2.9149    8.1812 F   0  0  0  0  0  0
   16.0503   -1.7904    9.7809 F   0  0  0  0  0  0
   18.1960   -2.0017    9.7033 F   0  0  0  0  0  0
   17.7459   -5.2876   19.7806 O   0  0  0  0  0  0
   15.5150   -9.7661   17.6094 C   0  0  0  0  0  0
   17.2734  -10.2499   15.4146 C   0  0  0  0  0  0
   15.5225  -10.9918   16.9441 C   0  0  0  0  0  0
   16.3865  -11.2253   15.8754 C   0  0  0  0  0  0
   19.6412   -6.7955   15.2145 H   0  0  0  0  0  0
   19.3958   -8.3559   14.4755 H   0  0  0  0  0  0
   14.9920   -6.5186   18.5705 H   0  0  0  0  0  0
   16.1438   -7.2132   19.6601 H   0  0  0  0  0  0
   18.9391   -3.8534   11.0343 H   0  0  0  0  0  0
   14.5209   -6.1938   11.1125 H   0  0  0  0  0  0
   14.9144   -4.2403    9.6371 H   0  0  0  0  0  0
   18.0157   -6.1922   19.9565 H   0  0  0  0  0  0
   14.8435   -9.5939   18.4375 H   0  0  0  0  0  0
   17.9243  -10.4390   14.5737 H   0  0  0  0  0  0
   14.8429  -11.7724   17.2583 H   0  0  0  0  0  0
   16.3620  -12.1871   15.3834 H   0  0  0  0  0  0
  1  2  1  0  0  0
  1  7  1  0  0  0
  1  8  1  0  0  0
  2  3  2  0  0  0
  3 12  1  0  0  0
  3  6  1  0  0  0
  4  7  1  0  0  0
  4  5  2  0  0  0
  4  9  1  0  0  0
  5 11  1  0  0  0
  6  8  2  0  0  0
  6 24  1  0  0  0
  7 28  1  0  0  0
  7 29  1  0  0  0
  8 25  1  0  0  0
  9 13  1  0  0  0
 10 14  1  0  0  0
 10 20  1  0  0  0
 10 21  1  0  0  0
 10 22  1  0  0  0
 11 15  1  0  0  0
 11 13  2  0  0  0
 12 16  1  0  0  0
 12 30  1  0  0  0
 12 31  1  0  0  0
 13 17  1  0  0  0
 14 15  2  0  0  0
 14 18  1  0  0  0
 15 32  1  0  0  0
 16 19  2  0  0  0
 16 23  1  0  0  0
 17 18  2  0  0  0
 17 33  1  0  0  0
 18 34  1  0  0  0
 23 35  1  0  0  0
 24 26  2  0  0  0
 24 36  1  0  0  0
 25 27  2  0  0  0
 25 37  1  0  0  0
 26 27  1  0  0  0
 26 38  1  0  0  0
 27 39  1  0  0  0
M  END
> <s_m_entry_id>
6231

> <s_m_entry_name>
dock_pv.66

> <s_m_Source_Path>
/home/csk/Desktop/cluster/DUD-E-result/aldr

> <s_m_Source_File>
dock_pv.maegz

> <i_m_Source_File_Index>
66

> <chembl_id>
CHEMBL306244

> <chembl_pref_name>
None

> <i_lp_mmshare_version>
53161

> <i_f3d_flags>
0

> <r_lp_tautomer_probability>
1

> <s_lp_Force_Field>
OPLS_2005

> <r_lp_Energy>
11.510851

> <b_lp_Chiralities_Consistent>
1

> <s_lp_Variant>
CHEMBL1900_lig46-1

> <s_i_glide_gridfile>
glide-grid_2hv5

> <i_i_glide_lignum>
81

> <i_i_glide_rotatable_bonds>
6

> <r_i_docking_score>
-10.1712940523828

> <r_i_glide_ligand_efficiency>
-0.376714594532696

> <r_i_glide_ligand_efficiency_sa>
-1.1301437823565

> <r_i_glide_ligand_efficiency_ln>
-2.36770956850682

> <r_i_glide_gscore>
-10.1712940523828

> <r_i_glide_lipo>
-4.99020950704676

> <r_i_glide_hbond>
0

> <r_i_glide_metal>
0

> <r_i_glide_rewards>
-3.18055914069752

> <r_i_glide_evdw>
-43.0223922729492

> <r_i_glide_ecoul>
-2.39340710639954

> <r_i_glide_erotb>
0.509605274968893

> <r_i_glide_esite>
0

> <r_i_glide_emodel>
-66.6706171484818

> <r_i_glide_energy>
-45.4157993793488

> <r_i_glide_einternal>
3.98138999938965

> <i_i_glide_confnum>
15

> <i_i_glide_posenum>
166

> <r_i_glide_eff_state_penalty>
0

> <s_user_duplicate_titles>
CHEMBL1900_lig46,107868

> <s_m_subgroup_title>
dock_pv

> <s_m_subgroupid>
dock_pv

> <b_m_subgroup_collapsed>
1

$$$$
CHEMBL1900_lig382
                    3D
 Schrodinger Suite 2021-1.
 37 40  0  0  1  0            999 V2000
   16.6064   -7.9402   17.2104 N   0  0  0  0  0  0
   17.9125   -7.9559   15.3419 C   0  0  0  0  0  0
   18.5450   -5.7151   12.4721 N   0  0  0  0  0  0
   17.9937   -6.6502   13.1927 C   0  0  0  0  0  0
   17.3387   -7.1857   16.3241 C   0  0  0  0  0  0
   16.2907   -6.9004   12.8778 S   0  0  0  0  0  0
   16.5953   -9.2464   16.7467 C   0  0  0  0  0  0
   17.6820   -5.1530   11.5884 C   0  0  0  0  0  0
   17.4380   -9.2915   15.5896 C   0  0  0  0  0  0
   16.3584   -5.6462   11.6610 C   0  0  0  0  0  0
   18.7885   -7.4625   14.2034 C   0  0  0  0  0  0
   15.8375   -7.4220   18.3491 C   0  0  0  0  0  0
   18.0085   -4.1498   10.6622 C   0  0  0  0  0  0
   16.4236   -6.2120   19.0976 C   0  0  0  0  0  0
   15.7431   -5.4583   19.7810 O   0  0  0  0  0  0
   15.3453   -5.1305   10.8480 C   0  0  0  0  0  0
   16.9989   -3.6473    9.8501 C   0  0  0  0  0  0
   17.7704   -6.1110   18.9810 O   0  0  0  0  0  0
   15.6988   -4.1325    9.9412 C   0  0  0  0  0  0
   17.2827   -2.6569    8.9778 F   0  0  0  0  0  0
   15.9337  -10.3867   17.2271 C   0  0  0  0  0  0
   17.6220  -10.5223   14.9377 C   0  0  0  0  0  0
   16.9708  -11.6533   15.4240 C   0  0  0  0  0  0
   16.1431  -11.5826   16.5405 C   0  0  0  0  0  0
   17.4085   -6.1165   16.4668 H   0  0  0  0  0  0
   19.6058   -6.8586   14.6018 H   0  0  0  0  0  0
   19.2708   -8.2979   13.6969 H   0  0  0  0  0  0
   14.8325   -7.1868   17.9947 H   0  0  0  0  0  0
   15.7451   -8.2243   19.0821 H   0  0  0  0  0  0
   19.0025   -3.7483   10.5815 H   0  0  0  0  0  0
   14.3264   -5.4845   10.9283 H   0  0  0  0  0  0
   18.1520   -6.8283   18.4688 H   0  0  0  0  0  0
   14.9454   -3.7148    9.2972 H   0  0  0  0  0  0
   15.2842  -10.3544   18.0894 H   0  0  0  0  0  0
   18.2453  -10.5885   14.0582 H   0  0  0  0  0  0
   17.1029  -12.6018   14.9220 H   0  0  0  0  0  0
   15.6473  -12.4809   16.8800 H   0  0  0  0  0  0
  1  5  1  0  0  0
  1  7  1  0  0  0
  1 12  1  0  0  0
  2  5  2  0  0  0
  2 11  1  0  0  0
  2  9  1  0  0  0
  3  4  2  0  0  0
  3  8  1  0  0  0
  4 11  1  0  0  0
  4  6  1  0  0  0
  5 25  1  0  0  0
  6 10  1  0  0  0
  7  9  2  0  0  0
  7 21  1  0  0  0
  8 13  1  0  0  0
  8 10  2  0  0  0
  9 22  1  0  0  0
 10 16  1  0  0  0
 11 26  1  0  0  0
 11 27  1  0  0  0
 12 14  1  0  0  0
 12 28  1  0  0  0
 12 29  1  0  0  0
 13 17  2  0  0  0
 13 30  1  0  0  0
 14 15  2  0  0  0
 14 18  1  0  0  0
 16 19  2  0  0  0
 16 31  1  0  0  0
 17 20  1  0  0  0
 17 19  1  0  0  0
 18 32  1  0  0  0
 19 33  1  0  0  0
 21 24  2  0  0  0
 21 34  1  0  0  0
 22 23  2  0  0  0
 22 35  1  0  0  0
 23 24  1  0  0  0
 23 36  1  0  0  0
 24 37  1  0  0  0
M  END
> <s_m_entry_id>
6232

> <s_m_entry_name>
dock_pv.67

> <s_m_Source_Path>
/home/csk/Desktop/cluster/DUD-E-result/aldr

> <s_m_Source_File>
dock_pv.maegz

> <i_m_Source_File_Index>
67

> <chembl_id>
CHEMBL193569

> <chembl_pref_name>
None

> <i_lp_mmshare_version>
53161

> <i_f3d_flags>
0

> <r_lp_tautomer_probability>
1

> <s_lp_Force_Field>
OPLS_2005

> <r_lp_Energy>
12.929555

> <b_lp_Chiralities_Consistent>
1

> <s_lp_Variant>
CHEMBL1900_lig382-1

> <s_i_glide_gridfile>
glide-grid_2hv5

> <i_i_glide_lignum>
503

> <i_i_glide_rotatable_bonds>
5

> <r_i_docking_score>
-10.1651543475725

> <r_i_glide_ligand_efficiency>
-0.423548097815521

> <r_i_glide_ligand_efficiency_sa>
-1.22172412286368

> <r_i_glide_ligand_efficiency_ln>
-2.43298788391292

> <r_i_glide_gscore>
-10.1651543475725

> <r_i_glide_lipo>
-4.47701658473362

> <r_i_glide_hbond>
-0.32

> <r_i_glide_metal>
0

> <r_i_glide_rewards>
-3.21697829147173

> <r_i_glide_evdw>
-41.7332458496094

> <r_i_glide_ecoul>
-4.78871488571167

> <r_i_glide_erotb>
0.653810053970063

> <r_i_glide_esite>
0

> <r_i_glide_emodel>
-70.5908781717532

> <r_i_glide_energy>
-46.521960735321

> <r_i_glide_einternal>
6.54541254043579

> <i_i_glide_confnum>
11

> <i_i_glide_posenum>
258

> <r_i_glide_eff_state_penalty>
0

> <s_user_duplicate_titles>
CHEMBL1900_lig382,320967

> <s_m_subgroup_title>
dock_pv

> <s_m_subgroupid>
dock_pv

> <b_m_subgroup_collapsed>
1

$$$$
CHEMBL1900_lig37
                    3D
 Schrodinger Suite 2021-1.
 36 39  0  0  1  0            999 V2000
   17.5925   -7.9149   14.9345 N   0  0  0  0  0  0
   17.0920   -6.9151   15.6788 N   0  0  0  0  0  0
   16.2630   -7.4260   16.5472 C   0  0  0  0  0  0
   17.8197   -6.5653   12.8468 C   0  0  0  0  0  0
   16.2671   -8.8503   16.4567 C   0  0  0  0  0  0
   18.5202   -5.6672   12.2130 N   0  0  0  0  0  0
   16.3821   -5.2183   11.3749 C   0  0  0  0  0  0
   17.7585   -4.9069   11.3803 C   0  0  0  0  0  0
   17.1504   -9.1483   15.3858 C   0  0  0  0  0  0
   16.1049   -6.5151   12.4995 S   0  0  0  0  0  0
   18.4540   -7.5725   13.8026 C   0  0  0  0  0  0
   15.5275   -6.5183   17.5156 C   0  0  0  0  0  0
   15.4782   -4.5167   10.5727 C   0  0  0  0  0  0
   18.2385   -3.8620   10.5750 C   0  0  0  0  0  0
   16.2914   -6.2053   18.8064 C   0  0  0  0  0  0
   15.9862   -3.4931    9.7784 C   0  0  0  0  0  0
   17.4059  -10.4646   14.9804 C   0  0  0  0  0  0
   15.6315   -9.8956   17.1389 C   0  0  0  0  0  0
   17.3319   -3.1607    9.7891 C   0  0  0  0  0  0
   15.7452   -5.7032   19.7811 O   0  0  0  0  0  0
   14.1536   -4.7992   10.5837 F   0  0  0  0  0  0
   15.8943  -11.2066   16.7461 C   0  0  0  0  0  0
   16.7627  -11.4801   15.6902 C   0  0  0  0  0  0
   17.7453   -2.1169    9.0443 F   0  0  0  0  0  0
   17.6148   -6.5150   18.7515 O   0  0  0  0  0  0
   15.1306  -12.5031   17.5883 Cl  0  0  0  0  0  0
   19.3966   -7.2007   14.2077 H   0  0  0  0  0  0
   18.6941   -8.4926   13.2699 H   0  0  0  0  0  0
   15.3448   -5.5505   17.0501 H   0  0  0  0  0  0
   14.5500   -6.9293   17.7731 H   0  0  0  0  0  0
   19.2767   -3.5782   10.5810 H   0  0  0  0  0  0
   15.3449   -2.9153    9.1429 H   0  0  0  0  0  0
   18.0730  -10.6934   14.1627 H   0  0  0  0  0  0
   14.9552   -9.6920   17.9556 H   0  0  0  0  0  0
   16.9375  -12.5091   15.4079 H   0  0  0  0  0  0
   18.0422   -6.3366   19.5910 H   0  0  0  0  0  0
  1  2  1  0  0  0
  1  9  1  0  0  0
  1 11  1  0  0  0
  2  3  2  0  0  0
  3 12  1  0  0  0
  3  5  1  0  0  0
  4 11  1  0  0  0
  4  6  2  0  0  0
  4 10  1  0  0  0
  5  9  2  0  0  0
  5 18  1  0  0  0
  6  8  1  0  0  0
  7 10  1  0  0  0
  7 13  1  0  0  0
  7  8  2  0  0  0
  8 14  1  0  0  0
  9 17  1  0  0  0
 11 27  1  0  0  0
 11 28  1  0  0  0
 12 15  1  0  0  0
 12 29  1  0  0  0
 12 30  1  0  0  0
 13 16  2  0  0  0
 13 21  1  0  0  0
 14 19  2  0  0  0
 14 31  1  0  0  0
 15 20  2  0  0  0
 15 25  1  0  0  0
 16 19  1  0  0  0
 16 32  1  0  0  0
 17 23  2  0  0  0
 17 33  1  0  0  0
 18 22  2  0  0  0
 18 34  1  0  0  0
 19 24  1  0  0  0
 22 23  1  0  0  0
 22 26  1  0  0  0
 23 35  1  0  0  0
 25 36  1  0  0  0
M  END
> <s_m_entry_id>
6233

> <s_m_entry_name>
dock_pv.68

> <s_m_Source_Path>
/home/csk/Desktop/cluster/DUD-E-result/aldr

> <s_m_Source_File>
dock_pv.maegz

> <i_m_Source_File_Index>
68

> <chembl_id>
CHEMBL419254

> <chembl_pref_name>
None

> <i_lp_mmshare_version>
53161

> <i_f3d_flags>
0

> <r_lp_tautomer_probability>
1

> <s_lp_Force_Field>
OPLS_2005

> <r_lp_Energy>
7.609391

> <b_lp_Chiralities_Consistent>
1

> <s_lp_Variant>
CHEMBL1900_lig37-1

> <s_i_glide_gridfile>
glide-grid_2hv5

> <i_i_glide_lignum>
72

> <i_i_glide_rotatable_bonds>
5

> <r_i_docking_score>
-10.1646175740329

> <r_i_glide_ligand_efficiency>
-0.390946829770495

> <r_i_glide_ligand_efficiency_sa>
-1.1581784448936

> <r_i_glide_ligand_efficiency_ln>
-2.38712708443098

> <r_i_glide_gscore>
-10.1646175740329

> <r_i_glide_lipo>
-4.47083761044036

> <r_i_glide_hbond>
-0.32

> <r_i_glide_metal>
0

> <r_i_glide_rewards>
-3.06577516772426

> <r_i_glide_evdw>
-46.8060607910156

> <r_i_glide_ecoul>
-3.14450240135193

> <r_i_glide_erotb>
0.503973603885335

> <r_i_glide_esite>
0

> <r_i_glide_emodel>
-76.6380635086584

> <r_i_glide_energy>
-49.9505631923676

> <r_i_glide_einternal>
5.74037313461304

> <i_i_glide_confnum>
22

> <i_i_glide_posenum>
251

> <r_i_glide_eff_state_penalty>
0

> <s_user_duplicate_titles>
CHEMBL1900_lig37,107346

> <s_m_subgroup_title>
dock_pv

> <s_m_subgroupid>
dock_pv

> <b_m_subgroup_collapsed>
1

$$$$
CHEMBL1900_lig455
                    3D
 Schrodinger Suite 2021-1.
 33 35  0  0  1  0            999 V2000
   16.8358   -8.5063   15.4471 S   0  0  0  0  0  0
   16.9049   -7.3040   14.0696 C   0  0  0  0  0  0
   16.6595   -7.4775   16.8970 C   0  0  0  0  0  0
   17.9600   -6.5604   13.5430 C   0  0  0  0  0  0
   15.7450   -7.0267   13.4289 O   0  0  0  0  0  0
   15.4521   -7.2355   17.2555 N   0  0  0  0  0  0
   17.3997   -5.8360   12.4257 C   0  0  0  0  0  0
   16.0355   -6.1753   12.4131 C   0  0  0  0  0  0
   17.4303   -3.2900    9.5586 C   0  0  0  0  0  0
   15.2416   -6.5150   18.4056 N   0  0  0  0  0  0
   17.8564   -4.9243   11.4540 C   0  0  0  0  0  0
   17.7450   -6.9312   17.6735 C   0  0  0  0  0  0
   16.9441   -4.3487   10.5534 C   0  0  0  0  0  0
   16.1450   -5.8916   19.2141 C   0  0  0  0  0  0
   18.1450   -9.1519   15.5371 O   0  0  0  0  0  0
   15.5950   -9.2885   15.3810 O   0  0  0  0  0  0
   17.4911   -6.1586   18.7614 C   0  0  0  0  0  0
   15.1186   -5.6737   11.4845 C   0  0  0  0  0  0
   15.6001   -4.7417   10.5670 C   0  0  0  0  0  0
   15.8326   -5.2028   20.1810 O   0  0  0  0  0  0
   17.7113   -2.1487   10.1810 F   0  0  0  0  0  0
   18.5450   -3.7150    8.9810 F   0  0  0  0  0  0
   16.5437   -3.0205    8.6005 F   0  0  0  0  0  0
   19.3766   -6.5150   14.0410 C   0  0  0  0  0  0
   18.8922   -4.6370   11.4183 H   0  0  0  0  0  0
   18.7639   -7.1072   17.3850 H   0  0  0  0  0  0
   18.2914   -5.7150   19.3355 H   0  0  0  0  0  0
   14.0765   -5.9578   11.5077 H   0  0  0  0  0  0
   14.9087   -4.3040    9.8610 H   0  0  0  0  0  0
   14.2659   -6.3966   18.6351 H   0  0  0  0  0  0
   19.7450   -5.4906   14.0907 H   0  0  0  0  0  0
   19.4876   -6.9294   15.0415 H   0  0  0  0  0  0
   20.0448   -7.0798   13.3916 H   0  0  0  0  0  0
  1  2  1  0  0  0
  1 15  2  0  0  0
  1 16  2  0  0  0
  1  3  1  0  0  0
  2  4  2  0  0  0
  2  5  1  0  0  0
  3 12  1  0  0  0
  3  6  2  0  0  0
  4  7  1  0  0  0
  4 24  1  0  0  0
  5  8  1  0  0  0
  6 10  1  0  0  0
  7 11  1  0  0  0
  7  8  2  0  0  0
  8 18  1  0  0  0
  9 13  1  0  0  0
  9 21  1  0  0  0
  9 22  1  0  0  0
  9 23  1  0  0  0
 10 14  1  0  0  0
 10 30  1  0  0  0
 11 13  2  0  0  0
 11 25  1  0  0  0
 12 17  2  0  0  0
 12 26  1  0  0  0
 13 19  1  0  0  0
 14 20  2  0  0  0
 14 17  1  0  0  0
 17 27  1  0  0  0
 18 19  2  0  0  0
 18 28  1  0  0  0
 19 29  1  0  0  0
 24 31  1  0  0  0
 24 32  1  0  0  0
 24 33  1  0  0  0
M  END
> <s_m_entry_id>
6234

> <s_m_entry_name>
dock_pv.69

> <s_m_Source_Path>
/home/csk/Desktop/cluster/DUD-E-result/aldr

> <s_m_Source_File>
dock_pv.maegz

> <i_m_Source_File_Index>
69

> <chembl_id>
CHEMBL370123

> <chembl_pref_name>
None

> <i_lp_mmshare_version>
53161

> <i_f3d_flags>
0

> <r_lp_tautomer_probability>
0.998994762270461

> <s_lp_Force_Field>
OPLS_2005

> <r_lp_Energy>
22.963768

> <b_lp_Chiralities_Consistent>
1

> <s_lp_Variant>
CHEMBL1900_lig455-1

> <s_i_glide_gridfile>
glide-grid_2hv5

> <i_i_glide_lignum>
577

> <i_i_glide_rotatable_bonds>
3

> <r_i_docking_score>
-10.1558559611841

> <r_i_glide_ligand_efficiency>
-0.423160665049338

> <r_i_glide_ligand_efficiency_sa>
-1.22060657338376

> <r_i_glide_ligand_efficiency_ln>
-2.43076235337502

> <r_i_glide_gscore>
-10.1558559611841

> <r_i_glide_lipo>
-4.04642266065911

> <r_i_glide_hbond>
-0.334418184543598

> <r_i_glide_metal>
0

> <r_i_glide_rewards>
-3.70627231064002

> <r_i_glide_evdw>
-30.3347434997559

> <r_i_glide_ecoul>
-5.07261800765991

> <r_i_glide_erotb>
0.208887070795411

> <r_i_glide_esite>
0

> <r_i_glide_emodel>
-54.7765317082891

> <r_i_glide_energy>
-35.4073615074158

> <r_i_glide_einternal>
2.46900796890259

> <i_i_glide_confnum>
4

> <i_i_glide_posenum>
132

> <r_i_glide_eff_state_penalty>
0

> <s_user_duplicate_titles>
CHEMBL1900_lig455,331240

> <s_m_subgroup_title>
dock_pv

> <s_m_subgroupid>
dock_pv

> <b_m_subgroup_collapsed>
1

$$$$
CHEMBL1900_lig146
                    3D
 Schrodinger Suite 2021-1.
 44 47  0  0  1  0            999 V2000
   18.0818   -8.1830   15.4304 N   0  0  0  0  0  0
   17.4742   -7.3150   16.3279 N   0  0  0  0  0  0
   18.4750   -5.7397   12.8272 N   0  0  0  0  0  0
   17.5756   -5.7678   11.8563 C   0  0  0  0  0  0
   17.7450   -9.5076   15.2072 C   0  0  0  0  0  0
   16.4336   -7.6776   16.9776 C   0  0  0  0  0  0
   18.3480   -6.9340   13.3411 C   0  0  0  0  0  0
   16.9450   -6.9071   11.6977 N   0  0  0  0  0  0
   19.0539   -7.5355   14.5311 C   0  0  0  0  0  0
   16.5986   -9.9635   16.1025 C   0  0  0  0  0  0
   15.9483   -9.0686   16.9781 C   0  0  0  0  0  0
   15.6957   -6.5485   17.7043 C   0  0  0  0  0  0
   17.4527   -7.7150   12.6980 O   0  0  0  0  0  0
   17.2971   -4.6065   10.9505 C   0  0  0  0  0  0
   16.3858   -6.0366   18.9810 C   0  0  0  0  0  0
   18.2845  -10.2267   14.3609 O   0  0  0  0  0  0
   15.7450   -5.5530   19.9052 O   0  0  0  0  0  0
   16.0201   -4.3135   10.4282 C   0  0  0  0  0  0
   17.7450   -6.1133   18.9590 O   0  0  0  0  0  0
   16.1878  -11.3018   16.0419 C   0  0  0  0  0  0
   14.9551   -9.5551   17.8403 C   0  0  0  0  0  0
   18.3657   -3.7731   10.6006 C   0  0  0  0  0  0
   14.7606   -5.0407   10.8894 C   0  0  0  0  0  0
   15.8827   -3.2565    9.5265 C   0  0  0  0  0  0
   15.1690  -11.7607   16.8761 C   0  0  0  0  0  0
   14.5617  -10.8926   17.7810 C   0  0  0  0  0  0
   18.1867   -2.6670    9.7810 C   0  0  0  0  0  0
   16.9471   -2.4298    9.2106 C   0  0  0  0  0  0
   19.6375   -6.7944   15.0794 H   0  0  0  0  0  0
   19.8063   -8.2412   14.1737 H   0  0  0  0  0  0
   15.5984   -5.6918   17.0374 H   0  0  0  0  0  0
   14.6727   -6.8327   17.9451 H   0  0  0  0  0  0
   18.0519   -6.4749   18.1211 H   0  0  0  0  0  0
   16.6607  -11.9936   15.3578 H   0  0  0  0  0  0
   14.4763   -8.9150   18.5646 H   0  0  0  0  0  0
   19.3450   -3.9781   10.9810 H   0  0  0  0  0  0
   13.8480   -4.5624   10.5315 H   0  0  0  0  0  0
   14.7561   -6.0836   10.5810 H   0  0  0  0  0  0
   14.7152   -5.0361   11.9786 H   0  0  0  0  0  0
   14.9450   -3.0292    9.0738 H   0  0  0  0  0  0
   14.8550  -12.7936   16.8289 H   0  0  0  0  0  0
   13.7812  -11.2588   18.4339 H   0  0  0  0  0  0
   19.0117   -2.0082    9.5635 H   0  0  0  0  0  0
   16.8003   -1.6031    8.5335 H   0  0  0  0  0  0
  1  2  1  0  0  0
  1  5  1  0  0  0
  1  9  1  0  0  0
  2  6  2  0  0  0
  3  7  2  0  0  0
  3  4  1  0  0  0
  4 14  1  0  0  0
  4  8  2  0  0  0
  5 10  1  0  0  0
  5 16  2  0  0  0
  6 12  1  0  0  0
  6 11  1  0  0  0
  7  9  1  0  0  0
  7 13  1  0  0  0
  8 13  1  0  0  0
  9 29  1  0  0  0
  9 30  1  0  0  0
 10 11  2  0  0  0
 10 20  1  0  0  0
 11 21  1  0  0  0
 12 15  1  0  0  0
 12 31  1  0  0  0
 12 32  1  0  0  0
 14 18  2  0  0  0
 14 22  1  0  0  0
 15 17  2  0  0  0
 15 19  1  0  0  0
 18 23  1  0  0  0
 18 24  1  0  0  0
 19 33  1  0  0  0
 20 25  2  0  0  0
 20 34  1  0  0  0
 21 26  2  0  0  0
 21 35  1  0  0  0
 22 27  2  0  0  0
 22 36  1  0  0  0
 23 37  1  0  0  0
 23 38  1  0  0  0
 23 39  1  0  0  0
 24 28  2  0  0  0
 24 40  1  0  0  0
 25 26  1  0  0  0
 25 41  1  0  0  0
 26 42  1  0  0  0
 27 28  1  0  0  0
 27 43  1  0  0  0
 28 44  1  0  0  0
M  END
> <s_m_entry_id>
6235

> <s_m_entry_name>
dock_pv.70

> <s_m_Source_Path>
/home/csk/Desktop/cluster/DUD-E-result/aldr

> <s_m_Source_File>
dock_pv.maegz

> <i_m_Source_File_Index>
70

> <chembl_id>
CHEMBL422647

> <chembl_pref_name>
None

> <i_lp_mmshare_version>
53161

> <i_f3d_flags>
0

> <r_lp_tautomer_probability>
1

> <s_lp_Force_Field>
OPLS_2005

> <r_lp_Energy>
31.903297

> <b_lp_Chiralities_Consistent>
1

> <s_lp_Variant>
CHEMBL1900_lig146-1

> <s_i_glide_gridfile>
glide-grid_2hv5

> <i_i_glide_lignum>
222

> <i_i_glide_rotatable_bonds>
6

> <r_i_docking_score>
-10.1548145490653

> <r_i_glide_ligand_efficiency>
-0.362671948180902

> <r_i_glide_ligand_efficiency_sa>
-1.10128563703155

> <r_i_glide_ligand_efficiency_ln>
-2.34402935623521

> <r_i_glide_gscore>
-10.1548145490653

> <r_i_glide_lipo>
-4.62547090332509

> <r_i_glide_hbond>
-0.32

> <r_i_glide_metal>
0

> <r_i_glide_rewards>
-2.80294916843407

> <r_i_glide_evdw>
-51.2660598754883

> <r_i_glide_ecoul>
-3.50901103019714

> <r_i_glide_erotb>
0.68326017099789

> <r_i_glide_esite>
0

> <r_i_glide_emodel>
-84.82426931461

> <r_i_glide_energy>
-54.7750709056854

> <r_i_glide_einternal>
3.70120739936829

> <i_i_glide_confnum>
59

> <i_i_glide_posenum>
201

> <r_i_glide_eff_state_penalty>
0

> <s_user_duplicate_titles>
CHEMBL1900_lig146,236475

> <s_m_subgroup_title>
dock_pv

> <s_m_subgroupid>
dock_pv

> <b_m_subgroup_collapsed>
1

$$$$
CHEMBL1900_lig257
                    3D
 Schrodinger Suite 2021-1.
 38 41  0  0  1  0            999 V2000
   17.9328   -8.0194   15.4289 N   0  0  0  0  0  0
   17.3785   -7.2528   16.4488 N   0  0  0  0  0  0
   17.6757   -9.3537   15.1679 C   0  0  0  0  0  0
   16.4766   -7.7338   17.2230 C   0  0  0  0  0  0
   17.9857   -6.5983   13.3557 C   0  0  0  0  0  0
   18.5453   -5.7128   12.5797 N   0  0  0  0  0  0
   16.3771   -5.6962   11.7273 C   0  0  0  0  0  0
   17.6920   -5.1930   11.6615 C   0  0  0  0  0  0
   16.3046   -6.9127   12.9825 S   0  0  0  0  0  0
   18.7751   -7.2652   14.4784 C   0  0  0  0  0  0
   16.6099   -9.9183   16.0963 C   0  0  0  0  0  0
   15.9875   -9.1169   17.0739 C   0  0  0  0  0  0
   15.8854   -6.8493   18.3438 C   0  0  0  0  0  0
   15.3755   -5.2069   10.8878 C   0  0  0  0  0  0
   18.0203   -4.2106   10.7161 C   0  0  0  0  0  0
   16.5728   -5.4982   18.6075 C   0  0  0  0  0  0
   15.7146   -4.2214    9.9635 C   0  0  0  0  0  0
   17.0159   -3.7332    9.8783 C   0  0  0  0  0  0
   18.2075   -9.9994   14.2594 O   0  0  0  0  0  0
   16.1459   -4.4283   18.1809 O   0  0  0  0  0  0
   14.1102   -5.6612   10.9817 F   0  0  0  0  0  0
   17.3086   -2.7667    8.9805 F   0  0  0  0  0  0
   17.6889   -5.6356   19.3800 O   0  0  0  0  0  0
   16.2178  -11.2538   15.9372 C   0  0  0  0  0  0
   14.9468   -9.6578   17.8417 C   0  0  0  0  0  0
   15.1996  -11.7856   16.7285 C   0  0  0  0  0  0
   14.5609  -10.9866   17.6744 C   0  0  0  0  0  0
   19.3673   -6.5340   15.0307 H   0  0  0  0  0  0
   19.5344   -7.9120   14.0308 H   0  0  0  0  0  0
   14.8422   -6.6413   18.1084 H   0  0  0  0  0  0
   15.8776   -7.4050   19.2803 H   0  0  0  0  0  0
   19.0156   -3.8041   10.6559 H   0  0  0  0  0  0
   14.9479   -3.8235    9.3136 H   0  0  0  0  0  0
   17.9133   -6.5538   19.5418 H   0  0  0  0  0  0
   16.6870  -11.8824   15.1928 H   0  0  0  0  0  0
   14.4307   -9.0641   18.5810 H   0  0  0  0  0  0
   14.8950  -12.8133   16.5977 H   0  0  0  0  0  0
   13.7592  -11.3976   18.2741 H   0  0  0  0  0  0
  1  2  1  0  0  0
  1  3  1  0  0  0
  1 10  1  0  0  0
  2  4  2  0  0  0
  3 11  1  0  0  0
  3 19  2  0  0  0
  4 13  1  0  0  0
  4 12  1  0  0  0
  5 10  1  0  0  0
  5  6  2  0  0  0
  5  9  1  0  0  0
  6  8  1  0  0  0
  7  9  1  0  0  0
  7 14  1  0  0  0
  7  8  2  0  0  0
  8 15  1  0  0  0
 10 28  1  0  0  0
 10 29  1  0  0  0
 11 12  1  0  0  0
 11 24  2  0  0  0
 12 25  2  0  0  0
 13 16  1  0  0  0
 13 30  1  0  0  0
 13 31  1  0  0  0
 14 17  2  0  0  0
 14 21  1  0  0  0
 15 18  2  0  0  0
 15 32  1  0  0  0
 16 20  2  0  0  0
 16 23  1  0  0  0
 17 18  1  0  0  0
 17 33  1  0  0  0
 18 22  1  0  0  0
 23 34  1  0  0  0
 24 26  1  0  0  0
 24 35  1  0  0  0
 25 27  1  0  0  0
 25 36  1  0  0  0
 26 27  2  0  0  0
 26 37  1  0  0  0
 27 38  1  0  0  0
M  END
> <s_m_entry_id>
6236

> <s_m_entry_name>
dock_pv.71

> <s_m_Source_Path>
/home/csk/Desktop/cluster/DUD-E-result/aldr

> <s_m_Source_File>
dock_pv.maegz

> <i_m_Source_File_Index>
71

> <chembl_id>
CHEMBL20637

> <chembl_pref_name>
None

> <i_lp_mmshare_version>
53161

> <i_f3d_flags>
0

> <r_lp_tautomer_probability>
1

> <s_lp_Force_Field>
OPLS_2005

> <r_lp_Energy>
23.594858

> <b_lp_Chiralities_Consistent>
1

> <s_lp_Variant>
CHEMBL1900_lig257-1

> <s_i_glide_gridfile>
glide-grid_2hv5

> <i_i_glide_lignum>
371

> <i_i_glide_rotatable_bonds>
5

> <r_i_docking_score>
-10.1463020832274

> <r_i_glide_ligand_efficiency>
-0.375788966045459

> <r_i_glide_ligand_efficiency_sa>
-1.12736689689784

> <r_i_glide_ligand_efficiency_ln>
-2.36189185011226

> <r_i_glide_gscore>
-10.1463020832274

> <r_i_glide_lipo>
-4.83340279607322

> <r_i_glide_hbond>
0

> <r_i_glide_metal>
0

> <r_i_glide_rewards>
-2.99830847742539

> <r_i_glide_evdw>
-50.3360710144043

> <r_i_glide_ecoul>
-2.11264777183533

> <r_i_glide_erotb>
0.519109906766724

> <r_i_glide_esite>
0

> <r_i_glide_emodel>
-81.9569903418385

> <r_i_glide_energy>
-52.4487187862396

> <r_i_glide_einternal>
3.3316502571106

> <i_i_glide_confnum>
19

> <i_i_glide_posenum>
316

> <r_i_glide_eff_state_penalty>
0

> <s_user_duplicate_titles>
CHEMBL1900_lig257,24396

> <s_m_subgroup_title>
dock_pv

> <s_m_subgroupid>
dock_pv

> <b_m_subgroup_collapsed>
1

$$$$
CHEMBL1900_lig663 
                    3D
 Schrodinger Suite 2021-1.
 44 46  0  0  1  0            999 V2000
   17.5513   -7.3123   15.3420 C   0  0  0  0  0  0
   17.1009   -8.6191   15.1213 C   0  0  0  0  0  0
   16.4302   -9.3017   16.1380 C   0  0  0  0  0  0
   16.2372   -8.6966   17.3821 C   0  0  0  0  0  0
   16.7159   -7.4044   17.6291 C   0  0  0  0  0  0
   17.3450   -6.7301   16.5889 C   0  0  0  0  0  0
   16.6101   -6.8181   18.9808 C   0  0  0  0  0  0
   16.5993   -5.5174   19.3832 C   0  0  0  0  0  0
   16.4961   -5.2118   20.7873 C   0  0  0  0  0  0
   16.1499   -3.9159   21.0086 N   0  0  0  0  0  0
   15.9332   -3.1418   19.9272 C   0  0  0  0  0  0
   16.5450   -4.0070   18.4792 S   0  0  0  0  0  0
   16.5450   -6.0519   21.6761 O   0  0  0  0  0  0
   15.3491   -2.0597   19.8681 O   0  0  0  0  0  0
   15.7343   -3.3859   22.3563 C   0  0  0  0  0  0
   16.5450   -3.9078   23.5715 C   0  0  0  0  0  0
   17.7409   -4.1150   23.5404 O   0  0  0  0  0  0
   15.7450   -4.1150   24.6587 O   0  0  0  0  0  0
   18.2031   -6.5067   14.4384 O   0  0  0  0  0  0
   18.5520   -6.9270   13.1275 C   0  0  0  0  0  0
   18.3951   -5.6737   12.2380 C   0  0  0  0  0  0
   17.0166   -5.4049   11.6525 C   0  0  0  0  0  0
   15.8775   -6.1150   12.0519 C   0  0  0  0  0  0
   14.6417   -5.7991   11.4993 C   0  0  0  0  0  0
   14.5450   -4.7654   10.5810 C   0  0  0  0  0  0
   15.6717   -4.0752   10.1515 C   0  0  0  0  0  0
   16.9116   -4.4018   10.6843 C   0  0  0  0  0  0
   17.2603   -9.1205   14.1810 H   0  0  0  0  0  0
   16.0736  -10.3069   15.9668 H   0  0  0  0  0  0
   15.7409   -9.2530   18.1650 H   0  0  0  0  0  0
   17.7450   -5.7446   16.7532 H   0  0  0  0  0  0
   16.5450   -7.5801   19.7464 H   0  0  0  0  0  0
   14.6782   -3.6068   22.5060 H   0  0  0  0  0  0
   15.8287   -2.2996   22.3706 H   0  0  0  0  0  0
   14.8142   -3.8514   24.5810 H   0  0  0  0  0  0
   19.6006   -7.2233   13.1723 H   0  0  0  0  0  0
   17.9957   -7.7721   12.7248 H   0  0  0  0  0  0
   18.7137   -4.7938   12.7957 H   0  0  0  0  0  0
   19.0536   -5.7150   11.3810 H   0  0  0  0  0  0
   15.9279   -6.8939   12.7964 H   0  0  0  0  0  0
   13.7492   -6.3357   11.7810 H   0  0  0  0  0  0
   13.5758   -4.5150   10.1810 H   0  0  0  0  0  0
   15.5754   -3.2862    9.4198 H   0  0  0  0  0  0
   17.7855   -3.8532   10.3654 H   0  0  0  0  0  0
  1  2  2  0  0  0
  1  6  1  0  0  0
  1 19  1  0  0  0
  2  3  1  0  0  0
  2 28  1  0  0  0
  3  4  2  0  0  0
  3 29  1  0  0  0
  4  5  1  0  0  0
  4 30  1  0  0  0
  5  6  2  0  0  0
  5  7  1  0  0  0
  6 31  1  0  0  0
  7  8  2  0  0  0
  7 32  1  0  0  0
  8  9  1  0  0  0
  8 12  1  0  0  0
  9 10  1  0  0  0
  9 13  2  0  0  0
 10 11  1  0  0  0
 10 15  1  0  0  0
 11 12  1  0  0  0
 11 14  2  0  0  0
 15 16  1  0  0  0
 15 33  1  0  0  0
 15 34  1  0  0  0
 16 17  2  0  0  0
 16 18  1  0  0  0
 18 35  1  0  0  0
 19 20  1  0  0  0
 20 21  1  0  0  0
 20 36  1  0  0  0
 20 37  1  0  0  0
 21 22  1  0  0  0
 21 38  1  0  0  0
 21 39  1  0  0  0
 22 23  2  0  0  0
 22 27  1  0  0  0
 23 24  1  0  0  0
 23 40  1  0  0  0
 24 25  2  0  0  0
 24 41  1  0  0  0
 25 26  1  0  0  0
 25 42  1  0  0  0
 26 27  2  0  0  0
 26 43  1  0  0  0
 27 44  1  0  0  0
M  END
> <s_m_entry_id>
6237

> <s_m_entry_name>
dock_pv.72

> <s_m_Source_Path>
/home/csk/Desktop/cluster/DUD-E-result/aldr

> <s_m_Source_File>
dock_pv.maegz

> <i_m_Source_File_Index>
72

> <chembl_id>
CHEMBL4448571

> <chembl_pref_name>
None

> <i_lp_mmshare_version>
53161

> <i_f3d_flags>
0

> <r_lp_tautomer_probability>
1

> <s_lp_Force_Field>
OPLS_2005

> <r_lp_Energy>
20.273748

> <b_lp_Chiralities_Consistent>
1

> <s_lp_Variant>
CHEMBL1900_lig663 -1

> <s_i_glide_gridfile>
glide-grid_2hv5

> <i_i_glide_lignum>
789

> <i_i_glide_rotatable_bonds>
8

> <r_i_docking_score>
-10.14588671455

> <r_i_glide_ligand_efficiency>
-0.375773582020369

> <r_i_glide_ligand_efficiency_sa>
-1.12732074482262

> <r_i_glide_ligand_efficiency_ln>
-2.36179515913203

> <r_i_glide_gscore>
-10.14588671455

> <r_i_glide_lipo>
-4.89660262710008

> <r_i_glide_hbond>
-0.000374129066570369

> <r_i_glide_metal>
0

> <r_i_glide_rewards>
-2.87610865544006

> <r_i_glide_evdw>
-44.4154624938965

> <r_i_glide_ecoul>
-6.30076551437378

> <r_i_glide_erotb>
0.793086648907649

> <r_i_glide_esite>
0

> <r_i_glide_emodel>
-72.4636426369728

> <r_i_glide_energy>
-50.7162280082703

> <r_i_glide_einternal>
9.13326168060303

> <i_i_glide_confnum>
29

> <i_i_glide_posenum>
38

> <r_i_glide_eff_state_penalty>
0

> <s_user_duplicate_titles>
CHEMBL1900_lig663 

> <s_m_subgroup_title>
dock_pv

> <s_m_subgroupid>
dock_pv

> <b_m_subgroup_collapsed>
1

$$$$
CHEMBL1900_lig44
                    3D
 Schrodinger Suite 2021-1.
 36 39  0  0  1  0            999 V2000
   17.6426   -7.8476   15.0460 N   0  0  0  0  0  0
   17.0638   -6.9155   15.8240 N   0  0  0  0  0  0
   16.2616   -7.5288   16.6558 C   0  0  0  0  0  0
   17.8593   -6.4939   12.9574 C   0  0  0  0  0  0
   18.5450   -5.6151   12.2840 N   0  0  0  0  0  0
   16.4103   -5.2591   11.3993 C   0  0  0  0  0  0
   17.7785   -4.9139   11.4093 C   0  0  0  0  0  0
   16.1450   -6.5151   12.5811 S   0  0  0  0  0  0
   16.3316   -8.9436   16.4694 C   0  0  0  0  0  0
   18.5304   -7.4137   13.9687 C   0  0  0  0  0  0
   17.2538   -9.1266   15.4059 C   0  0  0  0  0  0
   15.4642   -6.7357   17.6764 C   0  0  0  0  0  0
   15.5022   -4.6033   10.5661 C   0  0  0  0  0  0
   18.2474   -3.8884   10.5763 C   0  0  0  0  0  0
   16.2672   -6.2069   18.8740 C   0  0  0  0  0  0
   15.9962   -3.5964    9.7407 C   0  0  0  0  0  0
   17.3340   -3.2339    9.7585 C   0  0  0  0  0  0
   15.7451   -5.5685   19.7809 O   0  0  0  0  0  0
   14.1871   -4.9129   10.5810 F   0  0  0  0  0  0
   17.7448   -2.2137    8.9819 F   0  0  0  0  0  0
   17.5904   -6.5140   18.8340 O   0  0  0  0  0  0
   15.7321  -10.0670   17.0609 C   0  0  0  0  0  0
   17.5914  -10.3957   14.9210 C   0  0  0  0  0  0
   16.0651  -11.3319   16.5780 C   0  0  0  0  0  0
   16.9737  -11.4884   15.5334 C   0  0  0  0  0  0
   19.3961   -6.9355   14.4294 H   0  0  0  0  0  0
   18.9149   -8.3002   13.4662 H   0  0  0  0  0  0
   15.0286   -5.8615   17.1958 H   0  0  0  0  0  0
   14.6260   -7.3215   18.0531 H   0  0  0  0  0  0
   19.2779   -3.5801   10.5810 H   0  0  0  0  0  0
   15.3450   -3.0580    9.0793 H   0  0  0  0  0  0
   18.0395   -6.1957   19.6189 H   0  0  0  0  0  0
   15.0246   -9.9546   17.8694 H   0  0  0  0  0  0
   18.2882  -10.5344   14.1077 H   0  0  0  0  0  0
   15.6053  -12.2070   17.0167 H   0  0  0  0  0  0
   17.2031  -12.4849   15.1820 H   0  0  0  0  0  0
  1  2  1  0  0  0
  1 10  1  0  0  0
  1 11  1  0  0  0
  2  3  2  0  0  0
  3 12  1  0  0  0
  3  9  1  0  0  0
  4 10  1  0  0  0
  4  5  2  0  0  0
  4  8  1  0  0  0
  5  7  1  0  0  0
  6  8  1  0  0  0
  6 13  1  0  0  0
  6  7  2  0  0  0
  7 14  1  0  0  0
  9 11  2  0  0  0
  9 22  1  0  0  0
 10 26  1  0  0  0
 10 27  1  0  0  0
 11 23  1  0  0  0
 12 15  1  0  0  0
 12 28  1  0  0  0
 12 29  1  0  0  0
 13 16  2  0  0  0
 13 19  1  0  0  0
 14 17  2  0  0  0
 14 30  1  0  0  0
 15 18  2  0  0  0
 15 21  1  0  0  0
 16 17  1  0  0  0
 16 31  1  0  0  0
 17 20  1  0  0  0
 21 32  1  0  0  0
 22 24  2  0  0  0
 22 33  1  0  0  0
 23 25  2  0  0  0
 23 34  1  0  0  0
 24 25  1  0  0  0
 24 35  1  0  0  0
 25 36  1  0  0  0
M  END
> <s_m_entry_id>
6238

> <s_m_entry_name>
dock_pv.73

> <s_m_Source_Path>
/home/csk/Desktop/cluster/DUD-E-result/aldr

> <s_m_Source_File>
dock_pv.maegz

> <i_m_Source_File_Index>
73

> <chembl_id>
CHEMBL308216

> <chembl_pref_name>
None

> <i_lp_mmshare_version>
53161

> <i_f3d_flags>
0

> <r_lp_tautomer_probability>
1

> <s_lp_Force_Field>
OPLS_2005

> <r_lp_Energy>
8.191491

> <b_lp_Chiralities_Consistent>
1

> <s_lp_Variant>
CHEMBL1900_lig44-1

> <s_i_glide_gridfile>
glide-grid_2hv5

> <i_i_glide_lignum>
79

> <i_i_glide_rotatable_bonds>
5

> <r_i_docking_score>
-10.14405915886

> <r_i_glide_ligand_efficiency>
-0.4057623663544

> <r_i_glide_ligand_efficiency_sa>
-1.18645635544647

> <r_i_glide_ligand_efficiency_ln>
-2.40444601357209

> <r_i_glide_gscore>
-10.14405915886

> <r_i_glide_lipo>
-4.47058805463289

> <r_i_glide_hbond>
-0.32

> <r_i_glide_metal>
0

> <r_i_glide_rewards>
-3.27777797757847

> <r_i_glide_evdw>
-44.7479705810547

> <r_i_glide_ecoul>
-2.87992405891418

> <r_i_glide_erotb>
0.593694011241226

> <r_i_glide_esite>
0

> <r_i_glide_emodel>
-74.0456535722646

> <r_i_glide_energy>
-47.6278946399689

> <r_i_glide_einternal>
3.6301531791687

> <i_i_glide_confnum>
9

> <i_i_glide_posenum>
172

> <r_i_glide_eff_state_penalty>
0

> <s_user_duplicate_titles>
CHEMBL1900_lig44,108908

> <s_m_subgroup_title>
dock_pv

> <s_m_subgroupid>
dock_pv

> <b_m_subgroup_collapsed>
1

$$$$
CHEMBL1900_lig261
                    3D
 Schrodinger Suite 2021-1.
 40 43  0  0  1  0            999 V2000
   17.9724   -7.7441   14.9594 N   0  0  0  0  0  0
   17.3887   -6.9150   15.9093 N   0  0  0  0  0  0
   17.7454   -9.0994   14.7998 C   0  0  0  0  0  0
   16.7156   -9.6254   15.7948 C   0  0  0  0  0  0
   16.4512   -7.3474   16.6618 C   0  0  0  0  0  0
   17.9739   -6.2840   12.9085 C   0  0  0  0  0  0
   15.1384  -12.9667   16.6707 N   0  3  0  0  0  0
   18.5450   -5.3833   12.1616 N   0  0  0  0  0  0
   16.0768   -8.7691   16.7135 C   0  0  0  0  0  0
   18.7909   -7.0350   13.9564 C   0  0  0  0  0  0
   16.2607   -6.5147   12.5812 S   0  0  0  0  0  0
   15.7450   -6.2804   17.5045 C   0  0  0  0  0  0
   16.4000  -10.9899   15.7814 C   0  0  0  0  0  0
   15.4798  -11.5248   16.6957 C   0  0  0  0  0  0
   17.6958   -4.8184   11.2689 C   0  0  0  0  0  0
   16.3611   -5.2819   11.3399 C   0  0  0  0  0  0
   16.3966   -6.0271   18.8711 C   0  0  0  0  0  0
   15.1888   -9.3075   17.6516 C   0  0  0  0  0  0
   14.5365  -13.4417   17.6293 O   0  5  0  0  0  0
   15.4745  -13.6293   15.6935 O   0  0  0  0  0  0
   18.2846   -9.7982   13.9371 O   0  0  0  0  0  0
   14.8910  -10.6692   17.6367 C   0  0  0  0  0  0
   15.7451   -5.7151   19.8567 O   0  0  0  0  0  0
   17.7498   -6.1151   18.8613 O   0  0  0  0  0  0
   18.0545   -3.8304   10.3388 C   0  0  0  0  0  0
   15.3668   -4.7528   10.5100 C   0  0  0  0  0  0
   15.7451   -3.7673    9.5965 C   0  0  0  0  0  0
   17.0601   -3.3142    9.5080 C   0  0  0  0  0  0
   19.4702   -6.3622   14.4832 H   0  0  0  0  0  0
   19.4739   -7.7126   13.4393 H   0  0  0  0  0  0
   15.7422   -5.3235   16.9813 H   0  0  0  0  0  0
   14.6958   -6.5350   17.6521 H   0  0  0  0  0  0
   16.8754  -11.6417   15.0593 H   0  0  0  0  0  0
   14.7133   -8.6869   18.3952 H   0  0  0  0  0  0
   14.1829  -11.0568   18.3574 H   0  0  0  0  0  0
   18.0884   -6.3041   17.9818 H   0  0  0  0  0  0
   19.0655   -3.4612   10.2824 H   0  0  0  0  0  0
   14.3407   -5.0870   10.5788 H   0  0  0  0  0  0
   14.9958   -3.3414    8.9462 H   0  0  0  0  0  0
   17.3062   -2.5440    8.7912 H   0  0  0  0  0  0
  1  2  1  0  0  0
  1  3  1  0  0  0
  1 10  1  0  0  0
  2  5  2  0  0  0
  3  4  1  0  0  0
  3 21  2  0  0  0
  4  9  1  0  0  0
  4 13  2  0  0  0
  5 12  1  0  0  0
  5  9  1  0  0  0
  6 10  1  0  0  0
  6  8  2  0  0  0
  6 11  1  0  0  0
  7 14  1  0  0  0
  7 19  1  0  0  0
  7 20  2  0  0  0
  8 15  1  0  0  0
  9 18  2  0  0  0
 10 29  1  0  0  0
 10 30  1  0  0  0
 11 16  1  0  0  0
 12 17  1  0  0  0
 12 31  1  0  0  0
 12 32  1  0  0  0
 13 14  1  0  0  0
 13 33  1  0  0  0
 14 22  2  0  0  0
 15 25  1  0  0  0
 15 16  2  0  0  0
 16 26  1  0  0  0
 17 23  2  0  0  0
 17 24  1  0  0  0
 18 22  1  0  0  0
 18 34  1  0  0  0
 22 35  1  0  0  0
 24 36  1  0  0  0
 25 28  2  0  0  0
 25 37  1  0  0  0
 26 27  2  0  0  0
 26 38  1  0  0  0
 27 28  1  0  0  0
 27 39  1  0  0  0
 28 40  1  0  0  0
M  CHG  2   7   1  19  -1
M  END
> <s_m_entry_id>
6239

> <s_m_entry_name>
dock_pv.74

> <s_m_Source_Path>
/home/csk/Desktop/cluster/DUD-E-result/aldr

> <s_m_Source_File>
dock_pv.maegz

> <i_m_Source_File_Index>
74

> <chembl_id>
CHEMBL20116

> <chembl_pref_name>
None

> <i_lp_mmshare_version>
53161

> <i_f3d_flags>
0

> <r_lp_tautomer_probability>
1

> <s_lp_Force_Field>
OPLS_2005

> <r_lp_Energy>
26.242513

> <b_lp_Chiralities_Consistent>
1

> <s_lp_Variant>
CHEMBL1900_lig261-1

> <s_i_glide_gridfile>
glide-grid_2hv5

> <i_i_glide_lignum>
375

> <i_i_glide_rotatable_bonds>
6

> <r_i_docking_score>
-10.1395234484599

> <r_i_glide_ligand_efficiency>
-0.362125837444997

> <r_i_glide_ligand_efficiency_sa>
-1.09962732319532

> <r_i_glide_ligand_efficiency_ln>
-2.34049972124928

> <r_i_glide_gscore>
-10.1395234484599

> <r_i_glide_lipo>
-4.7548325363989

> <r_i_glide_hbond>
-0.32

> <r_i_glide_metal>
0

> <r_i_glide_rewards>
-2.48978997897623

> <r_i_glide_evdw>
-52.1382675170898

> <r_i_glide_ecoul>
-3.10715937614441

> <r_i_glide_erotb>
0.498086349191352

> <r_i_glide_esite>
0

> <r_i_glide_emodel>
-83.376134591491

> <r_i_glide_energy>
-55.2454268932343

> <r_i_glide_einternal>
3.72704458236694

> <i_i_glide_confnum>
14

> <i_i_glide_posenum>
349

> <r_i_glide_eff_state_penalty>
0

> <s_user_duplicate_titles>
CHEMBL1900_lig261,24299

> <s_m_subgroup_title>
dock_pv

> <s_m_subgroupid>
dock_pv

> <b_m_subgroup_collapsed>
1

$$$$
CHEMBL1900_lig178
                    3D
 Schrodinger Suite 2021-1.
 38 41  0  0  1  0            999 V2000
   17.8287   -8.1722   15.0659 N   0  0  0  0  0  0
   17.2539   -7.2863   15.9688 N   0  0  0  0  0  0
   17.5894   -9.5326   14.9796 C   0  0  0  0  0  0
   16.2989   -7.6682   16.7317 C   0  0  0  0  0  0
   17.8818   -6.7331   13.0257 C   0  0  0  0  0  0
   16.6291   -6.9089   12.6506 N   0  0  0  0  0  0
   18.6796   -7.5419   14.0346 C   0  0  0  0  0  0
   16.5246   -9.9887   15.9730 C   0  0  0  0  0  0
   18.5450   -5.7152   12.4045 O   0  0  0  0  0  0
   15.8844   -9.0760   16.8384 C   0  0  0  0  0  0
   15.6003   -6.5502   17.5120 C   0  0  0  0  0  0
   17.6214   -5.1941   11.5586 C   0  0  0  0  0  0
   16.4339   -5.9213   11.7250 C   0  0  0  0  0  0
   16.3416   -6.1031   18.7837 C   0  0  0  0  0  0
   17.7524   -4.1160   10.6782 C   0  0  0  0  0  0
   18.1486  -10.2885   14.1802 O   0  0  0  0  0  0
   15.7451   -5.7147   19.7810 O   0  0  0  0  0  0
   15.3007   -5.5560   10.9852 C   0  0  0  0  0  0
   16.6038   -3.7524    9.9713 C   0  0  0  0  0  0
   17.6989   -6.1158   18.6628 O   0  0  0  0  0  0
   15.4076   -4.4597   10.1208 C   0  0  0  0  0  0
   16.6513   -2.2387    8.8199 Br  0  0  0  0  0  0
   16.1823  -11.3477   16.0175 C   0  0  0  0  0  0
   14.9515   -9.5522   17.7707 C   0  0  0  0  0  0
   15.2270  -11.8006   16.9253 C   0  0  0  0  0  0
   14.6188  -10.9077   17.8048 C   0  0  0  0  0  0
   19.4114   -6.9107   14.5424 H   0  0  0  0  0  0
   19.2942   -8.2606   13.4870 H   0  0  0  0  0  0
   15.4925   -5.6646   16.8866 H   0  0  0  0  0  0
   14.5824   -6.8329   17.7785 H   0  0  0  0  0  0
   18.6743   -3.5664   10.5859 H   0  0  0  0  0  0
   14.3661   -6.0865   11.0985 H   0  0  0  0  0  0
   17.9657   -6.4030   17.7825 H   0  0  0  0  0  0
   14.5452   -4.1303    9.5589 H   0  0  0  0  0  0
   16.6558  -12.0594   15.3517 H   0  0  0  0  0  0
   14.4747   -8.8981   18.4789 H   0  0  0  0  0  0
   14.9603  -12.8488   16.9544 H   0  0  0  0  0  0
   13.8843  -11.2673   18.5136 H   0  0  0  0  0  0
  1  2  1  0  0  0
  1  3  1  0  0  0
  1  7  1  0  0  0
  2  4  2  0  0  0
  3  8  1  0  0  0
  3 16  2  0  0  0
  4 11  1  0  0  0
  4 10  1  0  0  0
  5  7  1  0  0  0
  5  6  2  0  0  0
  5  9  1  0  0  0
  6 13  1  0  0  0
  7 27  1  0  0  0
  7 28  1  0  0  0
  8 10  2  0  0  0
  8 23  1  0  0  0
  9 12  1  0  0  0
 10 24  1  0  0  0
 11 14  1  0  0  0
 11 29  1  0  0  0
 11 30  1  0  0  0
 12 15  1  0  0  0
 12 13  2  0  0  0
 13 18  1  0  0  0
 14 17  2  0  0  0
 14 20  1  0  0  0
 15 19  2  0  0  0
 15 31  1  0  0  0
 18 21  2  0  0  0
 18 32  1  0  0  0
 19 22  1  0  0  0
 19 21  1  0  0  0
 20 33  1  0  0  0
 21 34  1  0  0  0
 23 25  2  0  0  0
 23 35  1  0  0  0
 24 26  2  0  0  0
 24 36  1  0  0  0
 25 26  1  0  0  0
 25 37  1  0  0  0
 26 38  1  0  0  0
M  END
> <s_m_entry_id>
6240

> <s_m_entry_name>
dock_pv.75

> <s_m_Source_Path>
/home/csk/Desktop/cluster/DUD-E-result/aldr

> <s_m_Source_File>
dock_pv.maegz

> <i_m_Source_File_Index>
75

> <chembl_id>
CHEMBL143903

> <chembl_pref_name>
None

> <i_lp_mmshare_version>
53161

> <i_f3d_flags>
0

> <r_lp_tautomer_probability>
1

> <s_lp_Force_Field>
OPLS_2005

> <r_lp_Energy>
25.733223

> <b_lp_Chiralities_Consistent>
1

> <s_lp_Variant>
CHEMBL1900_lig178-1

> <s_i_glide_gridfile>
glide-grid_2hv5

> <i_i_glide_lignum>
254

> <i_i_glide_rotatable_bonds>
5

> <r_i_docking_score>
-10.1390040202722

> <r_i_glide_ligand_efficiency>
-0.389961693087392

> <r_i_glide_ligand_efficiency_sa>
-1.15525998134623

> <r_i_glide_ligand_efficiency_ln>
-2.38111182537521

> <r_i_glide_gscore>
-10.1390040202722

> <r_i_glide_lipo>
-4.87273707963948

> <r_i_glide_hbond>
-0.32

> <r_i_glide_metal>
0

> <r_i_glide_rewards>
-2.18341295707976

> <r_i_glide_evdw>
-52.6782112121582

> <r_i_glide_ecoul>
-3.92705178260803

> <r_i_glide_erotb>
0.460114344446144

> <r_i_glide_esite>
0

> <r_i_glide_emodel>
-89.2318236597104

> <r_i_glide_energy>
-56.6052629947662

> <r_i_glide_einternal>
3.54191613197327

> <i_i_glide_confnum>
24

> <i_i_glide_posenum>
79

> <r_i_glide_eff_state_penalty>
0

> <s_user_duplicate_titles>
CHEMBL1900_lig178,236364

> <s_m_subgroup_title>
dock_pv

> <s_m_subgroupid>
dock_pv

> <b_m_subgroup_collapsed>
1

$$$$
CHEMBL1900_lig243
                    3D
 Schrodinger Suite 2021-1.
 43 46  0  0  1  0            999 V2000
   17.9794   -8.4475   15.4947 N   0  0  0  0  0  0
   17.4602   -7.6380   16.4986 N   0  0  0  0  0  0
   17.6381   -9.7633   15.2385 C   0  0  0  0  0  0
   16.4119   -7.9998   17.1368 C   0  0  0  0  0  0
   17.9738   -6.9083   13.5211 C   0  0  0  0  0  0
   18.5450   -6.1150   12.6633 N   0  0  0  0  0  0
   18.8028   -7.7235   14.5057 C   0  0  0  0  0  0
   16.5227  -10.2484   16.1584 C   0  0  0  0  0  0
   16.2198   -6.9150   13.4394 S   0  0  0  0  0  0
   17.6455   -5.5100   11.8493 C   0  0  0  0  0  0
   15.9077   -9.3836   17.0893 C   0  0  0  0  0  0
   15.6315   -6.8643   17.8153 C   0  0  0  0  0  0
   16.2901   -5.8321   12.0811 C   0  0  0  0  0  0
   17.9822   -4.6023   10.8491 C   0  0  0  0  0  0
   17.3450   -2.6439    8.9916 S   0  0  1  0  0  0
   16.9494   -3.9619   10.1691 C   0  0  0  0  0  0
   16.3617   -6.1150   18.9475 C   0  0  0  0  0  0
   18.1450  -10.4511   14.3470 O   0  0  0  0  0  0
   16.1369   -1.7150    8.9810 O   0  0  0  0  0  0
   15.2581   -5.2788   11.3139 C   0  0  0  0  0  0
   15.6145   -4.3168   10.3689 C   0  0  0  0  0  0
   15.7450   -5.5276   19.8272 O   0  0  0  0  0  0
   17.7190   -6.1150   18.8472 O   0  0  0  0  0  0
   16.1044  -11.5823   16.0644 C   0  0  0  0  0  0
   14.9475   -9.8997   17.9714 C   0  0  0  0  0  0
   18.5629   -1.6811   10.0105 C   0  0  0  0  0  0
   15.1132  -12.0674   16.9169 C   0  0  0  0  0  0
   14.5450  -11.2315   17.8759 C   0  0  0  0  0  0
   19.5138   -7.0868   15.0345 H   0  0  0  0  0  0
   19.4467   -8.4024   13.9420 H   0  0  0  0  0  0
   15.3871   -6.1150   17.0630 H   0  0  0  0  0  0
   14.6647   -7.2013   18.1810 H   0  0  0  0  0  0
   19.0130   -4.3752   10.6554 H   0  0  0  0  0  0
   14.2210   -5.5256   11.4963 H   0  0  0  0  0  0
   14.8431   -3.8143    9.8012 H   0  0  0  0  0  0
   17.9939   -6.5917   18.0557 H   0  0  0  0  0  0
   16.5496  -12.2506   15.3396 H   0  0  0  0  0  0
   14.5103   -9.2898   18.7447 H   0  0  0  0  0  0
   19.2392   -2.2798   10.6123 H   0  0  0  0  0  0
   19.1727   -1.0384    9.3810 H   0  0  0  0  0  0
   17.9965   -1.0133   10.6506 H   0  0  0  0  0  0
   14.7930  -13.0967   16.8437 H   0  0  0  0  0  0
   13.7887  -11.6176   18.5456 H   0  0  0  0  0  0
  1  2  1  0  0  0
  1  3  1  0  0  0
  1  7  1  0  0  0
  2  4  2  0  0  0
  3  8  1  0  0  0
  3 18  2  0  0  0
  4 12  1  0  0  0
  4 11  1  0  0  0
  5  7  1  0  0  0
  5  6  2  0  0  0
  5  9  1  0  0  0
  6 10  1  0  0  0
  7 29  1  0  0  0
  7 30  1  0  0  0
  8 11  2  0  0  0
  8 24  1  0  0  0
  9 13  1  0  0  0
 10 14  2  0  0  0
 10 13  1  0  0  0
 11 25  1  0  0  0
 12 17  1  0  0  0
 12 31  1  0  0  0
 12 32  1  0  0  0
 13 20  2  0  0  0
 14 16  1  0  0  0
 14 33  1  0  0  0
 15 16  1  0  0  0
 15 19  2  0  0  0
 15 26  1  0  0  0
 16 21  2  0  0  0
 17 22  2  0  0  0
 17 23  1  0  0  0
 20 21  1  0  0  0
 20 34  1  0  0  0
 21 35  1  0  0  0
 23 36  1  0  0  0
 24 27  2  0  0  0
 24 37  1  0  0  0
 25 28  2  0  0  0
 25 38  1  0  0  0
 26 39  1  0  0  0
 26 40  1  0  0  0
 26 41  1  0  0  0
 27 28  1  0  0  0
 27 42  1  0  0  0
 28 43  1  0  0  0
M  END
> <s_m_entry_id>
6241

> <s_m_entry_name>
dock_pv.76

> <s_m_Source_Path>
/home/csk/Desktop/cluster/DUD-E-result/aldr

> <s_m_Source_File>
dock_pv.maegz

> <i_m_Source_File_Index>
76

> <chembl_id>
CHEMBL430911

> <chembl_pref_name>
None

> <i_lp_mmshare_version>
53161

> <i_f3d_flags>
0

> <r_lp_tautomer_probability>
1

> <s_lp_Force_Field>
OPLS_2005

> <r_lp_Energy>
22.683125

> <b_lp_Chiralities_Consistent>
1

> <s_lp_Variant>
CHEMBL1900_lig243-2

> <s_i_glide_gridfile>
glide-grid_2hv5

> <i_i_glide_lignum>
356

> <i_i_glide_rotatable_bonds>
6

> <r_i_docking_score>
-10.1189959059687

> <r_i_glide_ligand_efficiency>
-0.361392710927454

> <r_i_glide_ligand_efficiency_sa>
-1.09740111929963

> <r_i_glide_ligand_efficiency_ln>
-2.33576136172747

> <r_i_glide_gscore>
-10.1189959059687

> <r_i_glide_lipo>
-4.71487516055761

> <r_i_glide_hbond>
-0.32

> <r_i_glide_metal>
0

> <r_i_glide_rewards>
-2.50041349877512

> <r_i_glide_evdw>
-51.6476058959961

> <r_i_glide_ecoul>
-3.0861599445343

> <r_i_glide_erotb>
0.461597039843965

> <r_i_glide_esite>
0

> <r_i_glide_emodel>
-78.9376797004521

> <r_i_glide_energy>
-54.7337658405304

> <r_i_glide_einternal>
8.30819320678711

> <i_i_glide_confnum>
12

> <i_i_glide_posenum>
306

> <r_i_glide_eff_state_penalty>
0

> <s_user_duplicate_titles>
CHEMBL1900_lig243

> <s_m_subgroup_title>
dock_pv

> <s_m_subgroupid>
dock_pv

> <b_m_subgroup_collapsed>
1

$$$$
CHEMBL1900_lig51
                    3D
 Schrodinger Suite 2021-1.
 38 40  0  0  1  0            999 V2000
   18.3226   -8.7008   14.9987 N   0  0  0  0  0  0
   17.7444   -8.2740   16.1934 N   0  0  0  0  0  0
   18.0865   -6.8106   13.4025 C   0  0  0  0  0  0
   18.5451   -5.9187   12.5814 N   0  0  0  0  0  0
   16.8162   -8.9572   16.7688 C   0  0  0  0  0  0
   18.1440   -9.9388   14.4166 C   0  0  0  0  0  0
   19.0286   -7.6519   14.2482 C   0  0  0  0  0  0
   16.3377   -6.9150   13.4392 S   0  0  0  0  0  0
   16.8382   -2.5731    9.3935 C   0  0  0  0  0  0
   17.1719  -10.7308   15.1567 C   0  0  0  0  0  0
   17.5699   -5.3549   11.8372 C   0  0  0  0  0  0
   16.4922  -10.2779   16.2449 C   0  0  0  0  0  0
   16.1777   -8.3122   18.0001 C   0  0  0  0  0  0
   16.2638   -5.8180   12.0986 C   0  0  0  0  0  0
   16.6720   -3.8074   10.2531 C   0  0  0  0  0  0
   17.7848   -4.3601   10.8889 C   0  0  0  0  0  0
   15.5627   -6.9264   17.7469 C   0  0  0  0  0  0
   18.6757  -10.3406   13.3810 O   0  0  0  0  0  0
   15.1611   -5.3561   11.3808 C   0  0  0  0  0  0
   15.3944   -4.3359   10.4685 C   0  0  0  0  0  0
   14.9449   -6.6104   16.7307 O   0  0  0  0  0  0
   16.0045   -1.6112    9.7809 F   0  0  0  0  0  0
   18.0849   -2.1056    9.4221 F   0  0  0  0  0  0
   16.5452   -2.9148    8.1597 F   0  0  0  0  0  0
   15.7452   -6.1149   18.8272 O   0  0  0  0  0  0
   15.4293  -11.1524   16.8978 C   0  0  0  0  0  0
   19.5907   -7.0312   14.9481 H   0  0  0  0  0  0
   19.8129   -8.0825   13.6206 H   0  0  0  0  0  0
   16.9541  -11.7113   14.7581 H   0  0  0  0  0  0
   16.9451   -8.2168   18.7635 H   0  0  0  0  0  0
   15.4016   -8.9461   18.4247 H   0  0  0  0  0  0
   18.7770   -3.9750   10.7204 H   0  0  0  0  0  0
   14.1600   -5.7117   11.5834 H   0  0  0  0  0  0
   14.5453   -3.9072    9.9727 H   0  0  0  0  0  0
   16.3148   -6.5185   19.4844 H   0  0  0  0  0  0
   15.3103  -12.1123   16.3923 H   0  0  0  0  0  0
   15.6811  -11.3507   17.9397 H   0  0  0  0  0  0
   14.4625  -10.6475   16.8851 H   0  0  0  0  0  0
  1  2  1  0  0  0
  1  6  1  0  0  0
  1  7  1  0  0  0
  2  5  2  0  0  0
  3  7  1  0  0  0
  3  4  2  0  0  0
  3  8  1  0  0  0
  4 11  1  0  0  0
  5 13  1  0  0  0
  5 12  1  0  0  0
  6 10  1  0  0  0
  6 18  2  0  0  0
  7 27  1  0  0  0
  7 28  1  0  0  0
  8 14  1  0  0  0
  9 15  1  0  0  0
  9 22  1  0  0  0
  9 23  1  0  0  0
  9 24  1  0  0  0
 10 12  2  0  0  0
 10 29  1  0  0  0
 11 16  1  0  0  0
 11 14  2  0  0  0
 12 26  1  0  0  0
 13 17  1  0  0  0
 13 30  1  0  0  0
 13 31  1  0  0  0
 14 19  1  0  0  0
 15 16  2  0  0  0
 15 20  1  0  0  0
 16 32  1  0  0  0
 17 21  2  0  0  0
 17 25  1  0  0  0
 19 20  2  0  0  0
 19 33  1  0  0  0
 20 34  1  0  0  0
 25 35  1  0  0  0
 26 36  1  0  0  0
 26 37  1  0  0  0
 26 38  1  0  0  0
M  END
> <s_m_entry_id>
6242

> <s_m_entry_name>
dock_pv.77

> <s_m_Source_Path>
/home/csk/Desktop/cluster/DUD-E-result/aldr

> <s_m_Source_File>
dock_pv.maegz

> <i_m_Source_File_Index>
77

> <chembl_id>
CHEMBL303210

> <chembl_pref_name>
None

> <i_lp_mmshare_version>
53161

> <i_f3d_flags>
0

> <r_lp_tautomer_probability>
1

> <s_lp_Force_Field>
OPLS_2005

> <r_lp_Energy>
25.28359

> <b_lp_Chiralities_Consistent>
1

> <s_lp_Variant>
CHEMBL1900_lig51-1

> <s_i_glide_gridfile>
glide-grid_2hv5

> <i_i_glide_lignum>
86

> <i_i_glide_rotatable_bonds>
6

> <r_i_docking_score>
-10.1174509452369

> <r_i_glide_ligand_efficiency>
-0.389132728662958

> <r_i_glide_ligand_efficiency_sa>
-1.15280417750066

> <r_i_glide_ligand_efficiency_ln>
-2.37605015642458

> <r_i_glide_gscore>
-10.1174509452369

> <r_i_glide_lipo>
-4.40081374831541

> <r_i_glide_hbond>
-0.315024082213606

> <r_i_glide_metal>
0

> <r_i_glide_rewards>
-3.16603192904998

> <r_i_glide_evdw>
-40.997013092041

> <r_i_glide_ecoul>
-4.76423168182373

> <r_i_glide_erotb>
0.528904221217699

> <r_i_glide_esite>
0

> <r_i_glide_emodel>
-66.6469786146883

> <r_i_glide_energy>
-45.7612447738647

> <r_i_glide_einternal>
5.41385746002197

> <i_i_glide_confnum>
14

> <i_i_glide_posenum>
83

> <r_i_glide_eff_state_penalty>
0

> <s_user_duplicate_titles>
CHEMBL1900_lig51,107333

> <s_m_subgroup_title>
dock_pv

> <s_m_subgroupid>
dock_pv

> <b_m_subgroup_collapsed>
1

$$$$
CHEMBL1900_lig298
                    3D
 Schrodinger Suite 2021-1.
 41 44  0  0  1  0            999 V2000
   17.9536   -7.7415   14.9697 N   0  0  0  0  0  0
   17.3462   -6.9471   15.9287 N   0  0  0  0  0  0
   17.7549   -9.0971   14.7739 C   0  0  0  0  0  0
   16.4235   -7.4199   16.6702 C   0  0  0  0  0  0
   17.9710   -6.2644   12.9288 C   0  0  0  0  0  0
   18.5448   -5.3661   12.1799 N   0  0  0  0  0  0
   16.7603   -9.6983   15.7804 C   0  0  0  0  0  0
   18.7777   -6.9890   14.0017 C   0  0  0  0  0  0
   16.2653   -6.5152   12.5820 S   0  0  0  0  0  0
   16.0919   -8.8543   16.7029 C   0  0  0  0  0  0
   15.6912   -6.3830   17.5252 C   0  0  0  0  0  0
   17.6974   -4.8090   11.2791 C   0  0  0  0  0  0
   16.3649   -5.2809   11.3436 C   0  0  0  0  0  0
   16.3837   -6.0550   18.8561 C   0  0  0  0  0  0
   18.3064   -9.7190   13.8610 O   0  0  0  0  0  0
   16.4813  -11.0905   15.7974 C   0  0  0  0  0  0
   15.7450   -5.7158   19.8438 O   0  0  0  0  0  0
   17.7434   -6.1143   18.8115 O   0  0  0  0  0  0
   15.2158   -9.3999   17.6476 C   0  0  0  0  0  0
   14.9447  -10.7617   17.6505 C   0  0  0  0  0  0
   18.0533   -3.8191   10.3492 C   0  0  0  0  0  0
   15.3701   -4.7548   10.5137 C   0  0  0  0  0  0
   15.5669  -11.5961   16.7289 C   0  0  0  0  0  0
   17.1446  -12.1056   14.8657 C   0  0  0  0  0  0
   15.7447   -3.7646    9.6045 C   0  0  0  0  0  0
   17.0578   -3.3073    9.5169 C   0  0  0  0  0  0
   19.4113   -6.2933   14.5554 H   0  0  0  0  0  0
   19.5079   -7.6324   13.5050 H   0  0  0  0  0  0
   15.5996   -5.4443   16.9807 H   0  0  0  0  0  0
   14.6653   -6.6932   17.7229 H   0  0  0  0  0  0
   18.0576   -6.3265   17.9275 H   0  0  0  0  0  0
   14.7296   -8.7855   18.3897 H   0  0  0  0  0  0
   14.2491  -11.1727   18.3689 H   0  0  0  0  0  0
   19.0627   -3.4435   10.2946 H   0  0  0  0  0  0
   14.3451   -5.0925   10.5784 H   0  0  0  0  0  0
   15.3402  -12.6528   16.7533 H   0  0  0  0  0  0
   16.9451  -11.8658   13.8212 H   0  0  0  0  0  0
   18.2270  -12.0925   15.0040 H   0  0  0  0  0  0
   16.8020  -13.1268   15.0387 H   0  0  0  0  0  0
   14.9925   -3.3393    8.9580 H   0  0  0  0  0  0
   17.3026   -2.5345    8.8020 H   0  0  0  0  0  0
  1  2  1  0  0  0
  1  3  1  0  0  0
  1  8  1  0  0  0
  2  4  2  0  0  0
  3  7  1  0  0  0
  3 15  2  0  0  0
  4 11  1  0  0  0
  4 10  1  0  0  0
  5  8  1  0  0  0
  5  6  2  0  0  0
  5  9  1  0  0  0
  6 12  1  0  0  0
  7 10  1  0  0  0
  7 16  2  0  0  0
  8 27  1  0  0  0
  8 28  1  0  0  0
  9 13  1  0  0  0
 10 19  2  0  0  0
 11 14  1  0  0  0
 11 29  1  0  0  0
 11 30  1  0  0  0
 12 21  1  0  0  0
 12 13  2  0  0  0
 13 22  1  0  0  0
 14 17  2  0  0  0
 14 18  1  0  0  0
 16 23  1  0  0  0
 16 24  1  0  0  0
 18 31  1  0  0  0
 19 20  1  0  0  0
 19 32  1  0  0  0
 20 23  2  0  0  0
 20 33  1  0  0  0
 21 26  2  0  0  0
 21 34  1  0  0  0
 22 25  2  0  0  0
 22 35  1  0  0  0
 23 36  1  0  0  0
 24 37  1  0  0  0
 24 38  1  0  0  0
 24 39  1  0  0  0
 25 26  1  0  0  0
 25 40  1  0  0  0
 26 41  1  0  0  0
M  END
> <s_m_entry_id>
6243

> <s_m_entry_name>
dock_pv.78

> <s_m_Source_Path>
/home/csk/Desktop/cluster/DUD-E-result/aldr

> <s_m_Source_File>
dock_pv.maegz

> <i_m_Source_File_Index>
78

> <chembl_id>
CHEMBL19838

> <chembl_pref_name>
None

> <i_lp_mmshare_version>
53161

> <i_f3d_flags>
0

> <r_lp_tautomer_probability>
1

> <s_lp_Force_Field>
OPLS_2005

> <r_lp_Energy>
29.382702

> <b_lp_Chiralities_Consistent>
1

> <s_lp_Variant>
CHEMBL1900_lig298-1

> <s_i_glide_gridfile>
glide-grid_2hv5

> <i_i_glide_lignum>
414

> <i_i_glide_rotatable_bonds>
5

> <r_i_docking_score>
-10.1107334261193

> <r_i_glide_ligand_efficiency>
-0.388874362543048

> <r_i_glide_ligand_efficiency_sa>
-1.15203876888705

> <r_i_glide_ligand_efficiency_ln>
-2.37447256910178

> <r_i_glide_gscore>
-10.1107334261193

> <r_i_glide_lipo>
-4.82072841901418

> <r_i_glide_hbond>
-0.32

> <r_i_glide_metal>
0

> <r_i_glide_rewards>
-2.55799881295133

> <r_i_glide_evdw>
-50.0617218017578

> <r_i_glide_ecoul>
-3.23452043533325

> <r_i_glide_erotb>
0.576257961234132

> <r_i_glide_esite>
0

> <r_i_glide_emodel>
-81.5389631925221

> <r_i_glide_energy>
-53.2962422370911

> <r_i_glide_einternal>
3.55102896690369

> <i_i_glide_confnum>
33

> <i_i_glide_posenum>
137

> <r_i_glide_eff_state_penalty>
0

> <s_user_duplicate_titles>
CHEMBL1900_lig298,23578

> <s_m_subgroup_title>
dock_pv

> <s_m_subgroupid>
dock_pv

> <b_m_subgroup_collapsed>
1

$$$$
CHEMBL1900_lig403
                    3D
 Schrodinger Suite 2021-1.
 41 44  0  0  1  0            999 V2000
   17.6886   -5.1811   11.6516 C   0  0  0  0  0  0
   16.6728   -7.8197   17.3271 N   0  0  0  0  0  0
   16.3673   -5.6811   11.7281 C   0  0  0  0  0  0
   18.5450   -5.7270   12.5518 N   0  0  0  0  0  0
   17.9344   -7.9395   15.4289 C   0  0  0  0  0  0
   16.5595   -9.1218   16.8664 C   0  0  0  0  0  0
   17.9985   -6.6689   13.2677 C   0  0  0  0  0  0
   17.5148   -7.1510   16.4716 C   0  0  0  0  0  0
   18.0184   -4.1955   10.7011 C   0  0  0  0  0  0
   16.2966   -6.9148   12.9657 S   0  0  0  0  0  0
   17.3495   -9.2280   15.6788 C   0  0  0  0  0  0
   15.3597   -5.1889   10.8969 C   0  0  0  0  0  0
   17.0029   -3.7130    9.8785 C   0  0  0  0  0  0
   15.7039   -4.2025    9.9771 C   0  0  0  0  0  0
   18.7955   -7.4961   14.2623 C   0  0  0  0  0  0
   16.0785   -7.3108   18.5722 C   0  0  0  0  0  0
   15.8414  -10.2086   17.3807 C   0  0  0  0  0  0
   17.4035  -10.4629   15.0177 C   0  0  0  0  0  0
   16.1479   -5.7990   18.8490 C   0  0  0  0  0  0
   16.1454   -4.9310   17.9814 O   0  0  0  0  0  0
   19.2774   -3.7131   10.5772 F   0  0  0  0  0  0
   15.9371  -11.4365   16.7066 C   0  0  0  0  0  0
   14.0903   -5.6481   10.9816 F   0  0  0  0  0  0
   17.2765   -2.7424    8.9793 F   0  0  0  0  0  0
   16.7057  -11.5456   15.5491 C   0  0  0  0  0  0
   16.1450   -5.5317   20.1807 O   0  0  0  0  0  0
   15.3029  -12.5901   17.1239 O   0  0  0  0  0  0
   14.5437  -12.5727   18.3271 C   0  0  0  0  0  0
   17.7441   -6.1158   16.6475 H   0  0  0  0  0  0
   14.9458   -3.8096    9.3236 H   0  0  0  0  0  0
   19.6468   -6.9176   14.6247 H   0  0  0  0  0  0
   19.2306   -8.3585   13.7563 H   0  0  0  0  0  0
   15.0306   -7.5976   18.5790 H   0  0  0  0  0  0
   16.5449   -7.8554   19.3866 H   0  0  0  0  0  0
   15.2470  -10.0956   18.2728 H   0  0  0  0  0  0
   17.9855  -10.5780   14.1150 H   0  0  0  0  0  0
   16.7561  -12.5010   15.0453 H   0  0  0  0  0  0
   16.2425   -4.5875   20.3268 H   0  0  0  0  0  0
   14.0862  -13.5501   18.4841 H   0  0  0  0  0  0
   13.7452  -11.8322   18.2822 H   0  0  0  0  0  0
   15.1726  -12.3583   19.1906 H   0  0  0  0  0  0
  1  3  2  0  0  0
  1  4  1  0  0  0
  1  9  1  0  0  0
  2  8  1  0  0  0
  2 16  1  0  0  0
  2  6  1  0  0  0
  3 10  1  0  0  0
  3 12  1  0  0  0
  4  7  2  0  0  0
  5 15  1  0  0  0
  5  8  2  0  0  0
  5 11  1  0  0  0
  6 11  2  0  0  0
  6 17  1  0  0  0
  7 15  1  0  0  0
  7 10  1  0  0  0
  8 29  1  0  0  0
  9 13  2  0  0  0
  9 21  1  0  0  0
 11 18  1  0  0  0
 12 23  1  0  0  0
 12 14  2  0  0  0
 13 14  1  0  0  0
 13 24  1  0  0  0
 14 30  1  0  0  0
 15 31  1  0  0  0
 15 32  1  0  0  0
 16 19  1  0  0  0
 16 33  1  0  0  0
 16 34  1  0  0  0
 17 22  2  0  0  0
 17 35  1  0  0  0
 18 25  2  0  0  0
 18 36  1  0  0  0
 19 20  2  0  0  0
 19 26  1  0  0  0
 22 25  1  0  0  0
 22 27  1  0  0  0
 25 37  1  0  0  0
 26 38  1  0  0  0
 27 28  1  0  0  0
 28 39  1  0  0  0
 28 40  1  0  0  0
 28 41  1  0  0  0
M  END
> <s_m_entry_id>
6244

> <s_m_entry_name>
dock_pv.79

> <s_m_Source_Path>
/home/csk/Desktop/cluster/DUD-E-result/aldr

> <s_m_Source_File>
dock_pv.maegz

> <i_m_Source_File_Index>
79

> <chembl_id>
CHEMBL190931

> <chembl_pref_name>
None

> <i_lp_mmshare_version>
53161

> <i_f3d_flags>
0

> <r_lp_tautomer_probability>
1

> <s_lp_Force_Field>
OPLS_2005

> <r_lp_Energy>
15.822116

> <b_lp_Chiralities_Consistent>
1

> <s_lp_Variant>
CHEMBL1900_lig403-1

> <s_i_glide_gridfile>
glide-grid_2hv5

> <i_i_glide_lignum>
524

> <i_i_glide_rotatable_bonds>
6

> <r_i_docking_score>
-10.1087056976274

> <r_i_glide_ligand_efficiency>
-0.361025203486693

> <r_i_glide_ligand_efficiency_sa>
-1.09628515025918

> <r_i_glide_ligand_efficiency_ln>
-2.33338607950865

> <r_i_glide_gscore>
-10.1087056976274

> <r_i_glide_lipo>
-4.6017567975802

> <r_i_glide_hbond>
0

> <r_i_glide_metal>
0

> <r_i_glide_rewards>
-2.93460094032155

> <r_i_glide_evdw>
-45.3817443847656

> <r_i_glide_ecoul>
-4.97386932373047

> <r_i_glide_erotb>
0.476231916377315

> <r_i_glide_esite>
-0.033412258305135

> <r_i_glide_emodel>
-76.2017634617311

> <r_i_glide_energy>
-50.3556137084961

> <r_i_glide_einternal>
5.41747665405273

> <i_i_glide_confnum>
3

> <i_i_glide_posenum>
208

> <r_i_glide_eff_state_penalty>
0

> <s_user_duplicate_titles>
CHEMBL1900_lig403,321529

> <s_m_subgroup_title>
dock_pv

> <s_m_subgroupid>
dock_pv

> <b_m_subgroup_collapsed>
1

$$$$
CHEMBL1900_lig47
                    3D
 Schrodinger Suite 2021-1.
 39 42  0  0  1  0            999 V2000
   18.0309   -7.8325   15.8567 N   0  0  0  0  0  0
   17.6473   -6.9146   16.7563 N   0  0  0  0  0  0
   16.7501   -7.4456   17.5506 C   0  0  0  0  0  0
   18.1613   -6.7738   13.6240 C   0  0  0  0  0  0
   16.4885   -8.7932   17.1440 C   0  0  0  0  0  0
   18.6426   -5.8191   12.8776 N   0  0  0  0  0  0
   17.3541   -9.0261   16.0422 C   0  0  0  0  0  0
   18.9231   -7.4238   14.7650 C   0  0  0  0  0  0
   16.5450   -7.2552   13.2140 S   0  0  0  0  0  0
   16.9995   -2.5987    9.4682 C   0  0  0  0  0  0
   17.7441   -5.3798   11.9527 C   0  0  0  0  0  0
   16.0889   -6.6717   18.6918 C   0  0  0  0  0  0
   16.4860   -6.0177   11.9964 C   0  0  0  0  0  0
   16.8763   -3.8783   10.2820 C   0  0  0  0  0  0
   17.9617   -4.3443   11.0340 C   0  0  0  0  0  0
   16.6421   -5.2675   18.9799 C   0  0  0  0  0  0
   17.3876  -10.2502   15.3642 C   0  0  0  0  0  0
   15.6301   -9.8187   17.5684 C   0  0  0  0  0  0
   15.4262   -5.6232   11.1757 C   0  0  0  0  0  0
   15.6408   -4.5281   10.3441 C   0  0  0  0  0  0
   16.1451   -4.2412   18.5252 O   0  0  0  0  0  0
   16.9449   -2.9148    8.1825 F   0  0  0  0  0  0
   15.9964   -1.7664    9.7479 F   0  0  0  0  0  0
   18.1446   -1.9624    9.7185 F   0  0  0  0  0  0
   15.6723  -11.0447   16.9071 C   0  0  0  0  0  0
   16.5333  -11.2516   15.8301 C   0  0  0  0  0  0
   17.7451   -5.3115   19.7761 O   0  0  0  0  0  0
   14.6472  -12.3263   17.4377 Cl  0  0  0  0  0  0
   19.6832   -6.7524   15.1695 H   0  0  0  0  0  0
   19.4557   -8.3086   14.4165 H   0  0  0  0  0  0
   15.0240   -6.5637   18.4883 H   0  0  0  0  0  0
   16.1462   -7.2550   19.6119 H   0  0  0  0  0  0
   18.9149   -3.8453   10.9819 H   0  0  0  0  0  0
   18.0390  -10.4202   14.5187 H   0  0  0  0  0  0
   14.9551   -9.6685   18.3984 H   0  0  0  0  0  0
   14.4585   -6.1025   11.2326 H   0  0  0  0  0  0
   14.8175   -4.1510    9.7607 H   0  0  0  0  0  0
   16.5356  -12.2143   15.3385 H   0  0  0  0  0  0
   18.0240   -6.2136   19.9500 H   0  0  0  0  0  0
  1  2  1  0  0  0
  1  7  1  0  0  0
  1  8  1  0  0  0
  2  3  2  0  0  0
  3 12  1  0  0  0
  3  5  1  0  0  0
  4  8  1  0  0  0
  4  6  2  0  0  0
  4  9  1  0  0  0
  5  7  2  0  0  0
  5 18  1  0  0  0
  6 11  1  0  0  0
  7 17  1  0  0  0
  8 29  1  0  0  0
  8 30  1  0  0  0
  9 13  1  0  0  0
 10 14  1  0  0  0
 10 22  1  0  0  0
 10 23  1  0  0  0
 10 24  1  0  0  0
 11 15  1  0  0  0
 11 13  2  0  0  0
 12 16  1  0  0  0
 12 31  1  0  0  0
 12 32  1  0  0  0
 13 19  1  0  0  0
 14 15  2  0  0  0
 14 20  1  0  0  0
 15 33  1  0  0  0
 16 21  2  0  0  0
 16 27  1  0  0  0
 17 26  2  0  0  0
 17 34  1  0  0  0
 18 25  2  0  0  0
 18 35  1  0  0  0
 19 20  2  0  0  0
 19 36  1  0  0  0
 20 37  1  0  0  0
 25 26  1  0  0  0
 25 28  1  0  0  0
 26 38  1  0  0  0
 27 39  1  0  0  0
M  END
> <s_m_entry_id>
6245

> <s_m_entry_name>
dock_pv.80

> <s_m_Source_Path>
/home/csk/Desktop/cluster/DUD-E-result/aldr

> <s_m_Source_File>
dock_pv.maegz

> <i_m_Source_File_Index>
80

> <chembl_id>
CHEMBL68705

> <chembl_pref_name>
None

> <i_lp_mmshare_version>
53161

> <i_f3d_flags>
0

> <r_lp_tautomer_probability>
1

> <s_lp_Force_Field>
OPLS_2005

> <r_lp_Energy>
10.789415

> <b_lp_Chiralities_Consistent>
1

> <s_lp_Variant>
CHEMBL1900_lig47-1

> <s_i_glide_gridfile>
glide-grid_2hv5

> <i_i_glide_lignum>
82

> <i_i_glide_rotatable_bonds>
6

> <r_i_docking_score>
-10.0984989610696

> <r_i_glide_ligand_efficiency>
-0.360660677181059

> <r_i_glide_ligand_efficiency_sa>
-1.09517823370076

> <r_i_glide_ligand_efficiency_ln>
-2.33103006502831

> <r_i_glide_gscore>
-10.0984989610696

> <r_i_glide_lipo>
-5.00167153645158

> <r_i_glide_hbond>
0

> <r_i_glide_metal>
0

> <r_i_glide_rewards>
-2.89919302168325

> <r_i_glide_evdw>
-45.1265144348145

> <r_i_glide_ecoul>
-2.52672290802002

> <r_i_glide_erotb>
0.437699755008919

> <r_i_glide_esite>
0

> <r_i_glide_emodel>
-68.7329266465761

> <r_i_glide_energy>
-47.6532373428345

> <r_i_glide_einternal>
3.69350957870483

> <i_i_glide_confnum>
14

> <i_i_glide_posenum>
245

> <r_i_glide_eff_state_penalty>
0

> <s_user_duplicate_titles>
CHEMBL1900_lig47,108101

> <s_m_subgroup_title>
dock_pv

> <s_m_subgroupid>
dock_pv

> <b_m_subgroup_collapsed>
1

$$$$
CHEMBL1900_lig264
                    3D
 Schrodinger Suite 2021-1.
 44 47  0  0  1  0            999 V2000
   17.8916   -8.3802   15.3926 N   0  0  0  0  0  0
   17.2701   -7.7784   16.4811 N   0  0  0  0  0  0
   17.7456   -9.6919   14.9851 C   0  0  0  0  0  0
   16.4404   -8.4271   17.2142 C   0  0  0  0  0  0
   17.9524   -6.7292   13.4928 C   0  0  0  0  0  0
   18.5452   -5.8674   12.7183 N   0  0  0  0  0  0
   17.7121   -5.3150   11.8040 C   0  0  0  0  0  0
   18.7242   -7.4729   14.5740 C   0  0  0  0  0  0
   16.2424   -6.9148   13.1815 S   0  0  0  0  0  0
   16.3714   -5.7453   11.8845 C   0  0  0  0  0  0
   16.7754  -10.4621   15.8717 C   0  0  0  0  0  0
   16.0944   -9.8341   16.9343 C   0  0  0  0  0  0
   15.7781   -7.7129   18.4169 C   0  0  0  0  0  0
   15.3843   -5.2287   11.0387 C   0  0  0  0  0  0
   16.3699   -6.4015   18.9818 C   0  0  0  0  0  0
   18.0897   -4.3696   10.8460 C   0  0  0  0  0  0
   18.3097  -10.1758   13.9991 O   0  0  0  0  0  0
   15.7848   -4.2813   10.0938 C   0  0  0  0  0  0
   17.1108   -3.8581    9.9988 C   0  0  0  0  0  0
   15.7448   -5.7136   19.7784 O   0  0  0  0  0  0
   17.6334   -6.1151   18.5811 O   0  0  0  0  0  0
   16.5298  -11.8119   15.5848 C   0  0  0  0  0  0
   15.1346  -10.5609   17.6563 C   0  0  0  0  0  0
   13.9297   -5.6104   11.1530 C   0  0  0  0  0  0
   17.5029   -2.8207    8.9745 C   0  0  0  0  0  0
   15.5925  -12.5263   16.3284 C   0  0  0  0  0  0
   14.8906  -11.9011   17.3572 C   0  0  0  0  0  0
   19.2434   -6.7741   15.2295 H   0  0  0  0  0  0
   19.5450   -8.0167   14.1037 H   0  0  0  0  0  0
   14.7363   -7.5053   18.1653 H   0  0  0  0  0  0
   15.7520   -8.3940   19.2687 H   0  0  0  0  0  0
   19.1080   -4.0227   10.7804 H   0  0  0  0  0  0
   15.0471   -3.8518    9.4333 H   0  0  0  0  0  0
   17.8912   -6.7144   17.8702 H   0  0  0  0  0  0
   17.0432  -12.3050   14.7701 H   0  0  0  0  0  0
   14.5713  -10.1099   18.4586 H   0  0  0  0  0  0
   13.3419   -5.0510   10.4343 H   0  0  0  0  0  0
   13.7920   -6.6781   10.9814 H   0  0  0  0  0  0
   13.5649   -5.3857   12.1592 H   0  0  0  0  0  0
   18.1416   -2.0591    9.4216 H   0  0  0  0  0  0
   18.0595   -3.3147    8.1802 H   0  0  0  0  0  0
   16.6352   -2.3097    8.5535 H   0  0  0  0  0  0
   15.3959  -13.5624   16.0941 H   0  0  0  0  0  0
   14.1499  -12.4553   17.9184 H   0  0  0  0  0  0
  1  2  1  0  0  0
  1  3  1  0  0  0
  1  8  1  0  0  0
  2  4  2  0  0  0
  3 11  1  0  0  0
  3 17  2  0  0  0
  4 13  1  0  0  0
  4 12  1  0  0  0
  5  8  1  0  0  0
  5  6  2  0  0  0
  5  9  1  0  0  0
  6  7  1  0  0  0
  7 16  1  0  0  0
  7 10  2  0  0  0
  8 28  1  0  0  0
  8 29  1  0  0  0
  9 10  1  0  0  0
 10 14  1  0  0  0
 11 12  1  0  0  0
 11 22  2  0  0  0
 12 23  2  0  0  0
 13 15  1  0  0  0
 13 30  1  0  0  0
 13 31  1  0  0  0
 14 18  2  0  0  0
 14 24  1  0  0  0
 15 20  2  0  0  0
 15 21  1  0  0  0
 16 19  2  0  0  0
 16 32  1  0  0  0
 18 19  1  0  0  0
 18 33  1  0  0  0
 19 25  1  0  0  0
 21 34  1  0  0  0
 22 26  1  0  0  0
 22 35  1  0  0  0
 23 27  1  0  0  0
 23 36  1  0  0  0
 24 37  1  0  0  0
 24 38  1  0  0  0
 24 39  1  0  0  0
 25 40  1  0  0  0
 25 41  1  0  0  0
 25 42  1  0  0  0
 26 27  2  0  0  0
 26 43  1  0  0  0
 27 44  1  0  0  0
M  END
> <s_m_entry_id>
6246

> <s_m_entry_name>
dock_pv.81

> <s_m_Source_Path>
/home/csk/Desktop/cluster/DUD-E-result/aldr

> <s_m_Source_File>
dock_pv.maegz

> <i_m_Source_File_Index>
81

> <chembl_id>
CHEMBL20161

> <chembl_pref_name>
None

> <i_lp_mmshare_version>
53161

> <i_f3d_flags>
0

> <r_lp_tautomer_probability>
1

> <s_lp_Force_Field>
OPLS_2005

> <r_lp_Energy>
25.402358

> <b_lp_Chiralities_Consistent>
1

> <s_lp_Variant>
CHEMBL1900_lig264-1

> <s_i_glide_gridfile>
glide-grid_2hv5

> <i_i_glide_lignum>
378

> <i_i_glide_rotatable_bonds>
5

> <r_i_docking_score>
-10.096229323826

> <r_i_glide_ligand_efficiency>
-0.373934419400964

> <r_i_glide_ligand_efficiency_sa>
-1.12180325697047

> <r_i_glide_ligand_efficiency_ln>
-2.35023573723758

> <r_i_glide_gscore>
-10.096229323826

> <r_i_glide_lipo>
-4.93437596092324

> <r_i_glide_hbond>
-0.32

> <r_i_glide_metal>
0

> <r_i_glide_rewards>
-2.35830523922543

> <r_i_glide_evdw>
-49.9843063354492

> <r_i_glide_ecoul>
-3.48701357841492

> <r_i_glide_erotb>
0.538719229857335

> <r_i_glide_esite>
0

> <r_i_glide_emodel>
-83.3721814187772

> <r_i_glide_energy>
-53.4713199138641

> <r_i_glide_einternal>
2.76374554634094

> <i_i_glide_confnum>
15

> <i_i_glide_posenum>
336

> <r_i_glide_eff_state_penalty>
0

> <s_user_duplicate_titles>
CHEMBL1900_lig264,24192

> <s_m_subgroup_title>
dock_pv

> <s_m_subgroupid>
dock_pv

> <b_m_subgroup_collapsed>
1

$$$$
CHEMBL1900_lig60
                    3D
 Schrodinger Suite 2021-1.
 41 43  0  0  1  0            999 V2000
   18.2983   -8.6453   15.0773 N   0  0  0  0  0  0
   17.7437   -8.1951   16.2635 N   0  0  0  0  0  0
   18.1283   -9.9001   14.5357 C   0  0  0  0  0  0
   16.8524   -8.8762   16.8903 C   0  0  0  0  0  0
   17.1993  -10.7279   15.3263 C   0  0  0  0  0  0
   18.0863   -6.7766   13.4456 C   0  0  0  0  0  0
   16.5492  -10.2306   16.4320 C   0  0  0  0  0  0
   18.5449   -5.8658   12.6380 N   0  0  0  0  0  0
   19.0158   -7.6102   14.3094 C   0  0  0  0  0  0
   16.3414   -6.9222   13.4504 S   0  0  0  0  0  0
   16.7520   -2.5671    9.4291 C   0  0  0  0  0  0
   17.5630   -5.3265   11.8772 C   0  0  0  0  0  0
   16.2179   -8.1743   18.0991 C   0  0  0  0  0  0
   16.2702   -5.8523   12.0932 C   0  0  0  0  0  0
   16.6352   -3.8251   10.2624 C   0  0  0  0  0  0
   17.7514   -4.3071   10.9496 C   0  0  0  0  0  0
   15.6972   -6.7639   17.7809 C   0  0  0  0  0  0
   18.6779  -10.2820   13.4968 O   0  0  0  0  0  0
   15.1733   -5.4608   11.3268 C   0  0  0  0  0  0
   15.3899   -4.4507   10.3998 C   0  0  0  0  0  0
   14.9448   -6.5149   16.8417 O   0  0  0  0  0  0
   16.5450   -2.9147    8.1803 F   0  0  0  0  0  0
   15.8294   -1.6725    9.7772 F   0  0  0  0  0  0
   17.9592   -2.0082    9.5312 F   0  0  0  0  0  0
   16.9529  -12.1251   14.7424 C   0  0  0  0  0  0
   16.1451   -5.8436   18.6850 O   0  0  0  0  0  0
   15.5540  -11.0757   17.2301 C   0  0  0  0  0  0
   19.5809   -6.9792   14.9966 H   0  0  0  0  0  0
   19.8051   -8.0547   13.6970 H   0  0  0  0  0  0
   16.9451   -8.1147   18.9046 H   0  0  0  0  0  0
   15.3718   -8.7380   18.4863 H   0  0  0  0  0  0
   18.7215   -3.8547   10.8345 H   0  0  0  0  0  0
   14.1871   -5.8761   11.4863 H   0  0  0  0  0  0
   14.5480   -4.1105    9.8272 H   0  0  0  0  0  0
   15.9953  -12.5529   15.0277 H   0  0  0  0  0  0
   16.9452  -12.1205   13.6497 H   0  0  0  0  0  0
   17.7398  -12.8059   15.0634 H   0  0  0  0  0  0
   16.7855   -6.2115   19.2954 H   0  0  0  0  0  0
   15.6422  -12.1477   17.0578 H   0  0  0  0  0  0
   15.7081  -10.9538   18.3030 H   0  0  0  0  0  0
   14.5294  -10.7740   16.9985 H   0  0  0  0  0  0
  1  2  1  0  0  0
  1  3  1  0  0  0
  1  9  1  0  0  0
  2  4  2  0  0  0
  3  5  1  0  0  0
  3 18  2  0  0  0
  4 13  1  0  0  0
  4  7  1  0  0  0
  5  7  2  0  0  0
  5 25  1  0  0  0
  6  9  1  0  0  0
  6  8  2  0  0  0
  6 10  1  0  0  0
  7 27  1  0  0  0
  8 12  1  0  0  0
  9 28  1  0  0  0
  9 29  1  0  0  0
 10 14  1  0  0  0
 11 15  1  0  0  0
 11 22  1  0  0  0
 11 23  1  0  0  0
 11 24  1  0  0  0
 12 16  1  0  0  0
 12 14  2  0  0  0
 13 17  1  0  0  0
 13 30  1  0  0  0
 13 31  1  0  0  0
 14 19  1  0  0  0
 15 16  2  0  0  0
 15 20  1  0  0  0
 16 32  1  0  0  0
 17 21  2  0  0  0
 17 26  1  0  0  0
 19 20  2  0  0  0
 19 33  1  0  0  0
 20 34  1  0  0  0
 25 35  1  0  0  0
 25 36  1  0  0  0
 25 37  1  0  0  0
 26 38  1  0  0  0
 27 39  1  0  0  0
 27 40  1  0  0  0
 27 41  1  0  0  0
M  END
> <s_m_entry_id>
6247

> <s_m_entry_name>
dock_pv.82

> <s_m_Source_Path>
/home/csk/Desktop/cluster/DUD-E-result/aldr

> <s_m_Source_File>
dock_pv.maegz

> <i_m_Source_File_Index>
82

> <chembl_id>
CHEMBL69350

> <chembl_pref_name>
None

> <i_lp_mmshare_version>
53161

> <i_f3d_flags>
0

> <r_lp_tautomer_probability>
1

> <s_lp_Force_Field>
OPLS_2005

> <r_lp_Energy>
27.621461

> <b_lp_Chiralities_Consistent>
1

> <s_lp_Variant>
CHEMBL1900_lig60-1

> <s_i_glide_gridfile>
glide-grid_2hv5

> <i_i_glide_lignum>
95

> <i_i_glide_rotatable_bonds>
6

> <r_i_docking_score>
-10.0922542451801

> <r_i_glide_ligand_efficiency>
-0.37378719426593

> <r_i_glide_ligand_efficiency_sa>
-1.12136158156585

> <r_i_glide_ligand_efficiency_ln>
-2.34931040446309

> <r_i_glide_gscore>
-10.0922542451801

> <r_i_glide_lipo>
-4.44132771579882

> <r_i_glide_hbond>
-0.318446675867086

> <r_i_glide_metal>
0

> <r_i_glide_rewards>
-2.98823451433922

> <r_i_glide_evdw>
-42.7707748413086

> <r_i_glide_ecoul>
-4.67701387405396

> <r_i_glide_erotb>
0.495845483998553

> <r_i_glide_esite>
0

> <r_i_glide_emodel>
-68.7389879567424

> <r_i_glide_energy>
-47.4477887153625

> <r_i_glide_einternal>
5.54919528961182

> <i_i_glide_confnum>
6

> <i_i_glide_posenum>
272

> <r_i_glide_eff_state_penalty>
0

> <s_user_duplicate_titles>
CHEMBL1900_lig60,108178

> <s_m_subgroup_title>
dock_pv

> <s_m_subgroupid>
dock_pv

> <b_m_subgroup_collapsed>
1

$$$$
CHEMBL1900_lig304
                    3D
 Schrodinger Suite 2021-1.
 38 41  0  0  1  0            999 V2000
   17.9572   -7.7432   14.9708 N   0  0  0  0  0  0
   17.3579   -6.9154   15.9084 N   0  0  0  0  0  0
   17.7448   -9.1017   14.8164 C   0  0  0  0  0  0
   16.6795   -9.6310   15.7802 C   0  0  0  0  0  0
   16.3986   -7.3422   16.6340 C   0  0  0  0  0  0
   17.9710   -6.2798   12.9200 C   0  0  0  0  0  0
   18.5450   -5.3787   12.1743 N   0  0  0  0  0  0
   18.7802   -7.0286   13.9737 C   0  0  0  0  0  0
   15.9983   -8.7587   16.6592 C   0  0  0  0  0  0
   16.2591   -6.5152   12.5814 S   0  0  0  0  0  0
   15.7147   -6.2740   17.4944 C   0  0  0  0  0  0
   17.6968   -4.8147   11.2769 C   0  0  0  0  0  0
   16.3621   -5.2811   11.3438 C   0  0  0  0  0  0
   16.3875   -6.0296   18.8521 C   0  0  0  0  0  0
   16.3627  -11.0040   15.7913 C   0  0  0  0  0  0
   18.3308   -9.7888   13.9756 O   0  0  0  0  0  0
   15.7451   -5.7147   19.8455 O   0  0  0  0  0  0
   16.9765  -11.8902   14.9707 F   0  0  0  0  0  0
   17.7448   -6.1147   18.8177 O   0  0  0  0  0  0
   15.0317   -9.2697   17.5366 C   0  0  0  0  0  0
   14.7296  -10.6285   17.5356 C   0  0  0  0  0  0
   18.0551   -3.8247   10.3472 C   0  0  0  0  0  0
   15.3684   -4.7527   10.5120 C   0  0  0  0  0  0
   15.3914  -11.4895   16.6657 C   0  0  0  0  0  0
   15.7452   -3.7653    9.6005 C   0  0  0  0  0  0
   17.0606   -3.3094    9.5147 C   0  0  0  0  0  0
   19.4549   -6.3571   14.5079 H   0  0  0  0  0  0
   19.4688   -7.6985   13.4578 H   0  0  0  0  0  0
   15.7125   -5.3142   16.9790 H   0  0  0  0  0  0
   14.6634   -6.5149   17.6517 H   0  0  0  0  0  0
   18.0639   -6.3046   17.9304 H   0  0  0  0  0  0
   14.5034   -8.6304   18.2238 H   0  0  0  0  0  0
   13.9759  -11.0189   18.2073 H   0  0  0  0  0  0
   19.0665   -3.4572   10.2934 H   0  0  0  0  0  0
   14.3430   -5.0903   10.5777 H   0  0  0  0  0  0
   15.1474  -12.5419   16.6651 H   0  0  0  0  0  0
   14.9981   -3.3433    8.9465 H   0  0  0  0  0  0
   17.3080   -2.5407    8.7974 H   0  0  0  0  0  0
  1  2  1  0  0  0
  1  3  1  0  0  0
  1  8  1  0  0  0
  2  5  2  0  0  0
  3  4  1  0  0  0
  3 16  2  0  0  0
  4  9  1  0  0  0
  4 15  2  0  0  0
  5 11  1  0  0  0
  5  9  1  0  0  0
  6  8  1  0  0  0
  6  7  2  0  0  0
  6 10  1  0  0  0
  7 12  1  0  0  0
  8 27  1  0  0  0
  8 28  1  0  0  0
  9 20  2  0  0  0
 10 13  1  0  0  0
 11 14  1  0  0  0
 11 29  1  0  0  0
 11 30  1  0  0  0
 12 22  1  0  0  0
 12 13  2  0  0  0
 13 23  1  0  0  0
 14 17  2  0  0  0
 14 19  1  0  0  0
 15 18  1  0  0  0
 15 24  1  0  0  0
 19 31  1  0  0  0
 20 21  1  0  0  0
 20 32  1  0  0  0
 21 24  2  0  0  0
 21 33  1  0  0  0
 22 26  2  0  0  0
 22 34  1  0  0  0
 23 25  2  0  0  0
 23 35  1  0  0  0
 24 36  1  0  0  0
 25 26  1  0  0  0
 25 37  1  0  0  0
 26 38  1  0  0  0
M  END
> <s_m_entry_id>
6248

> <s_m_entry_name>
dock_pv.83

> <s_m_Source_Path>
/home/csk/Desktop/cluster/DUD-E-result/aldr

> <s_m_Source_File>
dock_pv.maegz

> <i_m_Source_File_Index>
83

> <chembl_id>
CHEMBL20440

> <chembl_pref_name>
None

> <i_lp_mmshare_version>
53161

> <i_f3d_flags>
0

> <r_lp_tautomer_probability>
1

> <s_lp_Force_Field>
OPLS_2005

> <r_lp_Energy>
25.576458

> <b_lp_Chiralities_Consistent>
1

> <s_lp_Variant>
CHEMBL1900_lig304-1

> <s_i_glide_gridfile>
glide-grid_2hv5

> <i_i_glide_lignum>
420

> <i_i_glide_rotatable_bonds>
5

> <r_i_docking_score>
-10.0894507642183

> <r_i_glide_ligand_efficiency>
-0.388055798623779

> <r_i_glide_ligand_efficiency_sa>
-1.14961377649711

> <r_i_glide_ligand_efficiency_ln>
-2.36947440578844

> <r_i_glide_gscore>
-10.0894507642183

> <r_i_glide_lipo>
-4.78187979463579

> <r_i_glide_hbond>
-0.32

> <r_i_glide_metal>
0

> <r_i_glide_rewards>
-2.65097250506149

> <r_i_glide_evdw>
-49.3074188232422

> <r_i_glide_ecoul>
-2.90991377830505

> <r_i_glide_erotb>
0.56525954338689

> <r_i_glide_esite>
0

> <r_i_glide_emodel>
-80.4397168858336

> <r_i_glide_energy>
-52.2173326015472

> <r_i_glide_einternal>
3.29613089561462

> <i_i_glide_confnum>
28

> <i_i_glide_posenum>
284

> <r_i_glide_eff_state_penalty>
0

> <s_user_duplicate_titles>
CHEMBL1900_lig304,24349

> <s_m_subgroup_title>
dock_pv

> <s_m_subgroupid>
dock_pv

> <b_m_subgroup_collapsed>
1

$$$$
CHEMBL1900_lig169
                    3D
 Schrodinger Suite 2021-1.
 38 41  0  0  1  0            999 V2000
   17.8645   -8.2696   15.1409 N   0  0  0  0  0  0
   17.3059   -7.3674   16.0407 N   0  0  0  0  0  0
   17.5888   -9.6231   15.0440 C   0  0  0  0  0  0
   16.3264   -7.7242   16.7820 C   0  0  0  0  0  0
   18.0157   -6.7466   13.1828 C   0  0  0  0  0  0
   18.5450   -5.7394   12.5252 N   0  0  0  0  0  0
   18.7590   -7.6579   14.1404 C   0  0  0  0  0  0
   16.5005  -10.0524   16.0230 C   0  0  0  0  0  0
   17.5259   -5.3087   11.7283 C   0  0  0  0  0  0
   15.8796   -9.1243   16.8855 C   0  0  0  0  0  0
   16.6940   -6.9990   12.9232 O   0  0  0  0  0  0
   15.6219   -6.5900   17.5306 C   0  0  0  0  0  0
   16.3684   -6.0568   11.9984 C   0  0  0  0  0  0
   16.3532   -6.1125   18.7963 C   0  0  0  0  0  0
   17.4866   -4.2905   10.7665 C   0  0  0  0  0  0
   18.1450  -10.3923   14.2555 O   0  0  0  0  0  0
   15.7449   -5.7153   19.7854 O   0  0  0  0  0  0
   15.1378   -5.8083   11.3846 C   0  0  0  0  0  0
   16.2625   -4.0271   10.1441 C   0  0  0  0  0  0
   17.7108   -6.1150   18.6831 O   0  0  0  0  0  0
   15.1111   -4.7589   10.4587 C   0  0  0  0  0  0
   16.1719   -2.7554    8.9809 Cl  0  0  0  0  0  0
   16.1254  -11.4023   16.0631 C   0  0  0  0  0  0
   14.9451   -9.5825   17.8233 C   0  0  0  0  0  0
   15.1598  -11.8338   16.9707 C   0  0  0  0  0  0
   14.5772  -10.9282   17.8560 C   0  0  0  0  0  0
   19.5478   -7.1147   14.6623 H   0  0  0  0  0  0
   19.3008   -8.3928   13.5430 H   0  0  0  0  0  0
   15.5165   -5.7245   16.8784 H   0  0  0  0  0  0
   14.6025   -6.8685   17.7934 H   0  0  0  0  0  0
   18.3617   -3.7041   10.5401 H   0  0  0  0  0  0
   14.2571   -6.3874   11.6171 H   0  0  0  0  0  0
   17.9858   -6.4189   17.8119 H   0  0  0  0  0  0
   14.1785   -4.5154    9.9651 H   0  0  0  0  0  0
   16.5784  -12.1232   15.3936 H   0  0  0  0  0  0
   14.4909   -8.9130   18.5357 H   0  0  0  0  0  0
   14.8666  -12.8729   16.9991 H   0  0  0  0  0  0
   13.8401  -11.2700   18.5682 H   0  0  0  0  0  0
  1  2  1  0  0  0
  1  3  1  0  0  0
  1  7  1  0  0  0
  2  4  2  0  0  0
  3  8  1  0  0  0
  3 16  2  0  0  0
  4 12  1  0  0  0
  4 10  1  0  0  0
  5  7  1  0  0  0
  5  6  2  0  0  0
  5 11  1  0  0  0
  6  9  1  0  0  0
  7 27  1  0  0  0
  7 28  1  0  0  0
  8 10  2  0  0  0
  8 23  1  0  0  0
  9 15  1  0  0  0
  9 13  2  0  0  0
 10 24  1  0  0  0
 11 13  1  0  0  0
 12 14  1  0  0  0
 12 29  1  0  0  0
 12 30  1  0  0  0
 13 18  1  0  0  0
 14 17  2  0  0  0
 14 20  1  0  0  0
 15 19  2  0  0  0
 15 31  1  0  0  0
 18 21  2  0  0  0
 18 32  1  0  0  0
 19 22  1  0  0  0
 19 21  1  0  0  0
 20 33  1  0  0  0
 21 34  1  0  0  0
 23 25  2  0  0  0
 23 35  1  0  0  0
 24 26  2  0  0  0
 24 36  1  0  0  0
 25 26  1  0  0  0
 25 37  1  0  0  0
 26 38  1  0  0  0
M  END
> <s_m_entry_id>
6249

> <s_m_entry_name>
dock_pv.84

> <s_m_Source_Path>
/home/csk/Desktop/cluster/DUD-E-result/aldr

> <s_m_Source_File>
dock_pv.maegz

> <i_m_Source_File_Index>
84

> <chembl_id>
CHEMBL143211

> <chembl_pref_name>
None

> <i_lp_mmshare_version>
53161

> <i_f3d_flags>
0

> <r_lp_tautomer_probability>
1

> <s_lp_Force_Field>
OPLS_2005

> <r_lp_Energy>
26.22005

> <b_lp_Chiralities_Consistent>
1

> <s_lp_Variant>
CHEMBL1900_lig169-1

> <s_i_glide_gridfile>
glide-grid_2hv5

> <i_i_glide_lignum>
245

> <i_i_glide_rotatable_bonds>
5

> <r_i_docking_score>
-10.0822490567271

> <r_i_glide_ligand_efficiency>
-0.387778809874119

> <r_i_glide_ligand_efficiency_sa>
-1.14879319841614

> <r_i_glide_ligand_efficiency_ln>
-2.36778310841487

> <r_i_glide_gscore>
-10.0822490567271

> <r_i_glide_lipo>
-4.82290420228143

> <r_i_glide_hbond>
-0.32

> <r_i_glide_metal>
0

> <r_i_glide_rewards>
-2.46717466029557

> <r_i_glide_evdw>
-50.4684410095215

> <r_i_glide_ecoul>
-3.41965985298157

> <r_i_glide_erotb>
0.564200834273222

> <r_i_glide_esite>
0

> <r_i_glide_emodel>
-84.1536190901019

> <r_i_glide_energy>
-53.8881008625031

> <r_i_glide_einternal>
3.75965785980225

> <i_i_glide_confnum>
26

> <i_i_glide_posenum>
127

> <r_i_glide_eff_state_penalty>
0

> <s_user_duplicate_titles>
CHEMBL1900_lig169,236398

> <s_m_subgroup_title>
dock_pv

> <s_m_subgroupid>
dock_pv

> <b_m_subgroup_collapsed>
1

$$$$
CHEMBL1900_lig299
                    3D
 Schrodinger Suite 2021-1.
 40 43  0  0  1  0            999 V2000
   18.0138   -8.1338   15.3105 N   0  0  0  0  0  0
   17.4555   -7.3153   16.2845 N   0  0  0  0  0  0
   17.7122   -9.4646   15.0801 C   0  0  0  0  0  0
   16.4339   -7.7058   16.9462 C   0  0  0  0  0  0
   18.0079   -6.6445   13.2963 C   0  0  0  0  0  0
   18.5451   -5.7158   12.5629 N   0  0  0  0  0  0
   16.3759   -5.6614   11.7424 C   0  0  0  0  0  0
   17.6931   -5.1753   11.6594 C   0  0  0  0  0  0
   16.3083   -6.9024   12.9811 S   0  0  0  0  0  0
   18.8373   -7.4101   14.3226 C   0  0  0  0  0  0
   16.6135   -9.9668   16.0128 C   0  0  0  0  0  0
   15.9684   -9.1011   16.9234 C   0  0  0  0  0  0
   15.6859   -6.6018   17.7012 C   0  0  0  0  0  0
   15.3751   -5.1333   10.9251 C   0  0  0  0  0  0
   18.0320   -4.1953   10.7173 C   0  0  0  0  0  0
   16.3839   -6.1085   18.9786 C   0  0  0  0  0  0
   15.7178   -4.1504   10.0016 C   0  0  0  0  0  0
   18.2334  -10.1501   14.1967 O   0  0  0  0  0  0
   17.0275   -3.6971    9.8969 C   0  0  0  0  0  0
   15.7451   -5.6826   19.9334 O   0  0  0  0  0  0
   14.0916   -5.5654   11.0499 O   0  0  0  0  0  0
   17.7432   -6.1148   18.9155 O   0  0  0  0  0  0
   17.3284   -2.7288    8.9878 O   0  0  0  0  0  0
   16.2272  -11.3099   15.9401 C   0  0  0  0  0  0
   15.0037   -9.6191   17.7992 C   0  0  0  0  0  0
   15.2361  -11.8018   16.7912 C   0  0  0  0  0  0
   14.6339  -10.9612   17.7259 C   0  0  0  0  0  0
   19.5249   -6.7524   14.8563 H   0  0  0  0  0  0
   19.5085   -8.0853   13.7871 H   0  0  0  0  0  0
   15.5665   -5.7336   17.0533 H   0  0  0  0  0  0
   14.6703   -6.9055   17.9503 H   0  0  0  0  0  0
   19.0337   -3.8108   10.6404 H   0  0  0  0  0  0
   14.9491   -3.7324    9.3670 H   0  0  0  0  0  0
   13.4796   -5.0663   10.5056 H   0  0  0  0  0  0
   18.0418   -6.4383   18.0586 H   0  0  0  0  0  0
   16.5354   -2.4388    8.5350 H   0  0  0  0  0  0
   16.6957  -11.9830   15.2339 H   0  0  0  0  0  0
   14.5334   -9.0012   18.5472 H   0  0  0  0  0  0
   14.9419  -12.8380   16.7337 H   0  0  0  0  0  0
   13.8743  -11.3514   18.3895 H   0  0  0  0  0  0
  1  2  1  0  0  0
  1  3  1  0  0  0
  1 10  1  0  0  0
  2  4  2  0  0  0
  3 11  1  0  0  0
  3 18  2  0  0  0
  4 13  1  0  0  0
  4 12  1  0  0  0
  5 10  1  0  0  0
  5  6  2  0  0  0
  5  9  1  0  0  0
  6  8  1  0  0  0
  7  9  1  0  0  0
  7 14  1  0  0  0
  7  8  2  0  0  0
  8 15  1  0  0  0
 10 28  1  0  0  0
 10 29  1  0  0  0
 11 12  1  0  0  0
 11 24  2  0  0  0
 12 25  2  0  0  0
 13 16  1  0  0  0
 13 30  1  0  0  0
 13 31  1  0  0  0
 14 17  2  0  0  0
 14 21  1  0  0  0
 15 19  2  0  0  0
 15 32  1  0  0  0
 16 20  2  0  0  0
 16 22  1  0  0  0
 17 19  1  0  0  0
 17 33  1  0  0  0
 19 23  1  0  0  0
 21 34  1  0  0  0
 22 35  1  0  0  0
 23 36  1  0  0  0
 24 26  1  0  0  0
 24 37  1  0  0  0
 25 27  1  0  0  0
 25 38  1  0  0  0
 26 27  2  0  0  0
 26 39  1  0  0  0
 27 40  1  0  0  0
M  END
> <s_m_entry_id>
6250

> <s_m_entry_name>
dock_pv.85

> <s_m_Source_Path>
/home/csk/Desktop/cluster/DUD-E-result/aldr

> <s_m_Source_File>
dock_pv.maegz

> <i_m_Source_File_Index>
85

> <chembl_id>
CHEMBL21136

> <chembl_pref_name>
None

> <i_lp_mmshare_version>
53161

> <i_f3d_flags>
0

> <r_lp_tautomer_probability>
1

> <s_lp_Force_Field>
OPLS_2005

> <r_lp_Energy>
25.081992

> <b_lp_Chiralities_Consistent>
1

> <s_lp_Variant>
CHEMBL1900_lig299-1

> <s_i_glide_gridfile>
glide-grid_2hv5

> <i_i_glide_lignum>
415

> <i_i_glide_rotatable_bonds>
7

> <r_i_docking_score>
-10.0795178598386

> <r_i_glide_ligand_efficiency>
-0.373315476290319

> <r_i_glide_ligand_efficiency_sa>
-1.11994642764057

> <r_i_glide_ligand_efficiency_ln>
-2.34634558393132

> <r_i_glide_gscore>
-10.0795178598386

> <r_i_glide_lipo>
-4.80694382321989

> <r_i_glide_hbond>
-0.32

> <r_i_glide_metal>
0

> <r_i_glide_rewards>
-2.34445559083955

> <r_i_glide_evdw>
-50.8509483337402

> <r_i_glide_ecoul>
-3.96262526512146

> <r_i_glide_erotb>
0.528822760676054

> <r_i_glide_esite>
0

> <r_i_glide_emodel>
-84.661290041761

> <r_i_glide_energy>
-54.8135735988617

> <r_i_glide_einternal>
5.70890760421753

> <i_i_glide_confnum>
16

> <i_i_glide_posenum>
200

> <r_i_glide_eff_state_penalty>
0

> <s_user_duplicate_titles>
CHEMBL1900_lig299,24391

> <s_m_subgroup_title>
dock_pv

> <s_m_subgroupid>
dock_pv

> <b_m_subgroup_collapsed>
1

$$$$
CHEMBL1900_lig189
                    3D
 Schrodinger Suite 2021-1.
 39 42  0  0  1  0            999 V2000
   17.9200   -8.2110   15.3699 N   0  0  0  0  0  0
   17.3755   -7.3665   16.3294 N   0  0  0  0  0  0
   17.6226   -9.5496   15.1817 C   0  0  0  0  0  0
   16.3637   -7.7403   17.0137 C   0  0  0  0  0  0
   17.9527   -6.7017   13.3609 C   0  0  0  0  0  0
   16.5282  -10.0243   16.1294 C   0  0  0  0  0  0
   16.2373   -6.9150   13.0674 S   0  0  0  0  0  0
   15.8968   -9.1370   17.0259 C   0  0  0  0  0  0
   15.6271   -6.6165   17.7506 C   0  0  0  0  0  0
   18.7524   -7.5224   14.3667 C   0  0  0  0  0  0
   18.4183   -5.6785   12.5743 C   0  0  0  0  0  0
   17.4996   -5.1476   11.6358 C   0  0  0  0  0  0
   16.2252   -5.7409   11.7812 C   0  0  0  0  0  0
   16.3586   -6.0533   18.9818 C   0  0  0  0  0  0
   18.1452  -10.2670   14.3234 O   0  0  0  0  0  0
   17.6766   -4.1580   10.6557 C   0  0  0  0  0  0
   15.7450   -5.5476   19.9142 O   0  0  0  0  0  0
   15.1397   -5.3738   10.9810 C   0  0  0  0  0  0
   16.5950   -3.7888    9.8619 C   0  0  0  0  0  0
   17.7171   -6.1149   18.9102 O   0  0  0  0  0  0
   15.3569   -4.4010   10.0131 C   0  0  0  0  0  0
   16.8022   -2.4042    8.5811 Br  0  0  0  0  0  0
   16.1423  -11.3716   16.0944 C   0  0  0  0  0  0
   14.9449   -9.6352   17.9231 C   0  0  0  0  0  0
   15.1599  -11.8414   16.9651 C   0  0  0  0  0  0
   14.5681  -10.9775   17.8837 C   0  0  0  0  0  0
   15.4767   -5.7789   17.0689 H   0  0  0  0  0  0
   14.6221   -6.9177   18.0414 H   0  0  0  0  0  0
   19.4823   -6.9019   14.8894 H   0  0  0  0  0  0
   19.3777   -8.2226   13.8082 H   0  0  0  0  0  0
   19.4185   -5.3216   12.6597 H   0  0  0  0  0  0
   18.6275   -3.6669   10.5322 H   0  0  0  0  0  0
   14.1675   -5.8310   11.1025 H   0  0  0  0  0  0
   17.9942   -6.4972   18.0711 H   0  0  0  0  0  0
   14.5451   -4.1150    9.3677 H   0  0  0  0  0  0
   16.6017  -12.0588   15.3977 H   0  0  0  0  0  0
   14.4794   -8.9960   18.6535 H   0  0  0  0  0  0
   14.8595  -12.8791   16.9343 H   0  0  0  0  0  0
   13.8143  -11.3488   18.5642 H   0  0  0  0  0  0
  1  2  1  0  0  0
  1  3  1  0  0  0
  1 10  1  0  0  0
  2  4  2  0  0  0
  3  6  1  0  0  0
  3 15  2  0  0  0
  4  9  1  0  0  0
  4  8  1  0  0  0
  5 10  1  0  0  0
  5  7  1  0  0  0
  5 11  2  0  0  0
  6  8  2  0  0  0
  6 23  1  0  0  0
  7 13  1  0  0  0
  8 24  1  0  0  0
  9 14  1  0  0  0
  9 27  1  0  0  0
  9 28  1  0  0  0
 10 29  1  0  0  0
 10 30  1  0  0  0
 11 12  1  0  0  0
 11 31  1  0  0  0
 12 16  1  0  0  0
 12 13  2  0  0  0
 13 18  1  0  0  0
 14 17  2  0  0  0
 14 20  1  0  0  0
 16 19  2  0  0  0
 16 32  1  0  0  0
 18 21  2  0  0  0
 18 33  1  0  0  0
 19 22  1  0  0  0
 19 21  1  0  0  0
 20 34  1  0  0  0
 21 35  1  0  0  0
 23 25  2  0  0  0
 23 36  1  0  0  0
 24 26  2  0  0  0
 24 37  1  0  0  0
 25 26  1  0  0  0
 25 38  1  0  0  0
 26 39  1  0  0  0
M  END
> <s_m_entry_id>
6251

> <s_m_entry_name>
dock_pv.86

> <s_m_Source_Path>
/home/csk/Desktop/cluster/DUD-E-result/aldr

> <s_m_Source_File>
dock_pv.maegz

> <i_m_Source_File_Index>
86

> <chembl_id>
CHEMBL422824

> <chembl_pref_name>
None

> <i_lp_mmshare_version>
53161

> <i_f3d_flags>
0

> <r_lp_tautomer_probability>
1

> <s_lp_Force_Field>
OPLS_2005

> <r_lp_Energy>
26.38013

> <b_lp_Chiralities_Consistent>
1

> <s_lp_Variant>
CHEMBL1900_lig189-1

> <s_i_glide_gridfile>
glide-grid_2hv5

> <i_i_glide_lignum>
265

> <i_i_glide_rotatable_bonds>
5

> <r_i_docking_score>
-10.0786329897383

> <r_i_glide_ligand_efficiency>
-0.387639730374548

> <r_i_glide_ligand_efficiency_sa>
-1.14838117594591

> <r_i_glide_ligand_efficiency_ln>
-2.36693388694782

> <r_i_glide_gscore>
-10.0786329897383

> <r_i_glide_lipo>
-5.2991885516045

> <r_i_glide_hbond>
-0.32

> <r_i_glide_metal>
0

> <r_i_glide_rewards>
-2.02330622460808

> <r_i_glide_evdw>
-47.2574310302734

> <r_i_glide_ecoul>
-3.36381483078003

> <r_i_glide_erotb>
0.431305562604998

> <r_i_glide_esite>
0

> <r_i_glide_emodel>
-77.1463551683444

> <r_i_glide_energy>
-50.6212458610535

> <r_i_glide_einternal>
5.72509145736694

> <i_i_glide_confnum>
28

> <i_i_glide_posenum>
260

> <r_i_glide_eff_state_penalty>
0

> <s_user_duplicate_titles>
CHEMBL1900_lig189

> <s_m_subgroup_title>
dock_pv

> <s_m_subgroupid>
dock_pv

> <b_m_subgroup_collapsed>
1

$$$$
CHEMBL1900_lig285
                    3D
 Schrodinger Suite 2021-1.
 41 44  0  0  1  0            999 V2000
   17.9497   -7.7547   14.9650 N   0  0  0  0  0  0
   17.3477   -6.9155   15.8945 N   0  0  0  0  0  0
   17.7452   -9.1169   14.8340 C   0  0  0  0  0  0
   16.6684   -9.6247   15.7888 C   0  0  0  0  0  0
   16.3876   -7.3360   16.6255 C   0  0  0  0  0  0
   17.9692   -6.2892   12.9184 C   0  0  0  0  0  0
   18.5424   -5.3848   12.1779 N   0  0  0  0  0  0
   15.9808   -8.7504   16.6529 C   0  0  0  0  0  0
   18.7779   -7.0555   13.9618 C   0  0  0  0  0  0
   16.2571   -6.5150   12.5812 S   0  0  0  0  0  0
   15.0066  -12.9843   16.6278 C   0  0  0  0  0  0
   15.7103   -6.2688   17.4907 C   0  0  0  0  0  0
   16.3487  -10.9901   15.7814 C   0  0  0  0  0  0
   15.3516  -11.4952   16.6275 C   0  0  0  0  0  0
   17.6966   -4.8178   11.2809 C   0  0  0  0  0  0
   16.3614   -5.2789   11.3466 C   0  0  0  0  0  0
   16.3866   -6.0311   18.8490 C   0  0  0  0  0  0
   14.9914   -9.2616   17.5035 C   0  0  0  0  0  0
   18.3344   -9.8347   14.0198 O   0  0  0  0  0  0
   14.6833  -10.6218   17.4905 C   0  0  0  0  0  0
   15.7450   -5.7149   19.8410 O   0  0  0  0  0  0
   14.6407  -13.3911   17.8464 F   0  0  0  0  0  0
   13.9982  -13.2020   15.7836 F   0  0  0  0  0  0
   16.0495  -13.7251   16.2460 F   0  0  0  0  0  0
   17.7442   -6.1150   18.8126 O   0  0  0  0  0  0
   18.0580   -3.8297   10.3515 C   0  0  0  0  0  0
   15.3676   -4.7480   10.5166 C   0  0  0  0  0  0
   17.0635   -3.3085    9.5221 C   0  0  0  0  0  0
   15.7462   -3.7560    9.6091 C   0  0  0  0  0  0
   19.4668   -6.3932   14.4905 H   0  0  0  0  0  0
   19.4493   -7.7379   13.4374 H   0  0  0  0  0  0
   15.7063   -5.3048   16.9806 H   0  0  0  0  0  0
   14.6606   -6.5149   17.6532 H   0  0  0  0  0  0
   16.8682  -11.6628   15.1117 H   0  0  0  0  0  0
   14.4502   -8.6221   18.1816 H   0  0  0  0  0  0
   13.9106  -10.9963   18.1487 H   0  0  0  0  0  0
   18.0658   -6.3029   17.9267 H   0  0  0  0  0  0
   19.0692   -3.4631   10.2944 H   0  0  0  0  0  0
   14.3415   -5.0822   10.5811 H   0  0  0  0  0  0
   17.3127   -2.5383    8.8075 H   0  0  0  0  0  0
   14.9975   -3.3245    8.9612 H   0  0  0  0  0  0
  1  2  1  0  0  0
  1  3  1  0  0  0
  1  9  1  0  0  0
  2  5  2  0  0  0
  3  4  1  0  0  0
  3 19  2  0  0  0
  4  8  1  0  0  0
  4 13  2  0  0  0
  5 12  1  0  0  0
  5  8  1  0  0  0
  6  9  1  0  0  0
  6  7  2  0  0  0
  6 10  1  0  0  0
  7 15  1  0  0  0
  8 18  2  0  0  0
  9 30  1  0  0  0
  9 31  1  0  0  0
 10 16  1  0  0  0
 11 14  1  0  0  0
 11 22  1  0  0  0
 11 23  1  0  0  0
 11 24  1  0  0  0
 12 17  1  0  0  0
 12 32  1  0  0  0
 12 33  1  0  0  0
 13 14  1  0  0  0
 13 34  1  0  0  0
 14 20  2  0  0  0
 15 26  1  0  0  0
 15 16  2  0  0  0
 16 27  1  0  0  0
 17 21  2  0  0  0
 17 25  1  0  0  0
 18 20  1  0  0  0
 18 35  1  0  0  0
 20 36  1  0  0  0
 25 37  1  0  0  0
 26 28  2  0  0  0
 26 38  1  0  0  0
 27 29  2  0  0  0
 27 39  1  0  0  0
 28 29  1  0  0  0
 28 40  1  0  0  0
 29 41  1  0  0  0
M  END
> <s_m_entry_id>
6252

> <s_m_entry_name>
dock_pv.87

> <s_m_Source_Path>
/home/csk/Desktop/cluster/DUD-E-result/aldr

> <s_m_Source_File>
dock_pv.maegz

> <i_m_Source_File_Index>
87

> <chembl_id>
CHEMBL20693

> <chembl_pref_name>
None

> <i_lp_mmshare_version>
53161

> <i_f3d_flags>
0

> <r_lp_tautomer_probability>
1

> <s_lp_Force_Field>
OPLS_2005

> <r_lp_Energy>
25.656961

> <b_lp_Chiralities_Consistent>
1

> <s_lp_Variant>
CHEMBL1900_lig285-1

> <s_i_glide_gridfile>
glide-grid_2hv5

> <i_i_glide_lignum>
400

> <i_i_glide_rotatable_bonds>
6

> <r_i_docking_score>
-10.0724325578541

> <r_i_glide_ligand_efficiency>
-0.347325260615657

> <r_i_glide_ligand_efficiency_sa>
-1.06709324097747

> <r_i_glide_ligand_efficiency_ln>
-2.30633164089671

> <r_i_glide_gscore>
-10.0724325578541

> <r_i_glide_lipo>
-4.89897747726696

> <r_i_glide_hbond>
-0.32

> <r_i_glide_metal>
0

> <r_i_glide_rewards>
-2.38508023445043

> <r_i_glide_evdw>
-51.1449890136719

> <r_i_glide_ecoul>
-2.40697908401489

> <r_i_glide_erotb>
0.449921467149157

> <r_i_glide_esite>
0

> <r_i_glide_emodel>
-80.0512439869358

> <r_i_glide_energy>
-53.5519680976868

> <r_i_glide_einternal>
5.2104549407959

> <i_i_glide_confnum>
16

> <i_i_glide_posenum>
248

> <r_i_glide_eff_state_penalty>
0

> <s_user_duplicate_titles>
CHEMBL1900_lig285,24152

> <s_m_subgroup_title>
dock_pv

> <s_m_subgroupid>
dock_pv

> <b_m_subgroup_collapsed>
1

$$$$
CHEMBL1900_lig155
                    3D
 Schrodinger Suite 2021-1.
 38 41  0  0  1  0            999 V2000
   17.5069   -8.2364   14.9507 N   0  0  0  0  0  0
   16.7852   -7.3161   15.7064 N   0  0  0  0  0  0
   17.4719   -9.6136   15.0757 C   0  0  0  0  0  0
   16.0424   -7.7052   16.6713 C   0  0  0  0  0  0
   17.8774   -6.6533   13.0412 C   0  0  0  0  0  0
   18.5450   -5.7142   12.4177 N   0  0  0  0  0  0
   17.6411   -5.1711   11.5584 C   0  0  0  0  0  0
   16.4044   -5.7949   11.7532 C   0  0  0  0  0  0
   18.4817   -7.6496   14.0106 C   0  0  0  0  0  0
   16.5156  -10.0637   16.1719 C   0  0  0  0  0  0
   16.5612   -6.7679   12.6931 O   0  0  0  0  0  0
   15.8244   -9.1313   16.9717 C   0  0  0  0  0  0
   15.4451   -6.5866   17.5365 C   0  0  0  0  0  0
   15.2599   -5.4261   11.0538 C   0  0  0  0  0  0
   17.7713   -4.1545   10.5987 C   0  0  0  0  0  0
   16.2586   -6.2405   18.7968 C   0  0  0  0  0  0
   15.4022   -4.4171   10.1000 C   0  0  0  0  0  0
   16.6320   -3.7904    9.8743 C   0  0  0  0  0  0
   18.1448  -10.3953   14.3960 O   0  0  0  0  0  0
   15.7453   -5.7151   19.7809 O   0  0  0  0  0  0
   13.7451   -6.1633   11.3810 Cl  0  0  0  0  0  0
   16.7413   -2.5311    8.7009 Cl  0  0  0  0  0  0
   17.5883   -6.5151   18.6997 O   0  0  0  0  0  0
   16.3341  -11.4374   16.3841 C   0  0  0  0  0  0
   14.9450   -9.5971   17.9564 C   0  0  0  0  0  0
   15.4499  -11.8841   17.3652 C   0  0  0  0  0  0
   14.7528  -10.9656   18.1465 C   0  0  0  0  0  0
   19.2482   -7.1555   14.6092 H   0  0  0  0  0  0
   19.0319   -8.3886   13.4255 H   0  0  0  0  0  0
   15.3633   -5.6627   16.9660 H   0  0  0  0  0  0
   14.4255   -6.8360   17.8264 H   0  0  0  0  0  0
   18.7141   -3.6564   10.4377 H   0  0  0  0  0  0
   14.5450   -4.1149    9.5227 H   0  0  0  0  0  0
   18.0427   -6.2968   19.5156 H   0  0  0  0  0  0
   16.8612  -12.1637   15.7802 H   0  0  0  0  0  0
   14.3917   -8.9152   18.5809 H   0  0  0  0  0  0
   15.2971  -12.9435   17.5137 H   0  0  0  0  0  0
   14.0594  -11.3153   18.8986 H   0  0  0  0  0  0
  1  2  1  0  0  0
  1  3  1  0  0  0
  1  9  1  0  0  0
  2  4  2  0  0  0
  3 10  1  0  0  0
  3 19  2  0  0  0
  4 13  1  0  0  0
  4 12  1  0  0  0
  5  9  1  0  0  0
  5  6  2  0  0  0
  5 11  1  0  0  0
  6  7  1  0  0  0
  7 15  1  0  0  0
  7  8  2  0  0  0
  8 11  1  0  0  0
  8 14  1  0  0  0
  9 28  1  0  0  0
  9 29  1  0  0  0
 10 12  2  0  0  0
 10 24  1  0  0  0
 12 25  1  0  0  0
 13 16  1  0  0  0
 13 30  1  0  0  0
 13 31  1  0  0  0
 14 17  2  0  0  0
 14 21  1  0  0  0
 15 18  2  0  0  0
 15 32  1  0  0  0
 16 20  2  0  0  0
 16 23  1  0  0  0
 17 18  1  0  0  0
 17 33  1  0  0  0
 18 22  1  0  0  0
 23 34  1  0  0  0
 24 26  2  0  0  0
 24 35  1  0  0  0
 25 27  2  0  0  0
 25 36  1  0  0  0
 26 27  1  0  0  0
 26 37  1  0  0  0
 27 38  1  0  0  0
M  END
> <s_m_entry_id>
6253

> <s_m_entry_name>
dock_pv.88

> <s_m_Source_Path>
/home/csk/Desktop/cluster/DUD-E-result/aldr

> <s_m_Source_File>
dock_pv.maegz

> <i_m_Source_File_Index>
88

> <chembl_id>
CHEMBL142790

> <chembl_pref_name>
None

> <i_lp_mmshare_version>
53161

> <i_f3d_flags>
0

> <r_lp_tautomer_probability>
1

> <s_lp_Force_Field>
OPLS_2005

> <r_lp_Energy>
26.453625

> <b_lp_Chiralities_Consistent>
1

> <s_lp_Variant>
CHEMBL1900_lig155-1

> <s_i_glide_gridfile>
glide-grid_2hv5

> <i_i_glide_lignum>
231

> <i_i_glide_rotatable_bonds>
5

> <r_i_docking_score>
-10.065913677347

> <r_i_glide_ligand_efficiency>
-0.372811617679519

> <r_i_glide_ligand_efficiency_sa>
-1.11843485180983

> <r_i_glide_ligand_efficiency_ln>
-2.34317875452975

> <r_i_glide_gscore>
-10.065913677347

> <r_i_glide_lipo>
-4.78430800231161

> <r_i_glide_hbond>
-0.32

> <r_i_glide_metal>
0

> <r_i_glide_rewards>
-2.24561416905757

> <r_i_glide_evdw>
-52.7637062072754

> <r_i_glide_ecoul>
-3.72445893287659

> <r_i_glide_erotb>
0.480862644317435

> <r_i_glide_esite>
0

> <r_i_glide_emodel>
-84.0588429340784

> <r_i_glide_energy>
-56.488165140152

> <r_i_glide_einternal>
4.48629951477051

> <i_i_glide_confnum>
20

> <i_i_glide_posenum>
359

> <r_i_glide_eff_state_penalty>
0

> <s_user_duplicate_titles>
CHEMBL1900_lig155,236426

> <s_m_subgroup_title>
dock_pv

> <s_m_subgroupid>
dock_pv

> <b_m_subgroup_collapsed>
1

$$$$
CHEMBL1900_lig296
                    3D
 Schrodinger Suite 2021-1.
 38 41  0  0  1  0            999 V2000
   17.9558   -7.7515   14.9710 N   0  0  0  0  0  0
   17.3560   -6.9153   15.9055 N   0  0  0  0  0  0
   17.7451   -9.1108   14.8324 C   0  0  0  0  0  0
   16.3942   -7.3370   16.6336 C   0  0  0  0  0  0
   16.6732   -9.6228   15.7901 C   0  0  0  0  0  0
   17.9706   -6.2858   12.9195 C   0  0  0  0  0  0
   18.5448   -5.3804   12.1801 N   0  0  0  0  0  0
   15.9846   -8.7497   16.6590 C   0  0  0  0  0  0
   18.7811   -7.0483   13.9664 C   0  0  0  0  0  0
   16.2604   -6.5151   12.5813 S   0  0  0  0  0  0
   15.7137   -6.2691   17.4931 C   0  0  0  0  0  0
   17.6990   -4.8136   11.2839 C   0  0  0  0  0  0
   16.3648   -5.2786   11.3460 C   0  0  0  0  0  0
   16.3885   -6.0256   18.8505 C   0  0  0  0  0  0
   15.0031   -9.2635   17.5170 C   0  0  0  0  0  0
   16.3512  -10.9870   15.7808 C   0  0  0  0  0  0
   18.3263   -9.8258   14.0092 O   0  0  0  0  0  0
   15.7452   -5.7151   19.8440 O   0  0  0  0  0  0
   15.3628  -11.4817   16.6312 C   0  0  0  0  0  0
   14.6965  -10.6231   17.5020 C   0  0  0  0  0  0
   17.7450   -6.1149   18.8191 O   0  0  0  0  0  0
   14.9645  -13.1603   16.6062 Cl  0  0  0  0  0  0
   18.0576   -3.8210   10.3579 C   0  0  0  0  0  0
   15.3697   -4.7487   10.5164 C   0  0  0  0  0  0
   15.7470   -3.7582    9.6087 C   0  0  0  0  0  0
   17.0635   -3.3042    9.5260 C   0  0  0  0  0  0
   19.4662   -6.3828   14.4955 H   0  0  0  0  0  0
   19.4559   -7.7281   13.4424 H   0  0  0  0  0  0
   15.7087   -5.3072   16.9802 H   0  0  0  0  0  0
   14.6660   -6.5148   17.6556 H   0  0  0  0  0  0
   14.4646   -8.6266   18.2001 H   0  0  0  0  0  0
   16.8581  -11.6666   15.1092 H   0  0  0  0  0  0
   13.9326  -11.0114   18.1597 H   0  0  0  0  0  0
   18.0643   -6.3032   17.9318 H   0  0  0  0  0  0
   19.0681   -3.4507   10.3062 H   0  0  0  0  0  0
   14.3442   -5.0861   10.5801 H   0  0  0  0  0  0
   14.9984   -3.3300    8.9588 H   0  0  0  0  0  0
   17.3109   -2.5314    8.8126 H   0  0  0  0  0  0
  1  2  1  0  0  0
  1  3  1  0  0  0
  1  9  1  0  0  0
  2  4  2  0  0  0
  3  5  1  0  0  0
  3 17  2  0  0  0
  4 11  1  0  0  0
  4  8  1  0  0  0
  5  8  1  0  0  0
  5 16  2  0  0  0
  6  9  1  0  0  0
  6  7  2  0  0  0
  6 10  1  0  0  0
  7 12  1  0  0  0
  8 15  2  0  0  0
  9 27  1  0  0  0
  9 28  1  0  0  0
 10 13  1  0  0  0
 11 14  1  0  0  0
 11 29  1  0  0  0
 11 30  1  0  0  0
 12 23  1  0  0  0
 12 13  2  0  0  0
 13 24  1  0  0  0
 14 18  2  0  0  0
 14 21  1  0  0  0
 15 20  1  0  0  0
 15 31  1  0  0  0
 16 19  1  0  0  0
 16 32  1  0  0  0
 19 20  2  0  0  0
 19 22  1  0  0  0
 20 33  1  0  0  0
 21 34  1  0  0  0
 23 26  2  0  0  0
 23 35  1  0  0  0
 24 25  2  0  0  0
 24 36  1  0  0  0
 25 26  1  0  0  0
 25 37  1  0  0  0
 26 38  1  0  0  0
M  END
> <s_m_entry_id>
6254

> <s_m_entry_name>
dock_pv.89

> <s_m_Source_Path>
/home/csk/Desktop/cluster/DUD-E-result/aldr

> <s_m_Source_File>
dock_pv.maegz

> <i_m_Source_File_Index>
89

> <chembl_id>
CHEMBL20796

> <chembl_pref_name>
None

> <i_lp_mmshare_version>
53161

> <i_f3d_flags>
0

> <r_lp_tautomer_probability>
1

> <s_lp_Force_Field>
OPLS_2005

> <r_lp_Energy>
26.282967

> <b_lp_Chiralities_Consistent>
1

> <s_lp_Variant>
CHEMBL1900_lig296-1

> <s_i_glide_gridfile>
glide-grid_2hv5

> <i_i_glide_lignum>
412

> <i_i_glide_rotatable_bonds>
5

> <r_i_docking_score>
-10.0647212317972

> <r_i_glide_ligand_efficiency>
-0.387104662761431

> <r_i_glide_ligand_efficiency_sa>
-1.14679604024744

> <r_i_glide_ligand_efficiency_ln>
-2.36366675624357

> <r_i_glide_gscore>
-10.0647212317972

> <r_i_glide_lipo>
-4.90552679228728

> <r_i_glide_hbond>
-0.32

> <r_i_glide_metal>
0

> <r_i_glide_rewards>
-2.41635157092213

> <r_i_glide_evdw>
-50.0336265563965

> <r_i_glide_ecoul>
-2.95990824699402

> <r_i_glide_erotb>
0.522824696281137

> <r_i_glide_esite>
0

> <r_i_glide_emodel>
-80.5362822088188

> <r_i_glide_energy>
-52.9935348033905

> <r_i_glide_einternal>
4.51327657699585

> <i_i_glide_confnum>
38

> <i_i_glide_posenum>
283

> <r_i_glide_eff_state_penalty>
0

> <s_user_duplicate_titles>
CHEMBL1900_lig296,24317

> <s_m_subgroup_title>
dock_pv

> <s_m_subgroupid>
dock_pv

> <b_m_subgroup_collapsed>
1

$$$$
CHEMBL1900_lig536
                    3D
 Schrodinger Suite 2021-1.
 44 45  0  0  1  0            999 V2000
   15.9272   -4.3833   10.1710 C   0  0  0  0  0  0
   17.1824   -4.7648   10.6480 C   0  0  0  0  0  0
   17.2871   -5.6180   11.7535 C   0  0  0  0  0  0
   16.1224   -6.1176   12.3662 C   0  0  0  0  0  0
   14.8795   -5.7502   11.8389 C   0  0  0  0  0  0
   14.7793   -4.8884   10.7583 C   0  0  0  0  0  0
   16.1451   -6.9903   13.5638 C   0  0  0  0  0  0
   17.0759   -7.9218   13.8710 C   0  0  0  0  0  0
   17.1305   -8.6445   15.1373 C   0  0  0  0  0  0
   16.4900   -8.0168   16.1523 O   0  0  0  0  0  0
   17.7429   -9.7076   15.2503 O   0  0  0  0  0  0
   16.4969   -8.5513   17.4710 C   0  0  0  0  0  0
   16.1009   -7.4516   18.4673 C   0  0  0  0  0  0
   17.1379   -6.3136   18.5631 C   0  0  0  0  0  0
   16.6581   -5.1361   19.3980 C   0  0  0  0  0  0
   16.6377   -5.2062   20.7947 C   0  0  0  0  0  0
   16.2157   -4.1146   21.5566 C   0  0  0  0  0  0
   15.7470   -2.9675   20.9217 C   0  0  0  0  0  0
   15.7449   -2.9080   19.5338 C   0  0  0  0  0  0
   16.2221   -3.9687   18.7706 C   0  0  0  0  0  0
   15.7878   -3.5043    9.1340 O   0  0  0  0  0  0
   18.5448   -5.9674   12.1798 O   0  0  0  0  0  0
   18.9698   -5.5271   13.4597 C   0  0  0  0  0  0
   15.2429   -1.8009   18.9170 O   0  0  0  0  0  0
   18.0750   -4.3791   10.1783 H   0  0  0  0  0  0
   13.9618   -6.1146   12.2723 H   0  0  0  0  0  0
   13.8017   -4.6076   10.3962 H   0  0  0  0  0  0
   15.3450   -6.8045   14.2679 H   0  0  0  0  0  0
   17.8620   -8.1619   13.1714 H   0  0  0  0  0  0
   15.7913   -9.3822   17.5243 H   0  0  0  0  0  0
   17.4803   -8.9439   17.7336 H   0  0  0  0  0  0
   15.1282   -7.0506   18.1808 H   0  0  0  0  0  0
   15.9721   -7.9035   19.4504 H   0  0  0  0  0  0
   18.0737   -6.6893   18.9794 H   0  0  0  0  0  0
   17.3943   -5.9566   17.5648 H   0  0  0  0  0  0
   16.9448   -6.1101   21.2946 H   0  0  0  0  0  0
   16.2136   -4.1709   22.6360 H   0  0  0  0  0  0
   15.4004   -2.1204   21.4974 H   0  0  0  0  0  0
   16.2205   -3.8919   17.6927 H   0  0  0  0  0  0
   14.8538   -3.3146    8.9766 H   0  0  0  0  0  0
   19.8017   -6.1488   13.7834 H   0  0  0  0  0  0
   19.3394   -4.5151   13.3990 H   0  0  0  0  0  0
   18.2114   -5.5671   14.2359 H   0  0  0  0  0  0
   14.8353   -1.1705   19.5159 H   0  0  0  0  0  0
  1  6  1  0  0  0
  1  2  2  0  0  0
  1 21  1  0  0  0
  2  3  1  0  0  0
  2 25  1  0  0  0
  3  4  2  0  0  0
  3 22  1  0  0  0
  4  7  1  0  0  0
  4  5  1  0  0  0
  5  6  2  0  0  0
  5 26  1  0  0  0
  6 27  1  0  0  0
  7  8  2  0  0  0
  7 28  1  0  0  0
  8  9  1  0  0  0
  8 29  1  0  0  0
  9 10  1  0  0  0
  9 11  2  0  0  0
 10 12  1  0  0  0
 12 13  1  0  0  0
 12 30  1  0  0  0
 12 31  1  0  0  0
 13 14  1  0  0  0
 13 32  1  0  0  0
 13 33  1  0  0  0
 14 15  1  0  0  0
 14 34  1  0  0  0
 14 35  1  0  0  0
 15 16  2  0  0  0
 15 20  1  0  0  0
 16 17  1  0  0  0
 16 36  1  0  0  0
 17 18  2  0  0  0
 17 37  1  0  0  0
 18 19  1  0  0  0
 18 38  1  0  0  0
 19 20  2  0  0  0
 19 24  1  0  0  0
 20 39  1  0  0  0
 21 40  1  0  0  0
 22 23  1  0  0  0
 23 41  1  0  0  0
 23 42  1  0  0  0
 23 43  1  0  0  0
 24 44  1  0  0  0
M  END
> <s_m_entry_id>
6255

> <s_m_entry_name>
dock_pv.90

> <s_m_Source_Path>
/home/csk/Desktop/cluster/DUD-E-result/aldr

> <s_m_Source_File>
dock_pv.maegz

> <i_m_Source_File_Index>
90

> <chembl_id>
CHEMBL1940400

> <chembl_pref_name>
None

> <i_lp_mmshare_version>
53161

> <i_f3d_flags>
0

> <r_lp_tautomer_probability>
0.999999999997365

> <s_lp_Force_Field>
OPLS_2005

> <r_lp_Energy>
17.578107

> <b_lp_Chiralities_Consistent>
1

> <s_lp_Variant>
CHEMBL1900_lig536-1

> <s_i_glide_gridfile>
glide-grid_2hv5

> <i_i_glide_lignum>
659

> <i_i_glide_rotatable_bonds>
10

> <r_i_docking_score>
-10.0543923703701

> <r_i_glide_ligand_efficiency>
-0.418933015432086

> <r_i_glide_ligand_efficiency_sa>
-1.20841192170889

> <r_i_glide_ligand_efficiency_ln>
-2.40647746023242

> <r_i_glide_gscore>
-10.0543923703701

> <r_i_glide_lipo>
-4.95194775428566

> <r_i_glide_hbond>
-0.581472323093617

> <r_i_glide_metal>
0

> <r_i_glide_rewards>
-2.35602306933727

> <r_i_glide_evdw>
-40.0271415710449

> <r_i_glide_ecoul>
-9.21921539306641

> <r_i_glide_erotb>
1.21929016385869

> <r_i_glide_esite>
0

> <r_i_glide_emodel>
-73.9641720985488

> <r_i_glide_energy>
-49.2463569641113

> <r_i_glide_einternal>
10.3100614547729

> <i_i_glide_confnum>
115

> <i_i_glide_posenum>
262

> <r_i_glide_eff_state_penalty>
0

> <s_user_duplicate_titles>
CHEMBL1900_lig536

> <s_m_subgroup_title>
dock_pv

> <s_m_subgroupid>
dock_pv

> <b_m_subgroup_collapsed>
1

$$$$
CHEMBL1900_lig48
                    3D
 Schrodinger Suite 2021-1.
 38 41  0  0  1  0            999 V2000
   17.9509   -7.7550   14.9746 N   0  0  0  0  0  0
   17.3486   -6.9160   15.9050 N   0  0  0  0  0  0
   17.7450   -9.1163   14.8396 C   0  0  0  0  0  0
   16.3871   -7.3379   16.6319 C   0  0  0  0  0  0
   17.9667   -6.2990   12.9237 C   0  0  0  0  0  0
   18.5450   -5.4016   12.1788 N   0  0  0  0  0  0
   18.7776   -7.0568   13.9704 C   0  0  0  0  0  0
   16.6710   -9.6258   15.7956 C   0  0  0  0  0  0
   16.2522   -6.5152   12.5962 S   0  0  0  0  0  0
   15.9786   -8.7517   16.6605 C   0  0  0  0  0  0
   15.7087   -6.2694   17.4939 C   0  0  0  0  0  0
   17.6964   -4.8195   11.2968 C   0  0  0  0  0  0
   16.3560   -5.2643   11.3767 C   0  0  0  0  0  0
   16.3864   -6.0266   18.8488 C   0  0  0  0  0  0
   18.3313   -9.8300   14.0196 O   0  0  0  0  0  0
   15.7451   -5.7146   19.8429 O   0  0  0  0  0  0
   17.7430   -6.1149   18.8156 O   0  0  0  0  0  0
   16.3579  -10.9917   15.7907 C   0  0  0  0  0  0
   14.9934   -9.2655   17.5164 C   0  0  0  0  0  0
   18.0610   -3.8279   10.3719 C   0  0  0  0  0  0
   15.3594   -4.7090   10.5684 C   0  0  0  0  0  0
   15.3717  -11.4882   16.6430 C   0  0  0  0  0  0
   14.6938  -10.6274   17.5050 C   0  0  0  0  0  0
   17.0657   -3.2896    9.5572 C   0  0  0  0  0  0
   15.7451   -3.7223    9.6580 C   0  0  0  0  0  0
   19.4602   -6.3890   14.4985 H   0  0  0  0  0  0
   19.4546   -7.7379   13.4499 H   0  0  0  0  0  0
   15.7031   -5.3087   16.9793 H   0  0  0  0  0  0
   14.6592   -6.5151   17.6568 H   0  0  0  0  0  0
   18.0611   -6.3055   17.9284 H   0  0  0  0  0  0
   16.8710  -11.6723   15.1242 H   0  0  0  0  0  0
   14.4507   -8.6275   18.1948 H   0  0  0  0  0  0
   19.0768   -3.4747   10.3066 H   0  0  0  0  0  0
   14.3296   -5.0307   10.6408 H   0  0  0  0  0  0
   15.1292  -12.5412   16.6358 H   0  0  0  0  0  0
   13.9279  -11.0165   18.1620 H   0  0  0  0  0  0
   17.3151   -2.5176    8.8433 H   0  0  0  0  0  0
   14.9961   -3.2779    9.0200 H   0  0  0  0  0  0
  1  2  1  0  0  0
  1  3  1  0  0  0
  1  7  1  0  0  0
  2  4  2  0  0  0
  3  8  1  0  0  0
  3 15  2  0  0  0
  4 11  1  0  0  0
  4 10  1  0  0  0
  5  7  1  0  0  0
  5  6  2  0  0  0
  5  9  1  0  0  0
  6 12  1  0  0  0
  7 26  1  0  0  0
  7 27  1  0  0  0
  8 10  1  0  0  0
  8 18  2  0  0  0
  9 13  1  0  0  0
 10 19  2  0  0  0
 11 14  1  0  0  0
 11 28  1  0  0  0
 11 29  1  0  0  0
 12 20  1  0  0  0
 12 13  2  0  0  0
 13 21  1  0  0  0
 14 16  2  0  0  0
 14 17  1  0  0  0
 17 30  1  0  0  0
 18 22  1  0  0  0
 18 31  1  0  0  0
 19 23  1  0  0  0
 19 32  1  0  0  0
 20 24  2  0  0  0
 20 33  1  0  0  0
 21 25  2  0  0  0
 21 34  1  0  0  0
 22 23  2  0  0  0
 22 35  1  0  0  0
 23 36  1  0  0  0
 24 25  1  0  0  0
 24 37  1  0  0  0
 25 38  1  0  0  0
M  END
> <s_m_entry_id>
6256

> <s_m_entry_name>
dock_pv.91

> <s_m_Source_Path>
/home/csk/Desktop/cluster/DUD-E-result/aldr

> <s_m_Source_File>
dock_pv.maegz

> <i_m_Source_File_Index>
91

> <chembl_id>
CHEMBL21091

> <chembl_pref_name>
None

> <i_lp_mmshare_version>
53161

> <i_f3d_flags>
0

> <r_lp_tautomer_probability>
1

> <s_lp_Force_Field>
OPLS_2005

> <r_lp_Energy>
25.740775

> <b_lp_Chiralities_Consistent>
1

> <s_lp_Variant>
CHEMBL1900_lig48-1

> <s_i_glide_gridfile>
glide-grid_2hv5

> <i_i_glide_lignum>
83

> <i_i_glide_rotatable_bonds>
5

> <r_i_docking_score>
-10.0409976219194

> <r_i_glide_ligand_efficiency>
-0.401639904876776

> <r_i_glide_ligand_efficiency_sa>
-1.17440220497374

> <r_i_glide_ligand_efficiency_ln>
-2.38001734081213

> <r_i_glide_gscore>
-10.0409976219194

> <r_i_glide_lipo>
-4.78453293659096

> <r_i_glide_hbond>
-0.32

> <r_i_glide_metal>
0

> <r_i_glide_rewards>
-2.65071387176979

> <r_i_glide_evdw>
-49.045539855957

> <r_i_glide_ecoul>
-3.00904750823975

> <r_i_glide_erotb>
0.61788330547517

> <r_i_glide_esite>
0

> <r_i_glide_emodel>
-79.4455855728967

> <r_i_glide_energy>
-52.0545873641968

> <r_i_glide_einternal>
4.97562599182129

> <i_i_glide_confnum>
14

> <i_i_glide_posenum>
194

> <r_i_glide_eff_state_penalty>
0

> <s_user_duplicate_titles>
CHEMBL1900_lig48,24364

> <s_m_subgroup_title>
dock_pv

> <s_m_subgroupid>
dock_pv

> <b_m_subgroup_collapsed>
1

$$$$
CHEMBL1900_lig378
                    3D
 Schrodinger Suite 2021-1.
 40 43  0  0  1  0            999 V2000
   16.9797   -8.4049   17.2333 N   0  0  0  0  0  0
   18.1434   -8.4146   15.2811 C   0  0  0  0  0  0
   18.5448   -5.9407   12.5810 N   0  0  0  0  0  0
   18.0387   -6.8803   13.3261 C   0  0  0  0  0  0
   17.7523   -7.6800   16.3674 C   0  0  0  0  0  0
   17.5934   -9.7256   15.4994 C   0  0  0  0  0  0
   16.8403   -9.6855   16.7212 C   0  0  0  0  0  0
   16.2869   -6.9170   13.3369 S   0  0  0  0  0  0
   16.8915   -2.5284    9.3671 C   0  0  0  0  0  0
   17.5937   -5.3292   11.8266 C   0  0  0  0  0  0
   16.2758   -5.7984   12.0240 C   0  0  0  0  0  0
   16.7317   -3.7679   10.2207 C   0  0  0  0  0  0
   18.9022   -7.8697   14.0927 C   0  0  0  0  0  0
   16.4755   -7.8670   18.4915 C   0  0  0  0  0  0
   17.8268   -4.3034   10.9100 C   0  0  0  0  0  0
   16.1354  -10.8011   17.1955 C   0  0  0  0  0  0
   15.7845   -6.5130   18.3548 C   0  0  0  0  0  0
   17.6401  -10.9293   14.7788 C   0  0  0  0  0  0
   15.1975   -5.3400   11.2707 C   0  0  0  0  0  0
   15.4598   -4.3301   10.3579 C   0  0  0  0  0  0
   15.3450   -6.0852   17.2905 O   0  0  0  0  0  0
   18.1448   -2.0830    9.3810 F   0  0  0  0  0  0
   16.5450   -2.8417    8.1374 F   0  0  0  0  0  0
   16.0833   -1.5578    9.7809 F   0  0  0  0  0  0
   16.9540  -12.0396   15.2637 C   0  0  0  0  0  0
   16.2143  -11.9707   16.4409 C   0  0  0  0  0  0
   15.7451   -5.8536   19.5493 O   0  0  0  0  0  0
   17.0115  -13.5208   14.3810 Cl  0  0  0  0  0  0
   17.9617   -6.6423   16.5813 H   0  0  0  0  0  0
   19.8267   -7.3888   14.4161 H   0  0  0  0  0  0
   19.2143   -8.6771   13.4303 H   0  0  0  0  0  0
   15.8022   -8.5825   18.9628 H   0  0  0  0  0  0
   17.3455   -7.7139   19.1230 H   0  0  0  0  0  0
   18.8193   -3.9013   10.7866 H   0  0  0  0  0  0
   15.5396  -10.7665   18.0954 H   0  0  0  0  0  0
   18.1926  -10.9966   13.8538 H   0  0  0  0  0  0
   14.1943   -5.7167   11.4216 H   0  0  0  0  0  0
   14.6406   -3.9435    9.7837 H   0  0  0  0  0  0
   15.6807  -12.8494   16.7762 H   0  0  0  0  0  0
   16.2207   -6.3236   20.2384 H   0  0  0  0  0  0
  1  5  1  0  0  0
  1  7  1  0  0  0
  1 14  1  0  0  0
  2  5  2  0  0  0
  2 13  1  0  0  0
  2  6  1  0  0  0
  3  4  2  0  0  0
  3 10  1  0  0  0
  4 13  1  0  0  0
  4  8  1  0  0  0
  5 29  1  0  0  0
  6  7  2  0  0  0
  6 18  1  0  0  0
  7 16  1  0  0  0
  8 11  1  0  0  0
  9 12  1  0  0  0
  9 22  1  0  0  0
  9 23  1  0  0  0
  9 24  1  0  0  0
 10 15  1  0  0  0
 10 11  2  0  0  0
 11 19  1  0  0  0
 12 15  2  0  0  0
 12 20  1  0  0  0
 13 30  1  0  0  0
 13 31  1  0  0  0
 14 17  1  0  0  0
 14 32  1  0  0  0
 14 33  1  0  0  0
 15 34  1  0  0  0
 16 26  2  0  0  0
 16 35  1  0  0  0
 17 21  2  0  0  0
 17 27  1  0  0  0
 18 25  2  0  0  0
 18 36  1  0  0  0
 19 20  2  0  0  0
 19 37  1  0  0  0
 20 38  1  0  0  0
 25 26  1  0  0  0
 25 28  1  0  0  0
 26 39  1  0  0  0
 27 40  1  0  0  0
M  END
> <s_m_entry_id>
6257

> <s_m_entry_name>
dock_pv.92

> <s_m_Source_Path>
/home/csk/Desktop/cluster/DUD-E-result/aldr

> <s_m_Source_File>
dock_pv.maegz

> <i_m_Source_File_Index>
92

> <chembl_id>
CHEMBL371122

> <chembl_pref_name>
None

> <i_lp_mmshare_version>
53161

> <i_f3d_flags>
0

> <r_lp_tautomer_probability>
1

> <s_lp_Force_Field>
OPLS_2005

> <r_lp_Energy>
11.278758

> <b_lp_Chiralities_Consistent>
1

> <s_lp_Variant>
CHEMBL1900_lig378-1

> <s_i_glide_gridfile>
glide-grid_2hv5

> <i_i_glide_lignum>
499

> <i_i_glide_rotatable_bonds>
6

> <r_i_docking_score>
-10.0289787998028

> <r_i_glide_ligand_efficiency>
-0.358177814278673

> <r_i_glide_ligand_efficiency_sa>
-1.08763879960107

> <r_i_glide_ligand_efficiency_ln>
-2.3149827706073

> <r_i_glide_gscore>
-10.0289787998028

> <r_i_glide_lipo>
-4.57398768537103

> <r_i_glide_hbond>
-0.148266644519848

> <r_i_glide_metal>
0

> <r_i_glide_rewards>
-2.93570909878812

> <r_i_glide_evdw>
-38.7701568603516

> <r_i_glide_ecoul>
-5.81367492675781

> <r_i_glide_erotb>
0.439543710907405

> <r_i_glide_esite>
0

> <r_i_glide_emodel>
-62.1042172451878

> <r_i_glide_energy>
-44.5838317871094

> <r_i_glide_einternal>
3.86393880844116

> <i_i_glide_confnum>
6

> <i_i_glide_posenum>
247

> <r_i_glide_eff_state_penalty>
0

> <s_user_duplicate_titles>
CHEMBL1900_lig378,321414

> <s_m_subgroup_title>
dock_pv

> <s_m_subgroupid>
dock_pv

> <b_m_subgroup_collapsed>
1

$$$$
CHEMBL1900_lig383
                    3D
 Schrodinger Suite 2021-1.
 37 40  0  0  1  0            999 V2000
   16.8344   -7.7137   17.7223 N   0  0  0  0  0  0
   17.3227   -8.4209   15.6220 C   0  0  0  0  0  0
   17.4456   -7.2902   13.4219 C   0  0  0  0  0  0
   16.2300   -7.1354   12.9790 N   0  0  0  0  0  0
   17.5546   -7.4609   16.5805 C   0  0  0  0  0  0
   18.5450   -6.0258   12.9807 S   0  0  0  0  0  0
   16.0740   -8.8574   17.5090 C   0  0  0  0  0  0
   16.4151   -9.3522   16.2166 C   0  0  0  0  0  0
   17.3422   -5.4084   11.8670 C   0  0  0  0  0  0
   16.1366   -6.1149   12.0901 C   0  0  0  0  0  0
   17.8886   -8.4865   14.2303 C   0  0  0  0  0  0
   16.9196   -6.9142   18.9476 C   0  0  0  0  0  0
   17.4265   -4.3937   10.9037 C   0  0  0  0  0  0
   16.5059   -5.4460   18.8267 C   0  0  0  0  0  0
   16.1450   -4.9141   17.7811 O   0  0  0  0  0  0
   14.9800   -5.7693   11.3806 C   0  0  0  0  0  0
   16.2739   -4.0880   10.1802 C   0  0  0  0  0  0
   16.5854   -4.8139   20.0322 O   0  0  0  0  0  0
   15.0732   -4.7547   10.4282 C   0  0  0  0  0  0
   16.3217   -3.1221    9.2352 F   0  0  0  0  0  0
   15.1554   -9.5297   18.3225 C   0  0  0  0  0  0
   15.8537  -10.5617   15.7816 C   0  0  0  0  0  0
   14.9455  -11.2280   16.5980 C   0  0  0  0  0  0
   14.6004  -10.7160   17.8416 C   0  0  0  0  0  0
   18.1907   -6.5890   16.5350 H   0  0  0  0  0  0
   18.9774   -8.5362   14.2763 H   0  0  0  0  0  0
   17.5903   -9.4045   13.7243 H   0  0  0  0  0  0
   16.3377   -7.3976   19.7315 H   0  0  0  0  0  0
   17.9650   -6.9183   19.2468 H   0  0  0  0  0  0
   18.3446   -3.8546   10.7287 H   0  0  0  0  0  0
   14.0482   -6.2910   11.5427 H   0  0  0  0  0  0
   16.9427   -5.3684   20.7279 H   0  0  0  0  0  0
   14.1957   -4.5099    9.8483 H   0  0  0  0  0  0
   14.9436   -9.1949   19.3231 H   0  0  0  0  0  0
   16.1285  -10.9724   14.8220 H   0  0  0  0  0  0
   14.5038  -12.1560   16.2645 H   0  0  0  0  0  0
   13.8989  -11.2646   18.4561 H   0  0  0  0  0  0
  1  5  1  0  0  0
  1  7  1  0  0  0
  1 12  1  0  0  0
  2  5  2  0  0  0
  2 11  1  0  0  0
  2  8  1  0  0  0
  3 11  1  0  0  0
  3  4  2  0  0  0
  3  6  1  0  0  0
  4 10  1  0  0  0
  5 25  1  0  0  0
  6  9  1  0  0  0
  7  8  2  0  0  0
  7 21  1  0  0  0
  8 22  1  0  0  0
  9 13  1  0  0  0
  9 10  2  0  0  0
 10 16  1  0  0  0
 11 26  1  0  0  0
 11 27  1  0  0  0
 12 14  1  0  0  0
 12 28  1  0  0  0
 12 29  1  0  0  0
 13 17  2  0  0  0
 13 30  1  0  0  0
 14 15  2  0  0  0
 14 18  1  0  0  0
 16 19  2  0  0  0
 16 31  1  0  0  0
 17 20  1  0  0  0
 17 19  1  0  0  0
 18 32  1  0  0  0
 19 33  1  0  0  0
 21 24  2  0  0  0
 21 34  1  0  0  0
 22 23  2  0  0  0
 22 35  1  0  0  0
 23 24  1  0  0  0
 23 36  1  0  0  0
 24 37  1  0  0  0
M  END
> <s_m_entry_id>
6258

> <s_m_entry_name>
dock_pv.93

> <s_m_Source_Path>
/home/csk/Desktop/cluster/DUD-E-result/aldr

> <s_m_Source_File>
dock_pv.maegz

> <i_m_Source_File_Index>
93

> <chembl_id>
CHEMBL193570

> <chembl_pref_name>
None

> <i_lp_mmshare_version>
53161

> <i_f3d_flags>
0

> <r_lp_tautomer_probability>
1

> <s_lp_Force_Field>
OPLS_2005

> <r_lp_Energy>
12.76327

> <b_lp_Chiralities_Consistent>
1

> <s_lp_Variant>
CHEMBL1900_lig383-1

> <s_i_glide_gridfile>
glide-grid_2hv5

> <i_i_glide_lignum>
504

> <i_i_glide_rotatable_bonds>
5

> <r_i_docking_score>
-10.0192518653599

> <r_i_glide_ligand_efficiency>
-0.41746882772333

> <r_i_glide_ligand_efficiency_sa>
-1.20418847352576

> <r_i_glide_ligand_efficiency_ln>
-2.39806672489079

> <r_i_glide_gscore>
-10.0192518653599

> <r_i_glide_lipo>
-4.85814059862531

> <r_i_glide_hbond>
0

> <r_i_glide_metal>
0

> <r_i_glide_rewards>
-3.25019445541308

> <r_i_glide_evdw>
-40.9495010375977

> <r_i_glide_ecoul>
-3.44834542274475

> <r_i_glide_erotb>
0.653810053970063

> <r_i_glide_esite>
0

> <r_i_glide_emodel>
-64.6622824029077

> <r_i_glide_energy>
-44.3978464603424

> <r_i_glide_einternal>
2.48170971870422

> <i_i_glide_confnum>
6

> <i_i_glide_posenum>
178

> <r_i_glide_eff_state_penalty>
0

> <s_user_duplicate_titles>
CHEMBL1900_lig383

> <s_m_subgroup_title>
dock_pv

> <s_m_subgroupid>
dock_pv

> <b_m_subgroup_collapsed>
1

$$$$
CHEMBL1900_lig303
                    3D
 Schrodinger Suite 2021-1.
 38 41  0  0  1  0            999 V2000
   17.9641   -8.1423   15.3818 N   0  0  0  0  0  0
   17.3959   -7.3148   16.3412 N   0  0  0  0  0  0
   17.6538   -9.4698   15.1452 C   0  0  0  0  0  0
   16.3765   -7.7035   17.0064 C   0  0  0  0  0  0
   18.0730   -6.6453   13.3810 C   0  0  0  0  0  0
   18.6517   -5.6835   12.7317 N   0  0  0  0  0  0
   18.8407   -7.4370   14.4310 C   0  0  0  0  0  0
   16.5525   -9.9678   16.0727 C   0  0  0  0  0  0
   16.4049   -6.9150   12.9180 S   0  0  0  0  0  0
   17.8683   -5.1457   11.7661 C   0  0  0  0  0  0
   16.5780   -5.7085   11.6604 C   0  0  0  0  0  0
   15.9106   -9.1003   16.9814 C   0  0  0  0  0  0
   15.6312   -6.5952   17.7592 C   0  0  0  0  0  0
   18.2600   -4.1171   10.8987 C   0  0  0  0  0  0
   15.6817   -5.2839   10.6715 C   0  0  0  0  0  0
   16.1235   -4.3040    9.7811 C   0  0  0  0  0  0
   17.3759   -3.7150    9.9060 C   0  0  0  0  0  0
   16.3600   -6.0205   18.9886 C   0  0  0  0  0  0
   18.1719  -10.1588   14.2614 O   0  0  0  0  0  0
   15.7450   -5.4801   19.8987 O   0  0  0  0  0  0
   17.7452   -2.7439    9.0429 F   0  0  0  0  0  0
   15.3450   -3.9357    8.7487 F   0  0  0  0  0  0
   17.7177   -6.1148   18.9443 O   0  0  0  0  0  0
   16.1653  -11.3127   16.0002 C   0  0  0  0  0  0
   14.9450   -9.6179   17.8534 C   0  0  0  0  0  0
   15.1752  -11.8034   16.8513 C   0  0  0  0  0  0
   14.5714  -10.9593   17.7813 C   0  0  0  0  0  0
   19.5264   -6.8008   14.9937 H   0  0  0  0  0  0
   19.5125   -8.1259   13.9150 H   0  0  0  0  0  0
   15.4591   -5.7587   17.0821 H   0  0  0  0  0  0
   14.6357   -6.9151   18.0608 H   0  0  0  0  0  0
   19.2232   -3.6464   10.9809 H   0  0  0  0  0  0
   14.6950   -5.7134   10.5815 H   0  0  0  0  0  0
   18.0031   -6.5103   18.1134 H   0  0  0  0  0  0
   16.6319  -11.9845   15.2923 H   0  0  0  0  0  0
   14.4639   -8.9945   18.5875 H   0  0  0  0  0  0
   14.8772  -12.8403   16.7942 H   0  0  0  0  0  0
   13.8081  -11.3446   18.4438 H   0  0  0  0  0  0
  1  2  1  0  0  0
  1  3  1  0  0  0
  1  7  1  0  0  0
  2  4  2  0  0  0
  3  8  1  0  0  0
  3 19  2  0  0  0
  4 13  1  0  0  0
  4 12  1  0  0  0
  5  7  1  0  0  0
  5  6  2  0  0  0
  5  9  1  0  0  0
  6 10  1  0  0  0
  7 28  1  0  0  0
  7 29  1  0  0  0
  8 12  1  0  0  0
  8 24  2  0  0  0
  9 11  1  0  0  0
 10 14  1  0  0  0
 10 11  2  0  0  0
 11 15  1  0  0  0
 12 25  2  0  0  0
 13 18  1  0  0  0
 13 30  1  0  0  0
 13 31  1  0  0  0
 14 17  2  0  0  0
 14 32  1  0  0  0
 15 16  2  0  0  0
 15 33  1  0  0  0
 16 22  1  0  0  0
 16 17  1  0  0  0
 17 21  1  0  0  0
 18 20  2  0  0  0
 18 23  1  0  0  0
 23 34  1  0  0  0
 24 26  1  0  0  0
 24 35  1  0  0  0
 25 27  1  0  0  0
 25 36  1  0  0  0
 26 27  2  0  0  0
 26 37  1  0  0  0
 27 38  1  0  0  0
M  END
> <s_m_entry_id>
6259

> <s_m_entry_name>
dock_pv.94

> <s_m_Source_Path>
/home/csk/Desktop/cluster/DUD-E-result/aldr

> <s_m_Source_File>
dock_pv.maegz

> <i_m_Source_File_Index>
94

> <chembl_id>
CHEMBL20306

> <chembl_pref_name>
None

> <i_lp_mmshare_version>
53161

> <i_f3d_flags>
0

> <r_lp_tautomer_probability>
1

> <s_lp_Force_Field>
OPLS_2005

> <r_lp_Energy>
24.910372

> <b_lp_Chiralities_Consistent>
1

> <s_lp_Variant>
CHEMBL1900_lig303-1

> <s_i_glide_gridfile>
glide-grid_2hv5

> <i_i_glide_lignum>
419

> <i_i_glide_rotatable_bonds>
5

> <r_i_docking_score>
-10.0184979148882

> <r_i_glide_ligand_efficiency>
-0.371055478329192

> <r_i_glide_ligand_efficiency_sa>
-1.11316643376464

> <r_i_glide_ligand_efficiency_ln>
-2.33214114673927

> <r_i_glide_gscore>
-10.0184979148882

> <r_i_glide_lipo>
-4.83879706141204

> <r_i_glide_hbond>
-0.32

> <r_i_glide_metal>
0

> <r_i_glide_rewards>
-2.68979108050805

> <r_i_glide_evdw>
-46.3842239379883

> <r_i_glide_ecoul>
-2.0846893787384

> <r_i_glide_erotb>
0.519109906766724

> <r_i_glide_esite>
-0.0571050760246268

> <r_i_glide_emodel>
-72.7525892673158

> <r_i_glide_energy>
-48.4689133167267

> <r_i_glide_einternal>
5.84779024124146

> <i_i_glide_confnum>
7

> <i_i_glide_posenum>
211

> <r_i_glide_eff_state_penalty>
0

> <s_user_duplicate_titles>
CHEMBL1900_lig303,24183

> <s_m_subgroup_title>
dock_pv

> <s_m_subgroupid>
dock_pv

> <b_m_subgroup_collapsed>
1

$$$$
CHEMBL1900_lig244
                    3D
 Schrodinger Suite 2021-1.
 41 44  0  0  1  0            999 V2000
   18.0278   -7.7162   14.9523 N   0  0  0  0  0  0
   17.3778   -6.9623   15.9241 N   0  0  0  0  0  0
   17.8919   -9.0753   14.7340 C   0  0  0  0  0  0
   16.4788   -7.4928   16.6620 C   0  0  0  0  0  0
   17.9937   -6.2225   12.9278 C   0  0  0  0  0  0
   16.9231   -9.7141   15.7226 C   0  0  0  0  0  0
   18.5450   -5.3150   12.1765 N   0  0  0  0  0  0
   16.2195   -8.9411   16.6701 C   0  0  0  0  0  0
   18.8238   -6.9233   13.9968 C   0  0  0  0  0  0
   16.2945   -6.5150   12.5812 S   0  0  0  0  0  0
   15.6846   -6.5139   17.5323 C   0  0  0  0  0  0
   17.6941   -4.7865   11.2666 C   0  0  0  0  0  0
   16.3736   -5.2887   11.3258 C   0  0  0  0  0  0
   16.3841   -6.0940   18.8349 C   0  0  0  0  0  0
   16.7307  -11.1002   15.6742 C   0  0  0  0  0  0
   18.4692   -9.6976   13.8367 O   0  0  0  0  0  0
   15.3887   -9.5812   17.6001 C   0  0  0  0  0  0
   15.7450   -5.7150   19.8081 O   0  0  0  0  0  0
   15.8785  -11.7204   16.5855 C   0  0  0  0  0  0
   15.2168  -10.9663   17.5564 C   0  0  0  0  0  0
   17.7446   -6.1150   18.7801 O   0  0  0  0  0  0
   18.0411   -3.7985   10.3317 C   0  0  0  0  0  0
   15.3782   -4.7933   10.4763 C   0  0  0  0  0  0
   14.3080  -11.6428   18.5607 C   0  0  0  0  0  0
   15.7450   -3.8089    9.5561 C   0  0  0  0  0  0
   17.0467   -3.3185    9.4811 C   0  0  0  0  0  0
   19.4234   -6.2074   14.5625 H   0  0  0  0  0  0
   19.5801   -7.5334   13.4973 H   0  0  0  0  0  0
   15.4901   -5.5954   16.9803 H   0  0  0  0  0  0
   14.6987   -6.9106   17.7726 H   0  0  0  0  0  0
   17.2455  -11.7044   14.9394 H   0  0  0  0  0  0
   14.8742   -9.0226   18.3680 H   0  0  0  0  0  0
   15.7440  -12.7917   16.5395 H   0  0  0  0  0  0
   18.0543   -6.3594   17.9027 H   0  0  0  0  0  0
   19.0431   -3.4040   10.2860 H   0  0  0  0  0  0
   14.3602   -5.1524   10.5351 H   0  0  0  0  0  0
   14.1240  -12.6887   18.3109 H   0  0  0  0  0  0
   13.3456  -11.1329   18.5805 H   0  0  0  0  0  0
   14.7307  -11.5883   19.5634 H   0  0  0  0  0  0
   14.9942   -3.4135    8.8887 H   0  0  0  0  0  0
   17.2825   -2.5504    8.7587 H   0  0  0  0  0  0
  1  2  1  0  0  0
  1  3  1  0  0  0
  1  9  1  0  0  0
  2  4  2  0  0  0
  3  6  1  0  0  0
  3 16  2  0  0  0
  4 11  1  0  0  0
  4  8  1  0  0  0
  5  9  1  0  0  0
  5  7  2  0  0  0
  5 10  1  0  0  0
  6  8  1  0  0  0
  6 15  2  0  0  0
  7 12  1  0  0  0
  8 17  2  0  0  0
  9 27  1  0  0  0
  9 28  1  0  0  0
 10 13  1  0  0  0
 11 14  1  0  0  0
 11 29  1  0  0  0
 11 30  1  0  0  0
 12 22  1  0  0  0
 12 13  2  0  0  0
 13 23  1  0  0  0
 14 18  2  0  0  0
 14 21  1  0  0  0
 15 19  1  0  0  0
 15 31  1  0  0  0
 17 20  1  0  0  0
 17 32  1  0  0  0
 19 20  2  0  0  0
 19 33  1  0  0  0
 20 24  1  0  0  0
 21 34  1  0  0  0
 22 26  2  0  0  0
 22 35  1  0  0  0
 23 25  2  0  0  0
 23 36  1  0  0  0
 24 37  1  0  0  0
 24 38  1  0  0  0
 24 39  1  0  0  0
 25 26  1  0  0  0
 25 40  1  0  0  0
 26 41  1  0  0  0
M  END
> <s_m_entry_id>
6260

> <s_m_entry_name>
dock_pv.95

> <s_m_Source_Path>
/home/csk/Desktop/cluster/DUD-E-result/aldr

> <s_m_Source_File>
dock_pv.maegz

> <i_m_Source_File_Index>
95

> <chembl_id>
CHEMBL284018

> <chembl_pref_name>
None

> <i_lp_mmshare_version>
53161

> <i_f3d_flags>
0

> <r_lp_tautomer_probability>
1

> <s_lp_Force_Field>
OPLS_2005

> <r_lp_Energy>
25.766766

> <b_lp_Chiralities_Consistent>
1

> <s_lp_Variant>
CHEMBL1900_lig244-1

> <s_i_glide_gridfile>
glide-grid_2hv5

> <i_i_glide_lignum>
357

> <i_i_glide_rotatable_bonds>
5

> <r_i_docking_score>
-10.0152882842506

> <r_i_glide_ligand_efficiency>
-0.3852033955481

> <r_i_glide_ligand_efficiency_sa>
-1.14116354360908

> <r_i_glide_ligand_efficiency_ln>
-2.35205759071498

> <r_i_glide_gscore>
-10.0152882842506

> <r_i_glide_lipo>
-4.70480335089108

> <r_i_glide_hbond>
-0.32

> <r_i_glide_metal>
0

> <r_i_glide_rewards>
-2.56456390375274

> <r_i_glide_evdw>
-50.2402153015137

> <r_i_glide_ecoul>
-3.26778817176819

> <r_i_glide_erotb>
0.576257961234132

> <r_i_glide_esite>
0

> <r_i_glide_emodel>
-80.8212578944845

> <r_i_glide_energy>
-53.5080034732819

> <r_i_glide_einternal>
4.38969755172729

> <i_i_glide_confnum>
31

> <i_i_glide_posenum>
242

> <r_i_glide_eff_state_penalty>
0

> <s_user_duplicate_titles>
CHEMBL1900_lig244,23499

> <s_m_subgroup_title>
dock_pv

> <s_m_subgroupid>
dock_pv

> <b_m_subgroup_collapsed>
1

$$$$
CHEMBL1900_lig252
                    3D
 Schrodinger Suite 2021-1.
 41 44  0  0  1  0            999 V2000
   17.6174   -8.7835   15.3190 N   0  0  0  0  0  0
   17.1286   -7.8816   16.2602 N   0  0  0  0  0  0
   17.3411  -10.1342   15.2364 C   0  0  0  0  0  0
   16.1780   -8.2226   17.0415 C   0  0  0  0  0  0
   17.3525   -5.3296   11.8640 C   0  0  0  0  0  0
   17.7638   -7.1304   13.4534 C   0  0  0  0  0  0
   16.5339   -7.1869   13.0148 N   0  0  0  0  0  0
   18.6227   -5.7159   12.9802 S   0  0  0  0  0  0
   18.4703   -8.1824   14.2888 C   0  0  0  0  0  0
   16.3009  -10.5550   16.2612 C   0  0  0  0  0  0
   16.2602   -6.1780   12.1367 C   0  0  0  0  0  0
   15.7466   -9.6253   17.1654 C   0  0  0  0  0  0
   15.4535   -7.0635   17.7541 C   0  0  0  0  0  0
   17.2971   -4.3369   10.8845 C   0  0  0  0  0  0
   16.2721   -6.3112   18.8272 C   0  0  0  0  0  0
   17.8627  -10.9107   14.4301 O   0  0  0  0  0  0
   16.0771   -4.1243   10.2434 C   0  0  0  0  0  0
   15.0378   -5.9496   11.4917 C   0  0  0  0  0  0
   15.7454   -5.7336   19.7772 O   0  0  0  0  0  0
   14.9574   -4.8966   10.5794 C   0  0  0  0  0  0
   18.3848   -3.5849   10.5885 F   0  0  0  0  0  0
   17.6112   -6.2999   18.5809 O   0  0  0  0  0  0
   15.9262  -11.9042   16.3221 C   0  0  0  0  0  0
   14.9131  -10.0899   18.1825 C   0  0  0  0  0  0
   15.9757   -3.0074    9.2198 C   0  0  0  0  0  0
   15.0376  -12.3371   17.3036 C   0  0  0  0  0  0
   14.5450  -11.4330   18.2405 C   0  0  0  0  0  0
   19.3304   -7.7527   14.8036 H   0  0  0  0  0  0
   18.9176   -8.9071   13.6065 H   0  0  0  0  0  0
   15.1695   -6.3194   17.0107 H   0  0  0  0  0  0
   14.5062   -7.3845   18.1805 H   0  0  0  0  0  0
   14.1718   -6.5589   11.6993 H   0  0  0  0  0  0
   14.0098   -4.6933   10.1012 H   0  0  0  0  0  0
   17.8047   -6.7695   17.7621 H   0  0  0  0  0  0
   16.3299  -12.6240   15.6225 H   0  0  0  0  0  0
   14.5411   -9.4246   18.9455 H   0  0  0  0  0  0
   14.9467   -2.7592    8.9826 H   0  0  0  0  0  0
   16.4373   -2.0974    9.6049 H   0  0  0  0  0  0
   16.4965   -3.2780    8.3020 H   0  0  0  0  0  0
   14.7438  -13.3759   17.3513 H   0  0  0  0  0  0
   13.8702  -11.7745   19.0130 H   0  0  0  0  0  0
  1  2  1  0  0  0
  1  3  1  0  0  0
  1  9  1  0  0  0
  2  4  2  0  0  0
  3 10  1  0  0  0
  3 16  2  0  0  0
  4 13  1  0  0  0
  4 12  1  0  0  0
  5  8  1  0  0  0
  5 14  1  0  0  0
  5 11  2  0  0  0
  6  9  1  0  0  0
  6  7  2  0  0  0
  6  8  1  0  0  0
  7 11  1  0  0  0
  9 28  1  0  0  0
  9 29  1  0  0  0
 10 12  1  0  0  0
 10 23  2  0  0  0
 11 18  1  0  0  0
 12 24  2  0  0  0
 13 15  1  0  0  0
 13 30  1  0  0  0
 13 31  1  0  0  0
 14 17  2  0  0  0
 14 21  1  0  0  0
 15 19  2  0  0  0
 15 22  1  0  0  0
 17 25  1  0  0  0
 17 20  1  0  0  0
 18 20  2  0  0  0
 18 32  1  0  0  0
 20 33  1  0  0  0
 22 34  1  0  0  0
 23 26  1  0  0  0
 23 35  1  0  0  0
 24 27  1  0  0  0
 24 36  1  0  0  0
 25 37  1  0  0  0
 25 38  1  0  0  0
 25 39  1  0  0  0
 26 27  2  0  0  0
 26 40  1  0  0  0
 27 41  1  0  0  0
M  END
> <s_m_entry_id>
6261

> <s_m_entry_name>
dock_pv.96

> <s_m_Source_Path>
/home/csk/Desktop/cluster/DUD-E-result/aldr

> <s_m_Source_File>
dock_pv.maegz

> <i_m_Source_File_Index>
96

> <chembl_id>
CHEMBL20365

> <chembl_pref_name>
None

> <i_lp_mmshare_version>
53161

> <i_f3d_flags>
0

> <r_lp_tautomer_probability>
1

> <s_lp_Force_Field>
OPLS_2005

> <r_lp_Energy>
25.295013

> <b_lp_Chiralities_Consistent>
1

> <s_lp_Variant>
CHEMBL1900_lig252-1

> <s_i_glide_gridfile>
glide-grid_2hv5

> <i_i_glide_lignum>
365

> <i_i_glide_rotatable_bonds>
5

> <r_i_docking_score>
-10.0150440528273

> <r_i_glide_ligand_efficiency>
-0.370927557512124

> <r_i_glide_ligand_efficiency_sa>
-1.11278267131385

> <r_i_glide_ligand_efficiency_ln>
-2.33133714459287

> <r_i_glide_gscore>
-10.0150440528273

> <r_i_glide_lipo>
-4.60349644586455

> <r_i_glide_hbond>
-0.32

> <r_i_glide_metal>
0

> <r_i_glide_rewards>
-2.7834460905296

> <r_i_glide_evdw>
-44.5334320068359

> <r_i_glide_ecoul>
-4.06805038452148

> <r_i_glide_erotb>
0.52877764158684

> <r_i_glide_esite>
0

> <r_i_glide_emodel>
-67.1869078546572

> <r_i_glide_energy>
-48.6014823913574

> <r_i_glide_einternal>
5.3590202331543

> <i_i_glide_confnum>
12

> <i_i_glide_posenum>
294

> <r_i_glide_eff_state_penalty>
0

> <s_user_duplicate_titles>
CHEMBL1900_lig252,24189

> <s_m_subgroup_title>
dock_pv

> <s_m_subgroupid>
dock_pv

> <b_m_subgroup_collapsed>
1

$$$$
CHEMBL1900_lig164
                    3D
 Schrodinger Suite 2021-1.
 41 44  0  0  1  0            999 V2000
   18.0711   -8.1860   15.3444 N   0  0  0  0  0  0
   17.4580   -7.3150   16.2343 N   0  0  0  0  0  0
   17.5623   -5.7327   11.7810 C   0  0  0  0  0  0
   18.4436   -5.7150   12.7674 N   0  0  0  0  0  0
   17.7450   -9.5154   15.1341 C   0  0  0  0  0  0
   16.4316   -7.6850   16.9014 C   0  0  0  0  0  0
   18.3218   -6.9202   13.2568 C   0  0  0  0  0  0
   16.9450   -6.8745   11.5911 N   0  0  0  0  0  0
   19.0344   -7.5375   14.4365 C   0  0  0  0  0  0
   16.6172   -9.9775   16.0506 C   0  0  0  0  0  0
   17.2991   -4.5585   10.8880 C   0  0  0  0  0  0
   15.9673   -9.0818   16.9254 C   0  0  0  0  0  0
   15.6979   -6.5631   17.6405 C   0  0  0  0  0  0
   17.4413   -7.6972   12.5879 O   0  0  0  0  0  0
   16.3854   -6.1050   18.9368 C   0  0  0  0  0  0
   18.2850  -10.2360   14.2892 O   0  0  0  0  0  0
   16.0341   -4.2672   10.3387 C   0  0  0  0  0  0
   15.7450   -5.7148   19.9035 O   0  0  0  0  0  0
   14.6015   -5.1427   10.7615 Cl  0  0  0  0  0  0
   17.7450   -6.1150   18.8804 O   0  0  0  0  0  0
   18.3670   -3.7059   10.5810 C   0  0  0  0  0  0
   16.2239  -11.3218   16.0129 C   0  0  0  0  0  0
   14.9946   -9.5697   17.8094 C   0  0  0  0  0  0
   15.8900   -3.1870    9.4721 C   0  0  0  0  0  0
   18.1860   -2.5825    9.7810 C   0  0  0  0  0  0
   15.2259  -11.7843   16.8706 C   0  0  0  0  0  0
   14.6211  -10.9136   17.7753 C   0  0  0  0  0  0
   16.9498   -2.3390    9.2002 C   0  0  0  0  0  0
   19.6276   -6.8042   14.9849 H   0  0  0  0  0  0
   19.7810   -8.2425   14.0655 H   0  0  0  0  0  0
   15.6222   -5.6870   16.9960 H   0  0  0  0  0  0
   14.6681   -6.8410   17.8604 H   0  0  0  0  0  0
   18.0495   -6.4202   18.0197 H   0  0  0  0  0  0
   19.3450   -3.9027   10.9810 H   0  0  0  0  0  0
   16.6956  -12.0154   15.3298 H   0  0  0  0  0  0
   14.5184   -8.9247   18.5315 H   0  0  0  0  0  0
   14.9450   -2.9728    9.0203 H   0  0  0  0  0  0
   19.0080   -1.9097    9.5939 H   0  0  0  0  0  0
   14.9261  -12.8220   16.8415 H   0  0  0  0  0  0
   13.8563  -11.2818   18.4455 H   0  0  0  0  0  0
   16.8013   -1.4947    8.5452 H   0  0  0  0  0  0
  1  2  1  0  0  0
  1  5  1  0  0  0
  1  9  1  0  0  0
  2  6  2  0  0  0
  3  4  1  0  0  0
  3 11  1  0  0  0
  3  8  2  0  0  0
  4  7  2  0  0  0
  5 10  1  0  0  0
  5 16  2  0  0  0
  6 13  1  0  0  0
  6 12  1  0  0  0
  7  9  1  0  0  0
  7 14  1  0  0  0
  8 14  1  0  0  0
  9 29  1  0  0  0
  9 30  1  0  0  0
 10 12  2  0  0  0
 10 22  1  0  0  0
 11 17  2  0  0  0
 11 21  1  0  0  0
 12 23  1  0  0  0
 13 15  1  0  0  0
 13 31  1  0  0  0
 13 32  1  0  0  0
 15 18  2  0  0  0
 15 20  1  0  0  0
 17 19  1  0  0  0
 17 24  1  0  0  0
 20 33  1  0  0  0
 21 25  2  0  0  0
 21 34  1  0  0  0
 22 26  2  0  0  0
 22 35  1  0  0  0
 23 27  2  0  0  0
 23 36  1  0  0  0
 24 28  2  0  0  0
 24 37  1  0  0  0
 25 28  1  0  0  0
 25 38  1  0  0  0
 26 27  1  0  0  0
 26 39  1  0  0  0
 27 40  1  0  0  0
 28 41  1  0  0  0
M  END
> <s_m_entry_id>
6262

> <s_m_entry_name>
dock_pv.97

> <s_m_Source_Path>
/home/csk/Desktop/cluster/DUD-E-result/aldr

> <s_m_Source_File>
dock_pv.maegz

> <i_m_Source_File_Index>
97

> <chembl_id>
CHEMBL345068

> <chembl_pref_name>
None

> <i_lp_mmshare_version>
53161

> <i_f3d_flags>
0

> <r_lp_tautomer_probability>
1

> <s_lp_Force_Field>
OPLS_2005

> <r_lp_Energy>
32.182587

> <b_lp_Chiralities_Consistent>
1

> <s_lp_Variant>
CHEMBL1900_lig164-1

> <s_i_glide_gridfile>
glide-grid_2hv5

> <i_i_glide_lignum>
240

> <i_i_glide_rotatable_bonds>
6

> <r_i_docking_score>
-10.0101293852898

> <r_i_glide_ligand_efficiency>
-0.357504620903207

> <r_i_glide_ligand_efficiency_sa>
-1.08559458802346

> <r_i_glide_ligand_efficiency_ln>
-2.31063177229483

> <r_i_glide_gscore>
-10.0101293852898

> <r_i_glide_lipo>
-4.6408455171294

> <r_i_glide_hbond>
-0.32

> <r_i_glide_metal>
0

> <r_i_glide_rewards>
-2.68387311030041

> <r_i_glide_evdw>
-50.8146171569824

> <r_i_glide_ecoul>
-2.97428417205811

> <r_i_glide_erotb>
0.621462725797838

> <r_i_glide_esite>
0

> <r_i_glide_emodel>
-82.9207848854189

> <r_i_glide_energy>
-53.7889013290405

> <r_i_glide_einternal>
3.18446207046509

> <i_i_glide_confnum>
144

> <i_i_glide_posenum>
364

> <r_i_glide_eff_state_penalty>
0

> <s_user_duplicate_titles>
CHEMBL1900_lig164,236207

> <s_m_subgroup_title>
dock_pv

> <s_m_subgroupid>
dock_pv

> <b_m_subgroup_collapsed>
1

$$$$
CHEMBL1900_lig258
                    3D
 Schrodinger Suite 2021-1.
 44 48  0  0  1  0            999 V2000
   18.1450   -8.2748   15.4339 N   0  0  0  0  0  0
   17.5527   -7.7461   16.5800 N   0  0  0  0  0  0
   17.9985   -9.5621   14.9532 C   0  0  0  0  0  0
   16.6687   -8.4082   17.2365 C   0  0  0  0  0  0
   17.8707   -6.6506   13.5586 C   0  0  0  0  0  0
   18.2506   -5.8459   12.6023 N   0  0  0  0  0  0
   17.0399  -10.3809   15.8037 C   0  0  0  0  0  0
   17.1893   -5.4485   11.8423 C   0  0  0  0  0  0
   16.3539   -9.8145   16.9003 C   0  0  0  0  0  0
   18.8257   -7.2837   14.5641 C   0  0  0  0  0  0
   16.1457   -6.9150   13.6311 S   0  0  0  0  0  0
   15.9426   -6.0070   12.1810 C   0  0  0  0  0  0
   15.8818   -7.6938   18.3697 C   0  0  0  0  0  0
   17.2316   -4.4554   10.8326 C   0  0  0  0  0  0
   16.4266   -6.3922   19.0114 C   0  0  0  0  0  0
   16.8289  -11.7215   15.4566 C   0  0  0  0  0  0
   18.5453   -9.9851   13.9298 O   0  0  0  0  0  0
   15.4761  -10.6229   17.6413 C   0  0  0  0  0  0
   14.7677   -5.7192   11.4922 C   0  0  0  0  0  0
   16.0277   -4.1212   10.1498 C   0  0  0  0  0  0
   15.7452   -5.7151   19.7796 O   0  0  0  0  0  0
   14.8294   -4.7835   10.4765 C   0  0  0  0  0  0
   15.2951  -11.9644   17.3046 C   0  0  0  0  0  0
   15.9636  -12.5100   16.2108 C   0  0  0  0  0  0
   17.7245   -6.1148   18.7199 O   0  0  0  0  0  0
   14.2677  -12.9655   18.2618 Cl  0  0  0  0  0  0
   18.4029   -3.7152   10.5548 C   0  0  0  0  0  0
   16.0475   -3.0980    9.1906 C   0  0  0  0  0  0
   18.3233   -2.5694    9.7808 C   0  0  0  0  0  0
   17.1646   -2.2932    9.0610 C   0  0  0  0  0  0
   19.3058   -6.5252   15.1844 H   0  0  0  0  0  0
   19.6625   -7.7425   14.0315 H   0  0  0  0  0  0
   14.8789   -7.4697   18.0059 H   0  0  0  0  0  0
   15.7479   -8.3731   19.2104 H   0  0  0  0  0  0
   17.3385  -12.1611   14.6097 H   0  0  0  0  0  0
   14.9391  -10.2399   18.4960 H   0  0  0  0  0  0
   13.8211   -6.1521   11.7808 H   0  0  0  0  0  0
   13.9213   -4.5151    9.9616 H   0  0  0  0  0  0
   15.8189  -13.5489   15.9517 H   0  0  0  0  0  0
   18.0299   -6.6989   18.0144 H   0  0  0  0  0  0
   19.3447   -3.9941   10.9811 H   0  0  0  0  0  0
   15.1641   -2.9147    8.6017 H   0  0  0  0  0  0
   19.1905   -1.9355    9.6735 H   0  0  0  0  0  0
   17.1164   -1.4606    8.3769 H   0  0  0  0  0  0
  1  2  1  0  0  0
  1  3  1  0  0  0
  1 10  1  0  0  0
  2  4  2  0  0  0
  3  7  1  0  0  0
  3 17  2  0  0  0
  4 13  1  0  0  0
  4  9  1  0  0  0
  5 10  1  0  0  0
  5  6  2  0  0  0
  5 11  1  0  0  0
  6  8  1  0  0  0
  7  9  1  0  0  0
  7 16  2  0  0  0
  8 14  1  0  0  0
  8 12  2  0  0  0
  9 18  2  0  0  0
 10 31  1  0  0  0
 10 32  1  0  0  0
 11 12  1  0  0  0
 12 19  1  0  0  0
 13 15  1  0  0  0
 13 33  1  0  0  0
 13 34  1  0  0  0
 14 20  2  0  0  0
 14 27  1  0  0  0
 15 21  2  0  0  0
 15 25  1  0  0  0
 16 24  1  0  0  0
 16 35  1  0  0  0
 18 23  1  0  0  0
 18 36  1  0  0  0
 19 22  2  0  0  0
 19 37  1  0  0  0
 20 28  1  0  0  0
 20 22  1  0  0  0
 22 38  1  0  0  0
 23 24  2  0  0  0
 23 26  1  0  0  0
 24 39  1  0  0  0
 25 40  1  0  0  0
 27 29  2  0  0  0
 27 41  1  0  0  0
 28 30  2  0  0  0
 28 42  1  0  0  0
 29 30  1  0  0  0
 29 43  1  0  0  0
 30 44  1  0  0  0
M  END
> <s_m_entry_id>
6263

> <s_m_entry_name>
dock_pv.98

> <s_m_Source_Path>
/home/csk/Desktop/cluster/DUD-E-result/aldr

> <s_m_Source_File>
dock_pv.maegz

> <i_m_Source_File_Index>
98

> <chembl_id>
CHEMBL2079662

> <chembl_pref_name>
None

> <i_lp_mmshare_version>
53161

> <i_f3d_flags>
0

> <r_lp_tautomer_probability>
1

> <s_lp_Force_Field>
OPLS_2005

> <r_lp_Energy>
38.507101

> <b_lp_Chiralities_Consistent>
1

> <s_lp_Variant>
CHEMBL1900_lig258-1

> <s_i_glide_gridfile>
glide-grid_2hv5

> <i_i_glide_lignum>
372

> <i_i_glide_rotatable_bonds>
5

> <r_i_docking_score>
-9.98840570652336

> <r_i_glide_ligand_efficiency>
-0.332946856884112

> <r_i_glide_ligand_efficiency_sa>
-1.03454329529259

> <r_i_glide_ligand_efficiency_ln>
-2.26947460891907

> <r_i_glide_gscore>
-9.98840570652336

> <r_i_glide_lipo>
-5.4125146020795

> <r_i_glide_hbond>
-0.32

> <r_i_glide_metal>
0

> <r_i_glide_rewards>
-1.93019544098924

> <r_i_glide_evdw>
-45.6499671936035

> <r_i_glide_ecoul>
-3.08499121665955

> <r_i_glide_erotb>
0.419551378724476

> <r_i_glide_esite>
0

> <r_i_glide_emodel>
-65.4771933003206

> <r_i_glide_energy>
-48.7349584102631

> <r_i_glide_einternal>
2.87745428085327

> <i_i_glide_confnum>
39

> <i_i_glide_posenum>
87

> <r_i_glide_eff_state_penalty>
0

> <s_user_duplicate_titles>
CHEMBL1900_lig258,CHEMBL1900_lig305,23926

> <s_m_subgroup_title>
dock_pv

> <s_m_subgroupid>
dock_pv

> <b_m_subgroup_collapsed>
1

$$$$
CHEMBL1900_lig255
                    3D
 Schrodinger Suite 2021-1.
 41 44  0  0  1  0            999 V2000
   17.6281   -8.6152   15.2960 N   0  0  0  0  0  0
   17.1280   -7.7376   16.2475 N   0  0  0  0  0  0
   16.9319   -4.3636   10.6488 C   0  0  0  0  0  0
   17.3450   -9.9634   15.1815 C   0  0  0  0  0  0
   16.1853   -8.1027   17.0279 C   0  0  0  0  0  0
   17.1213   -5.3089   11.6796 C   0  0  0  0  0  0
   17.7053   -6.9973   13.3785 C   0  0  0  0  0  0
   16.4279   -7.0345   13.1197 N   0  0  0  0  0  0
   16.0750   -6.1150   12.1809 C   0  0  0  0  0  0
   18.0575   -3.5202   10.0461 C   0  0  0  0  0  0
   18.5450   -5.7150   12.5810 S   0  0  0  0  0  0
   18.4639   -7.9698   14.2723 C   0  0  0  0  0  0
   16.3222  -10.4150   16.2168 C   0  0  0  0  0  0
   15.7690   -9.5084   17.1453 C   0  0  0  0  0  0
   15.4553   -6.9619   17.7477 C   0  0  0  0  0  0
   14.7913   -5.9415   11.6785 C   0  0  0  0  0  0
   16.2786   -6.2318   18.8252 C   0  0  0  0  0  0
   15.6205   -4.2293   10.1786 C   0  0  0  0  0  0
   17.8495  -10.7137   14.3406 O   0  0  0  0  0  0
   14.5855   -4.9991   10.6918 C   0  0  0  0  0  0
   15.7450   -5.6840   19.7810 O   0  0  0  0  0  0
   17.6028   -2.5862    9.2094 F   0  0  0  0  0  0
   18.7799   -2.9150   10.9810 F   0  0  0  0  0  0
   18.8785   -4.3222    9.3810 F   0  0  0  0  0  0
   13.3510   -4.9150   10.1810 F   0  0  0  0  0  0
   17.6172   -6.1955   18.5810 O   0  0  0  0  0  0
   15.9523  -11.7659   16.2559 C   0  0  0  0  0  0
   14.9448   -9.9940   18.1663 C   0  0  0  0  0  0
   15.0697  -12.2208   17.2349 C   0  0  0  0  0  0
   14.5754  -11.3390   18.1937 C   0  0  0  0  0  0
   19.2781   -7.4617   14.7918 H   0  0  0  0  0  0
   18.9806   -8.6864   13.6306 H   0  0  0  0  0  0
   15.1633   -6.2098   17.0154 H   0  0  0  0  0  0
   14.5149   -7.2953   18.1810 H   0  0  0  0  0  0
   13.9521   -6.5150   12.0151 H   0  0  0  0  0  0
   15.3814   -3.5328    9.3873 H   0  0  0  0  0  0
   17.8221   -6.6479   17.7559 H   0  0  0  0  0  0
   16.3530  -12.4690   15.5380 H   0  0  0  0  0  0
   14.5595   -9.3419   18.9350 H   0  0  0  0  0  0
   14.7804  -13.2615   17.2616 H   0  0  0  0  0  0
   13.9056  -11.7015   18.9610 H   0  0  0  0  0  0
  1  2  1  0  0  0
  1  4  1  0  0  0
  1 12  1  0  0  0
  2  5  2  0  0  0
  3  6  1  0  0  0
  3 10  1  0  0  0
  3 18  2  0  0  0
  4 13  1  0  0  0
  4 19  2  0  0  0
  5 15  1  0  0  0
  5 14  1  0  0  0
  6 11  1  0  0  0
  6  9  2  0  0  0
  7 12  1  0  0  0
  7  8  2  0  0  0
  7 11  1  0  0  0
  8  9  1  0  0  0
  9 16  1  0  0  0
 10 22  1  0  0  0
 10 23  1  0  0  0
 10 24  1  0  0  0
 12 31  1  0  0  0
 12 32  1  0  0  0
 13 14  1  0  0  0
 13 27  2  0  0  0
 14 28  2  0  0  0
 15 17  1  0  0  0
 15 33  1  0  0  0
 15 34  1  0  0  0
 16 20  2  0  0  0
 16 35  1  0  0  0
 17 21  2  0  0  0
 17 26  1  0  0  0
 18 20  1  0  0  0
 18 36  1  0  0  0
 20 25  1  0  0  0
 26 37  1  0  0  0
 27 29  1  0  0  0
 27 38  1  0  0  0
 28 30  1  0  0  0
 28 39  1  0  0  0
 29 30  2  0  0  0
 29 40  1  0  0  0
 30 41  1  0  0  0
M  END
> <s_m_entry_id>
6265

> <s_m_entry_name>
dock_pv.100

> <s_m_Source_Path>
/home/csk/Desktop/cluster/DUD-E-result/aldr

> <s_m_Source_File>
dock_pv.maegz

> <i_m_Source_File_Index>
100

> <chembl_id>
CHEMBL20115

> <chembl_pref_name>
None

> <i_lp_mmshare_version>
53161

> <i_f3d_flags>
0

> <r_lp_tautomer_probability>
1

> <s_lp_Force_Field>
OPLS_2005

> <r_lp_Energy>
21.676778

> <b_lp_Chiralities_Consistent>
1

> <s_lp_Variant>
CHEMBL1900_lig255-1

> <s_i_glide_gridfile>
glide-grid_2hv5

> <i_i_glide_lignum>
368

> <i_i_glide_rotatable_bonds>
6

> <r_i_docking_score>
-9.9873707125526

> <r_i_glide_ligand_efficiency>
-0.332912357085087

> <r_i_glide_ligand_efficiency_sa>
-1.03443609639573

> <r_i_glide_ligand_efficiency_ln>
-2.26923944701175

> <r_i_glide_gscore>
-9.9873707125526

> <r_i_glide_lipo>
-4.77899013818989

> <r_i_glide_hbond>
-0.32

> <r_i_glide_metal>
0

> <r_i_glide_rewards>
-2.85414347408859

> <r_i_glide_evdw>
-37.6078910827637

> <r_i_glide_ecoul>
-3.80542635917664

> <r_i_glide_erotb>
0.416971407740564

> <r_i_glide_esite>
0

> <r_i_glide_emodel>
-53.8935433118892

> <r_i_glide_energy>
-41.4133174419403

> <r_i_glide_einternal>
3.56148934364319

> <i_i_glide_confnum>
10

> <i_i_glide_posenum>
134

> <r_i_glide_eff_state_penalty>
0

> <s_user_duplicate_titles>
CHEMBL1900_lig255,24298

> <s_m_subgroup_title>
dock_pv

> <s_m_subgroupid>
dock_pv

> <b_m_subgroup_collapsed>
1

$$$$
CHEMBL1900_lig410
                    3D
 Schrodinger Suite 2021-1.
 36 39  0  0  1  0            999 V2000
   17.4078   -8.0802   14.8183 C   0  0  0  0  0  0
   17.7387   -4.9152   11.3656 C   0  0  0  0  0  0
   17.7449   -6.6087   12.8005 C   0  0  0  0  0  0
   18.4778   -5.7145   12.1894 N   0  0  0  0  0  0
   16.0615   -7.9054   16.6349 N   0  0  0  0  0  0
   16.3547   -5.2183   11.3385 C   0  0  0  0  0  0
   16.0341   -6.5150   12.4509 S   0  0  0  0  0  0
   16.6557   -7.2342   15.6005 C   0  0  0  0  0  0
   18.2237   -7.6959   13.6670 C   0  0  0  0  0  0
   17.2545   -9.3880   15.3986 C   0  0  0  0  0  0
   18.2253   -3.8568   10.5740 C   0  0  0  0  0  0
   16.3851   -9.2499   16.5328 C   0  0  0  0  0  0
   15.4633   -4.5143   10.5262 C   0  0  0  0  0  0
   17.3234   -3.1537    9.7807 C   0  0  0  0  0  0
   15.9805   -3.4887    9.7437 C   0  0  0  0  0  0
   15.3262   -7.2415   17.7096 C   0  0  0  0  0  0
   16.2068   -6.5151   18.7508 C   0  0  0  0  0  0
   19.2348   -8.3367   13.3811 O   0  0  0  0  0  0
   15.7451   -5.8184   19.6490 O   0  0  0  0  0  0
   19.5267   -3.4970   10.5721 F   0  0  0  0  0  0
   14.1428   -4.8021   10.5128 F   0  0  0  0  0  0
   17.7450   -2.1151    9.0340 F   0  0  0  0  0  0
   17.5411   -6.7192   18.5809 O   0  0  0  0  0  0
   17.7425  -10.6663   15.0786 C   0  0  0  0  0  0
   16.0091  -10.3479   17.3190 C   0  0  0  0  0  0
   17.3626  -11.7548   15.8618 C   0  0  0  0  0  0
   16.5139  -11.5956   16.9531 C   0  0  0  0  0  0
   16.5137   -6.1701   15.5282 H   0  0  0  0  0  0
   15.3449   -2.9146    9.0964 H   0  0  0  0  0  0
   14.6535   -6.5148   17.2561 H   0  0  0  0  0  0
   14.6834   -7.9801   18.1810 H   0  0  0  0  0  0
   18.0460   -6.2833   19.2701 H   0  0  0  0  0  0
   18.3939  -10.8045   14.2272 H   0  0  0  0  0  0
   15.3467  -10.2455   18.1669 H   0  0  0  0  0  0
   17.7267  -12.7421   15.6150 H   0  0  0  0  0  0
   16.2349  -12.4671   17.5282 H   0  0  0  0  0  0
  1  8  2  0  0  0
  1  9  1  0  0  0
  1 10  1  0  0  0
  2  4  1  0  0  0
  2 11  1  0  0  0
  2  6  2  0  0  0
  3  9  1  0  0  0
  3  4  2  0  0  0
  3  7  1  0  0  0
  5  8  1  0  0  0
  5 16  1  0  0  0
  5 12  1  0  0  0
  6  7  1  0  0  0
  6 13  1  0  0  0
  8 28  1  0  0  0
  9 18  2  0  0  0
 10 12  2  0  0  0
 10 24  1  0  0  0
 11 14  2  0  0  0
 11 20  1  0  0  0
 12 25  1  0  0  0
 13 15  2  0  0  0
 13 21  1  0  0  0
 14 22  1  0  0  0
 14 15  1  0  0  0
 15 29  1  0  0  0
 16 17  1  0  0  0
 16 30  1  0  0  0
 16 31  1  0  0  0
 17 19  2  0  0  0
 17 23  1  0  0  0
 23 32  1  0  0  0
 24 26  2  0  0  0
 24 33  1  0  0  0
 25 27  2  0  0  0
 25 34  1  0  0  0
 26 27  1  0  0  0
 26 35  1  0  0  0
 27 36  1  0  0  0
M  END
> <s_m_entry_id>
6266

> <s_m_entry_name>
dock_pv.101

> <s_m_Source_Path>
/home/csk/Desktop/cluster/DUD-E-result/aldr

> <s_m_Source_File>
dock_pv.maegz

> <i_m_Source_File_Index>
101

> <chembl_id>
CHEMBL193566

> <chembl_pref_name>
None

> <i_lp_mmshare_version>
53161

> <i_f3d_flags>
0

> <r_lp_tautomer_probability>
1

> <s_lp_Force_Field>
OPLS_2005

> <r_lp_Energy>
19.220226

> <b_lp_Chiralities_Consistent>
1

> <s_lp_Variant>
CHEMBL1900_lig410-1

> <s_i_glide_gridfile>
glide-grid_2hv5

> <i_i_glide_lignum>
531

> <i_i_glide_rotatable_bonds>
5

> <r_i_docking_score>
-9.97363663264546

> <r_i_glide_ligand_efficiency>
-0.369393949357239

> <r_i_glide_ligand_efficiency_sa>
-1.10818184685426

> <r_i_glide_ligand_efficiency_ln>
-2.32169817982921

> <r_i_glide_gscore>
-9.97363663264546

> <r_i_glide_lipo>
-4.0199023070934

> <r_i_glide_hbond>
-0.32

> <r_i_glide_metal>
0

> <r_i_glide_rewards>
-3.44770316590909

> <r_i_glide_evdw>
-44.2155647277832

> <r_i_glide_ecoul>
-3.20467901229858

> <r_i_glide_erotb>
0.512025926282459

> <r_i_glide_esite>
-0.00657699769147622

> <r_i_glide_emodel>
-70.4568082768764

> <r_i_glide_energy>
-47.4202437400818

> <r_i_glide_einternal>
8.78354644775391

> <i_i_glide_confnum>
1

> <i_i_glide_posenum>
195

> <r_i_glide_eff_state_penalty>
0

> <s_user_duplicate_titles>
CHEMBL1900_lig410

> <s_m_subgroup_title>
dock_pv

> <s_m_subgroupid>
dock_pv

> <b_m_subgroup_collapsed>
1

$$$$
CHEMBL1900_lig143
                    3D
 Schrodinger Suite 2021-1.
 41 44  0  0  1  0            999 V2000
   18.0613   -8.8231   14.9646 N   0  0  0  0  0  0
   17.7450   -8.0284   16.0567 N   0  0  0  0  0  0
   17.0707   -5.7150   11.8946 C   0  0  0  0  0  0
   18.2074   -6.1150   12.4318 N   0  0  0  0  0  0
   17.7450  -10.1598   14.8016 C   0  0  0  0  0  0
   16.9819   -8.4691   16.9810 C   0  0  0  0  0  0
   17.8409   -7.1129   13.1773 C   0  0  0  0  0  0
   15.9972   -6.3583   12.3026 N   0  0  0  0  0  0
   18.7485   -8.1106   13.8734 C   0  0  0  0  0  0
   16.7665  -10.6407   15.8705 C   0  0  0  0  0  0
   17.0192   -4.5848   10.9061 C   0  0  0  0  0  0
   16.3407   -9.7908   16.9128 C   0  0  0  0  0  0
   16.8863   -7.5825   18.2230 C   0  0  0  0  0  0
   16.5037   -7.3150   13.1732 O   0  0  0  0  0  0
   16.0473   -6.3205   18.0037 C   0  0  0  0  0  0
   18.1692  -10.8711   13.8858 O   0  0  0  0  0  0
   15.8228   -4.1480   10.3120 C   0  0  0  0  0  0
   15.3450   -6.1064   17.0157 O   0  0  0  0  0  0
   14.6380   -4.7447   10.5810 F   0  0  0  0  0  0
   16.1450   -5.4926   19.0826 O   0  0  0  0  0  0
   18.2022   -3.9014   10.5830 C   0  0  0  0  0  0
   16.2499  -11.9399   15.7810 C   0  0  0  0  0  0
   15.3130  -10.2110   17.7698 C   0  0  0  0  0  0
   15.8373   -3.0574    9.4477 C   0  0  0  0  0  0
   18.1869   -2.7680    9.7810 C   0  0  0  0  0  0
   15.2652  -12.3646   16.6735 C   0  0  0  0  0  0
   14.7861  -11.4970   17.6540 C   0  0  0  0  0  0
   17.0010   -2.3568    9.1927 C   0  0  0  0  0  0
   19.6352   -7.6221   14.2796 H   0  0  0  0  0  0
   19.1419   -8.7888   13.1141 H   0  0  0  0  0  0
   16.4700   -8.1202   19.0704 H   0  0  0  0  0  0
   17.8903   -7.2841   18.5284 H   0  0  0  0  0  0
   16.7867   -5.8101   19.7205 H   0  0  0  0  0  0
   19.1489   -4.2189   10.9810 H   0  0  0  0  0  0
   16.5777  -12.6107   14.9983 H   0  0  0  0  0  0
   14.9180   -9.5629   18.5380 H   0  0  0  0  0  0
   14.9450   -2.7119    8.9810 H   0  0  0  0  0  0
   19.0953   -2.2141    9.6098 H   0  0  0  0  0  0
   14.8521  -13.3593   16.5879 H   0  0  0  0  0  0
   13.9993  -11.8211   18.3212 H   0  0  0  0  0  0
   16.9646   -1.5018    8.5367 H   0  0  0  0  0  0
  1  2  1  0  0  0
  1  5  1  0  0  0
  1  9  1  0  0  0
  2  6  2  0  0  0
  3  4  1  0  0  0
  3 11  1  0  0  0
  3  8  2  0  0  0
  4  7  2  0  0  0
  5 10  1  0  0  0
  5 16  2  0  0  0
  6 13  1  0  0  0
  6 12  1  0  0  0
  7  9  1  0  0  0
  7 14  1  0  0  0
  8 14  1  0  0  0
  9 29  1  0  0  0
  9 30  1  0  0  0
 10 12  2  0  0  0
 10 22  1  0  0  0
 11 17  2  0  0  0
 11 21  1  0  0  0
 12 23  1  0  0  0
 13 15  1  0  0  0
 13 31  1  0  0  0
 13 32  1  0  0  0
 15 18  2  0  0  0
 15 20  1  0  0  0
 17 19  1  0  0  0
 17 24  1  0  0  0
 20 33  1  0  0  0
 21 25  2  0  0  0
 21 34  1  0  0  0
 22 26  2  0  0  0
 22 35  1  0  0  0
 23 27  2  0  0  0
 23 36  1  0  0  0
 24 28  2  0  0  0
 24 37  1  0  0  0
 25 28  1  0  0  0
 25 38  1  0  0  0
 26 27  1  0  0  0
 26 39  1  0  0  0
 27 40  1  0  0  0
 28 41  1  0  0  0
M  END
> <s_m_entry_id>
6267

> <s_m_entry_name>
dock_pv.102

> <s_m_Source_Path>
/home/csk/Desktop/cluster/DUD-E-result/aldr

> <s_m_Source_File>
dock_pv.maegz

> <i_m_Source_File_Index>
102

> <chembl_id>
CHEMBL422476

> <chembl_pref_name>
None

> <i_lp_mmshare_version>
53161

> <i_f3d_flags>
0

> <r_lp_tautomer_probability>
1

> <s_lp_Force_Field>
OPLS_2005

> <r_lp_Energy>
31.127485

> <b_lp_Chiralities_Consistent>
1

> <s_lp_Variant>
CHEMBL1900_lig143-1

> <s_i_glide_gridfile>
glide-grid_2hv5

> <i_i_glide_lignum>
219

> <i_i_glide_rotatable_bonds>
6

> <r_i_docking_score>
-9.96054694315333

> <r_i_glide_ligand_efficiency>
-0.355733819398333

> <r_i_glide_ligand_efficiency_sa>
-1.08021739170835

> <r_i_glide_ligand_efficiency_ln>
-2.29918668884598

> <r_i_glide_gscore>
-9.96054694315333

> <r_i_glide_lipo>
-4.01661353582938

> <r_i_glide_hbond>
-0.295499921369939

> <r_i_glide_metal>
0

> <r_i_glide_rewards>
-3.17750023387283

> <r_i_glide_evdw>
-50.1544990539551

> <r_i_glide_ecoul>
-4.22511720657349

> <r_i_glide_erotb>
0.670559281602589

> <r_i_glide_esite>
0

> <r_i_glide_emodel>
-83.1911265402942

> <r_i_glide_energy>
-54.3796162605286

> <r_i_glide_einternal>
3.09985589981079

> <i_i_glide_confnum>
74

> <i_i_glide_posenum>
163

> <r_i_glide_eff_state_penalty>
0

> <s_user_duplicate_titles>
CHEMBL1900_lig143,235843

> <s_m_subgroup_title>
dock_pv

> <s_m_subgroupid>
dock_pv

> <b_m_subgroup_collapsed>
1

$$$$
CHEMBL1900_lig381
                    3D
 Schrodinger Suite 2021-1.
 37 40  0  0  1  0            999 V2000
   16.7594   -7.9526   17.0525 N   0  0  0  0  0  0
   17.9366   -7.7692   15.0942 C   0  0  0  0  0  0
   18.5449   -5.4667   12.1810 N   0  0  0  0  0  0
   17.9571   -6.3497   12.9462 C   0  0  0  0  0  0
   17.4108   -7.1074   16.1819 C   0  0  0  0  0  0
   17.6980   -4.8740   11.2921 C   0  0  0  0  0  0
   16.2344   -6.5150   12.6578 S   0  0  0  0  0  0
   16.7882   -9.2226   16.4995 C   0  0  0  0  0  0
   17.5450   -9.1409   15.2842 C   0  0  0  0  0  0
   16.3529   -5.3100   11.3935 C   0  0  0  0  0  0
   18.7563   -7.1736   13.9534 C   0  0  0  0  0  0
   16.0094   -7.5646   18.2606 C   0  0  0  0  0  0
   16.4909   -6.3416   19.0634 C   0  0  0  0  0  0
   18.0433   -3.8953   10.3328 C   0  0  0  0  0  0
   15.7443   -5.6891   19.7811 O   0  0  0  0  0  0
   19.3078   -3.4363   10.1810 F   0  0  0  0  0  0
   17.8239   -6.1152   18.9785 O   0  0  0  0  0  0
   15.3476   -4.7776   10.5798 C   0  0  0  0  0  0
   16.2309  -10.4291   16.9476 C   0  0  0  0  0  0
   17.7507  -10.3164   14.5445 C   0  0  0  0  0  0
   15.7157   -3.8089    9.6479 C   0  0  0  0  0  0
   17.0326   -3.3755    9.5245 C   0  0  0  0  0  0
   17.2114  -11.5161   15.0030 C   0  0  0  0  0  0
   16.4654  -11.5654   16.1752 C   0  0  0  0  0  0
   17.4759   -6.0622   16.4203 H   0  0  0  0  0  0
   19.5489   -6.5520   14.3742 H   0  0  0  0  0  0
   19.2828   -7.9654   13.4194 H   0  0  0  0  0  0
   14.9684   -7.4148   17.9650 H   0  0  0  0  0  0
   16.0229   -8.4082   18.9535 H   0  0  0  0  0  0
   18.2767   -6.7678   18.4406 H   0  0  0  0  0  0
   14.3178   -5.0955   10.6708 H   0  0  0  0  0  0
   15.6445  -10.4901   17.8526 H   0  0  0  0  0  0
   18.3174  -10.2943   13.6240 H   0  0  0  0  0  0
   14.9467   -3.3847    9.0158 H   0  0  0  0  0  0
   17.2751   -2.6178    8.7940 H   0  0  0  0  0  0
   17.3656  -12.4223   14.4331 H   0  0  0  0  0  0
   16.0526  -12.5126   16.4910 H   0  0  0  0  0  0
  1  5  1  0  0  0
  1  8  1  0  0  0
  1 12  1  0  0  0
  2  5  2  0  0  0
  2 11  1  0  0  0
  2  9  1  0  0  0
  3  4  2  0  0  0
  3  6  1  0  0  0
  4 11  1  0  0  0
  4  7  1  0  0  0
  5 25  1  0  0  0
  6 14  1  0  0  0
  6 10  2  0  0  0
  7 10  1  0  0  0
  8  9  2  0  0  0
  8 19  1  0  0  0
  9 20  1  0  0  0
 10 18  1  0  0  0
 11 26  1  0  0  0
 11 27  1  0  0  0
 12 13  1  0  0  0
 12 28  1  0  0  0
 12 29  1  0  0  0
 13 15  2  0  0  0
 13 17  1  0  0  0
 14 16  1  0  0  0
 14 22  2  0  0  0
 17 30  1  0  0  0
 18 21  2  0  0  0
 18 31  1  0  0  0
 19 24  2  0  0  0
 19 32  1  0  0  0
 20 23  2  0  0  0
 20 33  1  0  0  0
 21 22  1  0  0  0
 21 34  1  0  0  0
 22 35  1  0  0  0
 23 24  1  0  0  0
 23 36  1  0  0  0
 24 37  1  0  0  0
M  END
> <s_m_entry_id>
6268

> <s_m_entry_name>
dock_pv.103

> <s_m_Source_Path>
/home/csk/Desktop/cluster/DUD-E-result/aldr

> <s_m_Source_File>
dock_pv.maegz

> <i_m_Source_File_Index>
103

> <chembl_id>
CHEMBL372902

> <chembl_pref_name>
None

> <i_lp_mmshare_version>
53161

> <i_f3d_flags>
0

> <r_lp_tautomer_probability>
1

> <s_lp_Force_Field>
OPLS_2005

> <r_lp_Energy>
15.716983

> <b_lp_Chiralities_Consistent>
1

> <s_lp_Variant>
CHEMBL1900_lig381-1

> <s_i_glide_gridfile>
glide-grid_2hv5

> <i_i_glide_lignum>
502

> <i_i_glide_rotatable_bonds>
5

> <r_i_docking_score>
-9.94449459685855

> <r_i_glide_ligand_efficiency>
-0.414353941535773

> <r_i_glide_ligand_efficiency_sa>
-1.19520358700416

> <r_i_glide_ligand_efficiency_ln>
-2.38017388015089

> <r_i_glide_gscore>
-9.94449459685855

> <r_i_glide_lipo>
-4.42089898767556

> <r_i_glide_hbond>
-0.32

> <r_i_glide_metal>
0

> <r_i_glide_rewards>
-2.77548328891158

> <r_i_glide_evdw>
-41.6968154907227

> <r_i_glide_ecoul>
-6.57787179946899

> <r_i_glide_erotb>
0.653810053970063

> <r_i_glide_esite>
-0.0104008297849934

> <r_i_glide_emodel>
-72.0206424174067

> <r_i_glide_energy>
-48.2746872901917

> <r_i_glide_einternal>
5.78258609771729

> <i_i_glide_confnum>
3

> <i_i_glide_posenum>
128

> <r_i_glide_eff_state_penalty>
0

> <s_user_duplicate_titles>
CHEMBL1900_lig381,321159

> <s_m_subgroup_title>
dock_pv

> <s_m_subgroupid>
dock_pv

> <b_m_subgroup_collapsed>
1

$$$$
CHEMBL1900_lig312
                    3D
 Schrodinger Suite 2021-1.
 41 44  0  0  1  0            999 V2000
   18.2220   -8.3804   14.8250 N   0  0  0  0  0  0
   17.7450   -7.7987   15.9968 N   0  0  0  0  0  0
   17.9850   -6.6647   12.9878 C   0  0  0  0  0  0
   18.0732   -9.7067   14.4572 C   0  0  0  0  0  0
   18.4362   -5.7151   12.2092 N   0  0  0  0  0  0
   17.0503   -8.4688   16.8368 C   0  0  0  0  0  0
   18.9255   -7.4537   13.8929 C   0  0  1  0  0  0
   16.2587   -6.9149   12.9056 S   0  0  0  0  0  0
   17.2178  -10.4853   15.4521 C   0  0  0  0  0  0
   17.4706   -5.1756   11.4380 C   0  0  0  0  0  0
   16.6567   -9.8656   16.5895 C   0  0  0  0  0  0
   16.7839   -7.7708   18.1775 C   0  0  0  0  0  0
   16.1833   -5.7256   11.6321 C   0  0  0  0  0  0
   16.0156   -6.4488   18.0575 C   0  0  0  0  0  0
   17.6803   -4.1583   10.5009 C   0  0  0  0  0  0
   18.5450  -10.2019   13.4289 O   0  0  0  0  0  0
   15.3449   -6.1146   17.0810 O   0  0  0  0  0  0
   15.0975   -5.3128   10.8645 C   0  0  0  0  0  0
   16.5928   -3.7484    9.7381 C   0  0  0  0  0  0
   16.1438   -5.7173   19.2016 O   0  0  0  0  0  0
   15.3451   -4.3477    9.8926 C   0  0  0  0  0  0
   19.8681   -6.4675   14.5907 C   0  0  0  0  0  0
   16.7990   -2.4907    8.5812 Cl  0  0  0  0  0  0
   16.9431  -11.8336   15.1893 C   0  0  0  0  0  0
   15.7376  -10.5776   17.3765 C   0  0  0  0  0  0
   16.0676  -12.5434   16.0102 C   0  0  0  0  0  0
   15.4512  -11.9115   17.0888 C   0  0  0  0  0  0
   19.5897   -8.0316   13.2457 H   0  0  0  0  0  0
   16.2500   -8.4026   18.8827 H   0  0  0  0  0  0
   17.7459   -7.5576   18.6394 H   0  0  0  0  0  0
   18.6523   -3.7113   10.3685 H   0  0  0  0  0  0
   14.1137   -5.7440   10.9930 H   0  0  0  0  0  0
   16.7493   -6.1291   19.8208 H   0  0  0  0  0  0
   14.5451   -4.0715    9.2357 H   0  0  0  0  0  0
   20.5450   -6.0436   13.8685 H   0  0  0  0  0  0
   19.2980   -5.6295   14.9810 H   0  0  0  0  0  0
   20.4611   -6.9146   15.3810 H   0  0  0  0  0  0
   17.3744  -12.3270   14.3291 H   0  0  0  0  0  0
   15.2332  -10.1252   18.2164 H   0  0  0  0  0  0
   15.8442  -13.5780   15.7920 H   0  0  0  0  0  0
   14.7474  -12.4567   17.7023 H   0  0  0  0  0  0
  1  2  1  0  0  0
  1  4  1  0  0  0
  1  7  1  0  0  0
  2  6  2  0  0  0
  3  7  1  0  0  0
  3  5  2  0  0  0
  3  8  1  0  0  0
  4  9  1  0  0  0
  4 16  2  0  0  0
  5 10  1  0  0  0
  6 12  1  0  0  0
  6 11  1  0  0  0
  7 22  1  0  0  0
  7 28  1  0  0  0
  8 13  1  0  0  0
  9 11  1  0  0  0
  9 24  2  0  0  0
 10 15  1  0  0  0
 10 13  2  0  0  0
 11 25  2  0  0  0
 12 14  1  0  0  0
 12 29  1  0  0  0
 12 30  1  0  0  0
 13 18  1  0  0  0
 14 17  2  0  0  0
 14 20  1  0  0  0
 15 19  2  0  0  0
 15 31  1  0  0  0
 18 21  2  0  0  0
 18 32  1  0  0  0
 19 23  1  0  0  0
 19 21  1  0  0  0
 20 33  1  0  0  0
 21 34  1  0  0  0
 22 35  1  0  0  0
 22 36  1  0  0  0
 22 37  1  0  0  0
 24 26  1  0  0  0
 24 38  1  0  0  0
 25 27  1  0  0  0
 25 39  1  0  0  0
 26 27  2  0  0  0
 26 40  1  0  0  0
 27 41  1  0  0  0
M  END
> <s_m_entry_id>
6269

> <s_m_entry_name>
dock_pv.104

> <s_m_Source_Path>
/home/csk/Desktop/cluster/DUD-E-result/aldr

> <s_m_Source_File>
dock_pv.maegz

> <i_m_Source_File_Index>
104

> <chembl_id>
CHEMBL20009

> <chembl_pref_name>
None

> <i_lp_mmshare_version>
53161

> <i_f3d_flags>
0

> <r_lp_tautomer_probability>
1

> <s_lp_Force_Field>
OPLS_2005

> <r_lp_Energy>
21.167121

> <b_lp_Chiralities_Consistent>
1

> <s_lp_Variant>
CHEMBL1900_lig312-1

> <s_i_glide_gridfile>
glide-grid_2hv5

> <i_i_glide_lignum>
428

> <i_i_glide_rotatable_bonds>
5

> <r_i_docking_score>
-9.9361484195995

> <r_i_glide_ligand_efficiency>
-0.368005497022204

> <r_i_glide_ligand_efficiency_sa>
-1.10401648985373

> <r_i_glide_ligand_efficiency_ln>
-2.3129715418736

> <r_i_glide_gscore>
-9.9361484195995

> <r_i_glide_lipo>
-4.93781389154954

> <r_i_glide_hbond>
-0.258302032741965

> <r_i_glide_metal>
0

> <r_i_glide_rewards>
-2.04985167273733

> <r_i_glide_evdw>
-46.0937919616699

> <r_i_glide_ecoul>
-5.83879280090332

> <r_i_glide_erotb>
0.490327695648328

> <r_i_glide_esite>
0

> <r_i_glide_emodel>
-77.011291946351

> <r_i_glide_energy>
-51.9325847625732

> <r_i_glide_einternal>
2.383709192276

> <i_i_glide_confnum>
1

> <i_i_glide_posenum>
13

> <r_i_glide_eff_state_penalty>
0

> <s_user_duplicate_titles>
CHEMBL1900_lig312,24258

> <s_m_subgroup_title>
dock_pv

> <s_m_subgroupid>
dock_pv

> <b_m_subgroup_collapsed>
1

$$$$
CHEMBL1900_lig386
                    3D
 Schrodinger Suite 2021-1.
 37 40  0  0  1  0            999 V2000
   16.8912   -7.9452   17.5553 N   0  0  0  0  0  0
   17.4868   -8.6937   15.5036 C   0  0  0  0  0  0
   16.5044   -7.3146   12.8460 N   0  0  0  0  0  0
   16.4298   -6.2318   12.0328 C   0  0  0  0  0  0
   17.6833   -7.4700   13.3687 C   0  0  0  0  0  0
   17.6226   -5.4795   11.9468 C   0  0  0  0  0  0
   17.6259   -7.6897   16.4290 C   0  0  0  0  0  0
   18.7433   -6.1151   13.1435 S   0  0  0  0  0  0
   16.2084   -9.1351   17.3727 C   0  0  0  0  0  0
   16.6470   -9.6764   16.1266 C   0  0  0  0  0  0
   15.3117   -5.8648   11.2673 C   0  0  0  0  0  0
   18.0781   -8.7230   14.1205 C   0  0  0  0  0  0
   17.7449   -4.4187   11.0360 C   0  0  0  0  0  0
   16.8487   -7.0657   18.7171 C   0  0  0  0  0  0
   15.4373   -4.7930   10.3843 C   0  0  0  0  0  0
   16.1812   -5.7148   18.4718 C   0  0  0  0  0  0
   16.6378   -4.0969   10.2510 C   0  0  0  0  0  0
   15.7451   -5.3515   17.3810 O   0  0  0  0  0  0
   14.1452   -6.5454   11.3490 F   0  0  0  0  0  0
   16.7253   -3.0771    9.3667 F   0  0  0  0  0  0
   16.1455   -4.9741   19.6164 O   0  0  0  0  0  0
   15.2798   -9.8008   18.1799 C   0  0  0  0  0  0
   16.1978  -10.9514   15.7513 C   0  0  0  0  0  0
   14.8451  -11.0561   17.7584 C   0  0  0  0  0  0
   15.3002  -11.6281   16.5754 C   0  0  0  0  0  0
   18.1794   -6.7664   16.3554 H   0  0  0  0  0  0
   19.1632   -8.8192   14.1754 H   0  0  0  0  0  0
   17.7454   -9.6052   13.5722 H   0  0  0  0  0  0
   18.6521   -3.8420   10.9559 H   0  0  0  0  0  0
   16.3591   -7.5864   19.5391 H   0  0  0  0  0  0
   17.8832   -6.8869   19.0053 H   0  0  0  0  0  0
   14.5872   -4.5139    9.7805 H   0  0  0  0  0  0
   16.6160   -5.3839   20.3447 H   0  0  0  0  0  0
   14.9451   -9.3782   19.1090 H   0  0  0  0  0  0
   16.5443  -11.3990   14.8318 H   0  0  0  0  0  0
   14.1448  -11.6054   18.3719 H   0  0  0  0  0  0
   14.9444  -12.6069   16.2892 H   0  0  0  0  0  0
  1  7  1  0  0  0
  1  9  1  0  0  0
  1 14  1  0  0  0
  2  7  2  0  0  0
  2 12  1  0  0  0
  2 10  1  0  0  0
  3  5  2  0  0  0
  3  4  1  0  0  0
  4 11  1  0  0  0
  4  6  2  0  0  0
  5 12  1  0  0  0
  5  8  1  0  0  0
  6  8  1  0  0  0
  6 13  1  0  0  0
  7 26  1  0  0  0
  9 10  2  0  0  0
  9 22  1  0  0  0
 10 23  1  0  0  0
 11 15  2  0  0  0
 11 19  1  0  0  0
 12 27  1  0  0  0
 12 28  1  0  0  0
 13 17  2  0  0  0
 13 29  1  0  0  0
 14 16  1  0  0  0
 14 30  1  0  0  0
 14 31  1  0  0  0
 15 17  1  0  0  0
 15 32  1  0  0  0
 16 18  2  0  0  0
 16 21  1  0  0  0
 17 20  1  0  0  0
 21 33  1  0  0  0
 22 24  2  0  0  0
 22 34  1  0  0  0
 23 25  2  0  0  0
 23 35  1  0  0  0
 24 25  1  0  0  0
 24 36  1  0  0  0
 25 37  1  0  0  0
M  END
> <s_m_entry_id>
6270

> <s_m_entry_name>
dock_pv.105

> <s_m_Source_Path>
/home/csk/Desktop/cluster/DUD-E-result/aldr

> <s_m_Source_File>
dock_pv.maegz

> <i_m_Source_File_Index>
105

> <chembl_id>
CHEMBL192534

> <chembl_pref_name>
None

> <i_lp_mmshare_version>
53161

> <i_f3d_flags>
0

> <r_lp_tautomer_probability>
1

> <s_lp_Force_Field>
OPLS_2005

> <r_lp_Energy>
13.496346

> <b_lp_Chiralities_Consistent>
1

> <s_lp_Variant>
CHEMBL1900_lig386-1

> <s_i_glide_gridfile>
glide-grid_2hv5

> <i_i_glide_lignum>
507

> <i_i_glide_rotatable_bonds>
5

> <r_i_docking_score>
-9.92374345402238

> <r_i_glide_ligand_efficiency>
-0.396949738160895

> <r_i_glide_ligand_efficiency_sa>
-1.16068807431604

> <r_i_glide_ligand_efficiency_ln>
-2.35222458919667

> <r_i_glide_gscore>
-9.92374345402238

> <r_i_glide_lipo>
-4.70332196173602

> <r_i_glide_hbond>
-0.0640403898948225

> <r_i_glide_metal>
0

> <r_i_glide_rewards>
-3.11231072420356

> <r_i_glide_evdw>
-39.561107635498

> <r_i_glide_ecoul>
-4.41752815246582

> <r_i_glide_erotb>
0.596614226456794

> <r_i_glide_esite>
0

> <r_i_glide_emodel>
-63.7061175803014

> <r_i_glide_energy>
-43.9786357879639

> <r_i_glide_einternal>
2.42344427108765

> <i_i_glide_confnum>
6

> <i_i_glide_posenum>
398

> <r_i_glide_eff_state_penalty>
0

> <s_user_duplicate_titles>
CHEMBL1900_lig386,321404

> <s_m_subgroup_title>
dock_pv

> <s_m_subgroupid>
dock_pv

> <b_m_subgroup_collapsed>
1

$$$$
CHEMBL1900_lig380
                    3D
 Schrodinger Suite 2021-1.
 37 40  0  0  1  0            999 V2000
   16.8222   -7.7080   17.7229 N   0  0  0  0  0  0
   17.3121   -8.4163   15.6235 C   0  0  0  0  0  0
   17.4412   -7.2934   13.4217 C   0  0  0  0  0  0
   16.2265   -7.1361   12.9779 N   0  0  0  0  0  0
   17.5395   -7.4521   16.5799 C   0  0  0  0  0  0
   18.5450   -6.0346   12.9804 S   0  0  0  0  0  0
   16.0673   -8.8555   17.5121 C   0  0  0  0  0  0
   16.4048   -9.3478   16.2179 C   0  0  0  0  0  0
   17.3446   -5.4133   11.8685 C   0  0  0  0  0  0
   16.1374   -6.1149   12.0901 C   0  0  0  0  0  0
   17.8801   -8.4880   14.2330 C   0  0  0  0  0  0
   16.9074   -6.9090   18.9489 C   0  0  0  0  0  0
   17.4349   -4.3992   10.9075 C   0  0  0  0  0  0
   16.5160   -5.4348   18.8245 C   0  0  0  0  0  0
   16.1451   -4.9050   17.7813 O   0  0  0  0  0  0
   14.9833   -5.7651   11.3810 C   0  0  0  0  0  0
   16.2850   -4.0886   10.1816 C   0  0  0  0  0  0
   16.6171   -4.7969   20.0247 O   0  0  0  0  0  0
   15.0807   -4.7525   10.4264 C   0  0  0  0  0  0
   16.3578   -2.8511    8.9805 Cl  0  0  0  0  0  0
   15.1542   -9.5322   18.3284 C   0  0  0  0  0  0
   15.8417  -10.5559   15.7811 C   0  0  0  0  0  0
   14.9448  -11.2291   16.6031 C   0  0  0  0  0  0
   14.6041  -10.7211   17.8496 C   0  0  0  0  0  0
   18.1702   -6.5757   16.5341 H   0  0  0  0  0  0
   18.9689   -8.5402   14.2809 H   0  0  0  0  0  0
   17.5811   -9.4069   13.7290 H   0  0  0  0  0  0
   16.3117   -7.3827   19.7284 H   0  0  0  0  0  0
   17.9488   -6.9247   19.2580 H   0  0  0  0  0  0
   18.3572   -3.8650   10.7383 H   0  0  0  0  0  0
   14.0493   -6.2833   11.5414 H   0  0  0  0  0  0
   16.9644   -5.3549   20.7226 H   0  0  0  0  0  0
   14.2025   -4.5120    9.8461 H   0  0  0  0  0  0
   14.9440   -9.1999   19.3303 H   0  0  0  0  0  0
   16.1055  -10.9606   14.8160 H   0  0  0  0  0  0
   14.5048  -12.1587   16.2707 H   0  0  0  0  0  0
   13.9079  -11.2731   18.4670 H   0  0  0  0  0  0
  1  5  1  0  0  0
  1  7  1  0  0  0
  1 12  1  0  0  0
  2  5  2  0  0  0
  2 11  1  0  0  0
  2  8  1  0  0  0
  3 11  1  0  0  0
  3  4  2  0  0  0
  3  6  1  0  0  0
  4 10  1  0  0  0
  5 25  1  0  0  0
  6  9  1  0  0  0
  7  8  2  0  0  0
  7 21  1  0  0  0
  8 22  1  0  0  0
  9 13  1  0  0  0
  9 10  2  0  0  0
 10 16  1  0  0  0
 11 26  1  0  0  0
 11 27  1  0  0  0
 12 14  1  0  0  0
 12 28  1  0  0  0
 12 29  1  0  0  0
 13 17  2  0  0  0
 13 30  1  0  0  0
 14 15  2  0  0  0
 14 18  1  0  0  0
 16 19  2  0  0  0
 16 31  1  0  0  0
 17 20  1  0  0  0
 17 19  1  0  0  0
 18 32  1  0  0  0
 19 33  1  0  0  0
 21 24  2  0  0  0
 21 34  1  0  0  0
 22 23  2  0  0  0
 22 35  1  0  0  0
 23 24  1  0  0  0
 23 36  1  0  0  0
 24 37  1  0  0  0
M  END
> <s_m_entry_id>
6271

> <s_m_entry_name>
dock_pv.106

> <s_m_Source_Path>
/home/csk/Desktop/cluster/DUD-E-result/aldr

> <s_m_Source_File>
dock_pv.maegz

> <i_m_Source_File_Index>
106

> <chembl_id>
CHEMBL192213

> <chembl_pref_name>
None

> <i_lp_mmshare_version>
53161

> <i_f3d_flags>
0

> <r_lp_tautomer_probability>
1

> <s_lp_Force_Field>
OPLS_2005

> <r_lp_Energy>
12.728958

> <b_lp_Chiralities_Consistent>
1

> <s_lp_Variant>
CHEMBL1900_lig380-1

> <s_i_glide_gridfile>
glide-grid_2hv5

> <i_i_glide_lignum>
501

> <i_i_glide_rotatable_bonds>
5

> <r_i_docking_score>
-9.92071508378978

> <r_i_glide_ligand_efficiency>
-0.413363128491241

> <r_i_glide_ligand_efficiency_sa>
-1.19234558763172

> <r_i_glide_ligand_efficiency_ln>
-2.37448235150278

> <r_i_glide_gscore>
-9.92071508378978

> <r_i_glide_lipo>
-5.19007854020723

> <r_i_glide_hbond>
0

> <r_i_glide_metal>
0

> <r_i_glide_rewards>
-2.68753885282513

> <r_i_glide_evdw>
-42.6767158508301

> <r_i_glide_ecoul>
-3.40306305885315

> <r_i_glide_erotb>
0.601197560612051

> <r_i_glide_esite>
0

> <r_i_glide_emodel>
-66.5113763385466

> <r_i_glide_energy>
-46.0797789096832

> <r_i_glide_einternal>
2.38893246650696

> <i_i_glide_confnum>
5

> <i_i_glide_posenum>
95

> <r_i_glide_eff_state_penalty>
0

> <s_user_duplicate_titles>
CHEMBL1900_lig380,321134

> <s_m_subgroup_title>
dock_pv

> <s_m_subgroupid>
dock_pv

> <b_m_subgroup_collapsed>
1

$$$$
CHEMBL1900_lig174
                    3D
 Schrodinger Suite 2021-1.
 44 47  0  0  1  0            999 V2000
   18.0833   -8.2648   15.4034 N   0  0  0  0  0  0
   17.5889   -7.5208   16.4700 N   0  0  0  0  0  0
   18.4880   -5.7151   12.9379 N   0  0  0  0  0  0
   17.7490   -5.7969   11.8443 C   0  0  0  0  0  0
   17.7538   -9.5751   15.0912 C   0  0  0  0  0  0
   16.8084   -8.0648   17.3267 C   0  0  0  0  0  0
   18.4462   -6.9484   13.3700 C   0  0  0  0  0  0
   17.3450   -6.9988   11.5235 N   0  0  0  0  0  0
   19.0848   -7.5570   14.5832 C   0  0  0  0  0  0
   16.6788  -10.1307   16.0180 C   0  0  0  0  0  0
   14.9083   -5.2577   10.9537 C   0  0  0  0  0  0
   16.1746   -9.3703   17.0911 C   0  0  0  0  0  0
   17.3988   -4.6425   10.9609 C   0  0  0  0  0  0
   16.7283   -7.3766   18.6951 C   0  0  0  0  0  0
   16.1008   -4.4362   10.4550 C   0  0  0  0  0  0
   17.7465   -7.7882   12.5808 O   0  0  0  0  0  0
   16.1515   -5.9545   18.7367 C   0  0  0  0  0  0
   18.2777  -10.2215   14.1793 O   0  0  0  0  0  0
   15.7451   -5.4562   19.7810 O   0  0  0  0  0  0
   14.9288   -5.3150   12.2621 F   0  0  0  0  0  0
   13.7452   -4.7416   10.5814 F   0  0  0  0  0  0
   14.9457   -6.5150   10.5810 F   0  0  0  0  0  0
   16.1451   -5.3151   17.5355 O   0  0  0  0  0  0
   16.1741  -11.4158   15.7805 C   0  0  0  0  0  0
   15.0769   -9.8520   17.8178 C   0  0  0  0  0  0
   18.4047   -3.7462   10.6022 C   0  0  0  0  0  0
   15.8955   -3.3985    9.5369 C   0  0  0  0  0  0
   15.1303  -11.9138   16.5607 C   0  0  0  0  0  0
   14.5725  -11.1270   17.5669 C   0  0  0  0  0  0
   16.9056   -2.5064    9.2101 C   0  0  0  0  0  0
   18.1580   -2.6564    9.7806 C   0  0  0  0  0  0
   19.6187   -6.8155   15.1799 H   0  0  0  0  0  0
   19.8714   -8.2327   14.2405 H   0  0  0  0  0  0
   16.1736   -7.9781   19.4121 H   0  0  0  0  0  0
   17.7394   -7.3110   19.0961 H   0  0  0  0  0  0
   16.6003   -5.8631   16.8862 H   0  0  0  0  0  0
   16.5670  -12.0220   14.9752 H   0  0  0  0  0  0
   14.6183   -9.2674   18.6004 H   0  0  0  0  0  0
   19.3847   -3.8968   10.9810 H   0  0  0  0  0  0
   14.9450   -3.2405    9.0789 H   0  0  0  0  0  0
   14.7342  -12.9004   16.3679 H   0  0  0  0  0  0
   13.7453  -11.5061   18.1509 H   0  0  0  0  0  0
   16.7067   -1.6966    8.5255 H   0  0  0  0  0  0
   18.9450   -1.9546    9.5507 H   0  0  0  0  0  0
  1  2  1  0  0  0
  1  5  1  0  0  0
  1  9  1  0  0  0
  2  6  2  0  0  0
  3  7  2  0  0  0
  3  4  1  0  0  0
  4 13  1  0  0  0
  4  8  2  0  0  0
  5 10  1  0  0  0
  5 18  2  0  0  0
  6 14  1  0  0  0
  6 12  1  0  0  0
  7  9  1  0  0  0
  7 16  1  0  0  0
  8 16  1  0  0  0
  9 32  1  0  0  0
  9 33  1  0  0  0
 10 12  2  0  0  0
 10 24  1  0  0  0
 11 15  1  0  0  0
 11 20  1  0  0  0
 11 21  1  0  0  0
 11 22  1  0  0  0
 12 25  1  0  0  0
 13 15  2  0  0  0
 13 26  1  0  0  0
 14 17  1  0  0  0
 14 34  1  0  0  0
 14 35  1  0  0  0
 15 27  1  0  0  0
 17 19  2  0  0  0
 17 23  1  0  0  0
 23 36  1  0  0  0
 24 28  2  0  0  0
 24 37  1  0  0  0
 25 29  2  0  0  0
 25 38  1  0  0  0
 26 31  2  0  0  0
 26 39  1  0  0  0
 27 30  2  0  0  0
 27 40  1  0  0  0
 28 29  1  0  0  0
 28 41  1  0  0  0
 29 42  1  0  0  0
 30 31  1  0  0  0
 30 43  1  0  0  0
 31 44  1  0  0  0
M  END
> <s_m_entry_id>
6272

> <s_m_entry_name>
dock_pv.107

> <s_m_Source_Path>
/home/csk/Desktop/cluster/DUD-E-result/aldr

> <s_m_Source_File>
dock_pv.maegz

> <i_m_Source_File_Index>
107

> <chembl_id>
CHEMBL141390

> <chembl_pref_name>
None

> <i_lp_mmshare_version>
53161

> <i_f3d_flags>
0

> <r_lp_tautomer_probability>
1

> <s_lp_Force_Field>
OPLS_2005

> <r_lp_Energy>
31.536601

> <b_lp_Chiralities_Consistent>
1

> <s_lp_Variant>
CHEMBL1900_lig174-1

> <s_i_glide_gridfile>
glide-grid_2hv5

> <i_i_glide_lignum>
250

> <i_i_glide_rotatable_bonds>
7

> <r_i_docking_score>
-9.91719152105597

> <r_i_glide_ligand_efficiency>
-0.319909403905031

> <r_i_glide_ligand_efficiency_sa>
-1.00495721079499

> <r_i_glide_ligand_efficiency_ln>
-2.23663061341818

> <r_i_glide_gscore>
-9.91719152105597

> <r_i_glide_lipo>
-4.57397945473818

> <r_i_glide_hbond>
-0.32

> <r_i_glide_metal>
0

> <r_i_glide_rewards>
-2.80728618718702

> <r_i_glide_evdw>
-42.844898223877

> <r_i_glide_ecoul>
-4.06957054138184

> <r_i_glide_erotb>
0.536754613270359

> <r_i_glide_esite>
0

> <r_i_glide_emodel>
-65.1559379737632

> <r_i_glide_energy>
-46.9144687652588

> <r_i_glide_einternal>
5.51677322387695

> <i_i_glide_confnum>
195

> <i_i_glide_posenum>
149

> <r_i_glide_eff_state_penalty>
0

> <s_user_duplicate_titles>
CHEMBL1900_lig174,235782

> <s_m_subgroup_title>
dock_pv

> <s_m_subgroupid>
dock_pv

> <b_m_subgroup_collapsed>
1

$$$$
CHEMBL1900_lig49
                    3D
 Schrodinger Suite 2021-1.
 35 37  0  0  1  0            999 V2000
   18.3170   -8.6474   15.0601 N   0  0  0  0  0  0
   18.0923   -6.7860   13.4237 C   0  0  0  0  0  0
   17.7446   -8.1617   16.2387 N   0  0  0  0  0  0
   18.5451   -5.8732   12.6187 N   0  0  0  0  0  0
   19.0299   -7.6328   14.2661 C   0  0  0  0  0  0
   16.3454   -6.9170   13.4490 S   0  0  0  0  0  0
   18.1338   -9.9136   14.5371 C   0  0  0  0  0  0
   16.7454   -2.5660    9.4316 C   0  0  0  0  0  0
   17.5623   -5.3298   11.8658 C   0  0  0  0  0  0
   16.8770   -8.8440   16.8976 C   0  0  0  0  0  0
   16.2694   -5.8485   12.0917 C   0  0  0  0  0  0
   16.6320   -3.8279   10.2575 C   0  0  0  0  0  0
   17.2436  -10.7078   15.3765 C   0  0  0  0  0  0
   16.2251   -8.1699   18.1032 C   0  0  0  0  0  0
   17.7523   -4.3149   10.9338 C   0  0  0  0  0  0
   16.6240  -10.1983   16.4716 C   0  0  0  0  0  0
   15.7011   -6.7605   17.7868 C   0  0  0  0  0  0
   18.5989  -10.3390   13.4793 O   0  0  0  0  0  0
   15.1707   -5.4565   11.3306 C   0  0  0  0  0  0
   15.3864   -4.4496   10.4008 C   0  0  0  0  0  0
   14.9450   -6.5146   16.8497 O   0  0  0  0  0  0
   17.9434   -1.9923    9.5469 F   0  0  0  0  0  0
   16.5566   -2.9149    8.1807 F   0  0  0  0  0  0
   15.8112   -1.6832    9.7805 F   0  0  0  0  0  0
   16.1449   -5.8403   18.6918 O   0  0  0  0  0  0
   19.6177   -7.0097   14.9418 H   0  0  0  0  0  0
   19.7916   -8.0930   13.6324 H   0  0  0  0  0  0
   17.0518  -11.7266   15.0737 H   0  0  0  0  0  0
   16.9449   -8.1153   18.9177 H   0  0  0  0  0  0
   15.3891   -8.7679   18.4637 H   0  0  0  0  0  0
   18.7253   -3.8707   10.8053 H   0  0  0  0  0  0
   15.9483  -10.8306   17.0271 H   0  0  0  0  0  0
   14.1847   -5.8688   11.4955 H   0  0  0  0  0  0
   14.5454   -4.1148    9.8242 H   0  0  0  0  0  0
   16.7942   -6.2061   19.2956 H   0  0  0  0  0  0
  1  3  1  0  0  0
  1  5  1  0  0  0
  1  7  1  0  0  0
  2  5  1  0  0  0
  2  4  2  0  0  0
  2  6  1  0  0  0
  3 10  2  0  0  0
  4  9  1  0  0  0
  5 26  1  0  0  0
  5 27  1  0  0  0
  6 11  1  0  0  0
  7 13  1  0  0  0
  7 18  2  0  0  0
  8 12  1  0  0  0
  8 22  1  0  0  0
  8 23  1  0  0  0
  8 24  1  0  0  0
  9 15  1  0  0  0
  9 11  2  0  0  0
 10 14  1  0  0  0
 10 16  1  0  0  0
 11 19  1  0  0  0
 12 15  2  0  0  0
 12 20  1  0  0  0
 13 16  2  0  0  0
 13 28  1  0  0  0
 14 17  1  0  0  0
 14 29  1  0  0  0
 14 30  1  0  0  0
 15 31  1  0  0  0
 16 32  1  0  0  0
 17 21  2  0  0  0
 17 25  1  0  0  0
 19 20  2  0  0  0
 19 33  1  0  0  0
 20 34  1  0  0  0
 25 35  1  0  0  0
M  END
> <s_m_entry_id>
6273

> <s_m_entry_name>
dock_pv.108

> <s_m_Source_Path>
/home/csk/Desktop/cluster/DUD-E-result/aldr

> <s_m_Source_File>
dock_pv.maegz

> <i_m_Source_File_Index>
108

> <chembl_id>
CHEMBL69183

> <chembl_pref_name>
None

> <i_lp_mmshare_version>
53161

> <i_f3d_flags>
0

> <r_lp_tautomer_probability>
1

> <s_lp_Force_Field>
OPLS_2005

> <r_lp_Energy>
24.195589

> <b_lp_Chiralities_Consistent>
1

> <s_lp_Variant>
CHEMBL1900_lig49-1

> <s_i_glide_gridfile>
glide-grid_2hv5

> <i_i_glide_lignum>
84

> <i_i_glide_rotatable_bonds>
6

> <r_i_docking_score>
-9.91705107023661

> <r_i_glide_ligand_efficiency>
-0.396682042809464

> <r_i_glide_ligand_efficiency_sa>
-1.15990532836086

> <r_i_glide_ligand_efficiency_ln>
-2.35063829368489

> <r_i_glide_gscore>
-9.91705107023661

> <r_i_glide_lipo>
-4.22863680501213

> <r_i_glide_hbond>
-0.314550301500028

> <r_i_glide_metal>
0

> <r_i_glide_rewards>
-3.17056874032036

> <r_i_glide_evdw>
-41.1885452270508

> <r_i_glide_ecoul>
-4.72844982147217

> <r_i_glide_erotb>
0.565399511169271

> <r_i_glide_esite>
0

> <r_i_glide_emodel>
-66.4563080602308

> <r_i_glide_energy>
-45.9169950485229

> <r_i_glide_einternal>
5.3514723777771

> <i_i_glide_confnum>
6

> <i_i_glide_posenum>
184

> <r_i_glide_eff_state_penalty>
0

> <s_user_duplicate_titles>
CHEMBL1900_lig49,107338

> <s_m_subgroup_title>
dock_pv

> <s_m_subgroupid>
dock_pv

> <b_m_subgroup_collapsed>
1

$$$$
CHEMBL1900_lig633
                    3D
 Schrodinger Suite 2021-1.
 41 43  0  0  1  0            999 V2000
   15.7221   -4.1714    9.9960 C   0  0  0  0  0  0
   17.0448   -3.7515    9.8639 C   0  0  0  0  0  0
   18.0475   -4.3071   10.6577 C   0  0  0  0  0  0
   15.3827   -5.1122   10.9673 C   0  0  0  0  0  0
   16.3795   -5.6233   11.7993 C   0  0  0  0  0  0
   17.7056   -5.2401   11.6361 C   0  0  0  0  0  0
   18.6957   -5.7140   12.4787 O   0  0  0  0  0  0
   18.4361   -6.5286   13.5729 C   0  0  0  0  0  0
   17.0073   -6.8491   13.8714 C   0  0  0  0  0  0
   16.0843   -6.4284   12.9709 C   0  0  0  0  0  0
   19.4359   -6.8768   14.2004 O   0  0  0  0  0  0
   16.5373   -7.4540   15.1182 C   0  0  0  0  0  0
   17.4651   -7.8034   16.0222 N   0  0  0  0  0  0
   15.3445   -7.5933   15.3803 O   0  0  0  0  0  0
   17.1724   -8.2802   17.3769 C   0  0  0  0  0  0
   16.5284   -7.2177   18.3008 C   0  0  0  0  0  0
   17.3491   -5.9187   18.3560 C   0  0  0  0  0  0
   16.7553   -4.8153   19.2075 C   0  0  0  0  0  0
   16.8632   -4.8742   20.5979 C   0  0  0  0  0  0
   16.3649   -3.8397   21.3844 C   0  0  0  0  0  0
   15.7344   -2.7556   20.7787 C   0  0  0  0  0  0
   15.6225   -2.6857   19.3927 C   0  0  0  0  0  0
   16.1452   -3.7097   18.6052 C   0  0  0  0  0  0
   17.3455   -2.7585    8.9809 O   0  0  0  0  0  0
   16.4888   -3.8932   22.7289 F   0  0  0  0  0  0
   14.9453   -3.7439    9.3797 H   0  0  0  0  0  0
   19.0659   -3.9705   10.5546 H   0  0  0  0  0  0
   14.3462   -5.3880   11.1062 H   0  0  0  0  0  0
   15.0359   -6.5149   13.1879 H   0  0  0  0  0  0
   18.4359   -7.6722   15.7696 H   0  0  0  0  0  0
   18.1447   -8.5420   17.7806 H   0  0  0  0  0  0
   16.5750   -9.1935   17.3478 H   0  0  0  0  0  0
   16.4209   -7.6354   19.3026 H   0  0  0  0  0  0
   15.5146   -6.9998   17.9617 H   0  0  0  0  0  0
   17.4778   -5.5319   17.3481 H   0  0  0  0  0  0
   18.3536   -6.1342   18.7208 H   0  0  0  0  0  0
   17.3443   -5.7146   21.0697 H   0  0  0  0  0  0
   15.3449   -1.9537   21.3807 H   0  0  0  0  0  0
   15.1397   -1.8324   18.9392 H   0  0  0  0  0  0
   16.0696   -3.6450   17.5294 H   0  0  0  0  0  0
   16.5579   -2.4273    8.5442 H   0  0  0  0  0  0
  1  2  2  0  0  0
  1  4  1  0  0  0
  1 26  1  0  0  0
  2  3  1  0  0  0
  2 24  1  0  0  0
  3  6  2  0  0  0
  3 27  1  0  0  0
  4  5  2  0  0  0
  4 28  1  0  0  0
  5  6  1  0  0  0
  5 10  1  0  0  0
  6  7  1  0  0  0
  7  8  1  0  0  0
  8  9  1  0  0  0
  8 11  2  0  0  0
  9 10  2  0  0  0
  9 12  1  0  0  0
 10 29  1  0  0  0
 12 13  1  0  0  0
 12 14  2  0  0  0
 13 15  1  0  0  0
 13 30  1  0  0  0
 15 16  1  0  0  0
 15 31  1  0  0  0
 15 32  1  0  0  0
 16 17  1  0  0  0
 16 33  1  0  0  0
 16 34  1  0  0  0
 17 18  1  0  0  0
 17 35  1  0  0  0
 17 36  1  0  0  0
 18 19  2  0  0  0
 18 23  1  0  0  0
 19 20  1  0  0  0
 19 37  1  0  0  0
 20 21  2  0  0  0
 20 25  1  0  0  0
 21 22  1  0  0  0
 21 38  1  0  0  0
 22 23  2  0  0  0
 22 39  1  0  0  0
 23 40  1  0  0  0
 24 41  1  0  0  0
M  END
> <s_m_entry_id>
6274

> <s_m_entry_name>
dock_pv.109

> <s_m_Source_Path>
/home/csk/Desktop/cluster/DUD-E-result/aldr

> <s_m_Source_File>
dock_pv.maegz

> <i_m_Source_File_Index>
109

> <chembl_id>
CHEMBL4060049

> <chembl_pref_name>
None

> <i_lp_mmshare_version>
53161

> <i_f3d_flags>
0

> <r_lp_tautomer_probability>
1

> <s_lp_Force_Field>
OPLS_2005

> <r_lp_Energy>
22.402555

> <b_lp_Chiralities_Consistent>
1

> <s_lp_Variant>
CHEMBL1900_lig633-1

> <s_i_glide_gridfile>
glide-grid_2hv5

> <i_i_glide_lignum>
757

> <i_i_glide_rotatable_bonds>
7

> <r_i_docking_score>
-9.90699400743751

> <r_i_glide_ligand_efficiency>
-0.396279760297501

> <r_i_glide_ligand_efficiency_sa>
-1.15872904716137

> <r_i_glide_ligand_efficiency_ln>
-2.34825446841565

> <r_i_glide_gscore>
-9.90699400743751

> <r_i_glide_lipo>
-5.37895780503022

> <r_i_glide_hbond>
0

> <r_i_glide_metal>
0

> <r_i_glide_rewards>
-2.73652350612628

> <r_i_glide_evdw>
-47.1709403991699

> <r_i_glide_ecoul>
-1.641028881073

> <r_i_glide_erotb>
0.813188655838433

> <r_i_glide_esite>
0

> <r_i_glide_emodel>
-74.2823881646258

> <r_i_glide_energy>
-48.8119692802429

> <r_i_glide_einternal>
3.48018312454224

> <i_i_glide_confnum>
8

> <i_i_glide_posenum>
199

> <r_i_glide_eff_state_penalty>
0

> <s_user_duplicate_titles>
CHEMBL1900_lig633

> <s_m_subgroup_title>
dock_pv

> <s_m_subgroupid>
dock_pv

> <b_m_subgroup_collapsed>
1

$$$$
CHEMBL1900_lig177
                    3D
 Schrodinger Suite 2021-1.
 38 41  0  0  1  0            999 V2000
   17.6182   -8.3143   15.0079 N   0  0  0  0  0  0
   16.9437   -7.3726   15.7812 N   0  0  0  0  0  0
   17.5111   -9.6891   15.1030 C   0  0  0  0  0  0
   16.1418   -7.7429   16.7056 C   0  0  0  0  0  0
   17.9468   -6.7711   13.0773 C   0  0  0  0  0  0
   18.5448   -5.7175   12.5755 N   0  0  0  0  0  0
   18.5783   -7.7572   14.0361 C   0  0  0  0  0  0
   16.5191  -10.1124   16.1769 C   0  0  0  0  0  0
   17.6316   -5.2174   11.6967 C   0  0  0  0  0  0
   15.8535   -9.1637   16.9800 C   0  0  0  0  0  0
   16.6769   -7.0080   12.6252 O   0  0  0  0  0  0
   15.5207   -6.6082   17.5338 C   0  0  0  0  0  0
   16.4615   -5.9891   11.7502 C   0  0  0  0  0  0
   16.2900   -6.2457   18.8172 C   0  0  0  0  0  0
   17.6982   -4.1153   10.8329 C   0  0  0  0  0  0
   18.1441  -10.4910   14.4093 O   0  0  0  0  0  0
   15.7451   -5.7113   19.7801 O   0  0  0  0  0  0
   15.3193   -5.6983   11.0011 C   0  0  0  0  0  0
   16.5550   -3.7940   10.0946 C   0  0  0  0  0  0
   17.6226   -6.5134   18.7643 O   0  0  0  0  0  0
   15.3948   -4.5687   10.1807 C   0  0  0  0  0  0
   16.5525   -2.2471    8.9855 Br  0  0  0  0  0  0
   16.2741  -11.4805   16.3615 C   0  0  0  0  0  0
   14.9449   -9.6085   17.9492 C   0  0  0  0  0  0
   15.3594  -11.9047   17.3238 C   0  0  0  0  0  0
   14.6951  -10.9717   18.1149 C   0  0  0  0  0  0
   19.3699   -7.2662   14.6045 H   0  0  0  0  0  0
   19.0976   -8.5130   13.4447 H   0  0  0  0  0  0
   15.4693   -5.6941   16.9436 H   0  0  0  0  0  0
   14.4877   -6.8432   17.7880 H   0  0  0  0  0  0
   18.5814   -3.5003   10.7792 H   0  0  0  0  0  0
   14.4263   -6.3029   11.0652 H   0  0  0  0  0  0
   18.0513   -6.2890   19.5924 H   0  0  0  0  0  0
   14.5450   -4.2815    9.5839 H   0  0  0  0  0  0
   16.7737  -12.2201   15.7509 H   0  0  0  0  0  0
   14.4153   -8.9143   18.5792 H   0  0  0  0  0  0
   15.1620  -12.9590   17.4520 H   0  0  0  0  0  0
   13.9809  -11.3107   18.8517 H   0  0  0  0  0  0
  1  2  1  0  0  0
  1  3  1  0  0  0
  1  7  1  0  0  0
  2  4  2  0  0  0
  3  8  1  0  0  0
  3 16  2  0  0  0
  4 12  1  0  0  0
  4 10  1  0  0  0
  5  7  1  0  0  0
  5  6  2  0  0  0
  5 11  1  0  0  0
  6  9  1  0  0  0
  7 27  1  0  0  0
  7 28  1  0  0  0
  8 10  2  0  0  0
  8 23  1  0  0  0
  9 15  1  0  0  0
  9 13  2  0  0  0
 10 24  1  0  0  0
 11 13  1  0  0  0
 12 14  1  0  0  0
 12 29  1  0  0  0
 12 30  1  0  0  0
 13 18  1  0  0  0
 14 17  2  0  0  0
 14 20  1  0  0  0
 15 19  2  0  0  0
 15 31  1  0  0  0
 18 21  2  0  0  0
 18 32  1  0  0  0
 19 22  1  0  0  0
 19 21  1  0  0  0
 20 33  1  0  0  0
 21 34  1  0  0  0
 23 25  2  0  0  0
 23 35  1  0  0  0
 24 26  2  0  0  0
 24 36  1  0  0  0
 25 26  1  0  0  0
 25 37  1  0  0  0
 26 38  1  0  0  0
M  END
> <s_m_entry_id>
6275

> <s_m_entry_name>
dock_pv.110

> <s_m_Source_Path>
/home/csk/Desktop/cluster/DUD-E-result/aldr

> <s_m_Source_File>
dock_pv.maegz

> <i_m_Source_File_Index>
110

> <chembl_id>
CHEMBL358792

> <chembl_pref_name>
None

> <i_lp_mmshare_version>
53161

> <i_f3d_flags>
0

> <r_lp_tautomer_probability>
1

> <s_lp_Force_Field>
OPLS_2005

> <r_lp_Energy>
25.881448

> <b_lp_Chiralities_Consistent>
1

> <s_lp_Variant>
CHEMBL1900_lig177-1

> <s_i_glide_gridfile>
glide-grid_2hv5

> <i_i_glide_lignum>
253

> <i_i_glide_rotatable_bonds>
5

> <r_i_docking_score>
-9.90457157811702

> <r_i_glide_ligand_efficiency>
-0.380945060696808

> <r_i_glide_ligand_efficiency_sa>
-1.12854824336786

> <r_i_glide_ligand_efficiency_ln>
-2.32605613557065

> <r_i_glide_gscore>
-9.90457157811702

> <r_i_glide_lipo>
-4.73751287405031

> <r_i_glide_hbond>
-0.32

> <r_i_glide_metal>
0

> <r_i_glide_rewards>
-2.17637810613385

> <r_i_glide_evdw>
-51.5430870056152

> <r_i_glide_ecoul>
-3.69093728065491

> <r_i_glide_erotb>
0.460114344446144

> <r_i_glide_esite>
0

> <r_i_glide_emodel>
-84.9525986638734

> <r_i_glide_energy>
-55.2340242862701

> <r_i_glide_einternal>
3.9919159412384

> <i_i_glide_confnum>
19

> <i_i_glide_posenum>
290

> <r_i_glide_eff_state_penalty>
0

> <s_user_duplicate_titles>
CHEMBL1900_lig177,236160

> <s_m_subgroup_title>
dock_pv

> <s_m_subgroupid>
dock_pv

> <b_m_subgroup_collapsed>
1

$$$$
CHEMBL1900_lig315
                    3D
 Schrodinger Suite 2021-1.
 38 41  0  0  1  0            999 V2000
   17.9524   -7.7536   14.9739 N   0  0  0  0  0  0
   17.3516   -6.9151   15.9055 N   0  0  0  0  0  0
   17.7449   -9.1150   14.8395 C   0  0  0  0  0  0
   16.3893   -7.3356   16.6338 C   0  0  0  0  0  0
   16.6680   -9.6238   15.7939 C   0  0  0  0  0  0
   17.9676   -6.2924   12.9201 C   0  0  0  0  0  0
   18.5450   -5.3889   12.1808 N   0  0  0  0  0  0
   15.9783   -8.7486   16.6598 C   0  0  0  0  0  0
   18.7773   -7.0533   13.9681 C   0  0  0  0  0  0
   16.2556   -6.5150   12.5811 S   0  0  0  0  0  0
   15.7087   -6.2697   17.4952 C   0  0  0  0  0  0
   17.6998   -4.8160   11.2886 C   0  0  0  0  0  0
   16.3630   -5.2761   11.3495 C   0  0  0  0  0  0
   16.3870   -6.0272   18.8504 C   0  0  0  0  0  0
   14.9855   -9.2590   17.5093 C   0  0  0  0  0  0
   16.3431  -10.9864   15.7807 C   0  0  0  0  0  0
   18.3285   -9.8293   14.0196 O   0  0  0  0  0  0
   15.7450   -5.7150   19.8442 O   0  0  0  0  0  0
   15.3441  -11.4779   16.6208 C   0  0  0  0  0  0
   14.6725  -10.6173   17.4868 C   0  0  0  0  0  0
   17.7449   -6.1151   18.8163 O   0  0  0  0  0  0
   14.8855  -13.3246   16.5761 Br  0  0  0  0  0  0
   18.0647   -3.8248   10.3633 C   0  0  0  0  0  0
   15.3719   -4.7385   10.5198 C   0  0  0  0  0  0
   15.7565   -3.7483    9.6143 C   0  0  0  0  0  0
   17.0742   -3.3020    9.5315 C   0  0  0  0  0  0
   19.4628   -6.3877   14.4961 H   0  0  0  0  0  0
   19.4501   -7.7356   13.4452 H   0  0  0  0  0  0
   15.7022   -5.3091   16.9802 H   0  0  0  0  0  0
   14.6605   -6.5170   17.6590 H   0  0  0  0  0  0
   14.4441   -8.6213   18.1898 H   0  0  0  0  0  0
   16.8498  -11.6693   15.1120 H   0  0  0  0  0  0
   13.8993  -11.0053   18.1357 H   0  0  0  0  0  0
   18.0625   -6.3056   17.9287 H   0  0  0  0  0  0
   19.0778   -3.4588   10.3111 H   0  0  0  0  0  0
   14.3447   -5.0707   10.5791 H   0  0  0  0  0  0
   15.0104   -3.3172    8.9632 H   0  0  0  0  0  0
   17.3279   -2.5312    8.8179 H   0  0  0  0  0  0
  1  2  1  0  0  0
  1  3  1  0  0  0
  1  9  1  0  0  0
  2  4  2  0  0  0
  3  5  1  0  0  0
  3 17  2  0  0  0
  4 11  1  0  0  0
  4  8  1  0  0  0
  5  8  1  0  0  0
  5 16  2  0  0  0
  6  9  1  0  0  0
  6  7  2  0  0  0
  6 10  1  0  0  0
  7 12  1  0  0  0
  8 15  2  0  0  0
  9 27  1  0  0  0
  9 28  1  0  0  0
 10 13  1  0  0  0
 11 14  1  0  0  0
 11 29  1  0  0  0
 11 30  1  0  0  0
 12 23  1  0  0  0
 12 13  2  0  0  0
 13 24  1  0  0  0
 14 18  2  0  0  0
 14 21  1  0  0  0
 15 20  1  0  0  0
 15 31  1  0  0  0
 16 19  1  0  0  0
 16 32  1  0  0  0
 19 20  2  0  0  0
 19 22  1  0  0  0
 20 33  1  0  0  0
 21 34  1  0  0  0
 23 26  2  0  0  0
 23 35  1  0  0  0
 24 25  2  0  0  0
 24 36  1  0  0  0
 25 26  1  0  0  0
 25 37  1  0  0  0
 26 38  1  0  0  0
M  END
> <s_m_entry_id>
6276

> <s_m_entry_name>
dock_pv.111

> <s_m_Source_Path>
/home/csk/Desktop/cluster/DUD-E-result/aldr

> <s_m_Source_File>
dock_pv.maegz

> <i_m_Source_File_Index>
111

> <chembl_id>
CHEMBL279666

> <chembl_pref_name>
None

> <i_lp_mmshare_version>
53161

> <i_f3d_flags>
0

> <r_lp_tautomer_probability>
1

> <s_lp_Force_Field>
OPLS_2005

> <r_lp_Energy>
24.930816

> <b_lp_Chiralities_Consistent>
1

> <s_lp_Variant>
CHEMBL1900_lig315-1

> <s_i_glide_gridfile>
glide-grid_2hv5

> <i_i_glide_lignum>
432

> <i_i_glide_rotatable_bonds>
5

> <r_i_docking_score>
-9.88671956590869

> <r_i_glide_ligand_efficiency>
-0.380258444842642

> <r_i_glide_ligand_efficiency_sa>
-1.1265141466016

> <r_i_glide_ligand_efficiency_ln>
-2.32186364908076

> <r_i_glide_gscore>
-9.88671956590869

> <r_i_glide_lipo>
-4.91698715782289

> <r_i_glide_hbond>
-0.32

> <r_i_glide_metal>
0

> <r_i_glide_rewards>
-2.11293509945781

> <r_i_glide_evdw>
-50.3740234375

> <r_i_glide_ecoul>
-2.98406314849854

> <r_i_glide_erotb>
0.429513335521797

> <r_i_glide_esite>
0

> <r_i_glide_emodel>
-80.5236379135972

> <r_i_glide_energy>
-53.3580865859985

> <r_i_glide_einternal>
4.14588069915771

> <i_i_glide_confnum>
28

> <i_i_glide_posenum>
152

> <r_i_glide_eff_state_penalty>
0

> <s_user_duplicate_titles>
CHEMBL1900_lig315,24193

> <s_m_subgroup_title>
dock_pv

> <s_m_subgroupid>
dock_pv

> <b_m_subgroup_collapsed>
1

$$$$
CHEMBL1900_lig313
                    3D
 Schrodinger Suite 2021-1.
 38 41  0  0  1  0            999 V2000
   17.9002   -7.8298   14.9569 N   0  0  0  0  0  0
   17.2803   -6.9503   15.8357 N   0  0  0  0  0  0
   17.7450   -9.2026   14.9146 C   0  0  0  0  0  0
   16.4051   -7.3670   16.6675 C   0  0  0  0  0  0
   17.9358   -6.3739   12.9085 C   0  0  0  0  0  0
   18.5450   -5.4880   12.1810 N   0  0  0  0  0  0
   16.3743   -5.2313   11.3775 C   0  0  0  0  0  0
   16.2153   -6.5150   12.5792 S   0  0  0  0  0  0
   18.7317   -7.1764   13.9307 C   0  0  0  0  0  0
   16.7334   -9.6911   15.9452 C   0  0  0  0  0  0
   16.0639   -8.7938   16.8044 C   0  0  0  0  0  0
   17.7324   -4.8545   11.3067 C   0  0  0  0  0  0
   15.7329   -6.2785   17.5093 C   0  0  0  0  0  0
   16.3921   -6.0306   18.8740 C   0  0  0  0  0  0
   18.3312   -9.9480   14.1233 O   0  0  0  0  0  0
   15.4220   -4.5807   10.5810 C   0  0  0  0  0  0
   15.7450   -5.7150   19.8621 O   0  0  0  0  0  0
   13.7450   -4.9151   10.7272 Cl  0  0  0  0  0  0
   17.7450   -6.1225   18.8744 O   0  0  0  0  0  0
   16.4563  -11.0629   16.0165 C   0  0  0  0  0  0
   18.1567   -3.8676   10.4031 C   0  0  0  0  0  0
   15.1327   -9.2914   17.7263 C   0  0  0  0  0  0
   17.2031   -3.2557    9.5925 C   0  0  0  0  0  0
   15.8595   -3.6040    9.6874 C   0  0  0  0  0  0
   15.5186  -11.5417   16.9303 C   0  0  0  0  0  0
   14.8589  -10.6581   17.7815 C   0  0  0  0  0  0
   19.4524   -6.5409   14.4493 H   0  0  0  0  0  0
   19.3660   -7.8811   13.3888 H   0  0  0  0  0  0
   15.7447   -5.3249   16.9810 H   0  0  0  0  0  0
   14.6805   -6.5151   17.6611 H   0  0  0  0  0  0
   18.0941   -5.9725   19.7546 H   0  0  0  0  0  0
   16.9548  -11.7618   15.3584 H   0  0  0  0  0  0
   19.1915   -3.5706   10.3519 H   0  0  0  0  0  0
   14.6073   -8.6363   18.4028 H   0  0  0  0  0  0
   17.5028   -2.4847    8.8973 H   0  0  0  0  0  0
   15.1354   -3.0949    9.0686 H   0  0  0  0  0  0
   15.2983  -12.5986   16.9751 H   0  0  0  0  0  0
   14.1293  -11.0343   18.4851 H   0  0  0  0  0  0
  1  2  1  0  0  0
  1  3  1  0  0  0
  1  9  1  0  0  0
  2  4  2  0  0  0
  3 10  1  0  0  0
  3 15  2  0  0  0
  4 13  1  0  0  0
  4 11  1  0  0  0
  5  9  1  0  0  0
  5  6  2  0  0  0
  5  8  1  0  0  0
  6 12  1  0  0  0
  7  8  1  0  0  0
  7 16  1  0  0  0
  7 12  2  0  0  0
  9 27  1  0  0  0
  9 28  1  0  0  0
 10 11  1  0  0  0
 10 20  2  0  0  0
 11 22  2  0  0  0
 12 21  1  0  0  0
 13 14  1  0  0  0
 13 29  1  0  0  0
 13 30  1  0  0  0
 14 17  2  0  0  0
 14 19  1  0  0  0
 16 18  1  0  0  0
 16 24  2  0  0  0
 19 31  1  0  0  0
 20 25  1  0  0  0
 20 32  1  0  0  0
 21 23  2  0  0  0
 21 33  1  0  0  0
 22 26  1  0  0  0
 22 34  1  0  0  0
 23 24  1  0  0  0
 23 35  1  0  0  0
 24 36  1  0  0  0
 25 26  2  0  0  0
 25 37  1  0  0  0
 26 38  1  0  0  0
M  END
> <s_m_entry_id>
6277

> <s_m_entry_name>
dock_pv.112

> <s_m_Source_Path>
/home/csk/Desktop/cluster/DUD-E-result/aldr

> <s_m_Source_File>
dock_pv.maegz

> <i_m_Source_File_Index>
112

> <chembl_id>
CHEMBL20207

> <chembl_pref_name>
None

> <i_lp_mmshare_version>
53161

> <i_f3d_flags>
0

> <r_lp_tautomer_probability>
1

> <s_lp_Force_Field>
OPLS_2005

> <r_lp_Energy>
24.767708

> <b_lp_Chiralities_Consistent>
1

> <s_lp_Variant>
CHEMBL1900_lig313-1

> <s_i_glide_gridfile>
glide-grid_2hv5

> <i_i_glide_lignum>
430

> <i_i_glide_rotatable_bonds>
5

> <r_i_docking_score>
-9.88582076776438

> <r_i_glide_ligand_efficiency>
-0.380223875683245

> <r_i_glide_ligand_efficiency_sa>
-1.12641173560291

> <r_i_glide_ligand_efficiency_ln>
-2.32165256928576

> <r_i_glide_gscore>
-9.88582076776438

> <r_i_glide_lipo>
-4.88088856080194

> <r_i_glide_hbond>
-0.32

> <r_i_glide_metal>
0

> <r_i_glide_rewards>
-2.41027912147096

> <r_i_glide_evdw>
-50.5805549621582

> <r_i_glide_ecoul>
-1.78966689109802

> <r_i_glide_erotb>
0.522824696281137

> <r_i_glide_esite>
0

> <r_i_glide_emodel>
-79.1366562486172

> <r_i_glide_energy>
-52.3702218532562

> <r_i_glide_einternal>
5.91949129104614

> <i_i_glide_confnum>
14

> <i_i_glide_posenum>
163

> <r_i_glide_eff_state_penalty>
0

> <s_user_duplicate_titles>
CHEMBL1900_lig313,24205

> <s_m_subgroup_title>
dock_pv

> <s_m_subgroupid>
dock_pv

> <b_m_subgroup_collapsed>
1

$$$$
CHEMBL1900_lig377
                    3D
 Schrodinger Suite 2021-1.
 43 46  0  0  1  0            999 V2000
   17.0065   -8.2830   17.2877 N   0  0  0  0  0  0
   18.2017   -8.1799   15.3611 C   0  0  0  0  0  0
   18.5688   -5.7729   12.6071 N   0  0  0  0  0  0
   18.1818   -6.8228   13.2761 C   0  0  0  0  0  0
   17.8113   -7.5183   16.4879 C   0  0  0  0  0  0
   17.6443   -9.4981   15.4899 C   0  0  0  0  0  0
   16.8669   -9.5278   16.6945 C   0  0  0  0  0  0
   16.5449   -7.2897   12.9812 S   0  0  0  0  0  0
   16.6112   -2.4284    9.4805 C   0  0  0  0  0  0
   17.6025   -5.2994   11.7805 C   0  0  0  0  0  0
   16.3799   -5.9969   11.8402 C   0  0  0  0  0  0
   16.5977   -3.7494   10.2376 C   0  0  0  0  0  0
   19.0539   -7.5975   14.2418 C   0  0  0  0  0  0
   16.4754   -7.8131   18.5668 C   0  0  0  0  0  0
   17.7273   -4.1835   10.9458 C   0  0  0  0  0  0
   16.1534  -10.6680   17.0852 C   0  0  0  0  0  0
   15.8241   -6.4313   18.5305 C   0  0  0  0  0  0
   17.7177  -10.6566   14.7027 C   0  0  0  0  0  0
   15.2694   -5.6092   11.0933 C   0  0  0  0  0  0
   15.4058   -4.4732   10.3079 C   0  0  0  0  0  0
   15.7451   -5.7154   19.5259 O   0  0  0  0  0  0
   17.7014   -1.7153    9.7701 F   0  0  0  0  0  0
   16.5713   -2.6799    8.1812 F   0  0  0  0  0  0
   15.5420   -1.6941    9.7809 F   0  0  0  0  0  0
   16.2592  -11.7942   16.2700 C   0  0  0  0  0  0
   17.0294  -11.8001   15.1075 C   0  0  0  0  0  0
   15.3450   -6.1149   17.2920 O   0  0  0  0  0  0
   17.1192  -13.0653   14.2763 C   0  0  0  0  0  0
   18.0536   -6.5151   16.7913 H   0  0  0  0  0  0
   19.8283   -6.9425   14.6458 H   0  0  0  0  0  0
   19.5843   -8.3883   13.7093 H   0  0  0  0  0  0
   15.7770   -8.5405   18.9800 H   0  0  0  0  0  0
   17.3216   -7.7149   19.2401 H   0  0  0  0  0  0
   18.6476   -3.6237   10.9215 H   0  0  0  0  0  0
   15.5452  -10.6881   17.9775 H   0  0  0  0  0  0
   18.2989  -10.6587   13.7924 H   0  0  0  0  0  0
   14.3260   -6.1325   11.1631 H   0  0  0  0  0  0
   14.5451   -4.1151    9.7810 H   0  0  0  0  0  0
   15.7251  -12.6906   16.5519 H   0  0  0  0  0  0
   15.5311   -6.8205   16.6671 H   0  0  0  0  0  0
   17.4355  -13.8966   14.9061 H   0  0  0  0  0  0
   17.8363  -12.9754   13.4591 H   0  0  0  0  0  0
   16.1448  -13.3179   13.8597 H   0  0  0  0  0  0
  1  5  1  0  0  0
  1  7  1  0  0  0
  1 14  1  0  0  0
  2  5  2  0  0  0
  2 13  1  0  0  0
  2  6  1  0  0  0
  3  4  2  0  0  0
  3 10  1  0  0  0
  4 13  1  0  0  0
  4  8  1  0  0  0
  5 29  1  0  0  0
  6  7  2  0  0  0
  6 18  1  0  0  0
  7 16  1  0  0  0
  8 11  1  0  0  0
  9 12  1  0  0  0
  9 22  1  0  0  0
  9 23  1  0  0  0
  9 24  1  0  0  0
 10 15  1  0  0  0
 10 11  2  0  0  0
 11 19  1  0  0  0
 12 15  2  0  0  0
 12 20  1  0  0  0
 13 30  1  0  0  0
 13 31  1  0  0  0
 14 17  1  0  0  0
 14 32  1  0  0  0
 14 33  1  0  0  0
 15 34  1  0  0  0
 16 25  2  0  0  0
 16 35  1  0  0  0
 17 21  2  0  0  0
 17 27  1  0  0  0
 18 26  2  0  0  0
 18 36  1  0  0  0
 19 20  2  0  0  0
 19 37  1  0  0  0
 20 38  1  0  0  0
 25 26  1  0  0  0
 25 39  1  0  0  0
 26 28  1  0  0  0
 27 40  1  0  0  0
 28 41  1  0  0  0
 28 42  1  0  0  0
 28 43  1  0  0  0
M  END
> <s_m_entry_id>
6278

> <s_m_entry_name>
dock_pv.113

> <s_m_Source_Path>
/home/csk/Desktop/cluster/DUD-E-result/aldr

> <s_m_Source_File>
dock_pv.maegz

> <i_m_Source_File_Index>
113

> <chembl_id>
CHEMBL192453

> <chembl_pref_name>
None

> <i_lp_mmshare_version>
53161

> <i_f3d_flags>
0

> <r_lp_tautomer_probability>
1

> <s_lp_Force_Field>
OPLS_2005

> <r_lp_Energy>
11.199989

> <b_lp_Chiralities_Consistent>
1

> <s_lp_Variant>
CHEMBL1900_lig377-1

> <s_i_glide_gridfile>
glide-grid_2hv5

> <i_i_glide_lignum>
498

> <i_i_glide_rotatable_bonds>
6

> <r_i_docking_score>
-9.88167611543685

> <r_i_glide_ligand_efficiency>
-0.352917004122745

> <r_i_glide_ligand_efficiency_sa>
-1.07166388151619

> <r_i_glide_ligand_efficiency_ln>
-2.28098098606088

> <r_i_glide_gscore>
-9.88167611543685

> <r_i_glide_lipo>
-4.55230006305731

> <r_i_glide_hbond>
-0.302180180389214

> <r_i_glide_metal>
0

> <r_i_glide_rewards>
-2.78132117999539

> <r_i_glide_evdw>
-35.9841194152832

> <r_i_glide_ecoul>
-6.11235380172729

> <r_i_glide_erotb>
0.480426833738209

> <r_i_glide_esite>
-0.010242484709888

> <r_i_glide_emodel>
-56.2194652202311

> <r_i_glide_energy>
-42.0964732170105

> <r_i_glide_einternal>
4.87175703048706

> <i_i_glide_confnum>
1

> <i_i_glide_posenum>
220

> <r_i_glide_eff_state_penalty>
0

> <s_user_duplicate_titles>
CHEMBL1900_lig377,321558

> <s_m_subgroup_title>
dock_pv

> <s_m_subgroupid>
dock_pv

> <b_m_subgroup_collapsed>
1

$$$$
CHEMBL1900_lig182
                    3D
 Schrodinger Suite 2021-1.
 41 44  0  0  1  0            999 V2000
   17.7280   -9.6264   14.9777 N   0  0  0  0  0  0
   17.4572   -8.6372   15.9208 N   0  0  0  0  0  0
   17.7434   -6.1441   12.3932 C   0  0  0  0  0  0
   17.4111   -7.4067   12.5813 N   0  0  0  0  0  0
   17.3568  -10.9553   15.0623 C   0  0  0  0  0  0
   16.6700   -8.8645   16.9017 C   0  0  0  0  0  0
   18.3616   -7.8208   13.3732 C   0  0  0  0  0  0
   16.9892   -5.2609   11.4496 C   0  0  0  0  0  0
   18.7733   -5.7149   13.0900 N   0  0  0  0  0  0
   18.6064   -9.2335   13.8560 C   0  0  0  0  0  0
   16.3777  -11.1982   16.2025 C   0  0  0  0  0  0
   15.9935  -10.1595   17.0774 C   0  0  0  0  0  0
   16.5909   -7.7504   17.9501 C   0  0  0  0  0  0
   17.6128   -4.2947   10.6375 C   0  0  0  0  0  0
   19.2166   -6.8482   13.7658 O   0  0  0  0  0  0
   15.8063   -6.5149   17.4774 C   0  0  0  0  0  0
   17.7637  -11.8414   14.3036 O   0  0  0  0  0  0
   16.8652   -3.4785    9.7980 C   0  0  0  0  0  0
   14.9454   -6.5163   16.5975 O   0  0  0  0  0  0
   18.9450   -4.1151   10.6438 F   0  0  0  0  0  0
   15.5949   -5.3840   11.3911 C   0  0  0  0  0  0
   17.4700   -2.5555    9.0173 F   0  0  0  0  0  0
   16.1462   -5.4194   18.2141 O   0  0  0  0  0  0
   15.8480  -12.4842   16.3681 C   0  0  0  0  0  0
   14.9999  -10.4034   18.0348 C   0  0  0  0  0  0
   14.8446   -4.5378   10.5809 C   0  0  0  0  0  0
   15.4886   -3.5979    9.7787 C   0  0  0  0  0  0
   14.9147  -12.7288   17.3725 C   0  0  0  0  0  0
   14.4918  -11.6896   18.1970 C   0  0  0  0  0  0
   19.6403   -9.3087   14.1886 H   0  0  0  0  0  0
   18.5421   -9.9100   13.0009 H   0  0  0  0  0  0
   16.1514   -8.1002   18.8823 H   0  0  0  0  0  0
   17.6071   -7.4481   18.2112 H   0  0  0  0  0  0
   15.0796   -6.1061   12.0084 H   0  0  0  0  0  0
   16.8689   -5.5917   18.8199 H   0  0  0  0  0  0
   16.1440  -13.2929   15.7145 H   0  0  0  0  0  0
   14.6373   -9.6232   18.6868 H   0  0  0  0  0  0
   13.7665   -4.6156   10.5663 H   0  0  0  0  0  0
   14.9450   -2.9350    9.1309 H   0  0  0  0  0  0
   14.5014  -13.7190   17.4985 H   0  0  0  0  0  0
   13.7462  -11.8819   18.9552 H   0  0  0  0  0  0
  1  2  1  0  0  0
  1  5  1  0  0  0
  1 10  1  0  0  0
  2  6  2  0  0  0
  3  4  1  0  0  0
  3  8  1  0  0  0
  3  9  2  0  0  0
  4  7  2  0  0  0
  5 11  1  0  0  0
  5 17  2  0  0  0
  6 13  1  0  0  0
  6 12  1  0  0  0
  7 10  1  0  0  0
  7 15  1  0  0  0
  8 14  2  0  0  0
  8 21  1  0  0  0
  9 15  1  0  0  0
 10 30  1  0  0  0
 10 31  1  0  0  0
 11 12  2  0  0  0
 11 24  1  0  0  0
 12 25  1  0  0  0
 13 16  1  0  0  0
 13 32  1  0  0  0
 13 33  1  0  0  0
 14 18  1  0  0  0
 14 20  1  0  0  0
 16 19  2  0  0  0
 16 23  1  0  0  0
 18 22  1  0  0  0
 18 27  2  0  0  0
 21 26  2  0  0  0
 21 34  1  0  0  0
 23 35  1  0  0  0
 24 28  2  0  0  0
 24 36  1  0  0  0
 25 29  2  0  0  0
 25 37  1  0  0  0
 26 27  1  0  0  0
 26 38  1  0  0  0
 27 39  1  0  0  0
 28 29  1  0  0  0
 28 40  1  0  0  0
 29 41  1  0  0  0
M  END
> <s_m_entry_id>
6279

> <s_m_entry_name>
dock_pv.114

> <s_m_Source_Path>
/home/csk/Desktop/cluster/DUD-E-result/aldr

> <s_m_Source_File>
dock_pv.maegz

> <i_m_Source_File_Index>
114

> <chembl_id>
CHEMBL143098

> <chembl_pref_name>
None

> <i_lp_mmshare_version>
53161

> <i_f3d_flags>
0

> <r_lp_tautomer_probability>
1

> <s_lp_Force_Field>
OPLS_2005

> <r_lp_Energy>
30.509831

> <b_lp_Chiralities_Consistent>
1

> <s_lp_Variant>
CHEMBL1900_lig182-1

> <s_i_glide_gridfile>
glide-grid_2hv5

> <i_i_glide_lignum>
258

> <i_i_glide_rotatable_bonds>
6

> <r_i_docking_score>
-9.86448497268247

> <r_i_glide_ligand_efficiency>
-0.34015465423043

> <r_i_glide_ligand_efficiency_sa>
-1.04506286635449

> <r_i_glide_ligand_efficiency_ln>
-2.2587169169882

> <r_i_glide_gscore>
-9.86448497268247

> <r_i_glide_lipo>
-3.50175494634395

> <r_i_glide_hbond>
-0.32

> <r_i_glide_metal>
0

> <r_i_glide_rewards>
-3.14610902937042

> <r_i_glide_evdw>
-48.5289077758789

> <r_i_glide_ecoul>
-7.24888801574707

> <r_i_glide_erotb>
0.617157594187908

> <r_i_glide_esite>
0

> <r_i_glide_emodel>
-82.1133036407006

> <r_i_glide_energy>
-55.777795791626

> <r_i_glide_einternal>
5.83076429367065

> <i_i_glide_confnum>
112

> <i_i_glide_posenum>
377

> <r_i_glide_eff_state_penalty>
0

> <s_user_duplicate_titles>
CHEMBL1900_lig182,235296

> <s_m_subgroup_title>
dock_pv

> <s_m_subgroupid>
dock_pv

> <b_m_subgroup_collapsed>
1

$$$$
CHEMBL1900_lig163
                    3D
 Schrodinger Suite 2021-1.
 38 41  0  0  1  0            999 V2000
   17.7978   -8.1367   15.0507 N   0  0  0  0  0  0
   17.2074   -7.2572   15.9509 N   0  0  0  0  0  0
   17.5890   -9.5033   14.9782 C   0  0  0  0  0  0
   16.2656   -7.6553   16.7217 C   0  0  0  0  0  0
   17.8564   -6.6871   13.0130 C   0  0  0  0  0  0
   16.5900   -6.8245   12.6711 N   0  0  0  0  0  0
   18.6486   -7.4959   14.0267 C   0  0  0  0  0  0
   16.5326   -9.9760   15.9710 C   0  0  0  0  0  0
   15.8755   -9.0713   16.8330 C   0  0  0  0  0  0
   18.5450   -5.7146   12.3443 O   0  0  0  0  0  0
   15.5671   -6.5513   17.5203 C   0  0  0  0  0  0
   16.4105   -5.8619   11.7163 C   0  0  0  0  0  0
   17.6192   -5.1845   11.5024 C   0  0  0  0  0  0
   16.3282   -6.1043   18.7803 C   0  0  0  0  0  0
   18.1663  -10.2523   14.1851 O   0  0  0  0  0  0
   15.7452   -5.7145   19.7839 O   0  0  0  0  0  0
   17.6828   -6.1152   18.6416 O   0  0  0  0  0  0
   16.2167  -11.3408   16.0194 C   0  0  0  0  0  0
   14.9468   -9.5623   17.7633 C   0  0  0  0  0  0
   15.2751   -5.4852   10.9837 C   0  0  0  0  0  0
   17.7723   -4.1468   10.5784 C   0  0  0  0  0  0
   15.2663  -11.8074   16.9267 C   0  0  0  0  0  0
   14.6379  -10.9226   17.8004 C   0  0  0  0  0  0
   16.6290   -3.7850    9.8602 C   0  0  0  0  0  0
   15.4080   -4.4362   10.0658 C   0  0  0  0  0  0
   19.3700   -6.8618   14.5431 H   0  0  0  0  0  0
   19.2719   -8.2047   13.4795 H   0  0  0  0  0  0
   15.4490   -5.6632   16.9009 H   0  0  0  0  0  0
   14.5547   -6.8401   17.7951 H   0  0  0  0  0  0
   17.9374   -6.4001   17.7591 H   0  0  0  0  0  0
   16.7033  -12.0431   15.3542 H   0  0  0  0  0  0
   14.4553   -8.9134   18.4702 H   0  0  0  0  0  0
   14.3256   -5.9789   11.1341 H   0  0  0  0  0  0
   18.7152   -3.6409   10.4418 H   0  0  0  0  0  0
   15.0172  -12.8605   16.9559 H   0  0  0  0  0  0
   13.9055  -11.2931   18.5075 H   0  0  0  0  0  0
   16.6771   -2.9780    9.1416 H   0  0  0  0  0  0
   14.5456   -4.1156    9.5001 H   0  0  0  0  0  0
  1  2  1  0  0  0
  1  3  1  0  0  0
  1  7  1  0  0  0
  2  4  2  0  0  0
  3  8  1  0  0  0
  3 15  2  0  0  0
  4 11  1  0  0  0
  4  9  1  0  0  0
  5  7  1  0  0  0
  5  6  2  0  0  0
  5 10  1  0  0  0
  6 12  1  0  0  0
  7 26  1  0  0  0
  7 27  1  0  0  0
  8  9  2  0  0  0
  8 18  1  0  0  0
  9 19  1  0  0  0
 10 13  1  0  0  0
 11 14  1  0  0  0
 11 28  1  0  0  0
 11 29  1  0  0  0
 12 20  1  0  0  0
 12 13  2  0  0  0
 13 21  1  0  0  0
 14 16  2  0  0  0
 14 17  1  0  0  0
 17 30  1  0  0  0
 18 22  2  0  0  0
 18 31  1  0  0  0
 19 23  2  0  0  0
 19 32  1  0  0  0
 20 25  2  0  0  0
 20 33  1  0  0  0
 21 24  2  0  0  0
 21 34  1  0  0  0
 22 23  1  0  0  0
 22 35  1  0  0  0
 23 36  1  0  0  0
 24 25  1  0  0  0
 24 37  1  0  0  0
 25 38  1  0  0  0
M  END
> <s_m_entry_id>
6280

> <s_m_entry_name>
dock_pv.115

> <s_m_Source_Path>
/home/csk/Desktop/cluster/DUD-E-result/aldr

> <s_m_Source_File>
dock_pv.maegz

> <i_m_Source_File_Index>
115

> <chembl_id>
CHEMBL142274

> <chembl_pref_name>
None

> <i_lp_mmshare_version>
53161

> <i_f3d_flags>
0

> <r_lp_tautomer_probability>
1

> <s_lp_Force_Field>
OPLS_2005

> <r_lp_Energy>
27.161696

> <b_lp_Chiralities_Consistent>
1

> <s_lp_Variant>
CHEMBL1900_lig163-1

> <s_i_glide_gridfile>
glide-grid_2hv5

> <i_i_glide_lignum>
239

> <i_i_glide_rotatable_bonds>
5

> <r_i_docking_score>
-9.86356267191294

> <r_i_glide_ligand_efficiency>
-0.394542506876518

> <r_i_glide_ligand_efficiency_sa>
-1.15364928734809

> <r_i_glide_ligand_efficiency_ln>
-2.33795994036423

> <r_i_glide_gscore>
-9.86356267191294

> <r_i_glide_lipo>
-4.57001167458965

> <r_i_glide_hbond>
-0.32

> <r_i_glide_metal>
0

> <r_i_glide_rewards>
-2.72253712450262

> <r_i_glide_evdw>
-49.2127647399902

> <r_i_glide_ecoul>
-3.07841682434082

> <r_i_glide_erotb>
0.671386887829959

> <r_i_glide_esite>
0

> <r_i_glide_emodel>
-81.3930736746268

> <r_i_glide_energy>
-52.2911815643311

> <r_i_glide_einternal>
3.65481400489807

> <i_i_glide_confnum>
21

> <i_i_glide_posenum>
340

> <r_i_glide_eff_state_penalty>
0

> <s_user_duplicate_titles>
CHEMBL1900_lig163,236159

> <s_m_subgroup_title>
dock_pv

> <s_m_subgroupid>
dock_pv

> <b_m_subgroup_collapsed>
1

$$$$
CHEMBL1900_lig141
                    3D
 Schrodinger Suite 2021-1.
 43 45  0  0  1  0            999 V2000
   17.7855   -9.3889   14.9754 N   0  0  0  0  0  0
   17.3905   -8.5064   15.9866 N   0  0  0  0  0  0
   17.5310  -10.7492   14.9539 C   0  0  0  0  0  0
   16.6170   -8.8854   16.9324 C   0  0  0  0  0  0
   16.5229  -11.1596   16.0211 C   0  0  0  0  0  0
   18.7125   -8.8530   13.9383 C   0  0  0  0  0  0
   18.1563   -3.3658    9.7475 C   0  0  0  0  0  0
   16.0358  -10.2362   16.9705 C   0  0  0  0  0  0
   16.4244   -7.8837   18.0823 C   0  0  0  0  0  0
   18.2385   -7.5093   13.3814 C   0  0  0  0  0  0
   17.2007   -4.2915   10.4845 C   0  0  0  0  0  0
   15.8472   -6.5143   17.6795 C   0  0  0  0  0  0
   17.3395   -7.4549   12.4841 N   0  0  0  0  0  0
   18.0523  -11.5460   14.1667 O   0  0  0  0  0  0
   19.0210   -6.1150   14.1810 S   0  0  0  0  0  0
   17.7159   -5.3474   11.2441 C   0  0  0  0  0  0
   16.8759   -6.2834   11.8657 C   0  0  0  0  0  0
   16.1459   -5.4871   18.2814 O   0  0  0  0  0  0
   17.5035   -2.4936    8.9810 F   0  0  0  0  0  0
   18.9297   -2.6830   10.5860 F   0  0  0  0  0  0
   18.9450   -4.1150    8.9815 F   0  0  0  0  0  0
   14.9500   -6.5655   16.6481 O   0  0  0  0  0  0
   16.0668  -12.4840   16.0387 C   0  0  0  0  0  0
   15.0021  -10.6253   17.8348 C   0  0  0  0  0  0
   15.8137   -4.1504   10.3589 C   0  0  0  0  0  0
   14.9630   -5.0577   10.9811 C   0  0  0  0  0  0
   15.4979   -6.1149   11.7110 C   0  0  0  0  0  0
   15.0820  -12.8709   16.9455 C   0  0  0  0  0  0
   14.5450  -11.9413   17.8321 C   0  0  0  0  0  0
   19.7033   -8.7501   14.3771 H   0  0  0  0  0  0
   18.8566   -9.5299   13.0933 H   0  0  0  0  0  0
   15.8057   -8.2790   18.8838 H   0  0  0  0  0  0
   17.3923   -7.7010   18.5516 H   0  0  0  0  0  0
   18.1518   -5.2027   13.7380 H   0  0  0  0  0  0
   18.7860   -5.4799   11.3053 H   0  0  0  0  0  0
   14.8829   -7.4536   16.2914 H   0  0  0  0  0  0
   16.4479  -13.2097   15.3326 H   0  0  0  0  0  0
   14.5501   -9.9384   18.5346 H   0  0  0  0  0  0
   15.3816   -3.3495    9.7746 H   0  0  0  0  0  0
   13.8919   -4.9534   10.8803 H   0  0  0  0  0  0
   14.8326   -6.8368   12.1482 H   0  0  0  0  0  0
   14.7156  -13.8863   16.9452 H   0  0  0  0  0  0
   13.7596  -12.2390   18.5132 H   0  0  0  0  0  0
  1  2  1  0  0  0
  1  3  1  0  0  0
  1  6  1  0  0  0
  2  4  2  0  0  0
  3  5  1  0  0  0
  3 14  2  0  0  0
  4  9  1  0  0  0
  4  8  1  0  0  0
  5  8  2  0  0  0
  5 23  1  0  0  0
  6 10  1  0  0  0
  6 30  1  0  0  0
  6 31  1  0  0  0
  7 11  1  0  0  0
  7 19  1  0  0  0
  7 20  1  0  0  0
  7 21  1  0  0  0
  8 24  1  0  0  0
  9 12  1  0  0  0
  9 32  1  0  0  0
  9 33  1  0  0  0
 10 13  2  0  0  0
 10 15  1  0  0  0
 11 16  2  0  0  0
 11 25  1  0  0  0
 12 18  2  0  0  0
 12 22  1  0  0  0
 13 17  1  0  0  0
 15 34  1  0  0  0
 16 17  1  0  0  0
 16 35  1  0  0  0
 17 27  2  0  0  0
 22 36  1  0  0  0
 23 28  2  0  0  0
 23 37  1  0  0  0
 24 29  2  0  0  0
 24 38  1  0  0  0
 25 26  2  0  0  0
 25 39  1  0  0  0
 26 27  1  0  0  0
 26 40  1  0  0  0
 27 41  1  0  0  0
 28 29  1  0  0  0
 28 42  1  0  0  0
 29 43  1  0  0  0
M  END
> <s_m_entry_id>
6281

> <s_m_entry_name>
dock_pv.116

> <s_m_Source_Path>
/home/csk/Desktop/cluster/DUD-E-result/aldr

> <s_m_Source_File>
dock_pv.maegz

> <i_m_Source_File_Index>
116

> <chembl_id>
CHEMBL140750

> <chembl_pref_name>
None

> <i_lp_mmshare_version>
53161

> <i_f3d_flags>
0

> <r_lp_tautomer_probability>
1

> <s_lp_Force_Field>
OPLS_2005

> <r_lp_Energy>
36.371001

> <b_lp_Chiralities_Consistent>
1

> <s_lp_Variant>
CHEMBL1900_lig141-1

> <s_i_glide_gridfile>
glide-grid_2hv5

> <i_i_glide_lignum>
217

> <i_i_glide_rotatable_bonds>
8

> <r_i_docking_score>
-9.86208129240774

> <r_i_glide_ligand_efficiency>
-0.340071768703715

> <r_i_glide_ligand_efficiency_sa>
-1.04480821575644

> <r_i_glide_ligand_efficiency_ln>
-2.25816653515736

> <r_i_glide_gscore>
-9.86208129240774

> <r_i_glide_lipo>
-3.93194343629017

> <r_i_glide_hbond>
0

> <r_i_glide_metal>
0

> <r_i_glide_rewards>
-3.23595021136364

> <r_i_glide_evdw>
-49.9825286865234

> <r_i_glide_ecoul>
-5.76078701019287

> <r_i_glide_erotb>
0.669056841101172

> <r_i_glide_esite>
0

> <r_i_glide_emodel>
-80.9235051640613

> <r_i_glide_energy>
-55.7433156967163

> <r_i_glide_einternal>
8.12816619873047

> <i_i_glide_confnum>
10

> <i_i_glide_posenum>
319

> <r_i_glide_eff_state_penalty>
0

> <s_user_duplicate_titles>
CHEMBL1900_lig141,235206

> <s_m_subgroup_title>
dock_pv

> <s_m_subgroupid>
dock_pv

> <b_m_subgroup_collapsed>
1

$$$$
CHEMBL1900_lig185
                    3D
 Schrodinger Suite 2021-1.
 42 45  0  0  1  0            999 V2000
   18.1438   -7.5101   14.8529 N   0  0  0  0  0  0
   18.0404   -5.9093   12.8141 C   0  0  0  0  0  0
   17.4513   -6.8534   15.8663 N   0  0  0  0  0  0
   18.5450   -4.9151   12.1393 N   0  0  0  0  0  0
   18.1450   -8.8753   14.6272 C   0  0  0  0  0  0
   16.7623   -6.1914   12.3755 N   0  0  0  0  0  0
   16.5889   -7.4644   16.5891 C   0  0  0  0  0  0
   18.8664   -6.6216   13.9055 C   0  0  0  0  0  0
   17.1942   -9.6125   15.5682 C   0  0  0  0  0  0
   16.4168   -8.9238   16.5258 C   0  0  0  0  0  0
   16.4612   -5.3150   11.3571 C   0  0  0  0  0  0
   17.6276   -4.5464   11.2065 C   0  0  0  0  0  0
   15.7274   -6.5681   17.5027 C   0  0  0  0  0  0
   16.3910   -6.1100   18.8163 C   0  0  0  0  0  0
   18.7981   -9.4297   13.7383 O   0  0  0  0  0  0
   15.7450   -5.7155   19.7810 O   0  0  0  0  0  0
   15.9412   -7.2779   12.7813 C   0  0  0  0  0  0
   17.7450   -6.1150   18.7824 O   0  0  0  0  0  0
   17.0840  -11.0049   15.4577 C   0  0  0  0  0  0
   15.3450   -5.1335   10.5445 C   0  0  0  0  0  0
   15.5735   -9.6483   17.3810 C   0  0  0  0  0  0
   17.7127   -3.5692   10.2034 C   0  0  0  0  0  0
   16.2200  -11.7091   16.2960 C   0  0  0  0  0  0
   15.4690   -4.1922    9.5247 C   0  0  0  0  0  0
   15.4682  -11.0332   17.2557 C   0  0  0  0  0  0
   16.6103   -3.4058    9.3663 C   0  0  0  0  0  0
   19.4130   -5.8888   14.5020 H   0  0  0  0  0  0
   19.6677   -7.1651   13.3998 H   0  0  0  0  0  0
   15.4575   -5.6565   16.9714 H   0  0  0  0  0  0
   14.7751   -7.0388   17.7415 H   0  0  0  0  0  0
   15.0323   -7.3149   12.1810 H   0  0  0  0  0  0
   16.5450   -8.1492   12.5810 H   0  0  0  0  0  0
   15.7206   -7.1905   13.8409 H   0  0  0  0  0  0
   18.0768   -6.3584   17.9135 H   0  0  0  0  0  0
   17.6608  -11.5469   14.7202 H   0  0  0  0  0  0
   14.4465   -5.7221   10.6502 H   0  0  0  0  0  0
   14.9883   -9.1627   18.1476 H   0  0  0  0  0  0
   18.6005   -2.9678   10.0827 H   0  0  0  0  0  0
   16.1341  -12.7822   16.2018 H   0  0  0  0  0  0
   14.6561   -4.1150    8.8210 H   0  0  0  0  0  0
   14.8019  -11.5838   17.9050 H   0  0  0  0  0  0
   16.6456   -2.6799    8.5668 H   0  0  0  0  0  0
  1  3  1  0  0  0
  1  5  1  0  0  0
  1  8  1  0  0  0
  2  8  1  0  0  0
  2  4  2  0  0  0
  2  6  1  0  0  0
  3  7  2  0  0  0
  4 12  1  0  0  0
  5  9  1  0  0  0
  5 15  2  0  0  0
  6 11  1  0  0  0
  6 17  1  0  0  0
  7 13  1  0  0  0
  7 10  1  0  0  0
  8 27  1  0  0  0
  8 28  1  0  0  0
  9 10  2  0  0  0
  9 19  1  0  0  0
 10 21  1  0  0  0
 11 20  1  0  0  0
 11 12  2  0  0  0
 12 22  1  0  0  0
 13 14  1  0  0  0
 13 29  1  0  0  0
 13 30  1  0  0  0
 14 16  2  0  0  0
 14 18  1  0  0  0
 17 31  1  0  0  0
 17 32  1  0  0  0
 17 33  1  0  0  0
 18 34  1  0  0  0
 19 23  2  0  0  0
 19 35  1  0  0  0
 20 24  2  0  0  0
 20 36  1  0  0  0
 21 25  2  0  0  0
 21 37  1  0  0  0
 22 26  2  0  0  0
 22 38  1  0  0  0
 23 25  1  0  0  0
 23 39  1  0  0  0
 24 26  1  0  0  0
 24 40  1  0  0  0
 25 41  1  0  0  0
 26 42  1  0  0  0
M  END
> <s_m_entry_id>
6283

> <s_m_entry_name>
dock_pv.118

> <s_m_Source_Path>
/home/csk/Desktop/cluster/DUD-E-result/aldr

> <s_m_Source_File>
dock_pv.maegz

> <i_m_Source_File_Index>
118

> <chembl_id>
CHEMBL142934

> <chembl_pref_name>
None

> <i_lp_mmshare_version>
53161

> <i_f3d_flags>
0

> <r_lp_tautomer_probability>
1

> <s_lp_Force_Field>
OPLS_2005

> <r_lp_Energy>
27.500307

> <b_lp_Chiralities_Consistent>
1

> <s_lp_Variant>
CHEMBL1900_lig185-1

> <s_i_glide_gridfile>
glide-grid_2hv5

> <i_i_glide_lignum>
261

> <i_i_glide_rotatable_bonds>
5

> <r_i_docking_score>
-9.85469746597805

> <r_i_glide_ligand_efficiency>
-0.37902682561454

> <r_i_glide_ligand_efficiency_sa>
-1.12286547948453

> <r_i_glide_ligand_efficiency_ln>
-2.31434336398512

> <r_i_glide_gscore>
-9.85469746597805

> <r_i_glide_lipo>
-4.09957999251825

> <r_i_glide_hbond>
-0.32

> <r_i_glide_metal>
0

> <r_i_glide_rewards>
-3.61019184119426

> <r_i_glide_evdw>
-41.1687927246094

> <r_i_glide_ecoul>
-2.62626051902771

> <r_i_glide_erotb>
0.627453081819088

> <r_i_glide_esite>
0

> <r_i_glide_emodel>
-57.5105754158412

> <r_i_glide_energy>
-43.7950532436371

> <r_i_glide_einternal>
7.19872283935547

> <i_i_glide_confnum>
21

> <i_i_glide_posenum>
79

> <r_i_glide_eff_state_penalty>
0

> <s_user_duplicate_titles>
CHEMBL1900_lig185

> <s_m_subgroup_title>
dock_pv

> <s_m_subgroupid>
dock_pv

> <b_m_subgroup_collapsed>
1

$$$$
CHEMBL1900_lig292
                    3D
 Schrodinger Suite 2021-1.
 38 41  0  0  1  0            999 V2000
   18.2992   -8.2786   14.9609 N   0  0  0  0  0  0
   17.7470   -7.7603   16.1241 N   0  0  0  0  0  0
   18.1475   -9.5706   14.4858 C   0  0  0  0  0  0
   17.0067   -8.4801   16.8805 C   0  0  0  0  0  0
   17.5971   -5.0994   11.5334 C   0  0  0  0  0  0
   16.3382   -5.6996   11.7300 C   0  0  0  0  0  0
   18.5450   -5.5816   12.3802 N   0  0  0  0  0  0
   18.1190   -6.5400   13.1589 C   0  0  0  0  0  0
   16.4316   -6.9066   12.9816 S   0  0  0  0  0  0
   19.0259   -7.2857   14.1304 C   0  0  0  0  0  0
   17.2539  -10.4133   15.3903 C   0  0  0  0  0  0
   16.6398   -9.8658   16.5382 C   0  0  0  0  0  0
   16.6703   -7.8605   18.2415 C   0  0  0  0  0  0
   15.9371   -6.5157   18.1543 C   0  0  0  0  0  0
   17.7526   -4.1088   10.5320 C   0  0  0  0  0  0
   15.2361   -5.3264   10.9808 C   0  0  0  0  0  0
   18.6580   -9.9861   13.4406 O   0  0  0  0  0  0
   15.3450   -6.1132   17.1553 O   0  0  0  0  0  0
   15.3959   -4.3596    9.9970 C   0  0  0  0  0  0
   16.6305   -3.7527    9.7805 C   0  0  0  0  0  0
   19.2547   -3.3177   10.1847 Cl  0  0  0  0  0  0
   13.7407   -6.1087   11.2530 Cl  0  0  0  0  0  0
   15.9904   -5.8577   19.3472 O   0  0  0  0  0  0
   16.9968  -11.7444   15.0329 C   0  0  0  0  0  0
   15.6994  -10.6351   17.2456 C   0  0  0  0  0  0
   16.1068  -12.5147   15.7813 C   0  0  0  0  0  0
   15.4443  -11.9547   16.8722 C   0  0  0  0  0  0
   19.5636   -6.5940   14.7827 H   0  0  0  0  0  0
   19.8269   -7.7667   13.5648 H   0  0  0  0  0  0
   16.0760   -8.5153   18.8722 H   0  0  0  0  0  0
   17.6089   -7.7126   18.7735 H   0  0  0  0  0  0
   14.5458   -4.0988    9.3877 H   0  0  0  0  0  0
   16.7154   -3.0035    9.0065 H   0  0  0  0  0  0
   16.5478   -6.3138   19.9805 H   0  0  0  0  0  0
   17.4623  -12.1778   14.1575 H   0  0  0  0  0  0
   15.1576  -10.2396   18.0903 H   0  0  0  0  0  0
   15.9031  -13.5363   15.4947 H   0  0  0  0  0  0
   14.7269  -12.5419   17.4284 H   0  0  0  0  0  0
  1  2  1  0  0  0
  1  3  1  0  0  0
  1 10  1  0  0  0
  2  4  2  0  0  0
  3 11  1  0  0  0
  3 17  2  0  0  0
  4 13  1  0  0  0
  4 12  1  0  0  0
  5  7  1  0  0  0
  5 15  1  0  0  0
  5  6  2  0  0  0
  6  9  1  0  0  0
  6 16  1  0  0  0
  7  8  2  0  0  0
  8 10  1  0  0  0
  8  9  1  0  0  0
 10 28  1  0  0  0
 10 29  1  0  0  0
 11 12  1  0  0  0
 11 24  2  0  0  0
 12 25  2  0  0  0
 13 14  1  0  0  0
 13 30  1  0  0  0
 13 31  1  0  0  0
 14 18  2  0  0  0
 14 23  1  0  0  0
 15 20  2  0  0  0
 15 21  1  0  0  0
 16 19  2  0  0  0
 16 22  1  0  0  0
 19 20  1  0  0  0
 19 32  1  0  0  0
 20 33  1  0  0  0
 23 34  1  0  0  0
 24 26  1  0  0  0
 24 35  1  0  0  0
 25 27  1  0  0  0
 25 36  1  0  0  0
 26 27  2  0  0  0
 26 37  1  0  0  0
 27 38  1  0  0  0
M  END
> <s_m_entry_id>
6284

> <s_m_entry_name>
dock_pv.119

> <s_m_Source_Path>
/home/csk/Desktop/cluster/DUD-E-result/aldr

> <s_m_Source_File>
dock_pv.maegz

> <i_m_Source_File_Index>
119

> <chembl_id>
CHEMBL282263

> <chembl_pref_name>
None

> <i_lp_mmshare_version>
53161

> <i_f3d_flags>
0

> <r_lp_tautomer_probability>
1

> <s_lp_Force_Field>
OPLS_2005

> <r_lp_Energy>
26.243722

> <b_lp_Chiralities_Consistent>
1

> <s_lp_Variant>
CHEMBL1900_lig292-1

> <s_i_glide_gridfile>
glide-grid_2hv5

> <i_i_glide_lignum>
408

> <i_i_glide_rotatable_bonds>
5

> <r_i_docking_score>
-9.85296013273711

> <r_i_glide_ligand_efficiency>
-0.364924449360634

> <r_i_glide_ligand_efficiency_sa>
-1.09477334687917

> <r_i_glide_ligand_efficiency_ln>
-2.29360668015813

> <r_i_glide_gscore>
-9.85296013273711

> <r_i_glide_lipo>
-4.60228983118253

> <r_i_glide_hbond>
-0.217650106623231

> <r_i_glide_metal>
0

> <r_i_glide_rewards>
-2.04026611501282

> <r_i_glide_evdw>
-49.5136642456055

> <r_i_glide_ecoul>
-6.43512344360352

> <r_i_glide_erotb>
0.44819764890227

> <r_i_glide_esite>
0

> <r_i_glide_emodel>
-84.5582585652664

> <r_i_glide_energy>
-55.948787689209

> <r_i_glide_einternal>
4.87795782089233

> <i_i_glide_confnum>
27

> <i_i_glide_posenum>
254

> <r_i_glide_eff_state_penalty>
0

> <s_user_duplicate_titles>
CHEMBL1900_lig292,24311

> <s_m_subgroup_title>
dock_pv

> <s_m_subgroupid>
dock_pv

> <b_m_subgroup_collapsed>
1

$$$$
CHEMBL1900_lig38
                    3D
 Schrodinger Suite 2021-1.
 37 40  0  0  1  0            999 V2000
   18.1126   -8.2524   15.2095 N   0  0  0  0  0  0
   17.7458   -7.6028   16.3815 N   0  0  0  0  0  0
   16.9195   -8.1377   17.1991 C   0  0  0  0  0  0
   17.7561   -9.5371   14.8352 C   0  0  0  0  0  0
   16.7815  -10.1628   15.8231 C   0  0  0  0  0  0
   18.0254   -6.6505   13.2719 C   0  0  0  0  0  0
   18.5450   -5.7151   12.5314 N   0  0  0  0  0  0
   16.3139   -9.4526   16.9431 C   0  0  0  0  0  0
   18.8842   -7.4157   14.2700 C   0  0  0  0  0  0
   16.3171   -6.9148   12.9970 S   0  0  0  0  0  0
   17.6702   -5.1961   11.6389 C   0  0  0  0  0  0
   16.7474   -7.4106   18.5370 C   0  0  0  0  0  0
   16.3589   -5.7134   11.7279 C   0  0  0  0  0  0
   16.1480   -6.0036   18.4251 C   0  0  0  0  0  0
   17.9806   -4.2185   10.6835 C   0  0  0  0  0  0
   15.3628   -9.9470   17.7807 N   0  0  0  0  0  0
   18.1484  -10.0940   13.8061 O   0  0  0  0  0  0
   15.7450   -5.4897   17.3818 O   0  0  0  0  0  0
   15.3411   -5.2574   10.8866 C   0  0  0  0  0  0
   16.9720   -3.7841    9.8334 C   0  0  0  0  0  0
   16.2996  -11.4598   15.6085 C   0  0  0  0  0  0
   16.1101   -5.4061   19.6514 O   0  0  0  0  0  0
   15.6849   -4.3018    9.9291 C   0  0  0  0  0  0
   17.2467   -2.8417    8.9067 F   0  0  0  0  0  0
   14.8968  -11.1988   17.5419 C   0  0  0  0  0  0
   15.3443  -11.9866   16.4796 C   0  0  0  0  0  0
   19.5083   -6.7198   14.8366 H   0  0  0  0  0  0
   19.6114   -8.0223   13.7267 H   0  0  0  0  0  0
   16.1451   -7.9908   19.2351 H   0  0  0  0  0  0
   17.7353   -7.3143   18.9880 H   0  0  0  0  0  0
   18.9642   -3.7972   10.6028 H   0  0  0  0  0  0
   14.3305   -5.6323   10.9794 H   0  0  0  0  0  0
   16.6434  -12.0472   14.7685 H   0  0  0  0  0  0
   16.5452   -5.9344   20.3235 H   0  0  0  0  0  0
   14.9454   -3.9453    9.2359 H   0  0  0  0  0  0
   14.1446  -11.5698   18.2237 H   0  0  0  0  0  0
   14.9491  -12.9807   16.3278 H   0  0  0  0  0  0
  1  2  1  0  0  0
  1  4  1  0  0  0
  1  9  1  0  0  0
  2  3  2  0  0  0
  3 12  1  0  0  0
  3  8  1  0  0  0
  4  5  1  0  0  0
  4 17  2  0  0  0
  5  8  1  0  0  0
  5 21  2  0  0  0
  6  9  1  0  0  0
  6  7  2  0  0  0
  6 10  1  0  0  0
  7 11  1  0  0  0
  8 16  2  0  0  0
  9 27  1  0  0  0
  9 28  1  0  0  0
 10 13  1  0  0  0
 11 15  1  0  0  0
 11 13  2  0  0  0
 12 14  1  0  0  0
 12 29  1  0  0  0
 12 30  1  0  0  0
 13 19  1  0  0  0
 14 18  2  0  0  0
 14 22  1  0  0  0
 15 20  2  0  0  0
 15 31  1  0  0  0
 16 25  1  0  0  0
 19 23  2  0  0  0
 19 32  1  0  0  0
 20 24  1  0  0  0
 20 23  1  0  0  0
 21 26  1  0  0  0
 21 33  1  0  0  0
 22 34  1  0  0  0
 23 35  1  0  0  0
 25 26  2  0  0  0
 25 36  1  0  0  0
 26 37  1  0  0  0
M  END
> <s_m_entry_id>
6285

> <s_m_entry_name>
dock_pv.120

> <s_m_Source_Path>
/home/csk/Desktop/cluster/DUD-E-result/aldr

> <s_m_Source_File>
dock_pv.maegz

> <i_m_Source_File_Index>
120

> <chembl_id>
CHEMBL69591

> <chembl_pref_name>
None

> <i_lp_mmshare_version>
53161

> <i_f3d_flags>
0

> <r_lp_tautomer_probability>
1

> <s_lp_Force_Field>
OPLS_2005

> <r_lp_Energy>
19.271926

> <b_lp_Chiralities_Consistent>
1

> <s_lp_Variant>
CHEMBL1900_lig38-1

> <s_i_glide_gridfile>
glide-grid_2hv5

> <i_i_glide_lignum>
73

> <i_i_glide_rotatable_bonds>
5

> <r_i_docking_score>
-9.85135620489093

> <r_i_glide_ligand_efficiency>
-0.378898315572728

> <r_i_glide_ligand_efficiency_sa>
-1.12248476899133

> <r_i_glide_ligand_efficiency_ln>
-2.31355867978239

> <r_i_glide_gscore>
-9.85135620489093

> <r_i_glide_lipo>
-4.49578975167591

> <r_i_glide_hbond>
-0.0567720164691832

> <r_i_glide_metal>
0

> <r_i_glide_rewards>
-2.75208198055301

> <r_i_glide_evdw>
-48.8090934753418

> <r_i_glide_ecoul>
-4.45883369445801

> <r_i_glide_erotb>
0.562567271742973

> <r_i_glide_esite>
0

> <r_i_glide_emodel>
-82.0824207033303

> <r_i_glide_energy>
-53.2679271697998

> <r_i_glide_einternal>
3.30231547355652

> <i_i_glide_confnum>
21

> <i_i_glide_posenum>
79

> <r_i_glide_eff_state_penalty>
0

> <s_user_duplicate_titles>
CHEMBL1900_lig38,108413

> <s_m_subgroup_title>
dock_pv

> <s_m_subgroupid>
dock_pv

> <b_m_subgroup_collapsed>
1

$$$$
CHEMBL1900_lig195
                    3D
 Schrodinger Suite 2021-1.
 43 45  0  0  1  0            999 V2000
   17.9259   -7.7878   15.2399 N   0  0  0  0  0  0
   17.2035   -6.9148   16.0341 N   0  0  0  0  0  0
   17.8364   -9.1719   15.2567 C   0  0  0  0  0  0
   16.3052   -7.3420   16.8345 C   0  0  0  0  0  0
   17.8500   -3.9221   10.0902 C   0  0  0  0  0  0
   16.7475   -9.6683   16.1984 C   0  0  0  0  0  0
   16.5920   -4.5212   10.7079 C   0  0  0  0  0  0
   18.8630   -7.1238   14.3000 C   0  0  0  0  0  0
   15.9775   -8.7729   16.9690 C   0  0  0  0  0  0
   15.6358   -6.2577   17.6788 C   0  0  0  0  0  0
   18.1024   -6.9668   12.9806 C   0  0  0  0  0  0
   16.6240   -5.4728   11.7558 C   0  0  0  0  0  0
   17.7801   -5.7332   12.5292 N   0  0  0  0  0  0
   16.3518   -5.9405   19.0010 C   0  0  0  0  0  0
   18.5439   -9.9156   14.5716 O   0  0  0  0  0  0
   17.7401   -7.9846   12.3974 O   0  0  0  0  0  0
   15.7450   -5.5007   19.9704 O   0  0  0  0  0  0
   18.5450   -4.9146    9.5683 F   0  0  0  0  0  0
   17.5941   -3.0522    9.1126 F   0  0  0  0  0  0
   18.6081   -3.3108   10.9806 F   0  0  0  0  0  0
   17.7014   -6.1152   18.9805 O   0  0  0  0  0  0
   15.3537   -4.1611   10.1593 C   0  0  0  0  0  0
   16.5029  -11.0457   16.2749 C   0  0  0  0  0  0
   14.9464   -9.2760   17.7761 C   0  0  0  0  0  0
   15.4305   -6.1148   12.1248 C   0  0  0  0  0  0
   14.1881   -4.7835   10.5811 C   0  0  0  0  0  0
   15.4809  -11.5318   17.0890 C   0  0  0  0  0  0
   14.7017  -10.6485   17.8318 C   0  0  0  0  0  0
   14.2304   -5.7931   11.5152 C   0  0  0  0  0  0
   19.7836   -7.6902   14.1442 H   0  0  0  0  0  0
   19.1766   -6.1493   14.6790 H   0  0  0  0  0  0
   15.5908   -5.3226   17.1214 H   0  0  0  0  0  0
   14.5999   -6.5181   17.8879 H   0  0  0  0  0  0
   18.2169   -4.9293   12.9533 H   0  0  0  0  0  0
   18.0840   -5.9106   19.8351 H   0  0  0  0  0  0
   15.2780   -3.4149    9.3808 H   0  0  0  0  0  0
   17.0878  -11.7423   15.6891 H   0  0  0  0  0  0
   14.3213   -8.6234   18.3621 H   0  0  0  0  0  0
   15.4211   -6.8494   12.9146 H   0  0  0  0  0  0
   13.2283   -4.5165   10.1810 H   0  0  0  0  0  0
   15.2814  -12.5929   17.1334 H   0  0  0  0  0  0
   13.9012  -11.0299   18.4502 H   0  0  0  0  0  0
   13.3158   -6.2940   11.7817 H   0  0  0  0  0  0
  1  2  1  0  0  0
  1  3  1  0  0  0
  1  8  1  0  0  0
  2  4  2  0  0  0
  3  6  1  0  0  0
  3 15  2  0  0  0
  4 10  1  0  0  0
  4  9  1  0  0  0
  5  7  1  0  0  0
  5 18  1  0  0  0
  5 19  1  0  0  0
  5 20  1  0  0  0
  6  9  2  0  0  0
  6 23  1  0  0  0
  7 12  1  0  0  0
  7 22  2  0  0  0
  8 11  1  0  0  0
  8 30  1  0  0  0
  8 31  1  0  0  0
  9 24  1  0  0  0
 10 14  1  0  0  0
 10 32  1  0  0  0
 10 33  1  0  0  0
 11 13  1  0  0  0
 11 16  2  0  0  0
 12 13  1  0  0  0
 12 25  2  0  0  0
 13 34  1  0  0  0
 14 17  2  0  0  0
 14 21  1  0  0  0
 21 35  1  0  0  0
 22 26  1  0  0  0
 22 36  1  0  0  0
 23 27  2  0  0  0
 23 37  1  0  0  0
 24 28  2  0  0  0
 24 38  1  0  0  0
 25 29  1  0  0  0
 25 39  1  0  0  0
 26 29  2  0  0  0
 26 40  1  0  0  0
 27 28  1  0  0  0
 27 41  1  0  0  0
 28 42  1  0  0  0
 29 43  1  0  0  0
M  END
> <s_m_entry_id>
6286

> <s_m_entry_name>
dock_pv.121

> <s_m_Source_Path>
/home/csk/Desktop/cluster/DUD-E-result/aldr

> <s_m_Source_File>
dock_pv.maegz

> <i_m_Source_File_Index>
121

> <chembl_id>
CHEMBL142704

> <chembl_pref_name>
None

> <i_lp_mmshare_version>
53161

> <i_f3d_flags>
0

> <r_lp_tautomer_probability>
1

> <s_lp_Force_Field>
OPLS_2005

> <r_lp_Energy>
36.12524

> <b_lp_Chiralities_Consistent>
1

> <s_lp_Variant>
CHEMBL1900_lig195-1

> <s_i_glide_gridfile>
glide-grid_2hv5

> <i_i_glide_lignum>
271

> <i_i_glide_rotatable_bonds>
8

> <r_i_docking_score>
-9.84268297674702

> <r_i_glide_ligand_efficiency>
-0.339402861267139

> <r_i_glide_ligand_efficiency_sa>
-1.04275312018653

> <r_i_glide_ligand_efficiency_ln>
-2.2537248127699

> <r_i_glide_gscore>
-9.84268297674702

> <r_i_glide_lipo>
-4.27767025855501

> <r_i_glide_hbond>
-0.32

> <r_i_glide_metal>
0

> <r_i_glide_rewards>
-3.13722464357699

> <r_i_glide_evdw>
-41.4053688049316

> <r_i_glide_ecoul>
-5.03474950790405

> <r_i_glide_erotb>
0.717692791817177

> <r_i_glide_esite>
0

> <r_i_glide_emodel>
-49.9884978471804

> <r_i_glide_energy>
-46.4401183128357

> <r_i_glide_einternal>
22.3470211029053

> <i_i_glide_confnum>
64

> <i_i_glide_posenum>
226

> <r_i_glide_eff_state_penalty>
0

> <s_user_duplicate_titles>
CHEMBL1900_lig195

> <s_m_subgroup_title>
dock_pv

> <s_m_subgroupid>
dock_pv

> <b_m_subgroup_collapsed>
1

$$$$
CHEMBL1900_lig142
                    3D
 Schrodinger Suite 2021-1.
 44 47  0  0  1  0            999 V2000
   18.0572   -8.1550   15.4972 N   0  0  0  0  0  0
   17.4276   -7.2872   16.3763 N   0  0  0  0  0  0
   18.4922   -5.7150   12.9810 N   0  0  0  0  0  0
   17.7708   -5.7263   11.8874 C   0  0  0  0  0  0
   17.7450   -9.4888   15.2884 C   0  0  0  0  0  0
   16.4002   -7.6634   17.0375 C   0  0  0  0  0  0
   18.4121   -6.9757   13.3621 C   0  0  0  0  0  0
   17.3446   -6.9610   11.5468 O   0  0  0  0  0  0
   19.0533   -7.5067   14.6210 C   0  0  0  0  0  0
   16.6048   -9.9560   16.1807 C   0  0  0  0  0  0
   14.9367   -5.2660   10.9599 C   0  0  0  0  0  0
   15.9387   -9.0635   17.0446 C   0  0  0  0  0  0
   17.4108   -4.6096   10.9669 C   0  0  0  0  0  0
   15.6563   -6.5403   17.7700 C   0  0  0  0  0  0
   16.1134   -4.4318   10.4534 C   0  0  0  0  0  0
   17.7450   -7.7872   12.5810 N   0  0  0  0  0  0
   16.3702   -5.9757   19.0131 C   0  0  0  0  0  0
   18.3082  -10.2119   14.4613 O   0  0  0  0  0  0
   15.7450   -5.4384   19.9188 O   0  0  0  0  0  0
   14.9450   -5.3150   12.2688 F   0  0  0  0  0  0
   13.7514   -4.8015   10.5810 F   0  0  0  0  0  0
   15.0427   -6.5150   10.5810 F   0  0  0  0  0  0
   17.7289   -6.0636   18.9804 O   0  0  0  0  0  0
   16.2176  -11.3020   16.1281 C   0  0  0  0  0  0
   14.9450   -9.5591   17.8963 C   0  0  0  0  0  0
   18.4091   -3.7145   10.5914 C   0  0  0  0  0  0
   15.8948   -3.4092    9.5226 C   0  0  0  0  0  0
   15.1995  -11.7702   16.9571 C   0  0  0  0  0  0
   14.5694  -10.9023   17.8456 C   0  0  0  0  0  0
   16.8952   -2.5120    9.1800 C   0  0  0  0  0  0
   18.1498   -2.6421    9.7507 C   0  0  0  0  0  0
   19.5917   -6.7346   15.1739 H   0  0  0  0  0  0
   19.8378   -8.2082   14.3312 H   0  0  0  0  0  0
   15.5126   -5.7020   17.0884 H   0  0  0  0  0  0
   14.6497   -6.8435   18.0509 H   0  0  0  0  0  0
   18.0232   -6.4593   18.1535 H   0  0  0  0  0  0
   16.7065  -11.9915   15.4530 H   0  0  0  0  0  0
   14.4360   -8.9150   18.5923 H   0  0  0  0  0  0
   19.3881   -3.8424   10.9809 H   0  0  0  0  0  0
   14.9450   -3.2735    9.0581 H   0  0  0  0  0  0
   14.9007  -12.8078   16.9154 H   0  0  0  0  0  0
   13.7834  -11.2721   18.4900 H   0  0  0  0  0  0
   16.6882   -1.7148    8.4827 H   0  0  0  0  0  0
   18.9314   -1.9374    9.5091 H   0  0  0  0  0  0
  1  2  1  0  0  0
  1  5  1  0  0  0
  1  9  1  0  0  0
  2  6  2  0  0  0
  3  7  1  0  0  0
  3  4  2  0  0  0
  4 13  1  0  0  0
  4  8  1  0  0  0
  5 10  1  0  0  0
  5 18  2  0  0  0
  6 14  1  0  0  0
  6 12  1  0  0  0
  7  9  1  0  0  0
  7 16  2  0  0  0
  8 16  1  0  0  0
  9 32  1  0  0  0
  9 33  1  0  0  0
 10 12  2  0  0  0
 10 24  1  0  0  0
 11 15  1  0  0  0
 11 20  1  0  0  0
 11 21  1  0  0  0
 11 22  1  0  0  0
 12 25  1  0  0  0
 13 15  2  0  0  0
 13 26  1  0  0  0
 14 17  1  0  0  0
 14 34  1  0  0  0
 14 35  1  0  0  0
 15 27  1  0  0  0
 17 19  2  0  0  0
 17 23  1  0  0  0
 23 36  1  0  0  0
 24 28  2  0  0  0
 24 37  1  0  0  0
 25 29  2  0  0  0
 25 38  1  0  0  0
 26 31  2  0  0  0
 26 39  1  0  0  0
 27 30  2  0  0  0
 27 40  1  0  0  0
 28 29  1  0  0  0
 28 41  1  0  0  0
 29 42  1  0  0  0
 30 31  1  0  0  0
 30 43  1  0  0  0
 31 44  1  0  0  0
M  END
> <s_m_entry_id>
6287

> <s_m_entry_name>
dock_pv.122

> <s_m_Source_Path>
/home/csk/Desktop/cluster/DUD-E-result/aldr

> <s_m_Source_File>
dock_pv.maegz

> <i_m_Source_File_Index>
122

> <chembl_id>
CHEMBL2111987

> <chembl_pref_name>
None

> <i_lp_mmshare_version>
53161

> <i_f3d_flags>
0

> <r_lp_tautomer_probability>
1

> <s_lp_Force_Field>
OPLS_2005

> <r_lp_Energy>
29.308433

> <b_lp_Chiralities_Consistent>
1

> <s_lp_Variant>
CHEMBL1900_lig142-1

> <s_i_glide_gridfile>
glide-grid_2hv5

> <i_i_glide_lignum>
218

> <i_i_glide_rotatable_bonds>
7

> <r_i_docking_score>
-9.82938142451476

> <r_i_glide_ligand_efficiency>
-0.317076820145637

> <r_i_glide_ligand_efficiency_sa>
-0.996058986987139

> <r_i_glide_ligand_efficiency_ln>
-2.21682674559186

> <r_i_glide_gscore>
-9.82938142451476

> <r_i_glide_lipo>
-4.58494411479729

> <r_i_glide_hbond>
-0.32

> <r_i_glide_metal>
0

> <r_i_glide_rewards>
-2.88399042543305

> <r_i_glide_evdw>
-44.4832420349121

> <r_i_glide_ecoul>
-2.35359597206116

> <r_i_glide_erotb>
0.536754613270359

> <r_i_glide_esite>
0

> <r_i_glide_emodel>
-65.0070133615606

> <r_i_glide_energy>
-46.8368380069733

> <r_i_glide_einternal>
5.81200122833252

> <i_i_glide_confnum>
22

> <i_i_glide_posenum>
225

> <r_i_glide_eff_state_penalty>
0

> <s_user_duplicate_titles>
CHEMBL1900_lig142

> <s_m_subgroup_title>
dock_pv

> <s_m_subgroupid>
dock_pv

> <b_m_subgroup_collapsed>
1

$$$$
CHEMBL1900_lig167
                    3D
 Schrodinger Suite 2021-1.
 41 44  0  0  1  0            999 V2000
   18.0733   -8.1909   15.3810 N   0  0  0  0  0  0
   17.4587   -7.3157   16.2668 N   0  0  0  0  0  0
   17.5613   -5.7508   11.8237 C   0  0  0  0  0  0
   18.4447   -5.7293   12.8077 N   0  0  0  0  0  0
   17.7450   -9.5195   15.1713 C   0  0  0  0  0  0
   16.4276   -7.6819   16.9292 C   0  0  0  0  0  0
   18.3301   -6.9357   13.2936 C   0  0  0  0  0  0
   16.9450   -6.8935   11.6333 N   0  0  0  0  0  0
   19.0412   -7.5478   14.4755 C   0  0  0  0  0  0
   16.6082   -9.9758   16.0791 C   0  0  0  0  0  0
   17.2969   -4.5791   10.9335 C   0  0  0  0  0  0
   15.9553   -9.0769   16.9485 C   0  0  0  0  0  0
   15.6962   -6.5564   17.6659 C   0  0  0  0  0  0
   17.4496   -7.7150   12.6267 O   0  0  0  0  0  0
   16.3851   -6.0898   18.9591 C   0  0  0  0  0  0
   18.2873  -10.2435   14.3309 O   0  0  0  0  0  0
   16.0241   -4.2722   10.4190 C   0  0  0  0  0  0
   15.7450   -5.6701   19.9139 O   0  0  0  0  0  0
   14.4398   -5.1837   10.9802 Br  0  0  0  0  0  0
   17.7450   -6.1150   18.9077 O   0  0  0  0  0  0
   18.3695   -3.7472   10.5924 C   0  0  0  0  0  0
   16.2087  -11.3182   16.0367 C   0  0  0  0  0  0
   14.9701   -9.5607   17.8211 C   0  0  0  0  0  0
   15.8858   -3.2080    9.5306 C   0  0  0  0  0  0
   18.1942   -2.6332    9.7810 C   0  0  0  0  0  0
   15.1990  -11.7759   16.8829 C   0  0  0  0  0  0
   14.5890  -10.9025   17.7810 C   0  0  0  0  0  0
   16.9531   -2.3840    9.2172 C   0  0  0  0  0  0
   19.6327   -6.8127   15.0233 H   0  0  0  0  0  0
   19.7881   -8.2546   14.1088 H   0  0  0  0  0  0
   15.6193   -5.6837   17.0172 H   0  0  0  0  0  0
   14.6668   -6.8322   17.8895 H   0  0  0  0  0  0
   18.0485   -6.4353   18.0521 H   0  0  0  0  0  0
   19.3450   -3.9582   10.9810 H   0  0  0  0  0  0
   16.6833  -12.0138   15.3577 H   0  0  0  0  0  0
   14.4890   -8.9150   18.5390 H   0  0  0  0  0  0
   14.9450   -2.9784    9.0888 H   0  0  0  0  0  0
   19.0217   -1.9753    9.5696 H   0  0  0  0  0  0
   14.8938  -12.8120   16.8498 H   0  0  0  0  0  0
   13.8149  -11.2672   18.4424 H   0  0  0  0  0  0
   16.8061   -1.5507    8.5481 H   0  0  0  0  0  0
  1  2  1  0  0  0
  1  5  1  0  0  0
  1  9  1  0  0  0
  2  6  2  0  0  0
  3  4  1  0  0  0
  3 11  1  0  0  0
  3  8  2  0  0  0
  4  7  2  0  0  0
  5 10  1  0  0  0
  5 16  2  0  0  0
  6 13  1  0  0  0
  6 12  1  0  0  0
  7  9  1  0  0  0
  7 14  1  0  0  0
  8 14  1  0  0  0
  9 29  1  0  0  0
  9 30  1  0  0  0
 10 12  2  0  0  0
 10 22  1  0  0  0
 11 17  2  0  0  0
 11 21  1  0  0  0
 12 23  1  0  0  0
 13 15  1  0  0  0
 13 31  1  0  0  0
 13 32  1  0  0  0
 15 18  2  0  0  0
 15 20  1  0  0  0
 17 19  1  0  0  0
 17 24  1  0  0  0
 20 33  1  0  0  0
 21 25  2  0  0  0
 21 34  1  0  0  0
 22 26  2  0  0  0
 22 35  1  0  0  0
 23 27  2  0  0  0
 23 36  1  0  0  0
 24 28  2  0  0  0
 24 37  1  0  0  0
 25 28  1  0  0  0
 25 38  1  0  0  0
 26 27  1  0  0  0
 26 39  1  0  0  0
 27 40  1  0  0  0
 28 41  1  0  0  0
M  END
> <s_m_entry_id>
6288

> <s_m_entry_name>
dock_pv.123

> <s_m_Source_Path>
/home/csk/Desktop/cluster/DUD-E-result/aldr

> <s_m_Source_File>
dock_pv.maegz

> <i_m_Source_File_Index>
123

> <chembl_id>
CHEMBL341864

> <chembl_pref_name>
None

> <i_lp_mmshare_version>
53161

> <i_f3d_flags>
0

> <r_lp_tautomer_probability>
1

> <s_lp_Force_Field>
OPLS_2005

> <r_lp_Energy>
30.648192

> <b_lp_Chiralities_Consistent>
1

> <s_lp_Variant>
CHEMBL1900_lig167-1

> <s_i_glide_gridfile>
glide-grid_2hv5

> <i_i_glide_lignum>
243

> <i_i_glide_rotatable_bonds>
6

> <r_i_docking_score>
-9.82607191315163

> <r_i_glide_ligand_efficiency>
-0.350931139755415

> <r_i_glide_ligand_efficiency_sa>
-1.06563362768541

> <r_i_glide_ligand_efficiency_ln>
-2.26814590356313

> <r_i_glide_gscore>
-9.82607191315163

> <r_i_glide_lipo>
-4.59436557164164

> <r_i_glide_hbond>
-0.32

> <r_i_glide_metal>
0

> <r_i_glide_rewards>
-2.37208952725106

> <r_i_glide_evdw>
-52.2392120361328

> <r_i_glide_ecoul>
-2.93741703033447

> <r_i_glide_erotb>
0.512956342097879

> <r_i_glide_esite>
0

> <r_i_glide_emodel>
-82.8505861799057

> <r_i_glide_energy>
-55.1766290664673

> <r_i_glide_einternal>
3.36962747573853

> <i_i_glide_confnum>
234

> <i_i_glide_posenum>
200

> <r_i_glide_eff_state_penalty>
0

> <s_user_duplicate_titles>
CHEMBL1900_lig167,236476

> <s_m_subgroup_title>
dock_pv

> <s_m_subgroupid>
dock_pv

> <b_m_subgroup_collapsed>
1

$$$$
CHEMBL1900_lig311
                    3D
 Schrodinger Suite 2021-1.
 38 41  0  0  1  0            999 V2000
   17.9620   -7.7139   14.9713 N   0  0  0  0  0  0
   17.3631   -6.9190   15.9436 N   0  0  0  0  0  0
   17.7472   -9.0654   14.7657 C   0  0  0  0  0  0
   16.7762   -9.6491   15.7858 C   0  0  0  0  0  0
   16.4572   -7.4008   16.7052 C   0  0  0  0  0  0
   17.9788   -6.2459   12.9282 C   0  0  0  0  0  0
   16.1452   -8.8372   16.7491 C   0  0  0  0  0  0
   18.5448   -5.3417   12.1803 N   0  0  0  0  0  0
   18.7869   -6.9707   13.9985 C   0  0  0  0  0  0
   16.2759   -6.5149   12.5799 S   0  0  0  0  0  0
   15.7083   -6.3792   17.5621 C   0  0  0  0  0  0
   16.5191  -11.0248   15.7609 C   0  0  0  0  0  0
   15.3448   -9.4325   17.7327 C   0  0  0  0  0  0
   17.6970   -4.8001   11.2727 C   0  0  0  0  0  0
   16.3701   -5.2879   11.3317 C   0  0  0  0  0  0
   15.6875  -11.6042   16.7189 C   0  0  0  0  0  0
   15.1147  -10.8086   17.7180 C   0  0  0  0  0  0
   16.3882   -6.0535   18.9003 C   0  0  0  0  0  0
   18.2662   -9.7221   13.8584 O   0  0  0  0  0  0
   15.7451   -5.7150   19.8837 O   0  0  0  0  0  0
   14.1467  -11.5030   18.9679 Cl  0  0  0  0  0  0
   15.4071  -13.3091   16.6559 Cl  0  0  0  0  0  0
   17.7454   -6.1142   18.8678 O   0  0  0  0  0  0
   18.0484   -3.8114   10.3401 C   0  0  0  0  0  0
   15.3759   -4.7788   10.4896 C   0  0  0  0  0  0
   17.0535   -3.3160    9.4973 C   0  0  0  0  0  0
   15.7453   -3.7899    9.5764 C   0  0  0  0  0  0
   19.4282   -6.2797   14.5488 H   0  0  0  0  0  0
   19.5053   -7.6248   13.4987 H   0  0  0  0  0  0
   15.6051   -5.4383   17.0217 H   0  0  0  0  0  0
   14.6890   -6.7123   17.7575 H   0  0  0  0  0  0
   16.9768  -11.6548   15.0098 H   0  0  0  0  0  0
   14.8997   -8.8466   18.5229 H   0  0  0  0  0  0
   18.0695   -6.3213   17.9863 H   0  0  0  0  0  0
   19.0541   -3.4262   10.2916 H   0  0  0  0  0  0
   14.3541   -5.1277   10.5522 H   0  0  0  0  0  0
   17.2949   -2.5467    8.7782 H   0  0  0  0  0  0
   14.9863   -3.3815    8.9228 H   0  0  0  0  0  0
  1  2  1  0  0  0
  1  3  1  0  0  0
  1  9  1  0  0  0
  2  5  2  0  0  0
  3  4  1  0  0  0
  3 19  2  0  0  0
  4  7  1  0  0  0
  4 12  2  0  0  0
  5 11  1  0  0  0
  5  7  1  0  0  0
  6  9  1  0  0  0
  6  8  2  0  0  0
  6 10  1  0  0  0
  7 13  2  0  0  0
  8 14  1  0  0  0
  9 28  1  0  0  0
  9 29  1  0  0  0
 10 15  1  0  0  0
 11 18  1  0  0  0
 11 30  1  0  0  0
 11 31  1  0  0  0
 12 16  1  0  0  0
 12 32  1  0  0  0
 13 17  1  0  0  0
 13 33  1  0  0  0
 14 24  1  0  0  0
 14 15  2  0  0  0
 15 25  1  0  0  0
 16 17  2  0  0  0
 16 22  1  0  0  0
 17 21  1  0  0  0
 18 20  2  0  0  0
 18 23  1  0  0  0
 23 34  1  0  0  0
 24 26  2  0  0  0
 24 35  1  0  0  0
 25 27  2  0  0  0
 25 36  1  0  0  0
 26 27  1  0  0  0
 26 37  1  0  0  0
 27 38  1  0  0  0
M  END
> <s_m_entry_id>
6289

> <s_m_entry_name>
dock_pv.124

> <s_m_Source_Path>
/home/csk/Desktop/cluster/DUD-E-result/aldr

> <s_m_Source_File>
dock_pv.maegz

> <i_m_Source_File_Index>
124

> <chembl_id>
CHEMBL19958

> <chembl_pref_name>
None

> <i_lp_mmshare_version>
53161

> <i_f3d_flags>
0

> <r_lp_tautomer_probability>
1

> <s_lp_Force_Field>
OPLS_2005

> <r_lp_Energy>
24.987227

> <b_lp_Chiralities_Consistent>
1

> <s_lp_Variant>
CHEMBL1900_lig311-1

> <s_i_glide_gridfile>
glide-grid_2hv5

> <i_i_glide_lignum>
427

> <i_i_glide_rotatable_bonds>
5

> <r_i_docking_score>
-9.82457427913512

> <r_i_glide_ligand_efficiency>
-0.363873121449449

> <r_i_glide_ligand_efficiency_sa>
-1.09161936314908

> <r_i_glide_ligand_efficiency_ln>
-2.28699892141696

> <r_i_glide_gscore>
-9.82457427913512

> <r_i_glide_lipo>
-4.7685010863416

> <r_i_glide_hbond>
-0.32

> <r_i_glide_metal>
0

> <r_i_glide_rewards>
-2.18469137630654

> <r_i_glide_evdw>
-51.188175201416

> <r_i_glide_ecoul>
-2.93447136878967

> <r_i_glide_erotb>
0.44819764890227

> <r_i_glide_esite>
0

> <r_i_glide_emodel>
-79.9988622833175

> <r_i_glide_energy>
-54.1226465702057

> <r_i_glide_einternal>
5.4771409034729

> <i_i_glide_confnum>
6

> <i_i_glide_posenum>
274

> <r_i_glide_eff_state_penalty>
0

> <s_user_duplicate_titles>
CHEMBL1900_lig311,23337

> <s_m_subgroup_title>
dock_pv

> <s_m_subgroupid>
dock_pv

> <b_m_subgroup_collapsed>
1

$$$$
CHEMBL1900_lig384
                    3D
 Schrodinger Suite 2021-1.
 37 40  0  0  1  0            999 V2000
   16.4295   -7.9423   16.9020 N   0  0  0  0  0  0
   17.7162   -7.9714   15.0141 C   0  0  0  0  0  0
   18.5450   -5.6843   12.1888 N   0  0  0  0  0  0
   17.8658   -6.5413   12.8942 C   0  0  0  0  0  0
   17.0829   -7.1893   15.9547 C   0  0  0  0  0  0
   16.3939   -5.2705   11.3791 C   0  0  0  0  0  0
   16.1449   -6.5155   12.5810 S   0  0  0  0  0  0
   16.5771   -9.2783   16.5602 C   0  0  0  0  0  0
   17.4065   -9.3236   15.3907 C   0  0  0  0  0  0
   17.7679   -4.9560   11.3439 C   0  0  0  0  0  0
   18.5673   -7.5085   13.8402 C   0  0  0  0  0  0
   15.6545   -7.4022   18.0294 C   0  0  0  0  0  0
   16.3530   -6.3675   18.9348 C   0  0  0  0  0  0
   15.4789   -4.6118   10.5520 C   0  0  0  0  0  0
   15.7450   -5.7162   19.7809 O   0  0  0  0  0  0
   14.1623   -4.9141   10.5846 F   0  0  0  0  0  0
   17.6943   -6.2756   18.7311 O   0  0  0  0  0  0
   18.2379   -3.9602   10.4738 C   0  0  0  0  0  0
   16.0732  -10.4452   17.1545 C   0  0  0  0  0  0
   17.7427  -10.5760   14.8513 C   0  0  0  0  0  0
   17.3200   -3.3037    9.6540 C   0  0  0  0  0  0
   15.9665   -3.6292    9.6916 C   0  0  0  0  0  0
   17.2467  -11.7308   15.4518 C   0  0  0  0  0  0
   16.4265  -11.6625   16.5734 C   0  0  0  0  0  0
   17.0591   -6.1153   16.0308 H   0  0  0  0  0  0
   19.4880   -7.0600   14.2178 H   0  0  0  0  0  0
   18.9036   -8.3692   13.2618 H   0  0  0  0  0  0
   14.7479   -6.9539   17.6219 H   0  0  0  0  0  0
   15.3466   -8.2302   18.6670 H   0  0  0  0  0  0
   18.0120   -6.8940   18.0706 H   0  0  0  0  0  0
   19.2820   -3.6978   10.4447 H   0  0  0  0  0  0
   15.4357  -10.4211   18.0256 H   0  0  0  0  0  0
   18.3671  -10.6471   13.9731 H   0  0  0  0  0  0
   17.6596   -2.5292    8.9809 H   0  0  0  0  0  0
   15.2747   -3.1075    9.0466 H   0  0  0  0  0  0
   17.4959  -12.6968   15.0344 H   0  0  0  0  0  0
   16.0518  -12.5804   17.0033 H   0  0  0  0  0  0
  1  5  1  0  0  0
  1  8  1  0  0  0
  1 12  1  0  0  0
  2  5  2  0  0  0
  2 11  1  0  0  0
  2  9  1  0  0  0
  3  4  2  0  0  0
  3 10  1  0  0  0
  4 11  1  0  0  0
  4  7  1  0  0  0
  5 25  1  0  0  0
  6  7  1  0  0  0
  6 14  1  0  0  0
  6 10  2  0  0  0
  8  9  2  0  0  0
  8 19  1  0  0  0
  9 20  1  0  0  0
 10 18  1  0  0  0
 11 26  1  0  0  0
 11 27  1  0  0  0
 12 13  1  0  0  0
 12 28  1  0  0  0
 12 29  1  0  0  0
 13 15  2  0  0  0
 13 17  1  0  0  0
 14 16  1  0  0  0
 14 22  2  0  0  0
 17 30  1  0  0  0
 18 21  2  0  0  0
 18 31  1  0  0  0
 19 24  2  0  0  0
 19 32  1  0  0  0
 20 23  2  0  0  0
 20 33  1  0  0  0
 21 22  1  0  0  0
 21 34  1  0  0  0
 22 35  1  0  0  0
 23 24  1  0  0  0
 23 36  1  0  0  0
 24 37  1  0  0  0
M  END
> <s_m_entry_id>
6290

> <s_m_entry_name>
dock_pv.125

> <s_m_Source_Path>
/home/csk/Desktop/cluster/DUD-E-result/aldr

> <s_m_Source_File>
dock_pv.maegz

> <i_m_Source_File_Index>
125

> <chembl_id>
CHEMBL364313

> <chembl_pref_name>
None

> <i_lp_mmshare_version>
53161

> <i_f3d_flags>
0

> <r_lp_tautomer_probability>
1

> <s_lp_Force_Field>
OPLS_2005

> <r_lp_Energy>
14.249077

> <b_lp_Chiralities_Consistent>
1

> <s_lp_Variant>
CHEMBL1900_lig384-1

> <s_i_glide_gridfile>
glide-grid_2hv5

> <i_i_glide_lignum>
505

> <i_i_glide_rotatable_bonds>
5

> <r_i_docking_score>
-9.82169477838278

> <r_i_glide_ligand_efficiency>
-0.409237282432616

> <r_i_glide_ligand_efficiency_sa>
-1.18044458823392

> <r_i_glide_ligand_efficiency_ln>
-2.35078224867314

> <r_i_glide_gscore>
-9.82169477838278

> <r_i_glide_lipo>
-4.42821449782185

> <r_i_glide_hbond>
-0.32

> <r_i_glide_metal>
0

> <r_i_glide_rewards>
-3.22348463756673

> <r_i_glide_evdw>
-43.2885780334473

> <r_i_glide_ecoul>
-2.26251196861267

> <r_i_glide_erotb>
0.653810053970063

> <r_i_glide_esite>
0

> <r_i_glide_emodel>
-68.1753779436284

> <r_i_glide_energy>
-45.5510900020599

> <r_i_glide_einternal>
4.55657052993774

> <i_i_glide_confnum>
3

> <i_i_glide_posenum>
297

> <r_i_glide_eff_state_penalty>
0

> <s_user_duplicate_titles>
CHEMBL1900_lig384,321301

> <s_m_subgroup_title>
dock_pv

> <s_m_subgroupid>
dock_pv

> <b_m_subgroup_collapsed>
1

$$$$
CHEMBL1900_lig297
                    3D
 Schrodinger Suite 2021-1.
 38 41  0  0  1  0            999 V2000
   17.9527   -7.7523   14.9578 N   0  0  0  0  0  0
   17.3507   -6.9568   15.9276 N   0  0  0  0  0  0
   17.7482   -9.1069   14.7611 C   0  0  0  0  0  0
   16.4493   -7.4404   16.6936 C   0  0  0  0  0  0
   17.9714   -6.2673   12.9231 C   0  0  0  0  0  0
   16.7835   -9.6922   15.7872 C   0  0  0  0  0  0
   18.5448   -5.3663   12.1760 N   0  0  0  0  0  0
   16.1454   -8.8781   16.7466 C   0  0  0  0  0  0
   18.7775   -7.0077   13.9847 C   0  0  0  0  0  0
   16.2640   -6.5150   12.5808 S   0  0  0  0  0  0
   15.6944   -6.4172   17.5431 C   0  0  0  0  0  0
   17.6972   -4.8116   11.2730 C   0  0  0  0  0  0
   16.3658   -5.2884   11.3324 C   0  0  0  0  0  0
   16.3851   -6.0570   18.8675 C   0  0  0  0  0  0
   16.5386  -11.0714   15.7731 C   0  0  0  0  0  0
   18.2711   -9.7649   13.8567 O   0  0  0  0  0  0
   15.3464   -9.4728   17.7339 C   0  0  0  0  0  0
   15.7451   -5.6957   19.8460 O   0  0  0  0  0  0
   15.1298  -10.8506   17.7236 C   0  0  0  0  0  0
   15.7106  -11.6452   16.7370 C   0  0  0  0  0  0
   17.7444   -6.1148   18.8281 O   0  0  0  0  0  0
   14.1685  -11.5804   18.9534 Cl  0  0  0  0  0  0
   18.0520   -3.8215   10.3423 C   0  0  0  0  0  0
   15.3729   -4.7721   10.4914 C   0  0  0  0  0  0
   15.7472   -3.7832    9.5811 C   0  0  0  0  0  0
   17.0583   -3.3167    9.5022 C   0  0  0  0  0  0
   19.4257   -6.3241   14.5366 H   0  0  0  0  0  0
   19.4894   -7.6628   13.4769 H   0  0  0  0  0  0
   15.5691   -5.4877   16.9868 H   0  0  0  0  0  0
   14.6829   -6.7631   17.7563 H   0  0  0  0  0  0
   17.0015  -11.7062   15.0292 H   0  0  0  0  0  0
   14.8935   -8.8882   18.5205 H   0  0  0  0  0  0
   15.5349  -12.7113   16.7306 H   0  0  0  0  0  0
   18.0617   -6.3419   17.9491 H   0  0  0  0  0  0
   19.0597   -3.4428   10.2925 H   0  0  0  0  0  0
   14.3495   -5.1152   10.5541 H   0  0  0  0  0  0
   14.9966   -3.3671    8.9252 H   0  0  0  0  0  0
   17.3028   -2.5454    8.7857 H   0  0  0  0  0  0
  1  2  1  0  0  0
  1  3  1  0  0  0
  1  9  1  0  0  0
  2  4  2  0  0  0
  3  6  1  0  0  0
  3 16  2  0  0  0
  4 11  1  0  0  0
  4  8  1  0  0  0
  5  9  1  0  0  0
  5  7  2  0  0  0
  5 10  1  0  0  0
  6  8  1  0  0  0
  6 15  2  0  0  0
  7 12  1  0  0  0
  8 17  2  0  0  0
  9 27  1  0  0  0
  9 28  1  0  0  0
 10 13  1  0  0  0
 11 14  1  0  0  0
 11 29  1  0  0  0
 11 30  1  0  0  0
 12 23  1  0  0  0
 12 13  2  0  0  0
 13 24  1  0  0  0
 14 18  2  0  0  0
 14 21  1  0  0  0
 15 20  1  0  0  0
 15 31  1  0  0  0
 17 19  1  0  0  0
 17 32  1  0  0  0
 19 20  2  0  0  0
 19 22  1  0  0  0
 20 33  1  0  0  0
 21 34  1  0  0  0
 23 26  2  0  0  0
 23 35  1  0  0  0
 24 25  2  0  0  0
 24 36  1  0  0  0
 25 26  1  0  0  0
 25 37  1  0  0  0
 26 38  1  0  0  0
M  END
> <s_m_entry_id>
6291

> <s_m_entry_name>
dock_pv.126

> <s_m_Source_Path>
/home/csk/Desktop/cluster/DUD-E-result/aldr

> <s_m_Source_File>
dock_pv.maegz

> <i_m_Source_File_Index>
126

> <chembl_id>
CHEMBL20005

> <chembl_pref_name>
None

> <i_lp_mmshare_version>
53161

> <i_f3d_flags>
0

> <r_lp_tautomer_probability>
1

> <s_lp_Force_Field>
OPLS_2005

> <r_lp_Energy>
25.93765

> <b_lp_Chiralities_Consistent>
1

> <s_lp_Variant>
CHEMBL1900_lig297-1

> <s_i_glide_gridfile>
glide-grid_2hv5

> <i_i_glide_lignum>
413

> <i_i_glide_rotatable_bonds>
5

> <r_i_docking_score>
-9.82168189813875

> <r_i_glide_ligand_efficiency>
-0.37775699608226

> <r_i_glide_ligand_efficiency_sa>
-1.11910361449169

> <r_i_glide_ligand_efficiency_ln>
-2.30658976621098

> <r_i_glide_gscore>
-9.82168189813875

> <r_i_glide_lipo>
-4.6621111207271

> <r_i_glide_hbond>
-0.32

> <r_i_glide_metal>
0

> <r_i_glide_rewards>
-2.41850155231752

> <r_i_glide_evdw>
-50.6052627563477

> <r_i_glide_ecoul>
-2.75753855705261

> <r_i_glide_erotb>
0.522824696281137

> <r_i_glide_esite>
0

> <r_i_glide_emodel>
-79.8614175789844

> <r_i_glide_energy>
-53.3628013134003

> <r_i_glide_einternal>
4.77678203582764

> <i_i_glide_confnum>
30

> <i_i_glide_posenum>
352

> <r_i_glide_eff_state_penalty>
0

> <s_user_duplicate_titles>
CHEMBL1900_lig297,24196

> <s_m_subgroup_title>
dock_pv

> <s_m_subgroupid>
dock_pv

> <b_m_subgroup_collapsed>
1

$$$$
CHEMBL1900_lig282
                    3D
 Schrodinger Suite 2021-1.
 42 45  0  0  1  0            999 V2000
   18.1145   -8.7111   15.3552 N   0  0  0  0  0  0
   17.7450   -8.0372   16.5054 N   0  0  0  0  0  0
   17.7449   -9.9969   15.0007 C   0  0  0  0  0  0
   16.8700   -8.5247   17.2942 C   0  0  0  0  0  0
   18.0080   -6.9561   13.5696 C   0  0  0  0  0  0
   18.5450   -6.1153   12.7377 N   0  0  0  0  0  0
   18.8800   -7.8818   14.4065 C   0  0  0  0  0  0
   16.7060  -10.5716   15.9624 C   0  0  0  0  0  0
   16.2544   -6.9150   13.5939 S   0  0  0  0  0  0
   17.6234   -5.5301   11.9390 C   0  0  0  0  0  0
   16.2077   -9.8127   17.0415 C   0  0  0  0  0  0
   16.6388   -7.7150   18.5667 C   0  0  0  0  0  0
   16.2803   -5.8972   12.1810 C   0  0  0  0  0  0
   15.8396   -6.4374   18.3169 C   0  0  0  0  0  0
   17.9292   -4.6253   10.9274 C   0  0  0  0  0  0
   18.1632  -10.5880   14.0011 O   0  0  0  0  0  0
   15.3450   -6.1146   17.2373 O   0  0  0  0  0  0
   15.2313   -5.4210   11.3838 C   0  0  0  0  0  0
   16.8794   -4.1151   10.1785 C   0  0  0  0  0  0
   17.2593   -2.9150    8.9810 S   0  0  0  0  0  0
   15.7468   -5.7150   19.4695 O   0  0  0  0  0  0
   15.5589   -4.5190   10.3763 C   0  0  0  0  0  0
   16.1902  -11.8519   15.7237 C   0  0  0  0  0  0
   15.1186  -10.2952   17.7811 C   0  0  0  0  0  0
   16.1061   -1.5721    9.2829 C   0  0  0  0  0  0
   15.1442  -12.3453   16.5042 C   0  0  0  0  0  0
   14.5974  -11.5612   17.5186 C   0  0  0  0  0  0
   19.6336   -7.3149   14.9563 H   0  0  0  0  0  0
   19.4753   -8.5015   13.7325 H   0  0  0  0  0  0
   16.1449   -8.3015   19.3383 H   0  0  0  0  0  0
   17.6031   -7.4177   18.9809 H   0  0  0  0  0  0
   18.9449   -4.3156   10.7472 H   0  0  0  0  0  0
   14.2043   -5.7037   11.5707 H   0  0  0  0  0  0
   16.3045   -6.0860   20.1561 H   0  0  0  0  0  0
   14.7674   -4.1165    9.7612 H   0  0  0  0  0  0
   16.5688  -12.4534   14.9083 H   0  0  0  0  0  0
   14.6747   -9.7155   18.5763 H   0  0  0  0  0  0
   16.1450   -0.9166    8.4178 H   0  0  0  0  0  0
   15.0836   -1.9289    9.3930 H   0  0  0  0  0  0
   16.3918   -1.0153   10.1757 H   0  0  0  0  0  0
   14.7361  -13.3252   16.3029 H   0  0  0  0  0  0
   13.7639  -11.9335   18.0990 H   0  0  0  0  0  0
  1  2  1  0  0  0
  1  3  1  0  0  0
  1  7  1  0  0  0
  2  4  2  0  0  0
  3  8  1  0  0  0
  3 16  2  0  0  0
  4 12  1  0  0  0
  4 11  1  0  0  0
  5  7  1  0  0  0
  5  6  2  0  0  0
  5  9  1  0  0  0
  6 10  1  0  0  0
  7 28  1  0  0  0
  7 29  1  0  0  0
  8 11  1  0  0  0
  8 23  2  0  0  0
  9 13  1  0  0  0
 10 15  1  0  0  0
 10 13  2  0  0  0
 11 24  2  0  0  0
 12 14  1  0  0  0
 12 30  1  0  0  0
 12 31  1  0  0  0
 13 18  1  0  0  0
 14 17  2  0  0  0
 14 21  1  0  0  0
 15 19  2  0  0  0
 15 32  1  0  0  0
 18 22  2  0  0  0
 18 33  1  0  0  0
 19 20  1  0  0  0
 19 22  1  0  0  0
 20 25  1  0  0  0
 21 34  1  0  0  0
 22 35  1  0  0  0
 23 26  1  0  0  0
 23 36  1  0  0  0
 24 27  1  0  0  0
 24 37  1  0  0  0
 25 38  1  0  0  0
 25 39  1  0  0  0
 25 40  1  0  0  0
 26 27  2  0  0  0
 26 41  1  0  0  0
 27 42  1  0  0  0
M  END
> <s_m_entry_id>
6292

> <s_m_entry_name>
dock_pv.127

> <s_m_Source_Path>
/home/csk/Desktop/cluster/DUD-E-result/aldr

> <s_m_Source_File>
dock_pv.maegz

> <i_m_Source_File_Index>
127

> <chembl_id>
CHEMBL418007

> <chembl_pref_name>
None

> <i_lp_mmshare_version>
53161

> <i_f3d_flags>
0

> <r_lp_tautomer_probability>
1

> <s_lp_Force_Field>
OPLS_2005

> <r_lp_Energy>
24.971238

> <b_lp_Chiralities_Consistent>
1

> <s_lp_Variant>
CHEMBL1900_lig282-1

> <s_i_glide_gridfile>
glide-grid_2hv5

> <i_i_glide_lignum>
397

> <i_i_glide_rotatable_bonds>
6

> <r_i_docking_score>
-9.81495472946653

> <r_i_glide_ligand_efficiency>
-0.363516841832094

> <r_i_glide_ligand_efficiency_sa>
-1.09055052429819

> <r_i_glide_ligand_efficiency_ln>
-2.28475964884479

> <r_i_glide_gscore>
-9.81495472946653

> <r_i_glide_lipo>
-5.01292112543729

> <r_i_glide_hbond>
-0.170028343165736

> <r_i_glide_metal>
0

> <r_i_glide_rewards>
-2.01200851603913

> <r_i_glide_evdw>
-47.1898345947266

> <r_i_glide_ecoul>
-5.04083871841431

> <r_i_glide_erotb>
0.495620792674095

> <r_i_glide_esite>
0

> <r_i_glide_emodel>
-72.5611859410515

> <r_i_glide_energy>
-52.2306733131409

> <r_i_glide_einternal>
5.23501110076904

> <i_i_glide_confnum>
3

> <i_i_glide_posenum>
276

> <r_i_glide_eff_state_penalty>
0

> <s_user_duplicate_titles>
CHEMBL1900_lig282,24235

> <s_m_subgroup_title>
dock_pv

> <s_m_subgroupid>
dock_pv

> <b_m_subgroup_collapsed>
1

$$$$
CHEMBL1900_lig379
                    3D
 Schrodinger Suite 2021-1.
 40 43  0  0  1  0            999 V2000
   16.9861   -8.4136   17.2620 N   0  0  0  0  0  0
   18.1441   -8.4425   15.3088 C   0  0  0  0  0  0
   16.8244   -9.6905   16.7519 C   0  0  0  0  0  0
   18.5451   -5.9930   12.5809 N   0  0  0  0  0  0
   18.0365   -6.9131   13.3484 C   0  0  0  0  0  0
   17.7768   -7.7030   16.4000 C   0  0  0  0  0  0
   17.5771   -9.7462   15.5317 C   0  0  0  0  0  0
   16.2852   -6.9160   13.3931 S   0  0  0  0  0  0
   16.8921   -2.5719    9.3707 C   0  0  0  0  0  0
   17.5928   -5.3704   11.8385 C   0  0  0  0  0  0
   16.2716   -5.8155   12.0631 C   0  0  0  0  0  0
   16.7313   -3.8064   10.2340 C   0  0  0  0  0  0
   18.8992   -7.9072   14.1117 C   0  0  0  0  0  0
   16.4777   -7.8656   18.5130 C   0  0  0  0  0  0
   16.0985  -10.7908   17.2275 C   0  0  0  0  0  0
   17.8288   -4.3541   10.9104 C   0  0  0  0  0  0
   17.6060  -10.9528   14.8152 C   0  0  0  0  0  0
   15.7858   -6.5149   18.3590 C   0  0  0  0  0  0
   15.1895   -5.3467   11.3222 C   0  0  0  0  0  0
   15.4532   -4.3480   10.3974 C   0  0  0  0  0  0
   15.3450   -6.1001   17.2895 O   0  0  0  0  0  0
   18.1444   -2.1162    9.3811 F   0  0  0  0  0  0
   16.5452   -2.8928    8.1413 F   0  0  0  0  0  0
   16.0818   -1.6008    9.7810 F   0  0  0  0  0  0
   16.1588  -11.9663   16.4810 C   0  0  0  0  0  0
   16.9040  -12.0517   15.3081 C   0  0  0  0  0  0
   15.7451   -5.8427   19.5465 O   0  0  0  0  0  0
   15.1833  -13.4873   17.0775 Br  0  0  0  0  0  0
   17.9992   -6.6683   16.6144 H   0  0  0  0  0  0
   19.8289   -7.4313   14.4277 H   0  0  0  0  0  0
   19.1980   -8.7197   13.4493 H   0  0  0  0  0  0
   15.7984   -8.5754   18.9840 H   0  0  0  0  0  0
   17.3444   -7.7150   19.1486 H   0  0  0  0  0  0
   15.5014  -10.7437   18.1265 H   0  0  0  0  0  0
   18.8247   -3.9681   10.7677 H   0  0  0  0  0  0
   18.1558  -11.0294   13.8887 H   0  0  0  0  0  0
   14.1831   -5.7055   11.4928 H   0  0  0  0  0  0
   14.6287   -3.9516    9.8356 H   0  0  0  0  0  0
   16.9193  -12.9816   14.7581 H   0  0  0  0  0  0
   16.2207   -6.3044   20.2408 H   0  0  0  0  0  0
  1  3  1  0  0  0
  1  6  1  0  0  0
  1 14  1  0  0  0
  2  6  2  0  0  0
  2 13  1  0  0  0
  2  7  1  0  0  0
  3  7  2  0  0  0
  3 15  1  0  0  0
  4  5  2  0  0  0
  4 10  1  0  0  0
  5 13  1  0  0  0
  5  8  1  0  0  0
  6 29  1  0  0  0
  7 17  1  0  0  0
  8 11  1  0  0  0
  9 12  1  0  0  0
  9 22  1  0  0  0
  9 23  1  0  0  0
  9 24  1  0  0  0
 10 16  1  0  0  0
 10 11  2  0  0  0
 11 19  1  0  0  0
 12 16  2  0  0  0
 12 20  1  0  0  0
 13 30  1  0  0  0
 13 31  1  0  0  0
 14 18  1  0  0  0
 14 32  1  0  0  0
 14 33  1  0  0  0
 15 25  2  0  0  0
 15 34  1  0  0  0
 16 35  1  0  0  0
 17 26  2  0  0  0
 17 36  1  0  0  0
 18 21  2  0  0  0
 18 27  1  0  0  0
 19 20  2  0  0  0
 19 37  1  0  0  0
 20 38  1  0  0  0
 25 26  1  0  0  0
 25 28  1  0  0  0
 26 39  1  0  0  0
 27 40  1  0  0  0
M  END
> <s_m_entry_id>
6293

> <s_m_entry_name>
dock_pv.128

> <s_m_Source_Path>
/home/csk/Desktop/cluster/DUD-E-result/aldr

> <s_m_Source_File>
dock_pv.maegz

> <i_m_Source_File_Index>
128

> <chembl_id>
CHEMBL191570

> <chembl_pref_name>
None

> <i_lp_mmshare_version>
53161

> <i_f3d_flags>
0

> <r_lp_tautomer_probability>
1

> <s_lp_Force_Field>
OPLS_2005

> <r_lp_Energy>
10.220966

> <b_lp_Chiralities_Consistent>
1

> <s_lp_Variant>
CHEMBL1900_lig379-1

> <s_i_glide_gridfile>
glide-grid_2hv5

> <i_i_glide_lignum>
500

> <i_i_glide_rotatable_bonds>
6

> <r_i_docking_score>
-9.81185334671798

> <r_i_glide_ligand_efficiency>
-0.350423333811356

> <r_i_glide_ligand_efficiency_sa>
-1.06409162975754

> <r_i_glide_ligand_efficiency_ln>
-2.264863840955

> <r_i_glide_gscore>
-9.81185334671798

> <r_i_glide_lipo>
-4.58759069401097

> <r_i_glide_hbond>
-0.144018438051441

> <r_i_glide_metal>
0

> <r_i_glide_rewards>
-2.63579757217986

> <r_i_glide_evdw>
-38.7458419799805

> <r_i_glide_ecoul>
-5.82662010192871

> <r_i_glide_erotb>
0.366838471812625

> <r_i_glide_esite>
0

> <r_i_glide_emodel>
-61.58649695583

> <r_i_glide_energy>
-44.5724620819092

> <r_i_glide_einternal>
3.15276694297791

> <i_i_glide_confnum>
2

> <i_i_glide_posenum>
239

> <r_i_glide_eff_state_penalty>
0

> <s_user_duplicate_titles>
CHEMBL1900_lig379,320781

> <s_m_subgroup_title>
dock_pv

> <s_m_subgroupid>
dock_pv

> <b_m_subgroup_collapsed>
1

$$$$
CHEMBL1900_lig411
                    3D
 Schrodinger Suite 2021-1.
 40 43  0  0  1  0            999 V2000
   17.4833   -4.9554   11.2281 C   0  0  0  0  0  0
   16.3565   -7.6603   17.0842 N   0  0  0  0  0  0
   16.0866   -5.1547   11.2621 C   0  0  0  0  0  0
   18.1951   -5.8495   11.9542 N   0  0  0  0  0  0
   18.0293   -3.9238   10.4508 C   0  0  0  0  0  0
   17.3033   -7.1854   16.2108 C   0  0  0  0  0  0
   17.7806   -8.1854   15.4038 C   0  0  0  0  0  0
   15.7450   -6.5150   12.2996 S   0  0  0  0  0  0
   17.4588   -6.8098   12.4334 C   0  0  0  0  0  0
   16.1948   -9.0205   16.8675 C   0  0  0  0  0  0
   17.1005   -9.3805   15.8223 C   0  0  0  0  0  0
   15.2196   -4.3301   10.5435 C   0  0  0  0  0  0
   17.1563   -3.1114    9.7384 C   0  0  0  0  0  0
   15.7838   -3.3045    9.7892 C   0  0  0  0  0  0
   15.5809   -6.8360   18.0044 C   0  0  0  0  0  0
   16.3419   -5.9647   19.0122 C   0  0  0  0  0  0
   18.7741   -8.0496   14.2773 C   0  0  0  0  0  0
   15.7454   -5.2178   19.7809 O   0  0  0  0  0  0
   19.3606   -3.7149   10.3689 F   0  0  0  0  0  0
   18.0620   -8.1237   12.9206 C   0  0  0  0  0  0
   13.8813   -4.5150   10.5810 F   0  0  0  0  0  0
   17.6474   -2.1150    8.9811 F   0  0  0  0  0  0
   17.6947   -6.1149   18.9810 O   0  0  0  0  0  0
   15.3449   -9.9629   17.4678 C   0  0  0  0  0  0
   17.1512  -10.7204   15.4040 C   0  0  0  0  0  0
   16.3132  -11.6542   16.0100 C   0  0  0  0  0  0
   15.4277  -11.2788   17.0150 C   0  0  0  0  0  0
   17.5592   -6.1377   16.2138 H   0  0  0  0  0  0
   15.1595   -2.6155    9.2557 H   0  0  0  0  0  0
   14.9380   -6.1943   17.4030 H   0  0  0  0  0  0
   14.9450   -7.4960   18.5792 H   0  0  0  0  0  0
   19.3697   -7.1373   14.3495 H   0  0  0  0  0  0
   19.4992   -8.8617   14.3377 H   0  0  0  0  0  0
   18.7605   -8.5150   12.1862 H   0  0  0  0  0  0
   17.3383   -8.9298   12.9419 H   0  0  0  0  0  0
   17.9775   -6.7884   18.3587 H   0  0  0  0  0  0
   14.6498   -9.7009   18.2510 H   0  0  0  0  0  0
   17.8216  -11.0233   14.6133 H   0  0  0  0  0  0
   16.3421  -12.6855   15.6874 H   0  0  0  0  0  0
   14.7830  -12.0279   17.4538 H   0  0  0  0  0  0
  1  3  2  0  0  0
  1  4  1  0  0  0
  1  5  1  0  0  0
  2  6  1  0  0  0
  2 15  1  0  0  0
  2 10  1  0  0  0
  3  8  1  0  0  0
  3 12  1  0  0  0
  4  9  2  0  0  0
  5 13  2  0  0  0
  5 19  1  0  0  0
  6  7  2  0  0  0
  6 28  1  0  0  0
  7 17  1  0  0  0
  7 11  1  0  0  0
  8  9  1  0  0  0
  9 20  1  0  0  0
 10 11  2  0  0  0
 10 24  1  0  0  0
 11 25  1  0  0  0
 12 21  1  0  0  0
 12 14  2  0  0  0
 13 14  1  0  0  0
 13 22  1  0  0  0
 14 29  1  0  0  0
 15 16  1  0  0  0
 15 30  1  0  0  0
 15 31  1  0  0  0
 16 18  2  0  0  0
 16 23  1  0  0  0
 17 20  1  0  0  0
 17 32  1  0  0  0
 17 33  1  0  0  0
 20 34  1  0  0  0
 20 35  1  0  0  0
 23 36  1  0  0  0
 24 27  2  0  0  0
 24 37  1  0  0  0
 25 26  2  0  0  0
 25 38  1  0  0  0
 26 27  1  0  0  0
 26 39  1  0  0  0
 27 40  1  0  0  0
M  END
> <s_m_entry_id>
6294

> <s_m_entry_name>
dock_pv.129

> <s_m_Source_Path>
/home/csk/Desktop/cluster/DUD-E-result/aldr

> <s_m_Source_File>
dock_pv.maegz

> <i_m_Source_File_Index>
129

> <chembl_id>
CHEMBL193155

> <chembl_pref_name>
None

> <i_lp_mmshare_version>
53161

> <i_f3d_flags>
0

> <r_lp_tautomer_probability>
1

> <s_lp_Force_Field>
OPLS_2005

> <r_lp_Energy>
5.462736

> <b_lp_Chiralities_Consistent>
1

> <s_lp_Variant>
CHEMBL1900_lig411-1

> <s_i_glide_gridfile>
glide-grid_2hv5

> <i_i_glide_lignum>
532

> <i_i_glide_rotatable_bonds>
6

> <r_i_docking_score>
-9.80557751807979

> <r_i_glide_ligand_efficiency>
-0.363169537706659

> <r_i_glide_ligand_efficiency_sa>
-1.08950861192303

> <r_i_glide_ligand_efficiency_ln>
-2.28257678862936

> <r_i_glide_gscore>
-9.80557751807979

> <r_i_glide_lipo>
-4.53076033905885

> <r_i_glide_hbond>
-0.32

> <r_i_glide_metal>
0

> <r_i_glide_rewards>
-2.96562991338463

> <r_i_glide_evdw>
-37.6936187744141

> <r_i_glide_ecoul>
-4.64413166046143

> <r_i_glide_erotb>
0.639905615779912

> <r_i_glide_esite>
-0.0477921936263095

> <r_i_glide_emodel>
-54.2251655511362

> <r_i_glide_energy>
-42.3377504348755

> <r_i_glide_einternal>
8.25243759155273

> <i_i_glide_confnum>
62

> <i_i_glide_posenum>
71

> <r_i_glide_eff_state_penalty>
0

> <s_user_duplicate_titles>
CHEMBL1900_lig411,320812

> <s_m_subgroup_title>
dock_pv

> <s_m_subgroupid>
dock_pv

> <b_m_subgroup_collapsed>
1

$$$$
CHEMBL1900_lig284
                    3D
 Schrodinger Suite 2021-1.
 38 41  0  0  1  0            999 V2000
   18.0252   -8.0791   15.4123 N   0  0  0  0  0  0
   17.4997   -7.3607   16.4827 N   0  0  0  0  0  0
   17.7452   -9.3952   15.0901 C   0  0  0  0  0  0
   16.5816   -7.8601   17.2285 C   0  0  0  0  0  0
   18.0240   -6.6019   13.3813 C   0  0  0  0  0  0
   18.5451   -5.7153   12.5832 N   0  0  0  0  0  0
   16.3628   -5.7321   11.7996 C   0  0  0  0  0  0
   17.6648   -5.2098   11.6890 C   0  0  0  0  0  0
   16.3332   -6.9146   13.0845 S   0  0  0  0  0  0
   18.8439   -7.2811   14.4725 C   0  0  0  0  0  0
   16.6812   -9.9921   15.9994 C   0  0  0  0  0  0
   16.0784   -9.2312   17.0213 C   0  0  0  0  0  0
   15.9864   -7.0161   18.3772 C   0  0  0  0  0  0
   15.3346   -5.2813   10.9801 C   0  0  0  0  0  0
   17.9536   -4.2263   10.7320 C   0  0  0  0  0  0
   16.6188   -5.6358   18.6207 C   0  0  0  0  0  0
   15.6301   -4.2987   10.0398 C   0  0  0  0  0  0
   16.9115   -3.7712    9.9254 C   0  0  0  0  0  0
   18.2668  -10.0048   14.1517 O   0  0  0  0  0  0
   16.1450   -4.5922   18.1817 O   0  0  0  0  0  0
   13.7450   -5.9000   11.1542 Cl  0  0  0  0  0  0
   17.1944   -2.5102    8.7942 Cl  0  0  0  0  0  0
   17.7449   -5.7144   19.3810 O   0  0  0  0  0  0
   16.2768  -11.3156   15.7817 C   0  0  0  0  0  0
   15.0506   -9.8045   17.7852 C   0  0  0  0  0  0
   15.2691  -11.8777   16.5655 C   0  0  0  0  0  0
   14.6546  -11.1230   17.5627 C   0  0  0  0  0  0
   19.4322   -6.5542   15.0356 H   0  0  0  0  0  0
   19.6064   -7.9049   13.9994 H   0  0  0  0  0  0
   14.9266   -6.8554   18.1794 H   0  0  0  0  0  0
   16.0409   -7.5781   19.3096 H   0  0  0  0  0  0
   18.9410   -3.8017   10.6514 H   0  0  0  0  0  0
   14.8498   -3.9268    9.3953 H   0  0  0  0  0  0
   18.0111   -6.6185   19.5633 H   0  0  0  0  0  0
   16.7303  -11.9091   15.0002 H   0  0  0  0  0  0
   14.5548   -9.2523   18.5688 H   0  0  0  0  0  0
   14.9545  -12.8964   16.3917 H   0  0  0  0  0  0
   13.8650  -11.5592   18.1609 H   0  0  0  0  0  0
  1  2  1  0  0  0
  1  3  1  0  0  0
  1 10  1  0  0  0
  2  4  2  0  0  0
  3 11  1  0  0  0
  3 19  2  0  0  0
  4 13  1  0  0  0
  4 12  1  0  0  0
  5 10  1  0  0  0
  5  6  2  0  0  0
  5  9  1  0  0  0
  6  8  1  0  0  0
  7  9  1  0  0  0
  7 14  1  0  0  0
  7  8  2  0  0  0
  8 15  1  0  0  0
 10 28  1  0  0  0
 10 29  1  0  0  0
 11 12  1  0  0  0
 11 24  2  0  0  0
 12 25  2  0  0  0
 13 16  1  0  0  0
 13 30  1  0  0  0
 13 31  1  0  0  0
 14 17  2  0  0  0
 14 21  1  0  0  0
 15 18  2  0  0  0
 15 32  1  0  0  0
 16 20  2  0  0  0
 16 23  1  0  0  0
 17 18  1  0  0  0
 17 33  1  0  0  0
 18 22  1  0  0  0
 23 34  1  0  0  0
 24 26  1  0  0  0
 24 35  1  0  0  0
 25 27  1  0  0  0
 25 36  1  0  0  0
 26 27  2  0  0  0
 26 37  1  0  0  0
 27 38  1  0  0  0
M  END
> <s_m_entry_id>
6295

> <s_m_entry_name>
dock_pv.130

> <s_m_Source_Path>
/home/csk/Desktop/cluster/DUD-E-result/aldr

> <s_m_Source_File>
dock_pv.maegz

> <i_m_Source_File_Index>
130

> <chembl_id>
CHEMBL278991

> <chembl_pref_name>
None

> <i_lp_mmshare_version>
53161

> <i_f3d_flags>
0

> <r_lp_tautomer_probability>
1

> <s_lp_Force_Field>
OPLS_2005

> <r_lp_Energy>
23.10562

> <b_lp_Chiralities_Consistent>
1

> <s_lp_Variant>
CHEMBL1900_lig284-1

> <s_i_glide_gridfile>
glide-grid_2hv5

> <i_i_glide_lignum>
399

> <i_i_glide_rotatable_bonds>
5

> <r_i_docking_score>
-9.80506754543441

> <r_i_glide_ligand_efficiency>
-0.363150649830904

> <r_i_glide_ligand_efficiency_sa>
-1.08945194829583

> <r_i_glide_ligand_efficiency_ln>
-2.28245807540508

> <r_i_glide_gscore>
-9.80506754543441

> <r_i_glide_lipo>
-5.22360699393978

> <r_i_glide_hbond>
0

> <r_i_glide_metal>
0

> <r_i_glide_rewards>
-2.06889864410341

> <r_i_glide_evdw>
-51.3551406860352

> <r_i_glide_ecoul>
-2.6200168132782

> <r_i_glide_erotb>
0.44819764890227

> <r_i_glide_esite>
0

> <r_i_glide_emodel>
-83.2836087786758

> <r_i_glide_energy>
-53.9751574993134

> <r_i_glide_einternal>
3.31144833564758

> <i_i_glide_confnum>
15

> <i_i_glide_posenum>
300

> <r_i_glide_eff_state_penalty>
0

> <s_user_duplicate_titles>
CHEMBL1900_lig284,24264

> <s_m_subgroup_title>
dock_pv

> <s_m_subgroupid>
dock_pv

> <b_m_subgroup_collapsed>
1

$$$$
CHEMBL1900_lig584
                    3D
 Schrodinger Suite 2021-1.
 32 33  0  0  1  0            999 V2000
   16.5088   -7.4664   14.8771 C   0  0  0  0  0  0
   16.6761   -8.1751   16.0225 N   0  0  0  0  0  0
   17.4336   -9.2868   16.0012 C   0  0  0  0  0  0
   18.1447   -9.4499   14.3689 S   0  0  0  0  0  0
   17.3385   -7.9883   13.8148 C   0  0  0  0  0  0
   17.6343  -10.0964   16.9074 O   0  0  0  0  0  0
   15.7458   -6.5152   14.7761 O   0  0  0  0  0  0
   17.4867   -7.4442   12.5818 C   0  0  0  0  0  0
   16.8954   -6.2561   11.9171 C   0  0  0  0  0  0
   15.5152   -6.1156   11.7532 C   0  0  0  0  0  0
   14.9878   -5.0829   10.9811 C   0  0  0  0  0  0
   15.8473   -4.1674   10.3819 C   0  0  0  0  0  0
   17.2242   -4.2728   10.5646 C   0  0  0  0  0  0
   17.7455   -5.3148   11.3294 C   0  0  0  0  0  0
   15.9663   -7.8065   17.2760 C   0  0  0  0  0  0
   16.1937   -6.3786   17.7671 C   0  0  0  0  0  0
   15.3475   -3.1514    9.6124 O   0  0  0  0  0  0
   16.6726   -6.0333   18.9794 C   0  0  0  0  0  0
   16.8457   -4.6517   19.3613 C   0  0  0  0  0  0
   17.3785   -4.5260   20.6054 O   0  0  0  0  0  0
   16.5448   -3.6842   18.6655 O   0  0  0  0  0  0
   18.1449   -7.9928   11.9328 H   0  0  0  0  0  0
   14.8533   -6.8458   12.1808 H   0  0  0  0  0  0
   13.9184   -5.0008   10.8502 H   0  0  0  0  0  0
   17.8846   -3.5539   10.1036 H   0  0  0  0  0  0
   18.8163   -5.4032   11.4390 H   0  0  0  0  0  0
   16.2108   -8.4894   18.0930 H   0  0  0  0  0  0
   14.8979   -7.9304   17.0877 H   0  0  0  0  0  0
   15.9358   -5.5993   17.0628 H   0  0  0  0  0  0
   14.4003   -3.2143    9.3992 H   0  0  0  0  0  0
   16.9452   -6.7792   19.7126 H   0  0  0  0  0  0
   17.4841   -3.5946   20.8140 H   0  0  0  0  0  0
  1  2  1  0  0  0
  1  5  1  0  0  0
  1  7  2  0  0  0
  2  3  1  0  0  0
  2 15  1  0  0  0
  3  4  1  0  0  0
  3  6  2  0  0  0
  4  5  1  0  0  0
  5  8  2  0  0  0
  8  9  1  0  0  0
  8 22  1  0  0  0
  9 10  2  0  0  0
  9 14  1  0  0  0
 10 11  1  0  0  0
 10 23  1  0  0  0
 11 12  2  0  0  0
 11 24  1  0  0  0
 12 13  1  0  0  0
 12 17  1  0  0  0
 13 14  2  0  0  0
 13 25  1  0  0  0
 14 26  1  0  0  0
 15 16  1  0  0  0
 15 27  1  0  0  0
 15 28  1  0  0  0
 16 18  2  0  0  0
 16 29  1  0  0  0
 17 30  1  0  0  0
 18 19  1  0  0  0
 18 31  1  0  0  0
 19 20  1  0  0  0
 19 21  2  0  0  0
 20 32  1  0  0  0
M  END
> <s_m_entry_id>
6296

> <s_m_entry_name>
dock_pv.131

> <s_m_Source_Path>
/home/csk/Desktop/cluster/DUD-E-result/aldr

> <s_m_Source_File>
dock_pv.maegz

> <i_m_Source_File_Index>
131

> <chembl_id>
CHEMBL2260159

> <chembl_pref_name>
None

> <i_lp_mmshare_version>
53161

> <i_f3d_flags>
0

> <r_lp_tautomer_probability>
1

> <s_lp_Force_Field>
OPLS_2005

> <r_lp_Energy>
18.376662

> <b_lp_Chiralities_Consistent>
1

> <s_lp_Variant>
CHEMBL1900_lig584-1

> <s_i_glide_gridfile>
glide-grid_2hv5

> <i_i_glide_lignum>
707

> <i_i_glide_rotatable_bonds>
6

> <r_i_docking_score>
-9.80392090180753

> <r_i_glide_ligand_efficiency>
-0.466853376276549

> <r_i_glide_ligand_efficiency_sa>
-1.2880130653274

> <r_i_glide_ligand_efficiency_ln>
-2.42399963228439

> <r_i_glide_gscore>
-9.80392090180753

> <r_i_glide_lipo>
-3.52973895908061

> <r_i_glide_hbond>
-0.338199211479535

> <r_i_glide_metal>
0

> <r_i_glide_rewards>
-3.66835026064597

> <r_i_glide_evdw>
-36.9838905334473

> <r_i_glide_ecoul>
-8.06934833526611

> <r_i_glide_erotb>
0.791964306360867

> <r_i_glide_esite>
0

> <r_i_glide_emodel>
-64.6962851694666

> <r_i_glide_energy>
-45.0532388687134

> <r_i_glide_einternal>
5.90636253356934

> <i_i_glide_confnum>
18

> <i_i_glide_posenum>
338

> <r_i_glide_eff_state_penalty>
0

> <s_user_duplicate_titles>
CHEMBL1900_lig584

> <s_m_subgroup_title>
dock_pv

> <s_m_subgroupid>
dock_pv

> <b_m_subgroup_collapsed>
1

$$$$
CHEMBL1900_lig157
                    3D
 Schrodinger Suite 2021-1.
 44 46  0  0  1  0            999 V2000
   18.0873   -8.6394   14.6955 N   0  0  0  0  0  0
   17.8549   -7.7763   15.7688 N   0  0  0  0  0  0
   17.7449   -9.9813   14.6487 C   0  0  0  0  0  0
   17.1612   -8.1596   16.7717 C   0  0  0  0  0  0
   16.7908  -10.3627   15.7778 C   0  0  0  0  0  0
   18.8800   -8.0983   13.5628 C   0  0  0  0  0  0
   17.7984   -2.4054    9.7922 C   0  0  0  0  0  0
   16.4565   -9.4479   16.7960 C   0  0  0  0  0  0
   17.1793   -7.2392   17.9915 C   0  0  0  0  0  0
   18.3574   -6.7315   13.0814 C   0  0  0  0  0  0
   16.7696   -5.6475   11.5222 C   0  0  0  0  0  0
   17.3078   -6.7423   12.2326 N   0  0  0  0  0  0
   16.9821   -3.5605   10.3037 C   0  0  0  0  0  0
   16.1450   -6.1146   17.9049 C   0  0  0  0  0  0
   17.5685   -4.6210   11.0057 C   0  0  0  0  0  0
   18.1451  -10.7769   13.7927 O   0  0  0  0  0  0
   15.3887   -5.5827   11.2980 C   0  0  0  0  0  0
   18.9450   -5.7150   13.4435 O   0  0  0  0  0  0
   15.6074   -3.5412   10.0789 C   0  0  0  0  0  0
   15.3451   -5.9641   16.9810 O   0  0  0  0  0  0
   14.8112   -4.5488   10.5810 C   0  0  0  0  0  0
   19.0886   -2.7120    9.7810 F   0  0  0  0  0  0
   17.6418   -1.3150   10.5230 F   0  0  0  0  0  0
   17.3450   -2.1330    8.5810 F   0  0  0  0  0  0
   16.2164   -5.3156   19.0073 O   0  0  0  0  0  0
   14.5450   -6.5150   11.7810 O   0  0  0  0  0  0
   16.2188  -11.6415   15.7812 C   0  0  0  0  0  0
   15.4438   -9.7711   17.7111 C   0  0  0  0  0  0
   15.2541  -11.9736   16.7333 C   0  0  0  0  0  0
   14.8535  -11.0347   17.6831 C   0  0  0  0  0  0
   18.8780   -8.7486   12.6859 H   0  0  0  0  0  0
   19.9341   -8.0222   13.8340 H   0  0  0  0  0  0
   16.9890   -7.8035   18.9026 H   0  0  0  0  0  0
   18.1702   -6.7991   18.1126 H   0  0  0  0  0  0
   16.7836   -7.6003   12.1516 H   0  0  0  0  0  0
   18.6358   -4.6397   11.1660 H   0  0  0  0  0  0
   15.1415   -2.7290    9.5380 H   0  0  0  0  0  0
   13.7443   -4.5150   10.4181 H   0  0  0  0  0  0
   16.9445   -5.5585   19.5822 H   0  0  0  0  0  0
   13.6234   -6.2888   11.6293 H   0  0  0  0  0  0
   16.4864  -12.3666   15.0244 H   0  0  0  0  0  0
   15.1209   -9.0652   18.4624 H   0  0  0  0  0  0
   14.7952  -12.9518   16.7184 H   0  0  0  0  0  0
   14.0824  -11.2891   18.3972 H   0  0  0  0  0  0
  1  2  1  0  0  0
  1  3  1  0  0  0
  1  6  1  0  0  0
  2  4  2  0  0  0
  3  5  1  0  0  0
  3 16  2  0  0  0
  4  9  1  0  0  0
  4  8  1  0  0  0
  5  8  2  0  0  0
  5 27  1  0  0  0
  6 10  1  0  0  0
  6 31  1  0  0  0
  6 32  1  0  0  0
  7 13  1  0  0  0
  7 22  1  0  0  0
  7 23  1  0  0  0
  7 24  1  0  0  0
  8 28  1  0  0  0
  9 14  1  0  0  0
  9 33  1  0  0  0
  9 34  1  0  0  0
 10 12  1  0  0  0
 10 18  2  0  0  0
 11 12  1  0  0  0
 11 15  2  0  0  0
 11 17  1  0  0  0
 12 35  1  0  0  0
 13 15  1  0  0  0
 13 19  2  0  0  0
 14 20  2  0  0  0
 14 25  1  0  0  0
 15 36  1  0  0  0
 17 21  2  0  0  0
 17 26  1  0  0  0
 19 21  1  0  0  0
 19 37  1  0  0  0
 21 38  1  0  0  0
 25 39  1  0  0  0
 26 40  1  0  0  0
 27 29  2  0  0  0
 27 41  1  0  0  0
 28 30  2  0  0  0
 28 42  1  0  0  0
 29 30  1  0  0  0
 29 43  1  0  0  0
 30 44  1  0  0  0
M  END
> <s_m_entry_id>
6297

> <s_m_entry_name>
dock_pv.132

> <s_m_Source_Path>
/home/csk/Desktop/cluster/DUD-E-result/aldr

> <s_m_Source_File>
dock_pv.maegz

> <i_m_Source_File_Index>
132

> <chembl_id>
CHEMBL342974

> <chembl_pref_name>
None

> <i_lp_mmshare_version>
53161

> <i_f3d_flags>
0

> <r_lp_tautomer_probability>
0.999999999997365

> <s_lp_Force_Field>
OPLS_2005

> <r_lp_Energy>
32.902845

> <b_lp_Chiralities_Consistent>
1

> <s_lp_Variant>
CHEMBL1900_lig157-1

> <s_i_glide_gridfile>
glide-grid_2hv5

> <i_i_glide_lignum>
233

> <i_i_glide_rotatable_bonds>
9

> <r_i_docking_score>
-9.79844468844326

> <r_i_glide_ligand_efficiency>
-0.326614822948109

> <r_i_glide_ligand_efficiency_sa>
-1.01486819364014

> <r_i_glide_ligand_efficiency_ln>
-2.2263133958202

> <r_i_glide_gscore>
-9.79844468844326

> <r_i_glide_lipo>
-4.31340847336606

> <r_i_glide_hbond>
-0.296221456862767

> <r_i_glide_metal>
0

> <r_i_glide_rewards>
-2.89141544074249

> <r_i_glide_evdw>
-38.6749877929688

> <r_i_glide_ecoul>
-6.88599824905396

> <r_i_glide_erotb>
0.669249809534581

> <r_i_glide_esite>
0

> <r_i_glide_emodel>
-61.0359329872997

> <r_i_glide_energy>
-45.5609860420227

> <r_i_glide_einternal>
6.72910642623901

> <i_i_glide_confnum>
66

> <i_i_glide_posenum>
377

> <r_i_glide_eff_state_penalty>
0

> <s_user_duplicate_titles>
CHEMBL1900_lig157,235578

> <s_m_subgroup_title>
dock_pv

> <s_m_subgroupid>
dock_pv

> <b_m_subgroup_collapsed>
1

$$$$
CHEMBL1900_lig40
                    3D
 Schrodinger Suite 2021-1.
 38 40  0  0  1  0            999 V2000
   18.2072   -8.5051   14.9455 N   0  0  0  0  0  0
   17.6001   -8.1065   16.1186 N   0  0  0  0  0  0
   18.1450   -9.7715   14.4005 C   0  0  0  0  0  0
   16.7971   -8.8776   16.7599 C   0  0  0  0  0  0
   17.2810  -10.6760   15.1782 C   0  0  0  0  0  0
   18.0349   -6.6556   13.2481 C   0  0  0  0  0  0
   18.5455   -5.7148   12.5121 N   0  0  0  0  0  0
   16.6089  -10.2502   16.2968 C   0  0  0  0  0  0
   16.3610   -5.7131   11.7170 C   0  0  0  0  0  0
   17.6682   -5.1957   11.6222 C   0  0  0  0  0  0
   16.3239   -6.9122   12.9924 S   0  0  0  0  0  0
   18.9124   -7.4332   14.2190 C   0  0  0  0  0  0
   16.1539   -8.2694   18.0076 C   0  0  0  0  0  0
   15.3503   -5.2535   10.8725 C   0  0  0  0  0  0
   17.9792   -4.2226   10.6629 C   0  0  0  0  0  0
   15.5577   -6.8709   17.7971 C   0  0  0  0  0  0
   15.6888   -4.3073    9.9059 C   0  0  0  0  0  0
   18.7516  -10.1071   13.3809 O   0  0  0  0  0  0
   16.9736   -3.7943    9.8057 C   0  0  0  0  0  0
   14.9447   -6.5165   16.7909 O   0  0  0  0  0  0
   14.0884   -5.7153   10.9816 F   0  0  0  0  0  0
   17.1360  -12.0795   14.5748 C   0  0  0  0  0  0
   17.2494   -2.8626    8.8702 F   0  0  0  0  0  0
   15.7460   -6.1027   18.9084 O   0  0  0  0  0  0
   15.7074  -11.1894   17.1057 C   0  0  0  0  0  0
   19.3864   -6.7655   14.9421 H   0  0  0  0  0  0
   19.7761   -7.8384   13.6847 H   0  0  0  0  0  0
   16.9134   -8.2153   18.7825 H   0  0  0  0  0  0
   15.3503   -8.8918   18.3972 H   0  0  0  0  0  0
   18.9637   -3.8016   10.5808 H   0  0  0  0  0  0
   14.9451   -3.9649    9.2136 H   0  0  0  0  0  0
   16.2281  -12.5939   14.8824 H   0  0  0  0  0  0
   17.0910  -12.0508   13.4835 H   0  0  0  0  0  0
   17.9897  -12.6978   14.8546 H   0  0  0  0  0  0
   16.3197   -6.5317   19.5454 H   0  0  0  0  0  0
   15.9208  -12.2462   16.9440 H   0  0  0  0  0  0
   15.8306  -11.0456   18.1795 H   0  0  0  0  0  0
   14.6581  -11.0136   16.8576 H   0  0  0  0  0  0
  1  2  1  0  0  0
  1  3  1  0  0  0
  1 12  1  0  0  0
  2  4  2  0  0  0
  3  5  1  0  0  0
  3 18  2  0  0  0
  4 13  1  0  0  0
  4  8  1  0  0  0
  5  8  2  0  0  0
  5 22  1  0  0  0
  6 12  1  0  0  0
  6  7  2  0  0  0
  6 11  1  0  0  0
  7 10  1  0  0  0
  8 25  1  0  0  0
  9 11  1  0  0  0
  9 14  1  0  0  0
  9 10  2  0  0  0
 10 15  1  0  0  0
 12 26  1  0  0  0
 12 27  1  0  0  0
 13 16  1  0  0  0
 13 28  1  0  0  0
 13 29  1  0  0  0
 14 17  2  0  0  0
 14 21  1  0  0  0
 15 19  2  0  0  0
 15 30  1  0  0  0
 16 20  2  0  0  0
 16 24  1  0  0  0
 17 19  1  0  0  0
 17 31  1  0  0  0
 19 23  1  0  0  0
 22 32  1  0  0  0
 22 33  1  0  0  0
 22 34  1  0  0  0
 24 35  1  0  0  0
 25 36  1  0  0  0
 25 37  1  0  0  0
 25 38  1  0  0  0
M  END
> <s_m_entry_id>
6298

> <s_m_entry_name>
dock_pv.133

> <s_m_Source_Path>
/home/csk/Desktop/cluster/DUD-E-result/aldr

> <s_m_Source_File>
dock_pv.maegz

> <i_m_Source_File_Index>
133

> <chembl_id>
CHEMBL73560

> <chembl_pref_name>
None

> <i_lp_mmshare_version>
53161

> <i_f3d_flags>
0

> <r_lp_tautomer_probability>
1

> <s_lp_Force_Field>
OPLS_2005

> <r_lp_Energy>
21.250284

> <b_lp_Chiralities_Consistent>
1

> <s_lp_Variant>
CHEMBL1900_lig40-1

> <s_i_glide_gridfile>
glide-grid_2hv5

> <i_i_glide_lignum>
75

> <i_i_glide_rotatable_bonds>
5

> <r_i_docking_score>
-9.7865904751712

> <r_i_glide_ligand_efficiency>
-0.391463619006848

> <r_i_glide_ligand_efficiency_sa>
-1.14464656461287

> <r_i_glide_ligand_efficiency_ln>
-2.31971522306584

> <r_i_glide_gscore>
-9.7865904751712

> <r_i_glide_lipo>
-4.13593250153164

> <r_i_glide_hbond>
-0.32

> <r_i_glide_metal>
0

> <r_i_glide_rewards>
-3.06081736149821

> <r_i_glide_evdw>
-44.2245979309082

> <r_i_glide_ecoul>
-4.23341846466064

> <r_i_glide_erotb>
0.576402054103156

> <r_i_glide_esite>
0

> <r_i_glide_emodel>
-74.0191876113231

> <r_i_glide_energy>
-48.4580163955688

> <r_i_glide_einternal>
4.56259727478027

> <i_i_glide_confnum>
14

> <i_i_glide_posenum>
309

> <r_i_glide_eff_state_penalty>
0

> <s_user_duplicate_titles>
CHEMBL1900_lig40,108803

> <s_m_subgroup_title>
dock_pv

> <s_m_subgroupid>
dock_pv

> <b_m_subgroup_collapsed>
1

$$$$
CHEMBL1900_lig640
                    3D
 Schrodinger Suite 2021-1.
 42 44  0  0  1  0            999 V2000
   15.3896   -4.3641    9.7810 C   0  0  0  0  0  0
   16.6114   -3.7100    9.6143 C   0  0  0  0  0  0
   17.6988   -4.0413   10.4253 C   0  0  0  0  0  0
   15.2466   -5.3594   10.7433 C   0  0  0  0  0  0
   16.3369   -5.7184   11.5266 C   0  0  0  0  0  0
   17.5452   -5.0376   11.4019 C   0  0  0  0  0  0
   18.5888   -5.3138   12.2686 O   0  0  0  0  0  0
   18.4658   -6.1338   13.3859 C   0  0  0  0  0  0
   17.2168   -6.9148   13.5036 C   0  0  0  0  0  0
   16.2454   -6.7160   12.5811 C   0  0  0  0  0  0
   19.4144   -6.1152   14.1709 O   0  0  0  0  0  0
   17.0069   -7.7969   14.6321 C   0  0  0  0  0  0
   15.8299   -7.5951   15.2464 N   0  0  0  0  0  0
   17.8502   -8.5956   15.0378 O   0  0  0  0  0  0
   15.4127   -8.1706   16.5186 C   0  0  0  0  0  0
   16.0331   -7.4564   17.7411 C   0  0  0  0  0  0
   16.2496   -5.9261   17.5782 C   0  0  0  0  0  0
   16.3472   -5.1084   18.8640 C   0  0  0  0  0  0
   16.1450   -3.7253   18.7970 C   0  0  0  0  0  0
   16.0319   -2.9792   19.9678 C   0  0  0  0  0  0
   16.2133   -3.6041   21.1986 C   0  0  0  0  0  0
   16.5450   -4.9520   21.2651 C   0  0  0  0  0  0
   16.5674   -5.7134   20.1028 C   0  0  0  0  0  0
   16.0322   -2.9152   22.3632 O   0  0  0  0  0  0
   18.8808   -3.3633   10.2557 O   0  0  0  0  0  0
   14.5458   -4.1149    9.1583 H   0  0  0  0  0  0
   16.7012   -2.9436    8.8590 H   0  0  0  0  0  0
   14.2916   -5.8485   10.8719 H   0  0  0  0  0  0
   15.3450   -7.3015   12.6182 H   0  0  0  0  0  0
   15.2071   -6.9198   14.8328 H   0  0  0  0  0  0
   15.6476   -9.2368   16.5377 H   0  0  0  0  0  0
   14.3257   -8.0852   16.5605 H   0  0  0  0  0  0
   16.9894   -7.9218   17.9860 H   0  0  0  0  0  0
   15.3727   -7.6609   18.5810 H   0  0  0  0  0  0
   15.4114   -5.5184   17.0116 H   0  0  0  0  0  0
   17.1447   -5.7440   16.9815 H   0  0  0  0  0  0
   15.9941   -3.2434   17.8424 H   0  0  0  0  0  0
   15.7972   -1.9258   19.9168 H   0  0  0  0  0  0
   16.6940   -5.4245   22.2252 H   0  0  0  0  0  0
   16.7522   -6.7732   20.1781 H   0  0  0  0  0  0
   15.5328   -2.0918   22.2847 H   0  0  0  0  0  0
   18.7917   -2.6331    9.6391 H   0  0  0  0  0  0
  1  2  2  0  0  0
  1  4  1  0  0  0
  1 26  1  0  0  0
  2  3  1  0  0  0
  2 27  1  0  0  0
  3  6  2  0  0  0
  3 25  1  0  0  0
  4  5  2  0  0  0
  4 28  1  0  0  0
  5  6  1  0  0  0
  5 10  1  0  0  0
  6  7  1  0  0  0
  7  8  1  0  0  0
  8  9  1  0  0  0
  8 11  2  0  0  0
  9 10  2  0  0  0
  9 12  1  0  0  0
 10 29  1  0  0  0
 12 13  1  0  0  0
 12 14  2  0  0  0
 13 15  1  0  0  0
 13 30  1  0  0  0
 15 16  1  0  0  0
 15 31  1  0  0  0
 15 32  1  0  0  0
 16 17  1  0  0  0
 16 33  1  0  0  0
 16 34  1  0  0  0
 17 18  1  0  0  0
 17 35  1  0  0  0
 17 36  1  0  0  0
 18 19  2  0  0  0
 18 23  1  0  0  0
 19 20  1  0  0  0
 19 37  1  0  0  0
 20 21  2  0  0  0
 20 38  1  0  0  0
 21 22  1  0  0  0
 21 24  1  0  0  0
 22 23  2  0  0  0
 22 39  1  0  0  0
 23 40  1  0  0  0
 24 41  1  0  0  0
 25 42  1  0  0  0
M  END
> <s_m_entry_id>
6299

> <s_m_entry_name>
dock_pv.134

> <s_m_Source_Path>
/home/csk/Desktop/cluster/DUD-E-result/aldr

> <s_m_Source_File>
dock_pv.maegz

> <i_m_Source_File_Index>
134

> <chembl_id>
CHEMBL4081953

> <chembl_pref_name>
None

> <i_lp_mmshare_version>
53161

> <i_f3d_flags>
0

> <r_lp_tautomer_probability>
0.999999999997365

> <s_lp_Force_Field>
OPLS_2005

> <r_lp_Energy>
23.624183

> <b_lp_Chiralities_Consistent>
1

> <s_lp_Variant>
CHEMBL1900_lig640-1

> <s_i_glide_gridfile>
glide-grid_2hv5

> <i_i_glide_lignum>
764

> <i_i_glide_rotatable_bonds>
8

> <r_i_docking_score>
-9.77441564168962

> <r_i_glide_ligand_efficiency>
-0.390976625667585

> <r_i_glide_ligand_efficiency_sa>
-1.143222587452

> <r_i_glide_ligand_efficiency_ln>
-2.31682942268038

> <r_i_glide_gscore>
-9.77441564168962

> <r_i_glide_lipo>
-5.22831985497365

> <r_i_glide_hbond>
-0.32

> <r_i_glide_metal>
0

> <r_i_glide_rewards>
-2.33075652574427

> <r_i_glide_evdw>
-46.1579856872559

> <r_i_glide_ecoul>
-3.82293510437012

> <r_i_glide_erotb>
0.986000289046615

> <r_i_glide_esite>
0

> <r_i_glide_emodel>
-70.8219825526499

> <r_i_glide_energy>
-49.980920791626

> <r_i_glide_einternal>
10.3163003921509

> <i_i_glide_confnum>
52

> <i_i_glide_posenum>
276

> <r_i_glide_eff_state_penalty>
0

> <s_user_duplicate_titles>
CHEMBL1900_lig640

> <s_m_subgroup_title>
dock_pv

> <s_m_subgroupid>
dock_pv

> <b_m_subgroup_collapsed>
1

$$$$
CHEMBL1900_lig651
                    3D
 Schrodinger Suite 2021-1.
 41 43  0  0  1  0            999 V2000
   17.5300   -7.1229   16.1763 C   0  0  0  0  0  0
   17.7666   -7.8893   15.0144 C   0  0  0  0  0  0
   17.3450   -9.2166   14.9810 C   0  0  0  0  0  0
   16.6565   -9.7762   16.0482 C   0  0  0  0  0  0
   16.4275   -9.0168   17.1881 C   0  0  0  0  0  0
   16.8869   -7.6970   17.2864 C   0  0  0  0  0  0
   16.7030   -7.0590   18.6105 C   0  0  0  0  0  0
   16.6009   -5.7734   19.0348 C   0  0  0  0  0  0
   16.5450   -4.2552   18.1810 S   0  0  0  0  0  0
   15.8833   -3.4572   19.5679 C   0  0  0  0  0  0
   16.2076   -4.1664   20.6782 N   0  0  0  0  0  0
   16.3559   -5.4933   20.4298 C   0  0  0  0  0  0
   16.1450   -6.3497   21.2769 O   0  0  0  0  0  0
   15.9059   -3.5912   22.0337 C   0  0  0  0  0  0
   16.7994   -4.1150   23.1785 C   0  0  0  0  0  0
   16.1417   -4.0383   24.3719 O   0  0  0  0  0  0
   17.9347   -4.5149   23.0286 O   0  0  0  0  0  0
   18.4315   -7.4797   13.8758 O   0  0  0  0  0  0
   18.5607   -6.1053   13.5280 C   0  0  0  0  0  0
   17.5368   -5.7191   12.4575 C   0  0  0  0  0  0
   16.2035   -6.1310   12.5605 C   0  0  0  0  0  0
   15.2682   -5.7274   11.6097 C   0  0  0  0  0  0
   15.6660   -4.9150   10.5515 C   0  0  0  0  0  0
   16.9932   -4.5150   10.4272 C   0  0  0  0  0  0
   17.9246   -4.9150   11.3810 C   0  0  0  0  0  0
   14.9450   -2.1150   19.3810 S   0  0  0  0  0  0
   17.8983   -6.1150   16.2537 H   0  0  0  0  0  0
   17.5371   -9.8137   14.1012 H   0  0  0  0  0  0
   16.3158  -10.8001   15.9974 H   0  0  0  0  0  0
   15.9148   -9.4840   18.0177 H   0  0  0  0  0  0
   16.6504   -7.8118   19.3811 H   0  0  0  0  0  0
   14.8514   -3.7150   22.2717 H   0  0  0  0  0  0
   16.0835   -2.5150   22.0159 H   0  0  0  0  0  0
   15.2341   -3.7150   24.3256 H   0  0  0  0  0  0
   18.5450   -5.4114   14.3649 H   0  0  0  0  0  0
   19.5604   -6.0086   13.1097 H   0  0  0  0  0  0
   15.8808   -6.7433   13.3888 H   0  0  0  0  0  0
   14.2349   -6.0301   11.7007 H   0  0  0  0  0  0
   14.9383   -4.5915    9.8206 H   0  0  0  0  0  0
   17.2936   -3.8869    9.6018 H   0  0  0  0  0  0
   18.9450   -4.5837   11.2856 H   0  0  0  0  0  0
  1  6  1  0  0  0
  1  2  2  0  0  0
  1 27  1  0  0  0
  2 18  1  0  0  0
  2  3  1  0  0  0
  3  4  2  0  0  0
  3 28  1  0  0  0
  4  5  1  0  0  0
  4 29  1  0  0  0
  5  6  2  0  0  0
  5 30  1  0  0  0
  6  7  1  0  0  0
  7  8  2  0  0  0
  7 31  1  0  0  0
  8  9  1  0  0  0
  8 12  1  0  0  0
  9 10  1  0  0  0
 10 26  2  0  0  0
 10 11  1  0  0  0
 11 14  1  0  0  0
 11 12  1  0  0  0
 12 13  2  0  0  0
 14 15  1  0  0  0
 14 32  1  0  0  0
 14 33  1  0  0  0
 15 16  1  0  0  0
 15 17  2  0  0  0
 16 34  1  0  0  0
 18 19  1  0  0  0
 19 20  1  0  0  0
 19 35  1  0  0  0
 19 36  1  0  0  0
 20 21  2  0  0  0
 20 25  1  0  0  0
 21 22  1  0  0  0
 21 37  1  0  0  0
 22 23  2  0  0  0
 22 38  1  0  0  0
 23 24  1  0  0  0
 23 39  1  0  0  0
 24 25  2  0  0  0
 24 40  1  0  0  0
 25 41  1  0  0  0
M  END
> <s_m_entry_id>
6300

> <s_m_entry_name>
dock_pv.135

> <s_m_Source_Path>
/home/csk/Desktop/cluster/DUD-E-result/aldr

> <s_m_Source_File>
dock_pv.maegz

> <i_m_Source_File_Index>
135

> <chembl_id>
CHEMBL184768

> <chembl_pref_name>
None

> <i_lp_mmshare_version>
53161

> <i_f3d_flags>
0

> <r_lp_tautomer_probability>
1

> <s_lp_Force_Field>
OPLS_2005

> <r_lp_Energy>
23.465529

> <b_lp_Chiralities_Consistent>
1

> <s_lp_Variant>
CHEMBL1900_lig651-1

> <s_i_glide_gridfile>
glide-grid_2hv5

> <i_i_glide_lignum>
777

> <i_i_glide_rotatable_bonds>
7

> <r_i_docking_score>
-9.77390552183024

> <r_i_glide_ligand_efficiency>
-0.375919443147317

> <r_i_glide_ligand_efficiency_sa>
-1.11365987115234

> <r_i_glide_ligand_efficiency_ln>
-2.295369641002

> <r_i_glide_gscore>
-9.77390552183024

> <r_i_glide_lipo>
-4.61772064981439

> <r_i_glide_hbond>
-0.0482016842167862

> <r_i_glide_metal>
0

> <r_i_glide_rewards>
-3.02184810382491

> <r_i_glide_evdw>
-42.7093238830566

> <r_i_glide_ecoul>
-4.90828704833984

> <r_i_glide_erotb>
0.78557416742966

> <r_i_glide_esite>
0

> <r_i_glide_emodel>
-51.0676103040492

> <r_i_glide_energy>
-47.6176109313965

> <r_i_glide_einternal>
10.5185518264771

> <i_i_glide_confnum>
83

> <i_i_glide_posenum>
300

> <r_i_glide_eff_state_penalty>
0

> <s_user_duplicate_titles>
CHEMBL1900_lig651

> <s_m_subgroup_title>
dock_pv

> <s_m_subgroupid>
dock_pv

> <b_m_subgroup_collapsed>
1

$$$$
CHEMBL1900_lig246
                    3D
 Schrodinger Suite 2021-1.
 38 41  0  0  1  0            999 V2000
   17.9978   -8.1603   15.3879 N   0  0  0  0  0  0
   17.4457   -7.3272   16.3533 N   0  0  0  0  0  0
   17.6685   -9.4834   15.1517 C   0  0  0  0  0  0
   16.4137   -7.6982   17.0093 C   0  0  0  0  0  0
   18.1039   -6.6633   13.3893 C   0  0  0  0  0  0
   18.6833   -5.7065   12.7341 N   0  0  0  0  0  0
   18.8740   -7.4631   14.4305 C   0  0  0  0  0  0
   16.5570   -9.9644   16.0776 C   0  0  0  0  0  0
   16.4273   -6.9150   12.9492 S   0  0  0  0  0  0
   17.8898   -5.1593   11.7803 C   0  0  0  0  0  0
   16.5996   -5.7241   11.6815 C   0  0  0  0  0  0
   15.9237   -9.0866   16.9824 C   0  0  0  0  0  0
   15.6756   -6.5765   17.7472 C   0  0  0  0  0  0
   18.2626   -4.1154   10.9219 C   0  0  0  0  0  0
   15.7008   -5.3152   10.6885 C   0  0  0  0  0  0
   16.1218   -4.3146    9.8145 C   0  0  0  0  0  0
   17.3510   -3.6871    9.9679 C   0  0  0  0  0  0
   16.3810   -6.0316   19.0025 C   0  0  0  0  0  0
   18.1775  -10.1801   14.2686 O   0  0  0  0  0  0
   15.7450   -5.5195   19.9154 O   0  0  0  0  0  0
   17.7449   -2.3372    8.9811 Cl  0  0  0  0  0  0
   15.3450   -3.9599    8.7788 F   0  0  0  0  0  0
   17.7414   -6.1146   18.9776 O   0  0  0  0  0  0
   16.1511  -11.3037   16.0058 C   0  0  0  0  0  0
   14.9452   -9.5882   17.8503 C   0  0  0  0  0  0
   15.1500  -11.7787   16.8529 C   0  0  0  0  0  0
   14.5538  -10.9249   17.7787 C   0  0  0  0  0  0
   19.5703   -6.8327   14.9863 H   0  0  0  0  0  0
   19.5344   -8.1582   13.9072 H   0  0  0  0  0  0
   15.5453   -5.7301   17.0732 H   0  0  0  0  0  0
   14.6633   -6.8744   18.0149 H   0  0  0  0  0  0
   19.2245   -3.6369   10.9810 H   0  0  0  0  0  0
   14.7239   -5.7645   10.5881 H   0  0  0  0  0  0
   18.0427   -6.4966   18.1465 H   0  0  0  0  0  0
   16.6114  -11.9835   15.3018 H   0  0  0  0  0  0
   14.4711   -8.9559   18.5825 H   0  0  0  0  0  0
   14.8386  -12.8122   16.7962 H   0  0  0  0  0  0
   13.7832  -11.3011   18.4379 H   0  0  0  0  0  0
  1  2  1  0  0  0
  1  3  1  0  0  0
  1  7  1  0  0  0
  2  4  2  0  0  0
  3  8  1  0  0  0
  3 19  2  0  0  0
  4 13  1  0  0  0
  4 12  1  0  0  0
  5  7  1  0  0  0
  5  6  2  0  0  0
  5  9  1  0  0  0
  6 10  1  0  0  0
  7 28  1  0  0  0
  7 29  1  0  0  0
  8 12  1  0  0  0
  8 24  2  0  0  0
  9 11  1  0  0  0
 10 14  1  0  0  0
 10 11  2  0  0  0
 11 15  1  0  0  0
 12 25  2  0  0  0
 13 18  1  0  0  0
 13 30  1  0  0  0
 13 31  1  0  0  0
 14 17  2  0  0  0
 14 32  1  0  0  0
 15 16  2  0  0  0
 15 33  1  0  0  0
 16 22  1  0  0  0
 16 17  1  0  0  0
 17 21  1  0  0  0
 18 20  2  0  0  0
 18 23  1  0  0  0
 23 34  1  0  0  0
 24 26  1  0  0  0
 24 35  1  0  0  0
 25 27  1  0  0  0
 25 36  1  0  0  0
 26 27  2  0  0  0
 26 37  1  0  0  0
 27 38  1  0  0  0
M  END
> <s_m_entry_id>
6301

> <s_m_entry_name>
dock_pv.136

> <s_m_Source_Path>
/home/csk/Desktop/cluster/DUD-E-result/aldr

> <s_m_Source_File>
dock_pv.maegz

> <i_m_Source_File_Index>
136

> <chembl_id>
CHEMBL20253

> <chembl_pref_name>
None

> <i_lp_mmshare_version>
53161

> <i_f3d_flags>
0

> <r_lp_tautomer_probability>
1

> <s_lp_Force_Field>
OPLS_2005

> <r_lp_Energy>
24.638367

> <b_lp_Chiralities_Consistent>
1

> <s_lp_Variant>
CHEMBL1900_lig246-1

> <s_i_glide_gridfile>
glide-grid_2hv5

> <i_i_glide_lignum>
359

> <i_i_glide_rotatable_bonds>
5

> <r_i_docking_score>
-9.77094167752016

> <r_i_glide_ligand_efficiency>
-0.361886728797043

> <r_i_glide_ligand_efficiency_sa>
-1.08566018519841

> <r_i_glide_ligand_efficiency_ln>
-2.27451413596354

> <r_i_glide_gscore>
-9.77094167752016

> <r_i_glide_lipo>
-5.05127012289036

> <r_i_glide_hbond>
-0.32

> <r_i_glide_metal>
0

> <r_i_glide_rewards>
-2.18805223926131

> <r_i_glide_evdw>
-46.5248832702637

> <r_i_glide_ecoul>
-2.08935785293579

> <r_i_glide_erotb>
0.481694702922884

> <r_i_glide_esite>
-0.0536661768378274

> <r_i_glide_emodel>
-71.9278304168646

> <r_i_glide_energy>
-48.6142411231995

> <r_i_glide_einternal>
5.59715986251831

> <i_i_glide_confnum>
28

> <i_i_glide_posenum>
278

> <r_i_glide_eff_state_penalty>
0

> <s_user_duplicate_titles>
CHEMBL1900_lig246,24315

> <s_m_subgroup_title>
dock_pv

> <s_m_subgroupid>
dock_pv

> <b_m_subgroup_collapsed>
1

$$$$
CHEMBL1900_lig306
                    3D
 Schrodinger Suite 2021-1.
 41 44  0  0  1  0            999 V2000
   18.0175   -8.0930   15.4254 N   0  0  0  0  0  0
   17.4914   -7.3702   16.4907 N   0  0  0  0  0  0
   17.7451   -9.4121   15.1117 C   0  0  0  0  0  0
   16.5744   -7.8670   17.2390 C   0  0  0  0  0  0
   18.0097   -6.6173   13.3940 C   0  0  0  0  0  0
   18.5450   -5.7389   12.5939 N   0  0  0  0  0  0
   18.8322   -7.2995   14.4807 C   0  0  0  0  0  0
   16.6788  -10.0054   16.0224 C   0  0  0  0  0  0
   16.3060   -6.9147   13.1046 S   0  0  0  0  0  0
   16.0714   -9.2396   17.0384 C   0  0  0  0  0  0
   17.6574   -5.2453   11.6959 C   0  0  0  0  0  0
   15.9816   -7.0173   18.3834 C   0  0  0  0  0  0
   16.3429   -5.7536   11.8056 C   0  0  0  0  0  0
   16.6170   -5.6371   18.6231 C   0  0  0  0  0  0
   18.2697  -10.0256   14.1770 O   0  0  0  0  0  0
   17.9602   -4.2886   10.7208 C   0  0  0  0  0  0
   16.1451   -4.5939   18.1822 O   0  0  0  0  0  0
   15.3150   -5.3123   10.9676 C   0  0  0  0  0  0
   16.9351   -3.8527    9.8842 C   0  0  0  0  0  0
   17.7448   -5.7147   19.3808 O   0  0  0  0  0  0
   15.6410   -4.3574   10.0067 C   0  0  0  0  0  0
   16.2743  -11.3301   15.8102 C   0  0  0  0  0  0
   15.0412   -9.8096   17.8016 C   0  0  0  0  0  0
   17.2429   -2.8166    8.8331 C   0  0  0  0  0  0
   15.2628  -11.8881   16.5917 C   0  0  0  0  0  0
   14.6442  -11.1276   17.5823 C   0  0  0  0  0  0
   19.4282   -6.5782   15.0416 H   0  0  0  0  0  0
   19.5901   -7.9236   14.0013 H   0  0  0  0  0  0
   14.9227   -6.8544   18.1806 H   0  0  0  0  0  0
   16.0316   -7.5774   19.3177 H   0  0  0  0  0  0
   18.9559   -3.8880   10.6323 H   0  0  0  0  0  0
   14.3061   -5.6904   11.0616 H   0  0  0  0  0  0
   18.0103   -6.6184   19.5626 H   0  0  0  0  0  0
   14.8718   -4.0051    9.3377 H   0  0  0  0  0  0
   16.7298  -11.9282   15.0323 H   0  0  0  0  0  0
   14.5457   -9.2519   18.5811 H   0  0  0  0  0  0
   17.9020   -2.0467    9.2341 H   0  0  0  0  0  0
   17.7472   -3.3150    8.0109 H   0  0  0  0  0  0
   16.3428   -2.3176    8.4734 H   0  0  0  0  0  0
   14.9495  -12.9081   16.4219 H   0  0  0  0  0  0
   13.8513  -11.5591   18.1779 H   0  0  0  0  0  0
  1  2  1  0  0  0
  1  3  1  0  0  0
  1  7  1  0  0  0
  2  4  2  0  0  0
  3  8  1  0  0  0
  3 15  2  0  0  0
  4 12  1  0  0  0
  4 10  1  0  0  0
  5  7  1  0  0  0
  5  6  2  0  0  0
  5  9  1  0  0  0
  6 11  1  0  0  0
  7 27  1  0  0  0
  7 28  1  0  0  0
  8 10  1  0  0  0
  8 22  2  0  0  0
  9 13  1  0  0  0
 10 23  2  0  0  0
 11 16  1  0  0  0
 11 13  2  0  0  0
 12 14  1  0  0  0
 12 29  1  0  0  0
 12 30  1  0  0  0
 13 18  1  0  0  0
 14 17  2  0  0  0
 14 20  1  0  0  0
 16 19  2  0  0  0
 16 31  1  0  0  0
 18 21  2  0  0  0
 18 32  1  0  0  0
 19 24  1  0  0  0
 19 21  1  0  0  0
 20 33  1  0  0  0
 21 34  1  0  0  0
 22 25  1  0  0  0
 22 35  1  0  0  0
 23 26  1  0  0  0
 23 36  1  0  0  0
 24 37  1  0  0  0
 24 38  1  0  0  0
 24 39  1  0  0  0
 25 26  2  0  0  0
 25 40  1  0  0  0
 26 41  1  0  0  0
M  END
> <s_m_entry_id>
6302

> <s_m_entry_name>
dock_pv.137

> <s_m_Source_Path>
/home/csk/Desktop/cluster/DUD-E-result/aldr

> <s_m_Source_File>
dock_pv.maegz

> <i_m_Source_File_Index>
137

> <chembl_id>
CHEMBL19966

> <chembl_pref_name>
None

> <i_lp_mmshare_version>
53161

> <i_f3d_flags>
0

> <r_lp_tautomer_probability>
1

> <s_lp_Force_Field>
OPLS_2005

> <r_lp_Energy>
25.730566

> <b_lp_Chiralities_Consistent>
1

> <s_lp_Variant>
CHEMBL1900_lig306-1

> <s_i_glide_gridfile>
glide-grid_2hv5

> <i_i_glide_lignum>
422

> <i_i_glide_rotatable_bonds>
5

> <r_i_docking_score>
-9.76559821383859

> <r_i_glide_ligand_efficiency>
-0.375599931301484

> <r_i_glide_ligand_efficiency_sa>
-1.11271331856628

> <r_i_glide_ligand_efficiency_ln>
-2.29341869697867

> <r_i_glide_gscore>
-9.76559821383859

> <r_i_glide_lipo>
-5.12859280914319

> <r_i_glide_hbond>
0

> <r_i_glide_metal>
0

> <r_i_glide_rewards>
-2.44009801477712

> <r_i_glide_evdw>
-49.6724395751953

> <r_i_glide_ecoul>
-1.93028914928436

> <r_i_glide_erotb>
0.576257961234132

> <r_i_glide_esite>
0

> <r_i_glide_emodel>
-79.227953578955

> <r_i_glide_energy>
-51.6027287244797

> <r_i_glide_einternal>
3.40295267105103

> <i_i_glide_confnum>
9

> <i_i_glide_posenum>
267

> <r_i_glide_eff_state_penalty>
0

> <s_user_duplicate_titles>
CHEMBL1900_lig306,24194

> <s_m_subgroup_title>
dock_pv

> <s_m_subgroupid>
dock_pv

> <b_m_subgroup_collapsed>
1

$$$$
CHEMBL1900_lig385
                    3D
 Schrodinger Suite 2021-1.
 37 40  0  0  1  0            999 V2000
   16.5282   -7.9087   17.3472 N   0  0  0  0  0  0
   17.8291   -7.9775   15.4784 C   0  0  0  0  0  0
   18.5452   -5.7212   12.6537 N   0  0  0  0  0  0
   17.9712   -6.6698   13.3400 C   0  0  0  0  0  0
   17.2638   -7.1828   16.4410 C   0  0  0  0  0  0
   16.2808   -6.9149   12.9648 S   0  0  0  0  0  0
   17.7297   -5.1965   11.7073 C   0  0  0  0  0  0
   16.4742   -9.2170   16.8940 C   0  0  0  0  0  0
   16.4203   -5.7288   11.6918 C   0  0  0  0  0  0
   17.3212   -9.2972   15.7400 C   0  0  0  0  0  0
   18.0946   -4.2142   10.7754 C   0  0  0  0  0  0
   15.4772   -5.3146   10.7489 C   0  0  0  0  0  0
   18.7307   -7.5097   14.3526 C   0  0  0  0  0  0
   15.8976   -4.4060    9.7809 C   0  0  0  0  0  0
   17.1663   -3.8366    9.8145 C   0  0  0  0  0  0
   15.8014   -7.3574   18.4974 C   0  0  0  0  0  0
   16.4067   -6.1120   19.1708 C   0  0  0  0  0  0
   15.7447   -5.3151   19.8177 O   0  0  0  0  0  0
   17.5152   -2.9149    8.8926 F   0  0  0  0  0  0
   15.0843   -4.1150    8.7517 F   0  0  0  0  0  0
   17.7487   -6.0120   19.0174 O   0  0  0  0  0  0
   15.7764  -10.3314   17.3809 C   0  0  0  0  0  0
   17.4793  -10.5401   15.1064 C   0  0  0  0  0  0
   15.9605  -11.5407   16.7114 C   0  0  0  0  0  0
   16.7981  -11.6484   15.6051 C   0  0  0  0  0  0
   17.3574   -6.1151   16.5649 H   0  0  0  0  0  0
   19.0652   -3.7612   10.7657 H   0  0  0  0  0  0
   14.4761   -5.7172   10.7405 H   0  0  0  0  0  0
   19.5659   -6.9364   14.7594 H   0  0  0  0  0  0
   19.1875   -8.3610   13.8477 H   0  0  0  0  0  0
   14.7815   -7.1443   18.1751 H   0  0  0  0  0  0
   15.7490   -8.1348   19.2606 H   0  0  0  0  0  0
   18.1237   -6.7590   18.5458 H   0  0  0  0  0  0
   15.1197  -10.2685   18.2360 H   0  0  0  0  0  0
   18.1076  -10.6354   14.2332 H   0  0  0  0  0  0
   15.4360  -12.4199   17.0587 H   0  0  0  0  0  0
   16.9082  -12.6060   15.1155 H   0  0  0  0  0  0
  1  5  1  0  0  0
  1  8  1  0  0  0
  1 16  1  0  0  0
  2  5  2  0  0  0
  2 13  1  0  0  0
  2 10  1  0  0  0
  3  4  2  0  0  0
  3  7  1  0  0  0
  4 13  1  0  0  0
  4  6  1  0  0  0
  5 26  1  0  0  0
  6  9  1  0  0  0
  7 11  1  0  0  0
  7  9  2  0  0  0
  8 10  2  0  0  0
  8 22  1  0  0  0
  9 12  1  0  0  0
 10 23  1  0  0  0
 11 15  2  0  0  0
 11 27  1  0  0  0
 12 14  2  0  0  0
 12 28  1  0  0  0
 13 29  1  0  0  0
 13 30  1  0  0  0
 14 20  1  0  0  0
 14 15  1  0  0  0
 15 19  1  0  0  0
 16 17  1  0  0  0
 16 31  1  0  0  0
 16 32  1  0  0  0
 17 18  2  0  0  0
 17 21  1  0  0  0
 21 33  1  0  0  0
 22 24  2  0  0  0
 22 34  1  0  0  0
 23 25  2  0  0  0
 23 35  1  0  0  0
 24 25  1  0  0  0
 24 36  1  0  0  0
 25 37  1  0  0  0
M  END
> <s_m_entry_id>
6303

> <s_m_entry_name>
dock_pv.138

> <s_m_Source_Path>
/home/csk/Desktop/cluster/DUD-E-result/aldr

> <s_m_Source_File>
dock_pv.maegz

> <i_m_Source_File_Index>
138

> <chembl_id>
CHEMBL191951

> <chembl_pref_name>
None

> <i_lp_mmshare_version>
53161

> <i_f3d_flags>
0

> <r_lp_tautomer_probability>
1

> <s_lp_Force_Field>
OPLS_2005

> <r_lp_Energy>
12.031728

> <b_lp_Chiralities_Consistent>
1

> <s_lp_Variant>
CHEMBL1900_lig385-1

> <s_i_glide_gridfile>
glide-grid_2hv5

> <i_i_glide_lignum>
506

> <i_i_glide_rotatable_bonds>
5

> <r_i_docking_score>
-9.76258553983391

> <r_i_glide_ligand_efficiency>
-0.390503421593356

> <r_i_glide_ligand_efficiency_sa>
-1.14183893034665

> <r_i_glide_ligand_efficiency_ln>
-2.31402533402104

> <r_i_glide_gscore>
-9.76258553983391

> <r_i_glide_lipo>
-4.56280626327133

> <r_i_glide_hbond>
-0.32

> <r_i_glide_metal>
0

> <r_i_glide_rewards>
-2.99844578860791

> <r_i_glide_evdw>
-39.8390808105469

> <r_i_glide_ecoul>
-3.04130005836487

> <r_i_glide_erotb>
0.596614226456794

> <r_i_glide_esite>
-0.0297986651293919

> <r_i_glide_emodel>
-60.9364993286266

> <r_i_glide_energy>
-42.8803808689117

> <r_i_glide_einternal>
6.99529552459717

> <i_i_glide_confnum>
10

> <i_i_glide_posenum>
337

> <r_i_glide_eff_state_penalty>
0

> <s_user_duplicate_titles>
CHEMBL1900_lig385,321331

> <s_m_subgroup_title>
dock_pv

> <s_m_subgroupid>
dock_pv

> <b_m_subgroup_collapsed>
1

$$$$
CHEMBL1900_lig287
                    3D
 Schrodinger Suite 2021-1.
 39 42  0  0  1  0            999 V2000
   18.1453   -8.2336   15.1996 N   0  0  0  0  0  0
   17.7411   -7.5744   16.3505 N   0  0  0  0  0  0
   17.8655   -9.5459   14.8629 C   0  0  0  0  0  0
   16.9450   -8.1350   17.1819 C   0  0  0  0  0  0
   18.0485   -6.6354   13.2633 C   0  0  0  0  0  0
   18.5448   -5.7150   12.4815 N   0  0  0  0  0  0
   18.9187   -7.3973   14.2546 C   0  0  0  0  0  0
   16.8944  -10.1899   15.8468 C   0  0  0  0  0  0
   16.3331   -6.9150   13.0564 S   0  0  0  0  0  0
   17.6172   -5.2003   11.6290 C   0  0  0  0  0  0
   16.3769   -9.4733   16.9469 C   0  0  0  0  0  0
   16.7711   -7.4115   18.5233 C   0  0  0  0  0  0
   16.3153   -5.7343   11.7767 C   0  0  0  0  0  0
   16.1656   -6.0058   18.4187 C   0  0  0  0  0  0
   17.8598   -4.2105   10.6639 C   0  0  0  0  0  0
   18.3166  -10.1159   13.8644 O   0  0  0  0  0  0
   15.7449   -5.4953   17.3816 O   0  0  0  0  0  0
   15.2500   -5.3086   10.9809 C   0  0  0  0  0  0
   16.7882   -3.7743    9.8891 C   0  0  0  0  0  0
   16.1408   -5.4088   19.6444 O   0  0  0  0  0  0
   15.5174   -4.3229   10.0354 C   0  0  0  0  0  0
   16.4685  -11.5029   15.6097 C   0  0  0  0  0  0
   16.9746   -2.7759    8.9798 O   0  0  0  0  0  0
   15.3449  -10.0405   17.7116 C   0  0  0  0  0  0
   15.4858  -12.0762   16.4163 C   0  0  0  0  0  0
   14.9134  -11.3408   17.4520 C   0  0  0  0  0  0
   19.5653   -6.7214   14.8180 H   0  0  0  0  0  0
   19.6304   -8.0057   13.6921 H   0  0  0  0  0  0
   16.1774   -7.9883   19.2279 H   0  0  0  0  0  0
   17.7540   -7.3132   18.9812 H   0  0  0  0  0  0
   18.8370   -3.7748   10.5435 H   0  0  0  0  0  0
   14.2554   -5.7170   11.1001 H   0  0  0  0  0  0
   16.5935   -5.9329   20.3078 H   0  0  0  0  0  0
   14.7095   -3.9850    9.4089 H   0  0  0  0  0  0
   16.8667  -12.0702   14.7793 H   0  0  0  0  0  0
   16.1398   -2.5242    8.5795 H   0  0  0  0  0  0
   14.8741   -9.5039   18.5206 H   0  0  0  0  0  0
   15.1464  -13.0828   16.2189 H   0  0  0  0  0  0
   14.1277  -11.7786   18.0527 H   0  0  0  0  0  0
  1  2  1  0  0  0
  1  3  1  0  0  0
  1  7  1  0  0  0
  2  4  2  0  0  0
  3  8  1  0  0  0
  3 16  2  0  0  0
  4 12  1  0  0  0
  4 11  1  0  0  0
  5  7  1  0  0  0
  5  6  2  0  0  0
  5  9  1  0  0  0
  6 10  1  0  0  0
  7 27  1  0  0  0
  7 28  1  0  0  0
  8 11  1  0  0  0
  8 22  2  0  0  0
  9 13  1  0  0  0
 10 15  1  0  0  0
 10 13  2  0  0  0
 11 24  2  0  0  0
 12 14  1  0  0  0
 12 29  1  0  0  0
 12 30  1  0  0  0
 13 18  1  0  0  0
 14 17  2  0  0  0
 14 20  1  0  0  0
 15 19  2  0  0  0
 15 31  1  0  0  0
 18 21  2  0  0  0
 18 32  1  0  0  0
 19 23  1  0  0  0
 19 21  1  0  0  0
 20 33  1  0  0  0
 21 34  1  0  0  0
 22 25  1  0  0  0
 22 35  1  0  0  0
 23 36  1  0  0  0
 24 26  1  0  0  0
 24 37  1  0  0  0
 25 26  2  0  0  0
 25 38  1  0  0  0
 26 39  1  0  0  0
M  END
> <s_m_entry_id>
6304

> <s_m_entry_name>
dock_pv.139

> <s_m_Source_Path>
/home/csk/Desktop/cluster/DUD-E-result/aldr

> <s_m_Source_File>
dock_pv.maegz

> <i_m_Source_File_Index>
139

> <chembl_id>
CHEMBL417643

> <chembl_pref_name>
None

> <i_lp_mmshare_version>
53161

> <i_f3d_flags>
0

> <r_lp_tautomer_probability>
1

> <s_lp_Force_Field>
OPLS_2005

> <r_lp_Energy>
24.70223

> <b_lp_Chiralities_Consistent>
1

> <s_lp_Variant>
CHEMBL1900_lig287-1

> <s_i_glide_gridfile>
glide-grid_2hv5

> <i_i_glide_lignum>
402

> <i_i_glide_rotatable_bonds>
6

> <r_i_docking_score>
-9.76035355837919

> <r_i_glide_ligand_efficiency>
-0.375398213783815

> <r_i_glide_ligand_efficiency_sa>
-1.11211573121391

> <r_i_glide_ligand_efficiency_ln>
-2.29218700685314

> <r_i_glide_gscore>
-9.76035355837919

> <r_i_glide_lipo>
-4.71823732789954

> <r_i_glide_hbond>
-0.0564305396710667

> <r_i_glide_metal>
0

> <r_i_glide_rewards>
-2.38034940519447

> <r_i_glide_evdw>
-49.2138328552246

> <r_i_glide_ecoul>
-4.76925849914551

> <r_i_glide_erotb>
0.570744132018944

> <r_i_glide_esite>
0

> <r_i_glide_emodel>
-82.4038528206268

> <r_i_glide_energy>
-53.9830913543701

> <r_i_glide_einternal>
3.6242516040802

> <i_i_glide_confnum>
19

> <i_i_glide_posenum>
62

> <r_i_glide_eff_state_penalty>
0

> <s_user_duplicate_titles>
CHEMBL1900_lig287,24279

> <s_m_subgroup_title>
dock_pv

> <s_m_subgroupid>
dock_pv

> <b_m_subgroup_collapsed>
1

$$$$
CHEMBL1900_lig388
                    3D
 Schrodinger Suite 2021-1.
 40 43  0  0  1  0            999 V2000
   17.0498   -9.7891   16.4943 N   0  0  0  0  0  0
   17.6854   -5.2008   11.6425 C   0  0  0  0  0  0
   18.1439   -8.3177   15.1715 C   0  0  0  0  0  0
   17.3945   -8.4550   16.3320 C   0  0  0  0  0  0
   16.3806   -5.7367   11.7362 C   0  0  0  0  0  0
   18.5450   -5.6624   12.5853 N   0  0  0  0  0  0
   17.9993   -6.5144   13.4048 C   0  0  0  0  0  0
   17.5570  -10.5306   15.4371 C   0  0  0  0  0  0
   18.2240   -9.6169   14.5790 C   0  0  0  0  0  0
   17.9912   -4.2507   10.6503 C   0  0  0  0  0  0
   16.3307   -6.8941   13.0493 S   0  0  0  0  0  0
   15.3688   -5.3262   10.8688 C   0  0  0  0  0  0
   16.9750   -3.8592    9.7811 C   0  0  0  0  0  0
   15.6969   -4.4002    9.8821 C   0  0  0  0  0  0
   18.7659   -7.0586   14.5943 C   0  0  0  0  0  0
   16.3002  -10.3486   17.6248 C   0  0  0  0  0  0
   14.9444  -10.9581   17.2794 C   0  0  0  0  0  0
   14.5451  -11.1307   16.1343 O   0  0  0  0  0  0
   19.2276   -3.7081   10.5389 F   0  0  0  0  0  0
   14.1123   -5.8132   10.9810 F   0  0  0  0  0  0
   17.2277   -2.9356    8.8273 F   0  0  0  0  0  0
   16.9781   -7.3956   17.3355 C   0  0  0  0  0  0
   14.2624  -11.3215   18.4009 O   0  0  0  0  0  0
   17.4977  -11.9043   15.1503 C   0  0  0  0  0  0
   18.8276  -10.0987   13.4095 C   0  0  0  0  0  0
   18.1082  -12.3398   13.9743 C   0  0  0  0  0  0
   18.7586  -11.4584   13.1175 C   0  0  0  0  0  0
   14.9450   -4.0977    9.1758 H   0  0  0  0  0  0
   18.8249   -6.2832   15.3577 H   0  0  0  0  0  0
   19.8055   -7.2484   14.3213 H   0  0  0  0  0  0
   16.9149  -11.1365   18.0551 H   0  0  0  0  0  0
   16.1455   -9.5831   18.3814 H   0  0  0  0  0  0
   17.2639   -6.3924   17.0206 H   0  0  0  0  0  0
   15.8978   -7.3780   17.4805 H   0  0  0  0  0  0
   17.4367   -7.5598   18.3107 H   0  0  0  0  0  0
   13.4200  -11.7339   18.1826 H   0  0  0  0  0  0
   16.9888  -12.6046   15.7957 H   0  0  0  0  0  0
   19.3449   -9.4140   12.7563 H   0  0  0  0  0  0
   18.0703  -13.3878   13.7152 H   0  0  0  0  0  0
   19.2167  -11.8367   12.2150 H   0  0  0  0  0  0
  1  4  1  0  0  0
  1  8  1  0  0  0
  1 16  1  0  0  0
  2  6  1  0  0  0
  2 10  1  0  0  0
  2  5  2  0  0  0
  3  4  2  0  0  0
  3 15  1  0  0  0
  3  9  1  0  0  0
  4 22  1  0  0  0
  5 11  1  0  0  0
  5 12  1  0  0  0
  6  7  2  0  0  0
  7 15  1  0  0  0
  7 11  1  0  0  0
  8  9  2  0  0  0
  8 24  1  0  0  0
  9 25  1  0  0  0
 10 13  2  0  0  0
 10 19  1  0  0  0
 12 14  2  0  0  0
 12 20  1  0  0  0
 13 21  1  0  0  0
 13 14  1  0  0  0
 14 28  1  0  0  0
 15 29  1  0  0  0
 15 30  1  0  0  0
 16 17  1  0  0  0
 16 31  1  0  0  0
 16 32  1  0  0  0
 17 18  2  0  0  0
 17 23  1  0  0  0
 22 33  1  0  0  0
 22 34  1  0  0  0
 22 35  1  0  0  0
 23 36  1  0  0  0
 24 26  2  0  0  0
 24 37  1  0  0  0
 25 27  2  0  0  0
 25 38  1  0  0  0
 26 27  1  0  0  0
 26 39  1  0  0  0
 27 40  1  0  0  0
M  END
> <s_m_entry_id>
6305

> <s_m_entry_name>
dock_pv.140

> <s_m_Source_Path>
/home/csk/Desktop/cluster/DUD-E-result/aldr

> <s_m_Source_File>
dock_pv.maegz

> <i_m_Source_File_Index>
140

> <chembl_id>
CHEMBL364235

> <chembl_pref_name>
None

> <i_lp_mmshare_version>
53161

> <i_f3d_flags>
0

> <r_lp_tautomer_probability>
1

> <s_lp_Force_Field>
OPLS_2005

> <r_lp_Energy>
11.8658

> <b_lp_Chiralities_Consistent>
1

> <s_lp_Variant>
CHEMBL1900_lig388-1

> <s_i_glide_gridfile>
glide-grid_2hv5

> <i_i_glide_lignum>
509

> <i_i_glide_rotatable_bonds>
5

> <r_i_docking_score>
-9.7596290630434

> <r_i_glide_ligand_efficiency>
-0.361467743075681

> <r_i_glide_ligand_efficiency_sa>
-1.08440322803571

> <r_i_glide_ligand_efficiency_ln>
-2.27188074581638

> <r_i_glide_gscore>
-9.7596290630434

> <r_i_glide_lipo>
-4.66061893083918

> <r_i_glide_hbond>
0

> <r_i_glide_metal>
0

> <r_i_glide_rewards>
-2.83900180920198

> <r_i_glide_evdw>
-41.8663024902344

> <r_i_glide_ecoul>
-4.36018991470337

> <r_i_glide_erotb>
0.51192449262393

> <r_i_glide_esite>
-0.0245892039089424

> <r_i_glide_emodel>
-70.0798524686357

> <r_i_glide_energy>
-46.2264924049377

> <r_i_glide_einternal>
2.42088723182678

> <i_i_glide_confnum>
4

> <i_i_glide_posenum>
361

> <r_i_glide_eff_state_penalty>
0

> <s_user_duplicate_titles>
CHEMBL1900_lig388,321506

> <s_m_subgroup_title>
dock_pv

> <s_m_subgroupid>
dock_pv

> <b_m_subgroup_collapsed>
1

$$$$
CHEMBL1900_lig256
                    3D
 Schrodinger Suite 2021-1.
 41 44  0  0  1  0            999 V2000
   17.7270   -7.6162   15.1617 N   0  0  0  0  0  0
   17.0358   -7.1036   16.2720 N   0  0  0  0  0  0
   17.8024   -6.1528   13.0511 C   0  0  0  0  0  0
   17.7434   -8.9428   14.7586 C   0  0  0  0  0  0
   16.3792   -7.8797   17.0592 C   0  0  0  0  0  0
   18.4090   -5.3187   12.2448 N   0  0  0  0  0  0
   18.4784   -6.6083   14.3526 C   0  0  2  0  0  0
   16.1474   -6.5150   12.5922 S   0  0  0  0  0  0
   16.9177   -9.8372   15.6744 C   0  0  0  0  0  0
   16.1873   -9.3083   16.7556 C   0  0  0  0  0  0
   15.7448   -7.3181   18.3553 C   0  0  0  0  0  0
   17.6046   -4.8468   11.2635 C   0  0  0  0  0  0
   16.2834   -5.3426   11.2972 C   0  0  0  0  0  0
   16.3948   -6.1159   19.0628 C   0  0  0  0  0  0
   18.3210   -9.3613   13.7508 O   0  0  0  0  0  0
   15.7480   -5.3197   19.7380 O   0  0  0  0  0  0
   17.7455   -6.0929   18.9808 O   0  0  0  0  0  0
   19.9678   -6.9357   14.1144 C   0  0  0  0  0  0
   16.8275  -11.2042   15.3781 C   0  0  0  0  0  0
   15.2857  -10.1383   17.4423 C   0  0  0  0  0  0
   17.9835   -3.9002   10.2977 C   0  0  0  0  0  0
   15.3169   -4.8768   10.4048 C   0  0  0  0  0  0
   15.9742  -12.0288   16.1109 C   0  0  0  0  0  0
   15.1875  -11.4920   17.1265 C   0  0  0  0  0  0
   17.0126   -3.4435    9.4054 C   0  0  0  0  0  0
   15.7057   -3.9244    9.4633 C   0  0  0  0  0  0
   18.5418   -5.7155   14.9775 H   0  0  0  0  0  0
   14.7015   -7.0704   18.1633 H   0  0  0  0  0  0
   15.7452   -8.0918   19.1220 H   0  0  0  0  0  0
   18.0957   -5.3595   19.4878 H   0  0  0  0  0  0
   20.4976   -6.0297   13.8519 H   0  0  0  0  0  0
   20.4714   -7.3151   14.9816 H   0  0  0  0  0  0
   20.1261   -7.6549   13.3109 H   0  0  0  0  0  0
   17.3885  -11.6282   14.5565 H   0  0  0  0  0  0
   14.6583   -9.7610   18.2362 H   0  0  0  0  0  0
   18.9856   -3.5050   10.2707 H   0  0  0  0  0  0
   14.2959   -5.2264   10.4555 H   0  0  0  0  0  0
   15.8979  -13.0787   15.8669 H   0  0  0  0  0  0
   14.4984  -12.1240   17.6693 H   0  0  0  0  0  0
   17.2700   -2.7003    8.6646 H   0  0  0  0  0  0
   14.9518   -3.5525    8.7792 H   0  0  0  0  0  0
  1  2  1  0  0  0
  1  4  1  0  0  0
  1  7  1  0  0  0
  2  5  2  0  0  0
  3  7  1  0  0  0
  3  6  2  0  0  0
  3  8  1  0  0  0
  4  9  1  0  0  0
  4 15  2  0  0  0
  5 11  1  0  0  0
  5 10  1  0  0  0
  6 12  1  0  0  0
  7 18  1  0  0  0
  7 27  1  0  0  0
  8 13  1  0  0  0
  9 10  1  0  0  0
  9 19  2  0  0  0
 10 20  2  0  0  0
 11 14  1  0  0  0
 11 28  1  0  0  0
 11 29  1  0  0  0
 12 21  1  0  0  0
 12 13  2  0  0  0
 13 22  1  0  0  0
 14 16  2  0  0  0
 14 17  1  0  0  0
 17 30  1  0  0  0
 18 31  1  0  0  0
 18 32  1  0  0  0
 18 33  1  0  0  0
 19 23  1  0  0  0
 19 34  1  0  0  0
 20 24  1  0  0  0
 20 35  1  0  0  0
 21 25  2  0  0  0
 21 36  1  0  0  0
 22 26  2  0  0  0
 22 37  1  0  0  0
 23 24  2  0  0  0
 23 38  1  0  0  0
 24 39  1  0  0  0
 25 26  1  0  0  0
 25 40  1  0  0  0
 26 41  1  0  0  0
M  END
> <s_m_entry_id>
6306

> <s_m_entry_name>
dock_pv.141

> <s_m_Source_Path>
/home/csk/Desktop/cluster/DUD-E-result/aldr

> <s_m_Source_File>
dock_pv.maegz

> <i_m_Source_File_Index>
141

> <chembl_id>
CHEMBL282017

> <chembl_pref_name>
None

> <i_lp_mmshare_version>
53161

> <i_f3d_flags>
0

> <r_lp_tautomer_probability>
1

> <s_lp_Force_Field>
OPLS_2005

> <r_lp_Energy>
25.171172

> <b_lp_Chiralities_Consistent>
1

> <s_lp_Variant>
CHEMBL1900_lig256-2

> <s_i_glide_gridfile>
glide-grid_2hv5

> <i_i_glide_lignum>
370

> <i_i_glide_rotatable_bonds>
5

> <r_i_docking_score>
-9.75926719295449

> <r_i_glide_ligand_efficiency>
-0.37535643049825

> <r_i_glide_ligand_efficiency_sa>
-1.11199194839483

> <r_i_glide_ligand_efficiency_ln>
-2.29193187749781

> <r_i_glide_gscore>
-9.75926719295449

> <r_i_glide_lipo>
-4.68214920156413

> <r_i_glide_hbond>
-0.32

> <r_i_glide_metal>
0

> <r_i_glide_rewards>
-2.54852684535902

> <r_i_glide_evdw>
-46.6106872558594

> <r_i_glide_ecoul>
-3.02876496315002

> <r_i_glide_erotb>
0.576257961234132

> <r_i_glide_esite>
0

> <r_i_glide_emodel>
-73.3988429409037

> <r_i_glide_energy>
-49.6394522190094

> <r_i_glide_einternal>
4.79979133605957

> <i_i_glide_confnum>
15

> <i_i_glide_posenum>
87

> <r_i_glide_eff_state_penalty>
0

> <s_user_duplicate_titles>
CHEMBL1900_lig256

> <s_m_subgroup_title>
dock_pv

> <s_m_subgroupid>
dock_pv

> <b_m_subgroup_collapsed>
1

$$$$
CHEMBL1900_lig190
                    3D
 Schrodinger Suite 2021-1.
 45 48  0  0  1  0            999 V2000
   17.9597   -8.0930   15.5595 N   0  0  0  0  0  0
   17.3499   -7.3816   16.5934 N   0  0  0  0  0  0
   17.6849   -5.7799   11.8224 C   0  0  0  0  0  0
   18.5447   -5.7046   12.8258 N   0  0  0  0  0  0
   17.7451   -9.4226   15.2332 C   0  0  0  0  0  0
   16.4880   -7.9519   17.3555 C   0  0  0  0  0  0
   18.3238   -6.8275   13.4568 C   0  0  0  0  0  0
   17.0347   -6.9150   11.7313 N   0  0  0  0  0  0
   18.9323   -7.3256   14.7489 C   0  0  0  0  0  0
   16.6661  -10.0587   16.0937 C   0  0  0  0  0  0
   17.3954   -4.6532   10.8673 C   0  0  0  0  0  0
   16.0265   -9.3336   17.1160 C   0  0  0  0  0  0
   15.9147   -7.2176   18.5854 C   0  0  0  0  0  0
   17.4595   -7.6469   12.8220 O   0  0  0  0  0  0
   16.3830   -5.8106   18.9998 C   0  0  0  0  0  0
   18.3521  -10.0242   14.3413 O   0  0  0  0  0  0
   16.1289   -4.5114   10.2769 C   0  0  0  0  0  0
   16.1459   -5.3656   20.1200 O   0  0  0  0  0  0
   16.9450   -5.0900   17.9983 O   0  0  0  0  0  0
   18.3678   -3.6939   10.5809 C   0  0  0  0  0  0
   15.1682   -5.4449   10.5811 O   0  0  0  0  0  0
   16.2991  -11.3880   15.8427 C   0  0  0  0  0  0
   14.9771   -9.9378   17.8257 C   0  0  0  0  0  0
   15.8843   -3.4406    9.4104 C   0  0  0  0  0  0
   13.8317   -5.0296   10.7416 C   0  0  0  0  0  0
   18.0990   -2.5934    9.7776 C   0  0  0  0  0  0
   15.2762  -11.9837   16.5804 C   0  0  0  0  0  0
   14.6103  -11.2570   17.5649 C   0  0  0  0  0  0
   16.8550   -2.4770    9.1729 C   0  0  0  0  0  0
   19.3656   -6.5160   15.3368 H   0  0  0  0  0  0
   19.7934   -7.9465   14.4978 H   0  0  0  0  0  0
   14.8457   -7.1058   18.4270 H   0  0  0  0  0  0
   16.0588   -7.8512   19.4612 H   0  0  0  0  0  0
   17.1458   -5.6816   17.2626 H   0  0  0  0  0  0
   19.3453   -3.7982   10.9810 H   0  0  0  0  0  0
   16.7891  -11.9582   15.0650 H   0  0  0  0  0  0
   14.4455   -9.4065   18.5992 H   0  0  0  0  0  0
   14.9450   -3.3509    8.9060 H   0  0  0  0  0  0
   13.3448   -5.8198   11.3072 H   0  0  0  0  0  0
   13.7502   -4.1150   11.3162 H   0  0  0  0  0  0
   13.3185   -4.9150    9.7910 H   0  0  0  0  0  0
   18.8616   -1.8501    9.5984 H   0  0  0  0  0  0
   14.9875  -13.0049   16.3775 H   0  0  0  0  0  0
   13.8050  -11.7147   18.1232 H   0  0  0  0  0  0
   16.6399   -1.6503    8.5132 H   0  0  0  0  0  0
  1  2  1  0  0  0
  1  5  1  0  0  0
  1  9  1  0  0  0
  2  6  2  0  0  0
  3  4  1  0  0  0
  3 11  1  0  0  0
  3  8  2  0  0  0
  4  7  2  0  0  0
  5 10  1  0  0  0
  5 16  2  0  0  0
  6 13  1  0  0  0
  6 12  1  0  0  0
  7  9  1  0  0  0
  7 14  1  0  0  0
  8 14  1  0  0  0
  9 30  1  0  0  0
  9 31  1  0  0  0
 10 12  2  0  0  0
 10 22  1  0  0  0
 11 17  2  0  0  0
 11 20  1  0  0  0
 12 23  1  0  0  0
 13 15  1  0  0  0
 13 32  1  0  0  0
 13 33  1  0  0  0
 15 18  2  0  0  0
 15 19  1  0  0  0
 17 21  1  0  0  0
 17 24  1  0  0  0
 19 34  1  0  0  0
 20 26  2  0  0  0
 20 35  1  0  0  0
 21 25  1  0  0  0
 22 27  2  0  0  0
 22 36  1  0  0  0
 23 28  2  0  0  0
 23 37  1  0  0  0
 24 29  2  0  0  0
 24 38  1  0  0  0
 25 39  1  0  0  0
 25 40  1  0  0  0
 25 41  1  0  0  0
 26 29  1  0  0  0
 26 42  1  0  0  0
 27 28  1  0  0  0
 27 43  1  0  0  0
 28 44  1  0  0  0
 29 45  1  0  0  0
M  END
> <s_m_entry_id>
6307

> <s_m_entry_name>
dock_pv.142

> <s_m_Source_Path>
/home/csk/Desktop/cluster/DUD-E-result/aldr

> <s_m_Source_File>
dock_pv.maegz

> <i_m_Source_File_Index>
142

> <chembl_id>
CHEMBL356545

> <chembl_pref_name>
None

> <i_lp_mmshare_version>
53161

> <i_f3d_flags>
0

> <r_lp_tautomer_probability>
1

> <s_lp_Force_Field>
OPLS_2005

> <r_lp_Energy>
37.133373

> <b_lp_Chiralities_Consistent>
1

> <s_lp_Variant>
CHEMBL1900_lig190-1

> <s_i_glide_gridfile>
glide-grid_2hv5

> <i_i_glide_lignum>
266

> <i_i_glide_rotatable_bonds>
7

> <r_i_docking_score>
-9.75443852623404

> <r_i_glide_ligand_efficiency>
-0.336359949180484

> <r_i_glide_ligand_efficiency_sa>
-1.03340433019411

> <r_i_glide_ligand_efficiency_ln>
-2.23351907128862

> <r_i_glide_gscore>
-9.75443852623404

> <r_i_glide_lipo>
-4.38608359186841

> <r_i_glide_hbond>
-0.273390011005037

> <r_i_glide_metal>
0

> <r_i_glide_rewards>
-2.6998756520254

> <r_i_glide_evdw>
-51.6449546813965

> <r_i_glide_ecoul>
-2.97962212562561

> <r_i_glide_erotb>
0.634101781578464

> <r_i_glide_esite>
0

> <r_i_glide_emodel>
-80.0597172174501

> <r_i_glide_energy>
-54.6245768070221

> <r_i_glide_einternal>
6.4426121711731

> <i_i_glide_confnum>
20

> <i_i_glide_posenum>
94

> <r_i_glide_eff_state_penalty>
0

> <s_user_duplicate_titles>
CHEMBL1900_lig190,235424

> <s_m_subgroup_title>
dock_pv

> <s_m_subgroupid>
dock_pv

> <b_m_subgroup_collapsed>
1

$$$$
CHEMBL1900_lig150
                    3D
 Schrodinger Suite 2021-1.
 40 43  0  0  1  0            999 V2000
   17.7313   -8.2081   15.1290 N   0  0  0  0  0  0
   17.1050   -7.3594   16.0313 N   0  0  0  0  0  0
   17.5428   -9.5723   15.0114 C   0  0  0  0  0  0
   16.1869   -7.7928   16.8075 C   0  0  0  0  0  0
   17.8753   -6.6977   13.1486 C   0  0  0  0  0  0
   16.5023  -10.0880   15.9994 C   0  0  0  0  0  0
   18.5449   -5.7161   12.4717 N   0  0  0  0  0  0
   15.8379   -9.2205   16.8934 C   0  0  0  0  0  0
   15.4693   -6.7125   17.6234 C   0  0  0  0  0  0
   18.6249   -7.5259   14.1791 C   0  0  0  0  0  0
   16.5652   -6.6842   12.6957 C   0  0  0  0  0  0
   17.7509   -5.1132   11.5265 C   0  0  0  0  0  0
   16.4634   -5.7050   11.6546 C   0  0  0  0  0  0
   16.2868   -6.1392   18.7916 C   0  0  0  0  0  0
   18.1387  -10.2923   14.2028 O   0  0  0  0  0  0
   15.7439   -5.6944   19.7938 O   0  0  0  0  0  0
   17.6313   -6.1157   18.5811 O   0  0  0  0  0  0
   16.2178  -11.4594   16.0207 C   0  0  0  0  0  0
   14.9460   -9.7557   17.8321 C   0  0  0  0  0  0
   18.0400   -4.1142   10.5907 C   0  0  0  0  0  0
   15.4334   -5.2498   10.8191 C   0  0  0  0  0  0
   15.2988  -11.9710   16.9355 C   0  0  0  0  0  0
   14.6685  -11.1222   17.8421 C   0  0  0  0  0  0
   15.7177   -4.2505    9.8856 C   0  0  0  0  0  0
   16.9894   -3.6960    9.7787 C   0  0  0  0  0  0
   19.5191   -5.5324   12.6501 H   0  0  0  0  0  0
   15.2256   -5.8701   16.9802 H   0  0  0  0  0  0
   14.5064   -7.0584   17.9960 H   0  0  0  0  0  0
   19.3146   -6.9104   14.7592 H   0  0  0  0  0  0
   19.2839   -8.2176   13.6512 H   0  0  0  0  0  0
   15.7751   -7.3160   13.0638 H   0  0  0  0  0  0
   17.8446   -6.4636   17.7097 H   0  0  0  0  0  0
   16.7075  -12.1356   15.3328 H   0  0  0  0  0  0
   14.4543   -9.1356   18.5649 H   0  0  0  0  0  0
   19.0165   -3.6669   10.5062 H   0  0  0  0  0  0
   14.4386   -5.6626   10.8944 H   0  0  0  0  0  0
   15.0767  -13.0285   16.9461 H   0  0  0  0  0  0
   13.9608  -11.5248   18.5538 H   0  0  0  0  0  0
   14.9450   -3.8914    9.2254 H   0  0  0  0  0  0
   17.1607   -2.9223    9.0441 H   0  0  0  0  0  0
  1  2  1  0  0  0
  1  3  1  0  0  0
  1 10  1  0  0  0
  2  4  2  0  0  0
  3  6  1  0  0  0
  3 15  2  0  0  0
  4  9  1  0  0  0
  4  8  1  0  0  0
  5 10  1  0  0  0
  5  7  1  0  0  0
  5 11  2  0  0  0
  6  8  2  0  0  0
  6 18  1  0  0  0
  7 12  1  0  0  0
  7 26  1  0  0  0
  8 19  1  0  0  0
  9 14  1  0  0  0
  9 27  1  0  0  0
  9 28  1  0  0  0
 10 29  1  0  0  0
 10 30  1  0  0  0
 11 13  1  0  0  0
 11 31  1  0  0  0
 12 20  1  0  0  0
 12 13  2  0  0  0
 13 21  1  0  0  0
 14 16  2  0  0  0
 14 17  1  0  0  0
 17 32  1  0  0  0
 18 22  2  0  0  0
 18 33  1  0  0  0
 19 23  2  0  0  0
 19 34  1  0  0  0
 20 25  2  0  0  0
 20 35  1  0  0  0
 21 24  2  0  0  0
 21 36  1  0  0  0
 22 23  1  0  0  0
 22 37  1  0  0  0
 23 38  1  0  0  0
 24 25  1  0  0  0
 24 39  1  0  0  0
 25 40  1  0  0  0
M  END
> <s_m_entry_id>
6308

> <s_m_entry_name>
dock_pv.143

> <s_m_Source_Path>
/home/csk/Desktop/cluster/DUD-E-result/aldr

> <s_m_Source_File>
dock_pv.maegz

> <i_m_Source_File_Index>
143

> <chembl_id>
CHEMBL342786

> <chembl_pref_name>
None

> <i_lp_mmshare_version>
53161

> <i_f3d_flags>
0

> <r_lp_tautomer_probability>
1

> <s_lp_Force_Field>
OPLS_2005

> <r_lp_Energy>
24.733644

> <b_lp_Chiralities_Consistent>
1

> <s_lp_Variant>
CHEMBL1900_lig150-1

> <s_i_glide_gridfile>
glide-grid_2hv5

> <i_i_glide_lignum>
226

> <i_i_glide_rotatable_bonds>
5

> <r_i_docking_score>
-9.74591514219226

> <r_i_glide_ligand_efficiency>
-0.38983660568769

> <r_i_glide_ligand_efficiency_sa>
-1.13988914881245

> <r_i_glide_ligand_efficiency_ln>
-2.31007395020846

> <r_i_glide_gscore>
-9.74591514219226

> <r_i_glide_lipo>
-4.77682993388728

> <r_i_glide_hbond>
-0.32

> <r_i_glide_metal>
0

> <r_i_glide_rewards>
-2.71207917751785

> <r_i_glide_evdw>
-48.9801368713379

> <r_i_glide_ecoul>
-1.10956132411957

> <r_i_glide_erotb>
0.678435011397704

> <r_i_glide_esite>
0

> <r_i_glide_emodel>
-76.7134792960068

> <r_i_glide_energy>
-50.0896981954575

> <r_i_glide_einternal>
4.58372211456299

> <i_i_glide_confnum>
41

> <i_i_glide_posenum>
351

> <r_i_glide_eff_state_penalty>
0

> <s_user_duplicate_titles>
CHEMBL1900_lig150,235868

> <s_m_subgroup_title>
dock_pv

> <s_m_subgroupid>
dock_pv

> <b_m_subgroup_collapsed>
1

$$$$
CHEMBL1900_lig41
                    3D
 Schrodinger Suite 2021-1.
 36 39  0  0  1  0            999 V2000
   17.7464   -7.6311   15.7370 N   0  0  0  0  0  0
   17.3704   -6.6904   16.6217 N   0  0  0  0  0  0
   16.5898   -7.2474   17.5173 C   0  0  0  0  0  0
   17.9168   -6.5864   13.4742 C   0  0  0  0  0  0
   16.3544   -8.6138   17.1686 C   0  0  0  0  0  0
   18.5032   -5.7218   12.6890 N   0  0  0  0  0  0
   17.1409   -8.8471   16.0104 C   0  0  0  0  0  0
   18.6356   -7.2619   14.6288 C   0  0  0  0  0  0
   16.2452   -6.9140   13.0806 S   0  0  0  0  0  0
   17.6543   -5.2320   11.7405 C   0  0  0  0  0  0
   16.0211   -6.4840   18.7105 C   0  0  0  0  0  0
   16.3405   -5.7496   11.7881 C   0  0  0  0  0  0
   16.6229   -5.0957   18.9811 C   0  0  0  0  0  0
   17.9760   -4.2667   10.7751 C   0  0  0  0  0  0
   17.1917  -10.0985   15.3823 C   0  0  0  0  0  0
   15.5861   -9.6606   17.6993 C   0  0  0  0  0  0
   16.1487   -4.0575   18.5263 O   0  0  0  0  0  0
   15.3419   -5.3157   10.9127 C   0  0  0  0  0  0
   16.9855   -3.8411    9.8949 C   0  0  0  0  0  0
   15.6372  -10.9100   17.0811 C   0  0  0  0  0  0
   16.4248  -11.1188   15.9499 C   0  0  0  0  0  0
   17.7431   -5.1684   19.7487 O   0  0  0  0  0  0
   15.6960   -4.3640    9.9567 C   0  0  0  0  0  0
   17.2794   -2.8923    8.9804 F   0  0  0  0  0  0
   14.7224  -12.2140   17.7399 Cl  0  0  0  0  0  0
   19.4253   -6.6202   15.0241 H   0  0  0  0  0  0
   19.1368   -8.1685   14.2867 H   0  0  0  0  0  0
   14.9461   -6.3762   18.5817 H   0  0  0  0  0  0
   16.1435   -7.0844   19.6146 H   0  0  0  0  0  0
   18.9494   -3.8262   10.7218 H   0  0  0  0  0  0
   17.7911  -10.2768   14.5028 H   0  0  0  0  0  0
   14.9737   -9.5125   18.5780 H   0  0  0  0  0  0
   14.3320   -5.6939   10.9810 H   0  0  0  0  0  0
   16.4392  -12.1022   15.4978 H   0  0  0  0  0  0
   17.9963   -6.0763   19.9274 H   0  0  0  0  0  0
   14.9511   -4.0218    9.2570 H   0  0  0  0  0  0
  1  2  1  0  0  0
  1  7  1  0  0  0
  1  8  1  0  0  0
  2  3  2  0  0  0
  3 11  1  0  0  0
  3  5  1  0  0  0
  4  8  1  0  0  0
  4  6  2  0  0  0
  4  9  1  0  0  0
  5  7  2  0  0  0
  5 16  1  0  0  0
  6 10  1  0  0  0
  7 15  1  0  0  0
  8 26  1  0  0  0
  8 27  1  0  0  0
  9 12  1  0  0  0
 10 14  1  0  0  0
 10 12  2  0  0  0
 11 13  1  0  0  0
 11 28  1  0  0  0
 11 29  1  0  0  0
 12 18  1  0  0  0
 13 17  2  0  0  0
 13 22  1  0  0  0
 14 19  2  0  0  0
 14 30  1  0  0  0
 15 21  2  0  0  0
 15 31  1  0  0  0
 16 20  2  0  0  0
 16 32  1  0  0  0
 18 23  2  0  0  0
 18 33  1  0  0  0
 19 24  1  0  0  0
 19 23  1  0  0  0
 20 21  1  0  0  0
 20 25  1  0  0  0
 21 34  1  0  0  0
 22 35  1  0  0  0
 23 36  1  0  0  0
M  END
> <s_m_entry_id>
6309

> <s_m_entry_name>
dock_pv.144

> <s_m_Source_Path>
/home/csk/Desktop/cluster/DUD-E-result/aldr

> <s_m_Source_File>
dock_pv.maegz

> <i_m_Source_File_Index>
144

> <chembl_id>
CHEMBL73505

> <chembl_pref_name>
None

> <i_lp_mmshare_version>
53161

> <i_f3d_flags>
0

> <r_lp_tautomer_probability>
1

> <s_lp_Force_Field>
OPLS_2005

> <r_lp_Energy>
8.195926

> <b_lp_Chiralities_Consistent>
1

> <s_lp_Variant>
CHEMBL1900_lig41-1

> <s_i_glide_gridfile>
glide-grid_2hv5

> <i_i_glide_lignum>
76

> <i_i_glide_rotatable_bonds>
5

> <r_i_docking_score>
-9.74511208412638

> <r_i_glide_ligand_efficiency>
-0.389804483365055

> <r_i_glide_ligand_efficiency_sa>
-1.13979522257137

> <r_i_glide_ligand_efficiency_ln>
-2.30988360138114

> <r_i_glide_gscore>
-9.74511208412638

> <r_i_glide_lipo>
-4.73331523461582

> <r_i_glide_hbond>
0

> <r_i_glide_metal>
0

> <r_i_glide_rewards>
-2.8353754071322

> <r_i_glide_evdw>
-47.8659133911133

> <r_i_glide_ecoul>
-2.20795488357544

> <r_i_glide_erotb>
0.548067459713621

> <r_i_glide_esite>
0

> <r_i_glide_emodel>
-76.2631013571082

> <r_i_glide_energy>
-50.0738682746887

> <r_i_glide_einternal>
4.86000490188599

> <i_i_glide_confnum>
21

> <i_i_glide_posenum>
170

> <r_i_glide_eff_state_penalty>
0

> <s_user_duplicate_titles>
CHEMBL1900_lig41,107870

> <s_m_subgroup_title>
dock_pv

> <s_m_subgroupid>
dock_pv

> <b_m_subgroup_collapsed>
1

$$$$
CHEMBL1900_lig461
                    3D
 Schrodinger Suite 2021-1.
 38 39  0  0  1  0            999 V2000
   17.1991   -4.4680   10.6750 C   0  0  0  0  0  0
   17.8069   -3.3692    9.8891 N   0  3  0  0  0  0
   18.9456   -3.0071   10.1809 O   0  5  0  0  0  0
   17.1524   -2.8623    8.9819 O   0  0  0  0  0  0
   17.9538   -5.1626   11.6308 C   0  0  0  0  0  0
   17.4055   -6.1749   12.4151 C   0  0  0  0  0  0
   18.2958   -6.8357   13.4801 C   0  0  0  0  0  0
   17.7077   -7.8347   14.3802 N   0  0  0  0  0  0
   16.7215   -7.5959   15.2630 C   0  0  0  0  0  0
   16.3190   -8.7291   16.1672 C   0  0  0  0  0  0
   16.3282  -10.0524   15.6912 C   0  0  0  0  0  0
   15.7944  -11.0900   16.4523 C   0  0  0  0  0  0
   15.2308  -10.8157   17.6931 C   0  0  0  0  0  0
   14.5535  -12.0840   18.6462 Cl  0  0  0  0  0  0
   15.2395   -9.5134   18.1809 C   0  0  0  0  0  0
   15.8243   -8.4739   17.4635 C   0  0  0  0  0  0
   15.7952   -7.2251   18.0516 O   0  0  0  0  0  0
   17.0638   -6.6409   18.3858 C   0  0  0  0  0  0
   16.8455   -5.4940   19.3812 C   0  0  0  0  0  0
   18.0134   -4.9148   19.7733 O   0  0  0  0  0  0
   15.7451   -5.1401   19.7875 O   0  0  0  0  0  0
   16.1452   -6.5151   15.3404 O   0  0  0  0  0  0
   16.0666   -6.5148   12.2112 C   0  0  0  0  0  0
   15.2885   -5.8334   11.2762 C   0  0  0  0  0  0
   15.8500   -4.8142   10.5105 C   0  0  0  0  0  0
   18.9855   -4.9118   11.7868 H   0  0  0  0  0  0
   18.7421   -6.0454   14.0892 H   0  0  0  0  0  0
   19.1436   -7.3035   12.9808 H   0  0  0  0  0  0
   18.1622   -8.7338   14.4089 H   0  0  0  0  0  0
   16.7033  -10.2909   14.7063 H   0  0  0  0  0  0
   15.7944  -12.1002   16.0701 H   0  0  0  0  0  0
   14.8313   -9.3149   19.1563 H   0  0  0  0  0  0
   17.7267   -7.3736   18.8441 H   0  0  0  0  0  0
   17.5524   -6.2261   17.5057 H   0  0  0  0  0  0
   17.8345   -4.1958   20.3847 H   0  0  0  0  0  0
   15.6221   -7.3110   12.7819 H   0  0  0  0  0  0
   14.2479   -6.0928   11.1461 H   0  0  0  0  0  0
   15.2274   -4.2931    9.7944 H   0  0  0  0  0  0
  1  2  1  0  0  0
  1 25  2  0  0  0
  1  5  1  0  0  0
  2  3  1  0  0  0
  2  4  2  0  0  0
  5  6  2  0  0  0
  5 26  1  0  0  0
  6 23  1  0  0  0
  6  7  1  0  0  0
  7  8  1  0  0  0
  7 27  1  0  0  0
  7 28  1  0  0  0
  8  9  1  0  0  0
  8 29  1  0  0  0
  9 22  2  0  0  0
  9 10  1  0  0  0
 10 11  2  0  0  0
 10 16  1  0  0  0
 11 12  1  0  0  0
 11 30  1  0  0  0
 12 13  2  0  0  0
 12 31  1  0  0  0
 13 15  1  0  0  0
 13 14  1  0  0  0
 15 16  2  0  0  0
 15 32  1  0  0  0
 16 17  1  0  0  0
 17 18  1  0  0  0
 18 19  1  0  0  0
 18 33  1  0  0  0
 18 34  1  0  0  0
 19 21  2  0  0  0
 19 20  1  0  0  0
 20 35  1  0  0  0
 23 24  2  0  0  0
 23 36  1  0  0  0
 24 25  1  0  0  0
 24 37  1  0  0  0
 25 38  1  0  0  0
M  CHG  2   2   1   3  -1
M  END
> <s_m_entry_id>
6310

> <s_m_entry_name>
dock_pv.145

> <s_m_Source_Path>
/home/csk/Desktop/cluster/DUD-E-result/aldr

> <s_m_Source_File>
dock_pv.maegz

> <i_m_Source_File_Index>
145

> <chembl_id>
CHEMBL241577

> <chembl_pref_name>
None

> <i_lp_mmshare_version>
53161

> <i_f3d_flags>
0

> <r_lp_tautomer_probability>
1

> <s_lp_Force_Field>
OPLS_2005

> <r_lp_Energy>
20.39267

> <b_lp_Chiralities_Consistent>
1

> <s_lp_Variant>
CHEMBL1900_lig461-1

> <s_i_glide_gridfile>
glide-grid_2hv5

> <i_i_glide_lignum>
583

> <i_i_glide_rotatable_bonds>
9

> <r_i_docking_score>
-9.73157126072682

> <r_i_glide_ligand_efficiency>
-0.389262850429073

> <r_i_glide_ligand_efficiency_sa>
-1.13821147826066

> <r_i_glide_ligand_efficiency_ln>
-2.30667402044971

> <r_i_glide_gscore>
-9.73157126072682

> <r_i_glide_lipo>
-3.88405072634661

> <r_i_glide_hbond>
-0.336187477348851

> <r_i_glide_metal>
0

> <r_i_glide_rewards>
-3.03139882951366

> <r_i_glide_evdw>
-48.1560935974121

> <r_i_glide_ecoul>
-7.2259259223938

> <r_i_glide_erotb>
1.01175934071198

> <r_i_glide_esite>
0

> <r_i_glide_emodel>
-81.9822690855346

> <r_i_glide_energy>
-55.3820195198059

> <r_i_glide_einternal>
8.48662757873535

> <i_i_glide_confnum>
186

> <i_i_glide_posenum>
184

> <r_i_glide_eff_state_penalty>
0

> <s_user_duplicate_titles>
CHEMBL1900_lig461,407187

> <s_m_subgroup_title>
dock_pv

> <s_m_subgroupid>
dock_pv

> <b_m_subgroup_collapsed>
1

$$$$
CHEMBL1900_lig192
                    3D
 Schrodinger Suite 2021-1.
 39 42  0  0  1  0            999 V2000
   17.7380   -9.1793   15.1025 N   0  0  0  0  0  0
   17.4251   -8.2981   16.1268 N   0  0  0  0  0  0
   17.3938  -10.5181   15.0350 C   0  0  0  0  0  0
   16.6799   -8.6655   17.0978 C   0  0  0  0  0  0
   18.0699   -7.4158   13.3603 C   0  0  0  0  0  0
   16.4239  -10.9085   16.1444 C   0  0  0  0  0  0
   16.0224   -9.9816   17.1282 C   0  0  0  0  0  0
   16.7833   -7.5030   12.9154 O   0  0  0  0  0  0
   16.6438   -7.7144   18.2977 C   0  0  0  0  0  0
   18.6367   -8.6250   14.0761 C   0  0  0  0  0  0
   18.6380   -6.2148   12.9810 C   0  0  0  0  0  0
   17.7296   -5.6136   12.0596 C   0  0  0  0  0  0
   16.5694   -6.4123   12.1234 C   0  0  0  0  0  0
   15.9766   -6.3670   18.0039 C   0  0  0  0  0  0
   17.8131  -11.3074   14.1827 O   0  0  0  0  0  0
   17.7431   -4.5136   11.1910 C   0  0  0  0  0  0
   15.3438   -6.1036   16.9818 O   0  0  0  0  0  0
   15.3998   -6.1146   11.4112 C   0  0  0  0  0  0
   16.5932   -4.2188   10.4536 C   0  0  0  0  0  0
   16.1495   -5.5128   19.0537 O   0  0  0  0  0  0
   15.4362   -4.9901   10.5816 C   0  0  0  0  0  0
   16.6006   -2.8660    9.3810 Cl  0  0  0  0  0  0
   15.9123  -12.2125   16.1655 C   0  0  0  0  0  0
   15.0126  -10.3362   18.0337 C   0  0  0  0  0  0
   14.9660  -12.5756   17.1222 C   0  0  0  0  0  0
   14.5132  -11.6363   18.0457 C   0  0  0  0  0  0
   16.1480   -8.1584   19.1583 H   0  0  0  0  0  0
   17.6699   -7.5186   18.6117 H   0  0  0  0  0  0
   19.5693   -8.3544   14.5703 H   0  0  0  0  0  0
   18.9304   -9.3518   13.3168 H   0  0  0  0  0  0
   19.6384   -5.9042   13.2395 H   0  0  0  0  0  0
   18.6168   -3.8884   11.1052 H   0  0  0  0  0  0
   14.5166   -6.7311   11.4878 H   0  0  0  0  0  0
   16.7337   -5.8773   19.7209 H   0  0  0  0  0  0
   14.5572   -4.7151   10.0148 H   0  0  0  0  0  0
   16.2249  -12.9411   15.4294 H   0  0  0  0  0  0
   14.6285   -9.6334   18.7569 H   0  0  0  0  0  0
   14.5615  -13.5775   17.1309 H   0  0  0  0  0  0
   13.7490  -11.9115   18.7595 H   0  0  0  0  0  0
  1  2  1  0  0  0
  1  3  1  0  0  0
  1 10  1  0  0  0
  2  4  2  0  0  0
  3  6  1  0  0  0
  3 15  2  0  0  0
  4  9  1  0  0  0
  4  7  1  0  0  0
  5 10  1  0  0  0
  5  8  1  0  0  0
  5 11  2  0  0  0
  6  7  2  0  0  0
  6 23  1  0  0  0
  7 24  1  0  0  0
  8 13  1  0  0  0
  9 14  1  0  0  0
  9 27  1  0  0  0
  9 28  1  0  0  0
 10 29  1  0  0  0
 10 30  1  0  0  0
 11 12  1  0  0  0
 11 31  1  0  0  0
 12 16  1  0  0  0
 12 13  2  0  0  0
 13 18  1  0  0  0
 14 17  2  0  0  0
 14 20  1  0  0  0
 16 19  2  0  0  0
 16 32  1  0  0  0
 18 21  2  0  0  0
 18 33  1  0  0  0
 19 22  1  0  0  0
 19 21  1  0  0  0
 20 34  1  0  0  0
 21 35  1  0  0  0
 23 25  2  0  0  0
 23 36  1  0  0  0
 24 26  2  0  0  0
 24 37  1  0  0  0
 25 26  1  0  0  0
 25 38  1  0  0  0
 26 39  1  0  0  0
M  END
> <s_m_entry_id>
6311

> <s_m_entry_name>
dock_pv.146

> <s_m_Source_Path>
/home/csk/Desktop/cluster/DUD-E-result/aldr

> <s_m_Source_File>
dock_pv.maegz

> <i_m_Source_File_Index>
146

> <chembl_id>
CHEMBL143551

> <chembl_pref_name>
None

> <i_lp_mmshare_version>
53161

> <i_f3d_flags>
0

> <r_lp_tautomer_probability>
1

> <s_lp_Force_Field>
OPLS_2005

> <r_lp_Energy>
24.279878

> <b_lp_Chiralities_Consistent>
1

> <s_lp_Variant>
CHEMBL1900_lig192-1

> <s_i_glide_gridfile>
glide-grid_2hv5

> <i_i_glide_lignum>
268

> <i_i_glide_rotatable_bonds>
5

> <r_i_docking_score>
-9.73105190923729

> <r_i_glide_ligand_efficiency>
-0.374271227278357

> <r_i_glide_ligand_efficiency_sa>
-1.10877703812597

> <r_i_glide_ligand_efficiency_ln>
-2.28530561069872

> <r_i_glide_gscore>
-9.73105190923729

> <r_i_glide_lipo>
-4.56205210053367

> <r_i_glide_hbond>
-0.309948948019657

> <r_i_glide_metal>
0

> <r_i_glide_rewards>
-2.34607689311052

> <r_i_glide_evdw>
-48.3036499023438

> <r_i_glide_ecoul>
-4.43130922317505

> <r_i_glide_erotb>
0.566904911020011

> <r_i_glide_esite>
0

> <r_i_glide_emodel>
-79.3965851067275

> <r_i_glide_energy>
-52.7349591255188

> <r_i_glide_einternal>
2.72714376449585

> <i_i_glide_confnum>
6

> <i_i_glide_posenum>
44

> <r_i_glide_eff_state_penalty>
0

> <s_user_duplicate_titles>
CHEMBL1900_lig192,235870

> <s_m_subgroup_title>
dock_pv

> <s_m_subgroupid>
dock_pv

> <b_m_subgroup_collapsed>
1

$$$$
CHEMBL1900_lig160
                    3D
 Schrodinger Suite 2021-1.
 40 43  0  0  1  0            999 V2000
   18.0649   -8.1557   15.3807 N   0  0  0  0  0  0
   17.4411   -7.2893   16.2664 N   0  0  0  0  0  0
   18.5190   -5.7154   12.7496 N   0  0  0  0  0  0
   17.7446   -9.4856   15.1654 C   0  0  0  0  0  0
   17.6325   -5.7343   11.7682 C   0  0  0  0  0  0
   16.4153   -7.6663   16.9325 C   0  0  0  0  0  0
   18.3459   -6.8953   13.2878 C   0  0  0  0  0  0
   16.9451   -6.8470   11.6421 N   0  0  0  0  0  0
   19.0397   -7.5040   14.4844 C   0  0  0  0  0  0
   16.6104   -9.9542   16.0710 C   0  0  0  0  0  0
   15.9510   -9.0640   16.9446 C   0  0  0  0  0  0
   15.6829   -6.5534   17.6853 C   0  0  0  0  0  0
   17.4224   -7.6550   12.6582 O   0  0  0  0  0  0
   16.3805   -6.0997   18.9787 C   0  0  0  0  0  0
   17.3704   -4.5937   10.8362 C   0  0  0  0  0  0
   18.2928  -10.2019   14.3224 O   0  0  0  0  0  0
   18.3878   -3.7154   10.6044 N   0  0  0  0  0  0
   15.7456   -5.7131   19.9500 O   0  0  0  0  0  0
   17.7411   -6.1151   18.9156 O   0  0  0  0  0  0
   16.2206  -11.2994   16.0237 C   0  0  0  0  0  0
   14.9636   -9.5566   17.8105 C   0  0  0  0  0  0
   18.1452   -2.6640    9.7821 C   0  0  0  0  0  0
   16.1164   -4.4560   10.2271 C   0  0  0  0  0  0
   15.2124  -11.7671   16.8660 C   0  0  0  0  0  0
   14.5926  -10.9012   17.7643 C   0  0  0  0  0  0
   16.9241   -2.4681    9.1416 C   0  0  0  0  0  0
   15.9008   -3.3814    9.3733 C   0  0  0  0  0  0
   19.6198   -6.7633   15.0378 H   0  0  0  0  0  0
   19.7957   -8.2082   14.1327 H   0  0  0  0  0  0
   15.5926   -5.6760   17.0449 H   0  0  0  0  0  0
   14.6583   -6.8381   17.9168 H   0  0  0  0  0  0
   18.0371   -6.4167   18.0517 H   0  0  0  0  0  0
   16.6998  -11.9895   15.3423 H   0  0  0  0  0  0
   14.4751   -8.9154   18.5268 H   0  0  0  0  0  0
   18.9501   -1.9602    9.6490 H   0  0  0  0  0  0
   15.3161   -5.1592   10.4124 H   0  0  0  0  0  0
   14.9146  -12.8050   16.8267 H   0  0  0  0  0  0
   13.8191  -11.2732   18.4212 H   0  0  0  0  0  0
   16.7639   -1.6292    8.4827 H   0  0  0  0  0  0
   14.9451   -3.2599    8.8941 H   0  0  0  0  0  0
  1  2  1  0  0  0
  1  4  1  0  0  0
  1  9  1  0  0  0
  2  6  2  0  0  0
  3  7  2  0  0  0
  3  5  1  0  0  0
  4 10  1  0  0  0
  4 16  2  0  0  0
  5 15  1  0  0  0
  5  8  2  0  0  0
  6 12  1  0  0  0
  6 11  1  0  0  0
  7  9  1  0  0  0
  7 13  1  0  0  0
  8 13  1  0  0  0
  9 28  1  0  0  0
  9 29  1  0  0  0
 10 11  2  0  0  0
 10 20  1  0  0  0
 11 21  1  0  0  0
 12 14  1  0  0  0
 12 30  1  0  0  0
 12 31  1  0  0  0
 14 18  2  0  0  0
 14 19  1  0  0  0
 15 17  2  0  0  0
 15 23  1  0  0  0
 17 22  1  0  0  0
 19 32  1  0  0  0
 20 24  2  0  0  0
 20 33  1  0  0  0
 21 25  2  0  0  0
 21 34  1  0  0  0
 22 26  2  0  0  0
 22 35  1  0  0  0
 23 27  2  0  0  0
 23 36  1  0  0  0
 24 25  1  0  0  0
 24 37  1  0  0  0
 25 38  1  0  0  0
 26 27  1  0  0  0
 26 39  1  0  0  0
 27 40  1  0  0  0
M  END
> <s_m_entry_id>
6312

> <s_m_entry_name>
dock_pv.147

> <s_m_Source_Path>
/home/csk/Desktop/cluster/DUD-E-result/aldr

> <s_m_Source_File>
dock_pv.maegz

> <i_m_Source_File_Index>
147

> <chembl_id>
CHEMBL357206

> <chembl_pref_name>
None

> <i_lp_mmshare_version>
53161

> <i_f3d_flags>
0

> <r_lp_tautomer_probability>
1

> <s_lp_Force_Field>
OPLS_2005

> <r_lp_Energy>
29.267309

> <b_lp_Chiralities_Consistent>
1

> <s_lp_Variant>
CHEMBL1900_lig160-1

> <s_i_glide_gridfile>
glide-grid_2hv5

> <i_i_glide_lignum>
236

> <i_i_glide_rotatable_bonds>
6

> <r_i_docking_score>
-9.71974344117244

> <r_i_glide_ligand_efficiency>
-0.359990497821201

> <r_i_glide_ligand_efficiency_sa>
-1.07997149227713

> <r_i_glide_ligand_efficiency_ln>
-2.26259603061068

> <r_i_glide_gscore>
-9.71974344117244

> <r_i_glide_lipo>
-3.9715108698547

> <r_i_glide_hbond>
-0.32

> <r_i_glide_metal>
0

> <r_i_glide_rewards>
-2.91011533390838

> <r_i_glide_evdw>
-50.6771926879883

> <r_i_glide_ecoul>
-4.74636840820312

> <r_i_glide_erotb>
0.727697658220529

> <r_i_glide_esite>
0

> <r_i_glide_emodel>
-83.4278581422595

> <r_i_glide_energy>
-55.4235610961914

> <r_i_glide_einternal>
4.98163175582886

> <i_i_glide_confnum>
72

> <i_i_glide_posenum>
368

> <r_i_glide_eff_state_penalty>
0

> <s_user_duplicate_titles>
CHEMBL1900_lig160,235849

> <s_m_subgroup_title>
dock_pv

> <s_m_subgroupid>
dock_pv

> <b_m_subgroup_collapsed>
1

$$$$
CHEMBL1900_lig289
                    3D
 Schrodinger Suite 2021-1.
 37 40  0  0  1  0            999 V2000
   17.9512   -7.7288   14.9705 N   0  0  0  0  0  0
   17.3475   -6.9152   15.9225 N   0  0  0  0  0  0
   17.7457   -9.0862   14.7956 C   0  0  0  0  0  0
   16.4240   -7.3755   16.6751 C   0  0  0  0  0  0
   17.9675   -6.2614   12.9252 C   0  0  0  0  0  0
   16.2596   -6.5150   12.5740 S   0  0  0  0  0  0
   18.5440   -5.3582   12.1816 N   0  0  0  0  0  0
   18.7757   -7.0000   13.9874 C   0  0  0  0  0  0
   16.7382   -9.6427   15.7966 C   0  0  0  0  0  0
   16.3861   -5.3133   11.3049 C   0  0  0  0  0  0
   16.0807   -8.8053   16.7221 C   0  0  0  0  0  0
   15.7036   -6.3321   17.5287 C   0  0  0  0  0  0
   17.7093   -4.8190   11.2624 C   0  0  0  0  0  0
   16.3869   -6.0404   18.8727 C   0  0  0  0  0  0
   15.3996   -4.9093   10.5056 N   0  0  0  0  0  0
   18.2924   -9.7649   13.9205 O   0  0  0  0  0  0
   15.7457   -5.7137   19.8625 O   0  0  0  0  0  0
   17.7450   -6.1147   18.8370 O   0  0  0  0  0  0
   16.4617  -11.0162   15.7840 C   0  0  0  0  0  0
   15.2057   -9.3695   17.6612 C   0  0  0  0  0  0
   18.0387   -3.8349   10.3153 C   0  0  0  0  0  0
   15.7448   -3.9578    9.5951 C   0  0  0  0  0  0
   17.0186   -3.3993    9.4670 C   0  0  0  0  0  0
   15.5641  -11.5597   16.7028 C   0  0  0  0  0  0
   14.9440  -10.7394   17.6434 C   0  0  0  0  0  0
   19.4329   -6.3186   14.5315 H   0  0  0  0  0  0
   19.4793   -7.6641   13.4797 H   0  0  0  0  0  0
   15.6394   -5.3851   16.9918 H   0  0  0  0  0  0
   14.6719   -6.6300   17.7130 H   0  0  0  0  0  0
   18.0617   -6.3188   17.9519 H   0  0  0  0  0  0
   16.9432  -11.6688   15.0683 H   0  0  0  0  0  0
   14.7146   -8.7654   18.4086 H   0  0  0  0  0  0
   19.0326   -3.4209   10.2563 H   0  0  0  0  0  0
   14.9456   -3.6358    8.9444 H   0  0  0  0  0  0
   17.2080   -2.6405    8.7212 H   0  0  0  0  0  0
   15.3529  -12.6196   16.6895 H   0  0  0  0  0  0
   14.2524  -11.1659   18.3567 H   0  0  0  0  0  0
  1  2  1  0  0  0
  1  3  1  0  0  0
  1  8  1  0  0  0
  2  4  2  0  0  0
  3  9  1  0  0  0
  3 16  2  0  0  0
  4 12  1  0  0  0
  4 11  1  0  0  0
  5  8  1  0  0  0
  5  6  1  0  0  0
  5  7  2  0  0  0
  6 10  1  0  0  0
  7 13  1  0  0  0
  8 26  1  0  0  0
  8 27  1  0  0  0
  9 11  1  0  0  0
  9 19  2  0  0  0
 10 15  1  0  0  0
 10 13  2  0  0  0
 11 20  2  0  0  0
 12 14  1  0  0  0
 12 28  1  0  0  0
 12 29  1  0  0  0
 13 21  1  0  0  0
 14 17  2  0  0  0
 14 18  1  0  0  0
 15 22  2  0  0  0
 18 30  1  0  0  0
 19 24  1  0  0  0
 19 31  1  0  0  0
 20 25  1  0  0  0
 20 32  1  0  0  0
 21 23  2  0  0  0
 21 33  1  0  0  0
 22 23  1  0  0  0
 22 34  1  0  0  0
 23 35  1  0  0  0
 24 25  2  0  0  0
 24 36  1  0  0  0
 25 37  1  0  0  0
M  END
> <s_m_entry_id>
6313

> <s_m_entry_name>
dock_pv.148

> <s_m_Source_Path>
/home/csk/Desktop/cluster/DUD-E-result/aldr

> <s_m_Source_File>
dock_pv.maegz

> <i_m_Source_File_Index>
148

> <chembl_id>
CHEMBL19289

> <chembl_pref_name>
None

> <i_lp_mmshare_version>
53161

> <i_f3d_flags>
0

> <r_lp_tautomer_probability>
1

> <s_lp_Force_Field>
OPLS_2005

> <r_lp_Energy>
28.573783

> <b_lp_Chiralities_Consistent>
1

> <s_lp_Variant>
CHEMBL1900_lig289-1

> <s_i_glide_gridfile>
glide-grid_2hv5

> <i_i_glide_lignum>
404

> <i_i_glide_rotatable_bonds>
5

> <r_i_docking_score>
-9.69965871657694

> <r_i_glide_ligand_efficiency>
-0.387986348663078

> <r_i_glide_ligand_efficiency_sa>
-1.13447896445803

> <r_i_glide_ligand_efficiency_ln>
-2.29910979114441

> <r_i_glide_gscore>
-9.69965871657694

> <r_i_glide_lipo>
-4.45875106175769

> <r_i_glide_hbond>
-0.32

> <r_i_glide_metal>
0

> <r_i_glide_rewards>
-2.64671714341758

> <r_i_glide_evdw>
-49.7694244384766

> <r_i_glide_ecoul>
-2.670161485672

> <r_i_glide_erotb>
0.614804933372954

> <r_i_glide_esite>
0

> <r_i_glide_emodel>
-79.0164414736489

> <r_i_glide_energy>
-52.4395859241486

> <r_i_glide_einternal>
4.77007961273193

> <i_i_glide_confnum>
12

> <i_i_glide_posenum>
272

> <r_i_glide_eff_state_penalty>
0

> <s_user_duplicate_titles>
CHEMBL1900_lig289,23295

> <s_m_subgroup_title>
dock_pv

> <s_m_subgroupid>
dock_pv

> <b_m_subgroup_collapsed>
1

$$$$
CHEMBL1900_lig53
                    3D
 Schrodinger Suite 2021-1.
 32 34  0  0  1  0            999 V2000
   18.2334   -8.4606   14.9808 N   0  0  0  0  0  0
   18.0455   -6.6440   13.2592 C   0  0  0  0  0  0
   18.5455   -5.7060   12.5202 N   0  0  0  0  0  0
   17.6016   -8.0365   16.1505 N   0  0  0  0  0  0
   16.3650   -5.7066   11.7257 C   0  0  0  0  0  0
   17.6699   -5.1861   11.6324 C   0  0  0  0  0  0
   16.3350   -6.9069   13.0026 S   0  0  0  0  0  0
   18.9341   -7.4055   14.2340 C   0  0  0  0  0  0
   18.1449   -9.7273   14.4309 C   0  0  0  0  0  0
   15.3546   -5.2446   10.8828 C   0  0  0  0  0  0
   16.7538   -8.7876   16.7701 C   0  0  0  0  0  0
   17.2821  -10.5907   15.2254 C   0  0  0  0  0  0
   17.9825   -4.2018   10.6833 C   0  0  0  0  0  0
   16.0081   -8.2308   17.9853 C   0  0  0  0  0  0
   15.6914   -4.2867    9.9299 C   0  0  0  0  0  0
   16.5997  -10.1436   16.3073 C   0  0  0  0  0  0
   15.7623   -6.7109   17.9492 C   0  0  0  0  0  0
   16.9745   -3.7619    9.8369 C   0  0  0  0  0  0
   18.6701  -10.1014   13.3813 O   0  0  0  0  0  0
   15.2846   -6.1217   16.9811 O   0  0  0  0  0  0
   14.0936   -5.7143   10.9818 F   0  0  0  0  0  0
   17.2427   -2.8067    8.9251 F   0  0  0  0  0  0
   16.1032   -6.1157   19.1293 O   0  0  0  0  0  0
   19.4137   -6.7279   14.9441 H   0  0  0  0  0  0
   19.7849   -7.8264   13.6963 H   0  0  0  0  0  0
   17.1640  -11.6129   14.8966 H   0  0  0  0  0  0
   18.9664   -3.7806   10.6039 H   0  0  0  0  0  0
   16.5444   -8.5131   18.8903 H   0  0  0  0  0  0
   15.0294   -8.7041   18.0552 H   0  0  0  0  0  0
   14.9450   -3.9319    9.2448 H   0  0  0  0  0  0
   15.9492  -10.8285   16.8324 H   0  0  0  0  0  0
   16.5453   -6.7214   19.7278 H   0  0  0  0  0  0
  1  4  1  0  0  0
  1  8  1  0  0  0
  1  9  1  0  0  0
  2  8  1  0  0  0
  2  3  2  0  0  0
  2  7  1  0  0  0
  3  6  1  0  0  0
  4 11  2  0  0  0
  5  7  1  0  0  0
  5 10  1  0  0  0
  5  6  2  0  0  0
  6 13  1  0  0  0
  8 24  1  0  0  0
  8 25  1  0  0  0
  9 12  1  0  0  0
  9 19  2  0  0  0
 10 15  2  0  0  0
 10 21  1  0  0  0
 11 14  1  0  0  0
 11 16  1  0  0  0
 12 16  2  0  0  0
 12 26  1  0  0  0
 13 18  2  0  0  0
 13 27  1  0  0  0
 14 17  1  0  0  0
 14 28  1  0  0  0
 14 29  1  0  0  0
 15 18  1  0  0  0
 15 30  1  0  0  0
 16 31  1  0  0  0
 17 20  2  0  0  0
 17 23  1  0  0  0
 18 22  1  0  0  0
 23 32  1  0  0  0
M  END
> <s_m_entry_id>
6314

> <s_m_entry_name>
dock_pv.149

> <s_m_Source_Path>
/home/csk/Desktop/cluster/DUD-E-result/aldr

> <s_m_Source_File>
dock_pv.maegz

> <i_m_Source_File_Index>
149

> <chembl_id>
CHEMBL66920

> <chembl_pref_name>
None

> <i_lp_mmshare_version>
53161

> <i_f3d_flags>
0

> <r_lp_tautomer_probability>
1

> <s_lp_Force_Field>
OPLS_2005

> <r_lp_Energy>
19.069946

> <b_lp_Chiralities_Consistent>
1

> <s_lp_Variant>
CHEMBL1900_lig53-1

> <s_i_glide_gridfile>
glide-grid_2hv5

> <i_i_glide_lignum>
88

> <i_i_glide_rotatable_bonds>
5

> <r_i_docking_score>
-9.69122743021485

> <r_i_glide_ligand_efficiency>
-0.421357714357167

> <r_i_glide_ligand_efficiency_sa>
-1.19828528931367

> <r_i_glide_ligand_efficiency_ln>
-2.34342666781785

> <r_i_glide_gscore>
-9.69122743021485

> <r_i_glide_lipo>
-3.9614707194059

> <r_i_glide_hbond>
-0.32

> <r_i_glide_metal>
0

> <r_i_glide_rewards>
-3.2652344056364

> <r_i_glide_evdw>
-42.8971099853516

> <r_i_glide_ecoul>
-4.42706346511841

> <r_i_glide_erotb>
0.664392713862789

> <r_i_glide_esite>
0

> <r_i_glide_emodel>
-71.6557319536419

> <r_i_glide_energy>
-47.32417345047

> <r_i_glide_einternal>
4.87025117874146

> <i_i_glide_confnum>
17

> <i_i_glide_posenum>
209

> <r_i_glide_eff_state_penalty>
0

> <s_user_duplicate_titles>
CHEMBL1900_lig53,107293

> <s_m_subgroup_title>
dock_pv

> <s_m_subgroupid>
dock_pv

> <b_m_subgroup_collapsed>
1

$$$$
CHEMBL1900_lig661 
                    3D
 Schrodinger Suite 2021-1.
 44 46  0  0  1  0            999 V2000
   17.8984   -8.4741   15.6633 C   0  0  0  0  0  0
   17.1916   -7.8458   14.6513 C   0  0  0  0  0  0
   16.2011   -6.9150   14.9923 C   0  0  0  0  0  0
   16.0435   -6.5150   16.3183 C   0  0  0  0  0  0
   16.8656   -7.0360   17.3099 C   0  0  0  0  0  0
   17.7450   -8.0628   16.9811 C   0  0  0  0  0  0
   16.8208   -6.5529   18.6998 C   0  0  0  0  0  0
   16.6416   -5.2892   19.1661 C   0  0  0  0  0  0
   16.4795   -5.0702   20.5811 C   0  0  0  0  0  0
   16.1158   -3.7917   20.8687 N   0  0  0  0  0  0
   15.8903   -2.9613   19.8299 C   0  0  0  0  0  0
   16.4678   -3.7509   18.3247 S   0  0  0  0  0  0
   16.5450   -5.9592   21.4215 O   0  0  0  0  0  0
   15.3450   -1.8586   19.8396 O   0  0  0  0  0  0
   15.6922   -3.3390   22.2421 C   0  0  0  0  0  0
   16.5235   -3.8958   23.4281 C   0  0  0  0  0  0
   17.7161   -4.1150   23.3690 O   0  0  0  0  0  0
   15.7450   -4.1120   24.5295 O   0  0  0  0  0  0
   17.5507   -8.1868   13.3636 O   0  0  0  0  0  0
   17.1355   -7.3620   12.2828 C   0  0  0  0  0  0
   17.8090   -5.9694   12.2990 C   0  0  0  0  0  0
   17.2746   -5.0148   11.2396 C   0  0  0  0  0  0
   15.9075   -4.9787   10.9517 C   0  0  0  0  0  0
   15.4219   -4.1048    9.9955 C   0  0  0  0  0  0
   16.2895   -3.2293    9.3499 C   0  0  0  0  0  0
   17.6506   -3.2404    9.6408 C   0  0  0  0  0  0
   18.1446   -4.1400   10.5810 C   0  0  0  0  0  0
   18.6221   -9.2341   15.4104 H   0  0  0  0  0  0
   15.5922   -6.4481   14.2348 H   0  0  0  0  0  0
   15.3189   -5.7619   16.5808 H   0  0  0  0  0  0
   18.3426   -8.5151   17.7503 H   0  0  0  0  0  0
   16.9056   -7.3590   19.4149 H   0  0  0  0  0  0
   14.6445   -3.5989   22.3847 H   0  0  0  0  0  0
   15.7471   -2.2520   22.3094 H   0  0  0  0  0  0
   14.8164   -3.8383   24.4749 H   0  0  0  0  0  0
   17.3959   -7.8683   11.3563 H   0  0  0  0  0  0
   16.0490   -7.3150   12.2927 H   0  0  0  0  0  0
   17.6818   -5.4828   13.2639 H   0  0  0  0  0  0
   18.8844   -6.1049   12.1810 H   0  0  0  0  0  0
   15.1945   -5.6052   11.4632 H   0  0  0  0  0  0
   14.3678   -4.1150    9.7810 H   0  0  0  0  0  0
   15.9016   -2.5368    8.6185 H   0  0  0  0  0  0
   18.3149   -2.5521    9.1416 H   0  0  0  0  0  0
   19.1977   -4.1413   10.8073 H   0  0  0  0  0  0
  1  2  2  0  0  0
  1  6  1  0  0  0
  1 28  1  0  0  0
  2  3  1  0  0  0
  2 19  1  0  0  0
  3  4  2  0  0  0
  3 29  1  0  0  0
  4  5  1  0  0  0
  4 30  1  0  0  0
  5  6  2  0  0  0
  5  7  1  0  0  0
  6 31  1  0  0  0
  7  8  2  0  0  0
  7 32  1  0  0  0
  8  9  1  0  0  0
  8 12  1  0  0  0
  9 10  1  0  0  0
  9 13  2  0  0  0
 10 11  1  0  0  0
 10 15  1  0  0  0
 11 12  1  0  0  0
 11 14  2  0  0  0
 15 16  1  0  0  0
 15 33  1  0  0  0
 15 34  1  0  0  0
 16 17  2  0  0  0
 16 18  1  0  0  0
 18 35  1  0  0  0
 19 20  1  0  0  0
 20 21  1  0  0  0
 20 36  1  0  0  0
 20 37  1  0  0  0
 21 22  1  0  0  0
 21 38  1  0  0  0
 21 39  1  0  0  0
 22 23  2  0  0  0
 22 27  1  0  0  0
 23 24  1  0  0  0
 23 40  1  0  0  0
 24 25  2  0  0  0
 24 41  1  0  0  0
 25 26  1  0  0  0
 25 42  1  0  0  0
 26 27  2  0  0  0
 26 43  1  0  0  0
 27 44  1  0  0  0
M  END
> <s_m_entry_id>
6315

> <s_m_entry_name>
dock_pv.150

> <s_m_Source_Path>
/home/csk/Desktop/cluster/DUD-E-result/aldr

> <s_m_Source_File>
dock_pv.maegz

> <i_m_Source_File_Index>
150

> <chembl_id>
CHEMBL4483615

> <chembl_pref_name>
None

> <i_lp_mmshare_version>
53161

> <i_f3d_flags>
0

> <r_lp_tautomer_probability>
1

> <s_lp_Force_Field>
OPLS_2005

> <r_lp_Energy>
19.789001

> <b_lp_Chiralities_Consistent>
1

> <s_lp_Variant>
CHEMBL1900_lig661 -1

> <s_i_glide_gridfile>
glide-grid_2hv5

> <i_i_glide_lignum>
787

> <i_i_glide_rotatable_bonds>
8

> <r_i_docking_score>
-9.68957076860891

> <r_i_glide_ligand_efficiency>
-0.35887299142996

> <r_i_glide_ligand_efficiency_sa>
-1.07661897310709

> <r_i_glide_ligand_efficiency_ln>
-2.25557232987328

> <r_i_glide_gscore>
-9.68957076860891

> <r_i_glide_lipo>
-4.58571541086972

> <r_i_glide_hbond>
-0.011988495449108

> <r_i_glide_metal>
0

> <r_i_glide_rewards>
-2.94282161041037

> <r_i_glide_evdw>
-46.1257514953613

> <r_i_glide_ecoul>
-4.23896217346191

> <r_i_glide_erotb>
0.793086648907649

> <r_i_glide_esite>
0

> <r_i_glide_emodel>
-68.067292825592

> <r_i_glide_energy>
-50.3647136688232

> <r_i_glide_einternal>
8.10173892974854

> <i_i_glide_confnum>
2

> <i_i_glide_posenum>
6

> <r_i_glide_eff_state_penalty>
0

> <s_user_duplicate_titles>
CHEMBL1900_lig661 

> <s_m_subgroup_title>
dock_pv

> <s_m_subgroupid>
dock_pv

> <b_m_subgroup_collapsed>
1

$$$$
CHEMBL1900_lig173
                    3D
 Schrodinger Suite 2021-1.
 39 42  0  0  1  0            999 V2000
   17.8613   -8.3626   15.3170 N   0  0  0  0  0  0
   17.2480   -7.7402   16.3962 N   0  0  0  0  0  0
   17.7452   -9.6912   14.9558 C   0  0  0  0  0  0
   16.4360   -8.3785   17.1557 C   0  0  0  0  0  0
   17.8831   -6.6932   13.4117 C   0  0  0  0  0  0
   16.7823  -10.4451   15.8643 C   0  0  0  0  0  0
   16.1714   -6.9148   13.0950 S   0  0  0  0  0  0
   16.1123   -9.7988   16.9243 C   0  0  0  0  0  0
   15.7732   -7.6587   18.3520 C   0  0  0  0  0  0
   18.6687   -7.4627   14.4688 C   0  0  0  0  0  0
   18.3726   -5.7147   12.5798 C   0  0  0  0  0  0
   16.1792   -5.7550   11.7851 C   0  0  0  0  0  0
   17.4703   -5.2034   11.6177 C   0  0  0  0  0  0
   16.1457   -6.2064   18.7298 C   0  0  0  0  0  0
   18.3327  -10.2048   13.9981 O   0  0  0  0  0  0
   15.7501   -5.7142   19.7822 O   0  0  0  0  0  0
   16.8421   -5.5162   17.7881 O   0  0  0  0  0  0
   16.5448  -11.8031   15.6144 C   0  0  0  0  0  0
   15.1811  -10.5199   17.6893 C   0  0  0  0  0  0
   15.1043   -5.3640   10.9788 C   0  0  0  0  0  0
   17.6837   -4.2634   10.5943 C   0  0  0  0  0  0
   15.6286  -12.5094   16.3929 C   0  0  0  0  0  0
   14.9445  -11.8679   17.4235 C   0  0  0  0  0  0
   16.6173   -3.8874    9.7812 C   0  0  0  0  0  0
   15.3526   -4.4290    9.9781 C   0  0  0  0  0  0
   14.6972   -7.6474   18.1802 H   0  0  0  0  0  0
   15.9324   -8.2530   19.2522 H   0  0  0  0  0  0
   19.2258   -6.7797   15.1124 H   0  0  0  0  0  0
   19.4648   -8.0122   13.9596 H   0  0  0  0  0  0
   19.3800   -5.3734   12.6455 H   0  0  0  0  0  0
   17.1054   -6.1291   17.0889 H   0  0  0  0  0  0
   17.0533  -12.3119   14.8065 H   0  0  0  0  0  0
   14.6328  -10.0589   18.4975 H   0  0  0  0  0  0
   14.1138   -5.7760   11.1197 H   0  0  0  0  0  0
   18.6577   -3.8264   10.4474 H   0  0  0  0  0  0
   15.4407  -13.5540   16.1895 H   0  0  0  0  0  0
   14.2239  -12.4148   18.0160 H   0  0  0  0  0  0
   16.7659   -3.1625    8.9937 H   0  0  0  0  0  0
   14.5467   -4.1183    9.3348 H   0  0  0  0  0  0
  1  2  1  0  0  0
  1  3  1  0  0  0
  1 10  1  0  0  0
  2  4  2  0  0  0
  3  6  1  0  0  0
  3 15  2  0  0  0
  4  9  1  0  0  0
  4  8  1  0  0  0
  5 10  1  0  0  0
  5  7  1  0  0  0
  5 11  2  0  0  0
  6  8  2  0  0  0
  6 18  1  0  0  0
  7 12  1  0  0  0
  8 19  1  0  0  0
  9 14  1  0  0  0
  9 26  1  0  0  0
  9 27  1  0  0  0
 10 28  1  0  0  0
 10 29  1  0  0  0
 11 13  1  0  0  0
 11 30  1  0  0  0
 12 20  1  0  0  0
 12 13  2  0  0  0
 13 21  1  0  0  0
 14 16  2  0  0  0
 14 17  1  0  0  0
 17 31  1  0  0  0
 18 22  2  0  0  0
 18 32  1  0  0  0
 19 23  2  0  0  0
 19 33  1  0  0  0
 20 25  2  0  0  0
 20 34  1  0  0  0
 21 24  2  0  0  0
 21 35  1  0  0  0
 22 23  1  0  0  0
 22 36  1  0  0  0
 23 37  1  0  0  0
 24 25  1  0  0  0
 24 38  1  0  0  0
 25 39  1  0  0  0
M  END
> <s_m_entry_id>
6316

> <s_m_entry_name>
dock_pv.151

> <s_m_Source_Path>
/home/csk/Desktop/cluster/DUD-E-result/aldr

> <s_m_Source_File>
dock_pv.maegz

> <i_m_Source_File_Index>
151

> <chembl_id>
CHEMBL342339

> <chembl_pref_name>
None

> <i_lp_mmshare_version>
53161

> <i_f3d_flags>
0

> <r_lp_tautomer_probability>
1

> <s_lp_Force_Field>
OPLS_2005

> <r_lp_Energy>
27.749072

> <b_lp_Chiralities_Consistent>
1

> <s_lp_Variant>
CHEMBL1900_lig173-1

> <s_i_glide_gridfile>
glide-grid_2hv5

> <i_i_glide_lignum>
249

> <i_i_glide_rotatable_bonds>
5

> <r_i_docking_score>
-9.68226628549209

> <r_i_glide_ligand_efficiency>
-0.387290651419684

> <r_i_glide_ligand_efficiency_sa>
-1.1324447333801

> <r_i_glide_ligand_efficiency_ln>
-2.2949872637682

> <r_i_glide_gscore>
-9.68226628549209

> <r_i_glide_lipo>
-4.76767965024332

> <r_i_glide_hbond>
-0.32

> <r_i_glide_metal>
0

> <r_i_glide_rewards>
-2.4966386139048

> <r_i_glide_evdw>
-43.9537010192871

> <r_i_glide_ecoul>
-3.47498631477356

> <r_i_glide_erotb>
0.620984976836421

> <r_i_glide_esite>
0

> <r_i_glide_emodel>
-71.75804419907

> <r_i_glide_energy>
-47.4286873340607

> <r_i_glide_einternal>
3.34566688537598

> <i_i_glide_confnum>
23

> <i_i_glide_posenum>
268

> <r_i_glide_eff_state_penalty>
0

> <s_user_duplicate_titles>
CHEMBL1900_lig173,235981

> <s_m_subgroup_title>
dock_pv

> <s_m_subgroupid>
dock_pv

> <b_m_subgroup_collapsed>
1

$$$$
CHEMBL1900_lig632
                    3D
 Schrodinger Suite 2021-1.
 42 44  0  0  1  0            999 V2000
   15.3900   -4.3645    9.8841 C   0  0  0  0  0  0
   16.5914   -3.6629    9.7808 C   0  0  0  0  0  0
   17.6787   -4.0126   10.5798 C   0  0  0  0  0  0
   15.2570   -5.4013   10.8029 C   0  0  0  0  0  0
   16.3426   -5.7537   11.5956 C   0  0  0  0  0  0
   17.5363   -5.0470   11.5021 C   0  0  0  0  0  0
   18.5882   -5.3150   12.3541 O   0  0  0  0  0  0
   18.4920   -6.1887   13.4279 C   0  0  0  0  0  0
   17.2418   -6.9733   13.5435 C   0  0  0  0  0  0
   16.2608   -6.7655   12.6322 C   0  0  0  0  0  0
   19.4648   -6.2018   14.1808 O   0  0  0  0  0  0
   17.0412   -7.8685   14.6633 C   0  0  0  0  0  0
   15.8584   -7.6891   15.2739 N   0  0  0  0  0  0
   17.8950   -8.6574   15.0678 O   0  0  0  0  0  0
   15.4490   -8.2673   16.5460 C   0  0  0  0  0  0
   16.0409   -7.5237   17.7641 C   0  0  0  0  0  0
   16.2170   -5.9882   17.5851 C   0  0  0  0  0  0
   16.3251   -5.1535   18.8573 C   0  0  0  0  0  0
   16.1450   -3.7684   18.7749 C   0  0  0  0  0  0
   16.0650   -3.0061   19.9378 C   0  0  0  0  0  0
   16.2509   -3.6209   21.1733 C   0  0  0  0  0  0
   16.5450   -4.9745   21.2546 C   0  0  0  0  0  0
   16.5456   -5.7453   20.1004 C   0  0  0  0  0  0
   16.6868   -2.6109    8.9155 O   0  0  0  0  0  0
   16.1178   -2.9150   22.3327 O   0  0  0  0  0  0
   14.5450   -4.1151    9.2653 H   0  0  0  0  0  0
   18.5999   -3.4548   10.5177 H   0  0  0  0  0  0
   14.3117   -5.9169   10.8993 H   0  0  0  0  0  0
   15.3453   -7.3285   12.6777 H   0  0  0  0  0  0
   15.2242   -7.0234   14.8628 H   0  0  0  0  0  0
   15.7143   -9.3265   16.5768 H   0  0  0  0  0  0
   14.3595   -8.2130   16.5801 H   0  0  0  0  0  0
   17.0077   -7.9600   18.0216 H   0  0  0  0  0  0
   15.3791   -7.7378   18.6006 H   0  0  0  0  0  0
   15.3618   -5.6051   17.0267 H   0  0  0  0  0  0
   17.1036   -5.7925   16.9810 H   0  0  0  0  0  0
   15.9912   -3.2980   17.8151 H   0  0  0  0  0  0
   15.8559   -1.9485   19.8784 H   0  0  0  0  0  0
   16.6946   -5.4390   22.2181 H   0  0  0  0  0  0
   16.7121   -6.8077   20.1825 H   0  0  0  0  0  0
   15.8403   -2.4304    8.5007 H   0  0  0  0  0  0
   15.6123   -2.0970   22.2506 H   0  0  0  0  0  0
  1  2  2  0  0  0
  1  4  1  0  0  0
  1 26  1  0  0  0
  2  3  1  0  0  0
  2 24  1  0  0  0
  3  6  2  0  0  0
  3 27  1  0  0  0
  4  5  2  0  0  0
  4 28  1  0  0  0
  5  6  1  0  0  0
  5 10  1  0  0  0
  6  7  1  0  0  0
  7  8  1  0  0  0
  8  9  1  0  0  0
  8 11  2  0  0  0
  9 10  2  0  0  0
  9 12  1  0  0  0
 10 29  1  0  0  0
 12 13  1  0  0  0
 12 14  2  0  0  0
 13 15  1  0  0  0
 13 30  1  0  0  0
 15 16  1  0  0  0
 15 31  1  0  0  0
 15 32  1  0  0  0
 16 17  1  0  0  0
 16 33  1  0  0  0
 16 34  1  0  0  0
 17 18  1  0  0  0
 17 35  1  0  0  0
 17 36  1  0  0  0
 18 19  2  0  0  0
 18 23  1  0  0  0
 19 20  1  0  0  0
 19 37  1  0  0  0
 20 21  2  0  0  0
 20 38  1  0  0  0
 21 22  1  0  0  0
 21 25  1  0  0  0
 22 23  2  0  0  0
 22 39  1  0  0  0
 23 40  1  0  0  0
 24 41  1  0  0  0
 25 42  1  0  0  0
M  END
> <s_m_entry_id>
6317

> <s_m_entry_name>
dock_pv.152

> <s_m_Source_Path>
/home/csk/Desktop/cluster/DUD-E-result/aldr

> <s_m_Source_File>
dock_pv.maegz

> <i_m_Source_File_Index>
152

> <chembl_id>
CHEMBL4081954

> <chembl_pref_name>
None

> <i_lp_mmshare_version>
53161

> <i_f3d_flags>
0

> <r_lp_tautomer_probability>
0.999999999997365

> <s_lp_Force_Field>
OPLS_2005

> <r_lp_Energy>
23.848841

> <b_lp_Chiralities_Consistent>
1

> <s_lp_Variant>
CHEMBL1900_lig632-1

> <s_i_glide_gridfile>
glide-grid_2hv5

> <i_i_glide_lignum>
756

> <i_i_glide_rotatable_bonds>
8

> <r_i_docking_score>
-9.67593494288953

> <r_i_glide_ligand_efficiency>
-0.387037397715581

> <r_i_glide_ligand_efficiency_sa>
-1.13170421505784

> <r_i_glide_ligand_efficiency_ln>
-2.29348654583637

> <r_i_glide_gscore>
-9.67593494288953

> <r_i_glide_lipo>
-5.25622039072845

> <r_i_glide_hbond>
-0.32

> <r_i_glide_metal>
0

> <r_i_glide_rewards>
-2.32107819350643

> <r_i_glide_evdw>
-45.9994316101074

> <r_i_glide_ecoul>
-3.09776711463928

> <r_i_glide_erotb>
0.986000289046615

> <r_i_glide_esite>
0

> <r_i_glide_emodel>
-69.0348943910398

> <r_i_glide_energy>
-49.0971987247467

> <r_i_glide_einternal>
12.1054286956787

> <i_i_glide_confnum>
51

> <i_i_glide_posenum>
191

> <r_i_glide_eff_state_penalty>
0

> <s_user_duplicate_titles>
CHEMBL1900_lig632

> <s_m_subgroup_title>
dock_pv

> <s_m_subgroupid>
dock_pv

> <b_m_subgroup_collapsed>
1

$$$$
CHEMBL1900_lig42
                    3D
 Schrodinger Suite 2021-1.
 41 43  0  0  1  0            999 V2000
   17.7403   -9.7174   15.1647 N   0  0  0  0  0  0
   17.6028   -8.7743   16.1723 N   0  0  0  0  0  0
   17.7720   -6.3043   12.5696 C   0  0  0  0  0  0
   17.1415  -10.9608   15.1576 C   0  0  0  0  0  0
   17.4654   -7.5733   12.7671 N   0  0  0  0  0  0
   16.6839   -8.8795   17.0616 C   0  0  0  0  0  0
   16.0925  -11.0773   16.1866 C   0  0  0  0  0  0
   18.4364   -7.9680   13.5434 C   0  0  0  0  0  0
   15.8525  -10.0764   17.0911 C   0  0  0  0  0  0
   17.0029   -5.4589   11.6032 C   0  0  0  0  0  0
   18.8123   -5.8517   13.2408 N   0  0  0  0  0  0
   18.6795   -9.3600   14.0828 C   0  0  0  0  0  0
   16.6047   -7.7027   18.0258 C   0  0  0  0  0  0
   17.6111   -4.4717   10.8069 C   0  0  0  0  0  0
   19.2947   -6.9820   13.8958 O   0  0  0  0  0  0
   15.8129   -6.5128   17.4579 C   0  0  0  0  0  0
   17.4316  -11.8660   14.3695 O   0  0  0  0  0  0
   16.8621   -3.7345    9.8937 C   0  0  0  0  0  0
   14.9456   -6.5885   16.5886 O   0  0  0  0  0  0
   18.9311   -4.2136   10.8837 F   0  0  0  0  0  0
   15.6241   -5.6737   11.4723 C   0  0  0  0  0  0
   15.3564  -12.4245   16.2037 C   0  0  0  0  0  0
   17.4560   -2.8020    9.1159 F   0  0  0  0  0  0
   16.1763   -5.3559   18.0794 O   0  0  0  0  0  0
   14.7194  -10.1896   18.1109 C   0  0  0  0  0  0
   14.8729   -4.9127   10.5813 C   0  0  0  0  0  0
   15.5013   -3.9612    9.7807 C   0  0  0  0  0  0
   19.6870   -9.3793   14.4890 H   0  0  0  0  0  0
   18.6849  -10.0684   13.2521 H   0  0  0  0  0  0
   17.6153   -7.3734   18.2771 H   0  0  0  0  0  0
   16.1582   -7.9994   18.9731 H   0  0  0  0  0  0
   15.1236   -6.4159   12.0763 H   0  0  0  0  0  0
   14.8089  -12.6032   17.1288 H   0  0  0  0  0  0
   14.6462  -12.4947   15.3818 H   0  0  0  0  0  0
   16.0581  -13.2569   16.1092 H   0  0  0  0  0  0
   16.9174   -5.4767   18.6761 H   0  0  0  0  0  0
   13.8497  -10.6968   17.6976 H   0  0  0  0  0  0
   15.0485  -10.7514   18.9830 H   0  0  0  0  0  0
   14.3597   -9.2181   18.4449 H   0  0  0  0  0  0
   13.8051   -5.0661   10.5067 H   0  0  0  0  0  0
   14.9451   -3.3772    9.0641 H   0  0  0  0  0  0
  1  2  1  0  0  0
  1  4  1  0  0  0
  1 12  1  0  0  0
  2  6  2  0  0  0
  3  5  1  0  0  0
  3 10  1  0  0  0
  3 11  2  0  0  0
  4  7  1  0  0  0
  4 17  2  0  0  0
  5  8  2  0  0  0
  6 13  1  0  0  0
  6  9  1  0  0  0
  7  9  2  0  0  0
  7 22  1  0  0  0
  8 12  1  0  0  0
  8 15  1  0  0  0
  9 25  1  0  0  0
 10 14  1  0  0  0
 10 21  2  0  0  0
 11 15  1  0  0  0
 12 28  1  0  0  0
 12 29  1  0  0  0
 13 16  1  0  0  0
 13 30  1  0  0  0
 13 31  1  0  0  0
 14 18  2  0  0  0
 14 20  1  0  0  0
 16 19  2  0  0  0
 16 24  1  0  0  0
 18 23  1  0  0  0
 18 27  1  0  0  0
 21 26  1  0  0  0
 21 32  1  0  0  0
 22 33  1  0  0  0
 22 34  1  0  0  0
 22 35  1  0  0  0
 24 36  1  0  0  0
 25 37  1  0  0  0
 25 38  1  0  0  0
 25 39  1  0  0  0
 26 27  2  0  0  0
 26 40  1  0  0  0
 27 41  1  0  0  0
M  END
> <s_m_entry_id>
6318

> <s_m_entry_name>
dock_pv.153

> <s_m_Source_Path>
/home/csk/Desktop/cluster/DUD-E-result/aldr

> <s_m_Source_File>
dock_pv.maegz

> <i_m_Source_File_Index>
153

> <chembl_id>
CHEMBL71966

> <chembl_pref_name>
None

> <i_lp_mmshare_version>
53161

> <i_f3d_flags>
0

> <r_lp_tautomer_probability>
1

> <s_lp_Force_Field>
OPLS_2005

> <r_lp_Energy>
31.091723

> <b_lp_Chiralities_Consistent>
1

> <s_lp_Variant>
CHEMBL1900_lig42-1

> <s_i_glide_gridfile>
glide-grid_2hv5

> <i_i_glide_lignum>
77

> <i_i_glide_rotatable_bonds>
6

> <r_i_docking_score>
-9.66673831566767

> <r_i_glide_ligand_efficiency>
-0.358027345024728

> <r_i_glide_ligand_efficiency_sa>
-1.07408203389419

> <r_i_glide_ligand_efficiency_ln>
-2.25025731125096

> <r_i_glide_gscore>
-9.66673831566767

> <r_i_glide_lipo>
-3.61158173156438

> <r_i_glide_hbond>
-0.32

> <r_i_glide_metal>
0

> <r_i_glide_rewards>
-3.33509419409609

> <r_i_glide_evdw>
-44.6824226379395

> <r_i_glide_ecoul>
-5.66245174407959

> <r_i_glide_erotb>
0.683426503501715

> <r_i_glide_esite>
0

> <r_i_glide_emodel>
-74.5446060655873

> <r_i_glide_energy>
-50.344874382019

> <r_i_glide_einternal>
6.32548570632935

> <i_i_glide_confnum>
69

> <i_i_glide_posenum>
241

> <r_i_glide_eff_state_penalty>
0

> <s_user_duplicate_titles>
CHEMBL1900_lig42,108802

> <s_m_subgroup_title>
dock_pv

> <s_m_subgroupid>
dock_pv

> <b_m_subgroup_collapsed>
1

$$$$
CHEMBL1900_lig666 
                    3D
 Schrodinger Suite 2021-1.
 36 38  0  0  1  0            999 V2000
   15.2019  -10.9707   17.5185 C   0  0  0  0  0  0
   15.8940  -11.7175   16.5685 C   0  0  0  0  0  0
   16.7229  -11.0826   15.6450 C   0  0  0  0  0  0
   15.3364   -9.5837   17.5518 C   0  0  0  0  0  0
   16.1457   -8.9297   16.6130 C   0  0  0  0  0  0
   16.8568   -9.6884   15.6595 C   0  0  0  0  0  0
   17.7500   -9.0243   14.6140 C   0  0  0  0  0  0
   17.7881   -7.6505   14.7624 N   0  0  0  0  0  0
   17.1445   -6.9150   15.7509 N   0  0  0  0  0  0
   16.3359   -7.4721   16.5697 C   0  0  0  0  0  0
   15.5817   -6.5152   17.5033 C   0  0  0  0  0  0
   16.3389   -6.0990   18.7779 C   0  0  0  0  0  0
   15.7452   -5.7159   19.7814 O   0  0  0  0  0  0
   17.6944   -6.1160   18.6595 O   0  0  0  0  0  0
   18.3465   -9.6407   13.7260 O   0  0  0  0  0  0
   18.4620   -6.8412   13.7181 C   0  0  0  0  0  0
   17.5714   -6.2231   12.6287 C   0  0  0  0  0  0
   16.2077   -6.5155   12.5090 C   0  0  0  0  0  0
   15.4360   -5.9270   11.5039 C   0  0  0  0  0  0
   16.0097   -5.0229   10.6168 C   0  0  0  0  0  0
   17.3620   -4.7154   10.7278 C   0  0  0  0  0  0
   18.1330   -5.3149   11.7266 C   0  0  0  0  0  0
   18.1515   -3.4742    9.5232 Br  0  0  0  0  0  0
   14.1302   -6.2414   11.3812 F   0  0  0  0  0  0
   14.5585  -11.4675   18.2309 H   0  0  0  0  0  0
   15.7863  -12.7927   16.5462 H   0  0  0  0  0  0
   17.2501  -11.6802   14.9124 H   0  0  0  0  0  0
   14.7951   -9.0399   18.3133 H   0  0  0  0  0  0
   15.3451   -5.5914   16.9805 H   0  0  0  0  0  0
   14.6116   -6.9232   17.7842 H   0  0  0  0  0  0
   17.9684   -6.3615   17.7724 H   0  0  0  0  0  0
   18.9806   -6.0224   14.2229 H   0  0  0  0  0  0
   19.2629   -7.3983   13.2265 H   0  0  0  0  0  0
   15.7449   -7.2129   13.1861 H   0  0  0  0  0  0
   15.4064   -4.5676    9.8465 H   0  0  0  0  0  0
   19.1749   -5.0678   11.7990 H   0  0  0  0  0  0
  1  2  2  0  0  0
  1  4  1  0  0  0
  1 25  1  0  0  0
  2  3  1  0  0  0
  2 26  1  0  0  0
  3  6  2  0  0  0
  3 27  1  0  0  0
  4  5  2  0  0  0
  4 28  1  0  0  0
  5  6  1  0  0  0
  5 10  1  0  0  0
  6  7  1  0  0  0
  7  8  1  0  0  0
  7 15  2  0  0  0
  8  9  1  0  0  0
  8 16  1  0  0  0
  9 10  2  0  0  0
 10 11  1  0  0  0
 11 12  1  0  0  0
 11 29  1  0  0  0
 11 30  1  0  0  0
 12 13  2  0  0  0
 12 14  1  0  0  0
 14 31  1  0  0  0
 16 17  1  0  0  0
 16 32  1  0  0  0
 16 33  1  0  0  0
 17 18  2  0  0  0
 17 22  1  0  0  0
 18 19  1  0  0  0
 18 34  1  0  0  0
 19 20  2  0  0  0
 19 24  1  0  0  0
 20 21  1  0  0  0
 20 35  1  0  0  0
 21 22  2  0  0  0
 21 23  1  0  0  0
 22 36  1  0  0  0
M  END
> <s_m_entry_id>
6319

> <s_m_entry_name>
dock_pv.154

> <s_m_Source_Path>
/home/csk/Desktop/cluster/DUD-E-result/aldr

> <s_m_Source_File>
dock_pv.maegz

> <i_m_Source_File_Index>
154

> <chembl_id>
CHEMBL4436968

> <chembl_pref_name>
None

> <i_lp_mmshare_version>
53161

> <i_f3d_flags>
0

> <r_lp_tautomer_probability>
1

> <s_lp_Force_Field>
OPLS_2005

> <r_lp_Energy>
28.361774

> <b_lp_Chiralities_Consistent>
1

> <s_lp_Variant>
CHEMBL1900_lig666 -1

> <s_i_glide_gridfile>
glide-grid_2hv5

> <i_i_glide_lignum>
792

> <i_i_glide_rotatable_bonds>
5

> <r_i_docking_score>
-9.66521390783577

> <r_i_glide_ligand_efficiency>
-0.402717246159824

> <r_i_glide_ligand_efficiency_sa>
-1.16163754922819

> <r_i_glide_ligand_efficiency_ln>
-2.31332919591198

> <r_i_glide_gscore>
-9.66521390783577

> <r_i_glide_lipo>
-4.62022771636396

> <r_i_glide_hbond>
-0.32

> <r_i_glide_metal>
0

> <r_i_glide_rewards>
-2.62416052996157

> <r_i_glide_evdw>
-46.1618537902832

> <r_i_glide_ecoul>
-2.01834726333618

> <r_i_glide_erotb>
0.510019117504354

> <r_i_glide_esite>
0

> <r_i_glide_emodel>
-73.5110555438676

> <r_i_glide_energy>
-48.1802010536194

> <r_i_glide_einternal>
4.86154699325562

> <i_i_glide_confnum>
13

> <i_i_glide_posenum>
107

> <r_i_glide_eff_state_penalty>
0

> <s_user_duplicate_titles>
CHEMBL1900_lig666 

> <s_m_subgroup_title>
dock_pv

> <s_m_subgroupid>
dock_pv

> <b_m_subgroup_collapsed>
1

$$$$
CHEMBL1900_lig171
                    3D
 Schrodinger Suite 2021-1.
 41 44  0  0  1  0            999 V2000
   17.5084   -9.8605   14.9879 N   0  0  0  0  0  0
   17.2203   -8.8196   15.8726 N   0  0  0  0  0  0
   17.8211   -6.1556   12.4265 C   0  0  0  0  0  0
   17.5145   -7.4389   12.5270 N   0  0  0  0  0  0
   17.2649  -11.2025   15.2074 C   0  0  0  0  0  0
   16.5199   -9.0257   16.9202 C   0  0  0  0  0  0
   18.2775   -8.0375   13.4016 C   0  0  0  0  0  0
   18.7511   -5.6652   13.2241 N   0  0  0  0  0  0
   18.2126   -9.5216   13.7285 C   0  0  0  0  0  0
   16.3512  -11.4180   16.4049 C   0  0  0  0  0  0
   17.1982   -5.2713   11.3800 C   0  0  0  0  0  0
   19.3443   -6.9332   14.1817 S   0  0  0  0  0  0
   15.9245  -10.3381   17.2064 C   0  0  0  0  0  0
   16.5084   -7.8876   17.9478 C   0  0  0  0  0  0
   15.7833   -6.6125   17.4809 C   0  0  0  0  0  0
   17.7085  -12.1157   14.5040 O   0  0  0  0  0  0
   15.8401   -5.3164   11.0180 C   0  0  0  0  0  0
   14.9457   -6.5635   16.5809 O   0  0  0  0  0  0
   14.7125   -6.3743   11.7803 Cl  0  0  0  0  0  0
   16.1490   -5.5482   18.2491 O   0  0  0  0  0  0
   18.0214   -4.3377   10.7281 C   0  0  0  0  0  0
   15.9057  -12.7148   16.6849 C   0  0  0  0  0  0
   14.9456  -10.5551   18.1807 C   0  0  0  0  0  0
   15.3446   -4.4630   10.0344 C   0  0  0  0  0  0
   17.5174   -3.4763    9.7549 C   0  0  0  0  0  0
   14.9930  -12.9276   17.7155 C   0  0  0  0  0  0
   14.5141  -11.8505   18.4545 C   0  0  0  0  0  0
   16.1720   -3.5394    9.4055 C   0  0  0  0  0  0
   19.2344   -9.8995   13.7956 H   0  0  0  0  0  0
   17.7503  -10.0565   12.8944 H   0  0  0  0  0  0
   16.0690   -8.2016   18.8931 H   0  0  0  0  0  0
   17.5405   -7.6314   18.1861 H   0  0  0  0  0  0
   16.8467   -5.7714   18.8661 H   0  0  0  0  0  0
   19.0664   -4.2684   10.9803 H   0  0  0  0  0  0
   16.2406  -13.5556   16.0908 H   0  0  0  0  0  0
   14.5425   -9.7425   18.7665 H   0  0  0  0  0  0
   14.2981   -4.5138    9.7719 H   0  0  0  0  0  0
   18.1678   -2.7615    9.2729 H   0  0  0  0  0  0
   14.6319  -13.9235   17.9241 H   0  0  0  0  0  0
   13.7770  -12.0174   19.2270 H   0  0  0  0  0  0
   15.7671   -2.8772    8.6562 H   0  0  0  0  0  0
  1  2  1  0  0  0
  1  5  1  0  0  0
  1  9  1  0  0  0
  2  6  2  0  0  0
  3  4  1  0  0  0
  3 11  1  0  0  0
  3  8  2  0  0  0
  4  7  2  0  0  0
  5 10  1  0  0  0
  5 16  2  0  0  0
  6 14  1  0  0  0
  6 13  1  0  0  0
  7  9  1  0  0  0
  7 12  1  0  0  0
  8 12  1  0  0  0
  9 29  1  0  0  0
  9 30  1  0  0  0
 10 13  2  0  0  0
 10 22  1  0  0  0
 11 17  2  0  0  0
 11 21  1  0  0  0
 13 23  1  0  0  0
 14 15  1  0  0  0
 14 31  1  0  0  0
 14 32  1  0  0  0
 15 18  2  0  0  0
 15 20  1  0  0  0
 17 19  1  0  0  0
 17 24  1  0  0  0
 20 33  1  0  0  0
 21 25  2  0  0  0
 21 34  1  0  0  0
 22 26  2  0  0  0
 22 35  1  0  0  0
 23 27  2  0  0  0
 23 36  1  0  0  0
 24 28  2  0  0  0
 24 37  1  0  0  0
 25 28  1  0  0  0
 25 38  1  0  0  0
 26 27  1  0  0  0
 26 39  1  0  0  0
 27 40  1  0  0  0
 28 41  1  0  0  0
M  END
> <s_m_entry_id>
6320

> <s_m_entry_name>
dock_pv.155

> <s_m_Source_Path>
/home/csk/Desktop/cluster/DUD-E-result/aldr

> <s_m_Source_File>
dock_pv.maegz

> <i_m_Source_File_Index>
155

> <chembl_id>
CHEMBL342887

> <chembl_pref_name>
None

> <i_lp_mmshare_version>
53161

> <i_f3d_flags>
0

> <r_lp_tautomer_probability>
1

> <s_lp_Force_Field>
OPLS_2005

> <r_lp_Energy>
33.309448

> <b_lp_Chiralities_Consistent>
1

> <s_lp_Variant>
CHEMBL1900_lig171-1

> <s_i_glide_gridfile>
glide-grid_2hv5

> <i_i_glide_lignum>
247

> <i_i_glide_rotatable_bonds>
6

> <r_i_docking_score>
-9.64684345123193

> <r_i_glide_ligand_efficiency>
-0.344530123258283

> <r_i_glide_ligand_efficiency_sa>
-1.04619637160302

> <r_i_glide_ligand_efficiency_ln>
-2.22677471217576

> <r_i_glide_gscore>
-9.64684345123193

> <r_i_glide_lipo>
-4.05127106745585

> <r_i_glide_hbond>
-0.32

> <r_i_glide_metal>
0

> <r_i_glide_rewards>
-2.54263376614547

> <r_i_glide_evdw>
-52.6978416442871

> <r_i_glide_ecoul>
-4.51075124740601

> <r_i_glide_erotb>
0.578566151694646

> <r_i_glide_esite>
0

> <r_i_glide_emodel>
-83.9266524337804

> <r_i_glide_energy>
-57.2085928916931

> <r_i_glide_einternal>
4.68085622787476

> <i_i_glide_confnum>
79

> <i_i_glide_posenum>
127

> <r_i_glide_eff_state_penalty>
0

> <s_user_duplicate_titles>
CHEMBL1900_lig171

> <s_m_subgroup_title>
dock_pv

> <s_m_subgroupid>
dock_pv

> <b_m_subgroup_collapsed>
1

$$$$
CHEMBL1900_lig308
                    3D
 Schrodinger Suite 2021-1.
 38 41  0  0  1  0            999 V2000
   18.0614   -7.6911   14.9206 N   0  0  0  0  0  0
   17.4279   -6.9243   15.8931 N   0  0  0  0  0  0
   17.9000   -9.0492   14.7080 C   0  0  0  0  0  0
   16.5228   -7.4360   16.6353 C   0  0  0  0  0  0
   18.0057   -6.2154   12.8876 C   0  0  0  0  0  0
   16.9404   -9.6698   15.7160 C   0  0  0  0  0  0
   18.5446   -5.3156   12.1179 N   0  0  0  0  0  0
   16.2609   -8.8802   16.6675 C   0  0  0  0  0  0
   18.8502   -6.9101   13.9495 C   0  0  0  0  0  0
   16.3020   -6.5148   12.5712 S   0  0  0  0  0  0
   15.7253   -6.4428   17.4867 C   0  0  0  0  0  0
   17.6839   -4.8087   11.2050 C   0  0  0  0  0  0
   16.3664   -5.3142   11.2898 C   0  0  0  0  0  0
   16.3883   -6.0640   18.8191 C   0  0  0  0  0  0
   16.7376  -11.0555   15.6910 C   0  0  0  0  0  0
   18.4496   -9.6828   13.8015 O   0  0  0  0  0  0
   15.4674   -9.5006   17.6396 C   0  0  0  0  0  0
   15.7349   -5.6930   19.7832 O   0  0  0  0  0  0
   15.3009  -10.8835   17.6257 C   0  0  0  0  0  0
   15.9176  -11.6587   16.6448 C   0  0  0  0  0  0
   17.7450   -6.1151   18.8037 O   0  0  0  0  0  0
   14.2663  -11.7164   18.9810 Br  0  0  0  0  0  0
   18.0186   -3.8424   10.2415 C   0  0  0  0  0  0
   15.3617   -4.8411   10.4399 C   0  0  0  0  0  0
   15.7183   -3.8860    9.4868 C   0  0  0  0  0  0
   17.0168   -3.3930    9.3819 C   0  0  0  0  0  0
   19.4629   -6.1938   14.5005 H   0  0  0  0  0  0
   19.5945   -7.5304   13.4451 H   0  0  0  0  0  0
   15.5796   -5.5111   16.9422 H   0  0  0  0  0  0
   14.7222   -6.8195   17.6871 H   0  0  0  0  0  0
   17.2292  -11.6731   14.9522 H   0  0  0  0  0  0
   14.9860   -8.9335   18.4228 H   0  0  0  0  0  0
   15.7768  -12.7297   16.6378 H   0  0  0  0  0  0
   18.0783   -6.3463   17.9314 H   0  0  0  0  0  0
   19.0183   -3.4450   10.1764 H   0  0  0  0  0  0
   14.3452   -5.1998   10.5208 H   0  0  0  0  0  0
   14.9532   -3.5165    8.8181 H   0  0  0  0  0  0
   17.2439   -2.6463    8.6336 H   0  0  0  0  0  0
  1  2  1  0  0  0
  1  3  1  0  0  0
  1  9  1  0  0  0
  2  4  2  0  0  0
  3  6  1  0  0  0
  3 16  2  0  0  0
  4 11  1  0  0  0
  4  8  1  0  0  0
  5  9  1  0  0  0
  5  7  2  0  0  0
  5 10  1  0  0  0
  6  8  1  0  0  0
  6 15  2  0  0  0
  7 12  1  0  0  0
  8 17  2  0  0  0
  9 27  1  0  0  0
  9 28  1  0  0  0
 10 13  1  0  0  0
 11 14  1  0  0  0
 11 29  1  0  0  0
 11 30  1  0  0  0
 12 23  1  0  0  0
 12 13  2  0  0  0
 13 24  1  0  0  0
 14 18  2  0  0  0
 14 21  1  0  0  0
 15 20  1  0  0  0
 15 31  1  0  0  0
 17 19  1  0  0  0
 17 32  1  0  0  0
 19 20  2  0  0  0
 19 22  1  0  0  0
 20 33  1  0  0  0
 21 34  1  0  0  0
 23 26  2  0  0  0
 23 35  1  0  0  0
 24 25  2  0  0  0
 24 36  1  0  0  0
 25 26  1  0  0  0
 25 37  1  0  0  0
 26 38  1  0  0  0
M  END
> <s_m_entry_id>
6321

> <s_m_entry_name>
dock_pv.156

> <s_m_Source_Path>
/home/csk/Desktop/cluster/DUD-E-result/aldr

> <s_m_Source_File>
dock_pv.maegz

> <i_m_Source_File_Index>
156

> <chembl_id>
CHEMBL416370

> <chembl_pref_name>
None

> <i_lp_mmshare_version>
53161

> <i_f3d_flags>
0

> <r_lp_tautomer_probability>
1

> <s_lp_Force_Field>
OPLS_2005

> <r_lp_Energy>
25.65634

> <b_lp_Chiralities_Consistent>
1

> <s_lp_Variant>
CHEMBL1900_lig308-1

> <s_i_glide_gridfile>
glide-grid_2hv5

> <i_i_glide_lignum>
424

> <i_i_glide_rotatable_bonds>
5

> <r_i_docking_score>
-9.64519233919636

> <r_i_glide_ligand_efficiency>
-0.370968936122937

> <r_i_glide_ligand_efficiency_sa>
-1.09899401357192

> <r_i_glide_ligand_efficiency_ln>
-2.26514177240284

> <r_i_glide_gscore>
-9.64519233919636

> <r_i_glide_lipo>
-4.65407308624668

> <r_i_glide_hbond>
-0.32

> <r_i_glide_metal>
0

> <r_i_glide_rewards>
-2.1261177941218

> <r_i_glide_evdw>
-50.978084564209

> <r_i_glide_ecoul>
-2.83740377426147

> <r_i_glide_erotb>
0.429513335521797

> <r_i_glide_esite>
0

> <r_i_glide_emodel>
-79.9666972251686

> <r_i_glide_energy>
-53.8154883384705

> <r_i_glide_einternal>
4.90295219421387

> <i_i_glide_confnum>
44

> <i_i_glide_posenum>
303

> <r_i_glide_eff_state_penalty>
0

> <s_user_duplicate_titles>
CHEMBL1900_lig308,24330

> <s_m_subgroup_title>
dock_pv

> <s_m_subgroupid>
dock_pv

> <b_m_subgroup_collapsed>
1

$$$$
CHEMBL1900_lig404
                    3D
 Schrodinger Suite 2021-1.
 47 51  0  0  1  0            999 V2000
   17.6931   -4.7289   11.2034 C   0  0  0  0  0  0
   17.6869   -7.6118   16.7362 N   0  0  0  0  0  0
   16.3383   -5.1240   11.2921 C   0  0  0  0  0  0
   18.5445   -5.4759   11.9337 N   0  0  0  0  0  0
   18.2570   -7.8560   14.5680 C   0  0  0  0  0  0
   17.4008   -8.9326   16.4107 C   0  0  0  0  0  0
   17.9569   -6.4692   12.5356 C   0  0  0  0  0  0
   18.1477   -6.9743   15.6170 C   0  0  0  0  0  0
   18.0624   -3.6461   10.3870 C   0  0  0  0  0  0
   16.2183   -6.4932   12.3846 S   0  0  0  0  0  0
   17.8205   -9.1257   15.0711 C   0  0  0  0  0  0
   15.3451   -4.4718   10.5655 C   0  0  0  0  0  0
   17.0479   -2.9673    9.7132 C   0  0  0  0  0  0
   16.8331   -9.9569   17.1539 C   0  0  0  0  0  0
   15.7198   -3.3858    9.7775 C   0  0  0  0  0  0
   18.7595   -7.5689   13.1942 C   0  0  0  0  0  0
   17.4890   -6.9727   18.0302 C   0  0  0  0  0  0
   16.7165  -11.2245   16.5609 C   0  0  0  0  0  0
   17.7326  -10.4126   14.5104 C   0  0  0  0  0  0
   16.2737   -6.0520   18.1773 C   0  0  0  0  0  0
   17.1740  -11.4448   15.2597 C   0  0  0  0  0  0
   16.1422   -5.3337   19.1585 O   0  0  0  0  0  0
   16.0481  -12.2951   17.3235 C   0  0  0  0  0  0
   19.3598   -3.2398   10.2741 F   0  0  0  0  0  0
   14.0525   -4.8486   10.6501 F   0  0  0  0  0  0
   17.3629   -1.9003    8.9682 F   0  0  0  0  0  0
   15.4039   -6.1195   17.1366 O   0  0  0  0  0  0
   16.5953  -12.7701   18.5192 C   0  0  0  0  0  0
   14.8160  -12.7898   16.8859 C   0  0  0  0  0  0
   14.0957  -13.6533   17.6983 C   0  0  0  0  0  0
   15.8558  -13.5997   19.3650 C   0  0  0  0  0  0
   14.5795  -13.9932   18.9586 C   0  0  0  0  0  0
   18.4300   -5.9434   15.6466 H   0  0  0  0  0  0
   16.4749   -9.7778   18.1520 H   0  0  0  0  0  0
   14.9449   -2.8523    9.2389 H   0  0  0  0  0  0
   19.8092   -7.2802   13.2414 H   0  0  0  0  0  0
   18.7012   -8.4550   12.5533 H   0  0  0  0  0  0
   17.4379   -7.7234   18.8024 H   0  0  0  0  0  0
   18.3750   -6.3821   18.2418 H   0  0  0  0  0  0
   18.0470  -10.5964   13.4937 H   0  0  0  0  0  0
   17.0451  -12.4248   14.8036 H   0  0  0  0  0  0
   15.6696   -6.8234   16.5399 H   0  0  0  0  0  0
   17.5840  -12.4553   18.8189 H   0  0  0  0  0  0
   14.3856  -12.4543   15.9542 H   0  0  0  0  0  0
   13.1222  -14.0005   17.3811 H   0  0  0  0  0  0
   16.2419  -13.8952   20.3308 H   0  0  0  0  0  0
   13.9531  -14.5573   19.6390 H   0  0  0  0  0  0
  1  3  2  0  0  0
  1  4  1  0  0  0
  1  9  1  0  0  0
  2  8  1  0  0  0
  2 17  1  0  0  0
  2  6  1  0  0  0
  3 10  1  0  0  0
  3 12  1  0  0  0
  4  7  2  0  0  0
  5 16  1  0  0  0
  5  8  2  0  0  0
  5 11  1  0  0  0
  6 11  2  0  0  0
  6 14  1  0  0  0
  7 16  1  0  0  0
  7 10  1  0  0  0
  8 33  1  0  0  0
  9 13  2  0  0  0
  9 24  1  0  0  0
 11 19  1  0  0  0
 12 25  1  0  0  0
 12 15  2  0  0  0
 13 15  1  0  0  0
 13 26  1  0  0  0
 14 18  2  0  0  0
 14 34  1  0  0  0
 15 35  1  0  0  0
 16 36  1  0  0  0
 16 37  1  0  0  0
 17 20  1  0  0  0
 17 38  1  0  0  0
 17 39  1  0  0  0
 18 21  1  0  0  0
 18 23  1  0  0  0
 19 21  2  0  0  0
 19 40  1  0  0  0
 20 22  2  0  0  0
 20 27  1  0  0  0
 21 41  1  0  0  0
 23 28  2  0  0  0
 23 29  1  0  0  0
 27 42  1  0  0  0
 28 31  1  0  0  0
 28 43  1  0  0  0
 29 30  2  0  0  0
 29 44  1  0  0  0
 30 32  1  0  0  0
 30 45  1  0  0  0
 31 32  2  0  0  0
 31 46  1  0  0  0
 32 47  1  0  0  0
M  END
> <s_m_entry_id>
6322

> <s_m_entry_name>
dock_pv.157

> <s_m_Source_Path>
/home/csk/Desktop/cluster/DUD-E-result/aldr

> <s_m_Source_File>
dock_pv.maegz

> <i_m_Source_File_Index>
157

> <chembl_id>
CHEMBL195065

> <chembl_pref_name>
None

> <i_lp_mmshare_version>
53161

> <i_f3d_flags>
0

> <r_lp_tautomer_probability>
1

> <s_lp_Force_Field>
OPLS_2005

> <r_lp_Energy>
18.268281

> <b_lp_Chiralities_Consistent>
1

> <s_lp_Variant>
CHEMBL1900_lig404-1

> <s_i_glide_gridfile>
glide-grid_2hv5

> <i_i_glide_lignum>
525

> <i_i_glide_rotatable_bonds>
6

> <r_i_docking_score>
-9.64398837522635

> <r_i_glide_ligand_efficiency>
-0.301374636725823

> <r_i_glide_ligand_efficiency_sa>
-0.956804829644868

> <r_i_glide_ligand_efficiency_ln>
-2.1595518824076

> <r_i_glide_gscore>
-9.64398837522635

> <r_i_glide_lipo>
-4.4036258746152

> <r_i_glide_hbond>
0

> <r_i_glide_metal>
0

> <r_i_glide_rewards>
-2.57211051657403

> <r_i_glide_evdw>
-41.2061805725098

> <r_i_glide_ecoul>
-7.32020378112793

> <r_i_glide_erotb>
0.490087611757566

> <r_i_glide_esite>
0

> <r_i_glide_emodel>
-46.9044480426766

> <r_i_glide_energy>
-48.5263843536377

> <r_i_glide_einternal>
4.18924283981323

> <i_i_glide_confnum>
10

> <i_i_glide_posenum>
160

> <r_i_glide_eff_state_penalty>
0

> <s_user_duplicate_titles>
CHEMBL1900_lig404,321383

> <s_m_subgroup_title>
dock_pv

> <s_m_subgroupid>
dock_pv

> <b_m_subgroup_collapsed>
1

$$$$
CHEMBL1900_lig492
                    3D
 Schrodinger Suite 2021-1.
 42 43  0  0  1  0            999 V2000
   17.7791   -4.1166   10.4682 C   0  0  0  0  0  0
   16.6232   -3.8358    9.7353 C   0  0  0  0  0  0
   15.4335   -4.4867   10.0451 C   0  0  0  0  0  0
   15.3765   -5.3768   11.1131 C   0  0  0  0  0  0
   16.5158   -5.6334   11.8818 C   0  0  0  0  0  0
   17.7295   -5.0279   11.5247 C   0  0  0  0  0  0
   18.9455   -3.4586   10.1812 O   0  0  0  0  0  0
   16.6357   -2.9137    8.7200 O   0  0  0  0  0  0
   16.3635   -6.4398   13.1042 C   0  0  0  0  0  0
   17.3456   -7.0179   13.8266 C   0  0  0  0  0  0
   17.0904   -7.7033   15.0856 C   0  0  0  0  0  0
   16.0220   -7.1898   15.7832 O   0  0  0  0  0  0
   17.7936   -8.6358   15.4721 O   0  0  0  0  0  0
   15.5770   -7.6705   17.0697 C   0  0  2  0  0  0
   16.6266   -7.4116   18.1965 C   0  0  0  0  0  0
   15.0111   -9.1185   17.0143 C   0  0  0  0  0  0
   14.5450   -9.4710   15.7831 O   0  0  0  0  0  0
   14.9452   -9.8568   17.9942 O   0  0  0  0  0  0
   16.4932   -6.0608   18.8968 C   0  0  0  0  0  0
   16.3386   -4.8694   18.1839 C   0  0  0  0  0  0
   16.1450   -3.6633   18.8638 C   0  0  0  0  0  0
   16.1251   -3.6399   20.2606 C   0  0  0  0  0  0
   16.3790   -4.8022   20.9725 C   0  0  0  0  0  0
   16.5063   -6.0062   20.2894 C   0  0  0  0  0  0
   15.8542   -2.5163   18.1819 O   0  0  0  0  0  0
   15.7464   -2.5101   20.9355 O   0  0  0  0  0  0
   14.5449   -4.2832    9.4726 H   0  0  0  0  0  0
   14.4272   -5.8296   11.3643 H   0  0  0  0  0  0
   18.6209   -5.1968   12.1093 H   0  0  0  0  0  0
   18.7689   -2.7719    9.5313 H   0  0  0  0  0  0
   15.7572   -2.7645    8.3599 H   0  0  0  0  0  0
   15.3452   -6.5145   13.4602 H   0  0  0  0  0  0
   18.3763   -6.9921   13.5071 H   0  0  0  0  0  0
   14.6959   -7.0758   17.3113 H   0  0  0  0  0  0
   16.5449   -8.1828   18.9634 H   0  0  0  0  0  0
   17.6477   -7.5012   17.8254 H   0  0  0  0  0  0
   14.1883  -10.3606   15.8116 H   0  0  0  0  0  0
   16.2703   -4.8992   17.1106 H   0  0  0  0  0  0
   16.3501   -4.8000   22.0527 H   0  0  0  0  0  0
   16.5450   -6.9149   20.8649 H   0  0  0  0  0  0
   15.6481   -1.8383   18.8362 H   0  0  0  0  0  0
   15.6525   -2.6093   21.8871 H   0  0  0  0  0  0
  1  2  2  0  0  0
  1  7  1  0  0  0
  1  6  1  0  0  0
  2  8  1  0  0  0
  2  3  1  0  0  0
  3  4  2  0  0  0
  3 27  1  0  0  0
  4  5  1  0  0  0
  4 28  1  0  0  0
  5  9  1  0  0  0
  5  6  2  0  0  0
  6 29  1  0  0  0
  7 30  1  0  0  0
  8 31  1  0  0  0
  9 10  2  0  0  0
  9 32  1  0  0  0
 10 11  1  0  0  0
 10 33  1  0  0  0
 11 13  2  0  0  0
 11 12  1  0  0  0
 12 14  1  0  0  0
 14 15  1  0  0  0
 14 16  1  0  0  0
 14 34  1  0  0  0
 15 19  1  0  0  0
 15 35  1  0  0  0
 15 36  1  0  0  0
 16 17  1  0  0  0
 16 18  2  0  0  0
 17 37  1  0  0  0
 19 20  2  0  0  0
 19 24  1  0  0  0
 20 21  1  0  0  0
 20 38  1  0  0  0
 21 22  2  0  0  0
 21 25  1  0  0  0
 22 23  1  0  0  0
 22 26  1  0  0  0
 23 24  2  0  0  0
 23 39  1  0  0  0
 24 40  1  0  0  0
 25 41  1  0  0  0
 26 42  1  0  0  0
M  END
> <s_m_entry_id>
6323

> <s_m_entry_name>
dock_pv.158

> <s_m_Source_Path>
/home/csk/Desktop/cluster/DUD-E-result/aldr

> <s_m_Source_File>
dock_pv.maegz

> <i_m_Source_File_Index>
158

> <chembl_id>
CHEMBL324842

> <chembl_pref_name>
ROSMARINIC ACID

> <i_lp_mmshare_version>
53161

> <i_f3d_flags>
0

> <r_lp_tautomer_probability>
0.999999999999776

> <s_lp_Force_Field>
OPLS_2005

> <r_lp_Energy>
9.676802

> <b_lp_Chiralities_Consistent>
1

> <s_lp_Variant>
CHEMBL1900_lig492-1

> <s_i_glide_gridfile>
glide-grid_2hv5

> <i_i_glide_lignum>
615

> <i_i_glide_rotatable_bonds>
12

> <r_i_docking_score>
-9.63326363730531

> <r_i_glide_ligand_efficiency>
-0.370510139896358

> <r_i_glide_ligand_efficiency_sa>
-1.09763483155596

> <r_i_glide_ligand_efficiency_ln>
-2.26234035590499

> <r_i_glide_gscore>
-9.63326363730531

> <r_i_glide_lipo>
-4.5912806259707

> <r_i_glide_hbond>
0

> <r_i_glide_metal>
0

> <r_i_glide_rewards>
-2.64952734910062

> <r_i_glide_evdw>
-46.8826293945312

> <r_i_glide_ecoul>
-7.21559715270996

> <r_i_glide_erotb>
1.03401538039908

> <r_i_glide_esite>
0

> <r_i_glide_emodel>
-78.7045237101522

> <r_i_glide_energy>
-54.0982265472412

> <r_i_glide_einternal>
14.6104040145874

> <i_i_glide_confnum>
203

> <i_i_glide_posenum>
394

> <r_i_glide_eff_state_penalty>
0

> <s_user_duplicate_titles>
CHEMBL1900_lig492

> <s_m_subgroup_title>
dock_pv

> <s_m_subgroupid>
dock_pv

> <b_m_subgroup_collapsed>
1

$$$$
CHEMBL1900_lig156
                    3D
 Schrodinger Suite 2021-1.
 38 41  0  0  1  0            999 V2000
   17.8893   -8.2199   15.3159 N   0  0  0  0  0  0
   17.3336   -7.3683   16.2626 N   0  0  0  0  0  0
   17.6045   -9.5636   15.1394 C   0  0  0  0  0  0
   16.3310   -7.7501   16.9603 C   0  0  0  0  0  0
   17.9519   -6.7045   13.3109 C   0  0  0  0  0  0
   16.5189  -10.0410   16.0938 C   0  0  0  0  0  0
   16.2397   -6.9141   12.9804 S   0  0  0  0  0  0
   16.2659   -5.7130   11.7128 C   0  0  0  0  0  0
   15.8846   -9.1527   16.9878 C   0  0  0  0  0  0
   15.5976   -6.6314   17.7099 C   0  0  0  0  0  0
   18.7349   -7.5408   14.3173 C   0  0  0  0  0  0
   18.4406   -5.6686   12.5532 C   0  0  0  0  0  0
   17.5486   -5.1310   11.5924 C   0  0  0  0  0  0
   16.3459   -6.0710   18.9338 C   0  0  0  0  0  0
   15.2006   -5.3833   10.9810 N   0  0  0  0  0  0
   18.1394  -10.2837   14.2906 O   0  0  0  0  0  0
   15.7451   -5.5789   19.8819 O   0  0  0  0  0  0
   17.7031   -6.1147   18.8348 O   0  0  0  0  0  0
   16.1503  -11.3937   16.0726 C   0  0  0  0  0  0
   14.9450   -9.6560   17.8965 C   0  0  0  0  0  0
   17.7282   -4.1435   10.6037 C   0  0  0  0  0  0
   15.4082   -4.4176   10.0477 C   0  0  0  0  0  0
   16.6300   -3.7874    9.8197 C   0  0  0  0  0  0
   15.1817  -11.8689   16.9559 C   0  0  0  0  0  0
   14.5869  -11.0031   17.8722 C   0  0  0  0  0  0
   15.4310   -5.7935   17.0325 H   0  0  0  0  0  0
   14.5983   -6.9380   18.0160 H   0  0  0  0  0  0
   19.4722   -6.9350   14.8462 H   0  0  0  0  0  0
   19.3538   -8.2442   13.7554 H   0  0  0  0  0  0
   19.4395   -5.3162   12.6741 H   0  0  0  0  0  0
   17.9707   -6.4945   17.9923 H   0  0  0  0  0  0
   16.6131  -12.0786   15.3758 H   0  0  0  0  0  0
   14.4790   -9.0162   18.6238 H   0  0  0  0  0  0
   18.6802   -3.6566   10.4689 H   0  0  0  0  0  0
   14.5464   -4.1433    9.4589 H   0  0  0  0  0  0
   16.7159   -3.0271    9.0556 H   0  0  0  0  0  0
   14.8971  -12.9088   16.9368 H   0  0  0  0  0  0
   13.8419  -11.3759   18.5613 H   0  0  0  0  0  0
  1  2  1  0  0  0
  1  3  1  0  0  0
  1 11  1  0  0  0
  2  4  2  0  0  0
  3  6  1  0  0  0
  3 16  2  0  0  0
  4 10  1  0  0  0
  4  9  1  0  0  0
  5 11  1  0  0  0
  5  7  1  0  0  0
  5 12  2  0  0  0
  6  9  2  0  0  0
  6 19  1  0  0  0
  7  8  1  0  0  0
  8 15  1  0  0  0
  8 13  2  0  0  0
  9 20  1  0  0  0
 10 14  1  0  0  0
 10 26  1  0  0  0
 10 27  1  0  0  0
 11 28  1  0  0  0
 11 29  1  0  0  0
 12 13  1  0  0  0
 12 30  1  0  0  0
 13 21  1  0  0  0
 14 17  2  0  0  0
 14 18  1  0  0  0
 15 22  2  0  0  0
 18 31  1  0  0  0
 19 24  2  0  0  0
 19 32  1  0  0  0
 20 25  2  0  0  0
 20 33  1  0  0  0
 21 23  2  0  0  0
 21 34  1  0  0  0
 22 23  1  0  0  0
 22 35  1  0  0  0
 23 36  1  0  0  0
 24 25  1  0  0  0
 24 37  1  0  0  0
 25 38  1  0  0  0
M  END
> <s_m_entry_id>
6324

> <s_m_entry_name>
dock_pv.159

> <s_m_Source_Path>
/home/csk/Desktop/cluster/DUD-E-result/aldr

> <s_m_Source_File>
dock_pv.maegz

> <i_m_Source_File_Index>
159

> <chembl_id>
CHEMBL143872

> <chembl_pref_name>
None

> <i_lp_mmshare_version>
53161

> <i_f3d_flags>
0

> <r_lp_tautomer_probability>
1

> <s_lp_Force_Field>
OPLS_2005

> <r_lp_Energy>
30.575801

> <b_lp_Chiralities_Consistent>
1

> <s_lp_Variant>
CHEMBL1900_lig156-1

> <s_i_glide_gridfile>
glide-grid_2hv5

> <i_i_glide_lignum>
232

> <i_i_glide_rotatable_bonds>
5

> <r_i_docking_score>
-9.62979866387189

> <r_i_glide_ligand_efficiency>
-0.385191946554876

> <r_i_glide_ligand_efficiency_sa>
-1.12630808313472

> <r_i_glide_ligand_efficiency_ln>
-2.28255086511647

> <r_i_glide_gscore>
-9.62979866387189

> <r_i_glide_lipo>
-4.74622094265741

> <r_i_glide_hbond>
-0.32

> <r_i_glide_metal>
0

> <r_i_glide_rewards>
-2.56726014854634

> <r_i_glide_evdw>
-45.0105934143066

> <r_i_glide_ecoul>
-2.42447471618652

> <r_i_glide_erotb>
0.61788330547517

> <r_i_glide_esite>
0

> <r_i_glide_emodel>
-70.2554652103689

> <r_i_glide_energy>
-47.4350681304932

> <r_i_glide_einternal>
6.20420598983765

> <i_i_glide_confnum>
3

> <i_i_glide_posenum>
76

> <r_i_glide_eff_state_penalty>
0

> <s_user_duplicate_titles>
CHEMBL1900_lig156,235378

> <s_m_subgroup_title>
dock_pv

> <s_m_subgroupid>
dock_pv

> <b_m_subgroup_collapsed>
1

$$$$
CHEMBL1900_lig191
                    3D
 Schrodinger Suite 2021-1.
 40 42  0  0  1  0            999 V2000
   17.8868   -9.3948   14.9753 N   0  0  0  0  0  0
   17.5715   -8.5241   16.0219 N   0  0  0  0  0  0
   17.5822  -10.7437   14.9346 C   0  0  0  0  0  0
   16.7601   -8.8733   16.9463 C   0  0  0  0  0  0
   16.5608  -11.1264   15.9985 C   0  0  0  0  0  0
   18.7450   -8.8527   13.8881 C   0  0  0  0  0  0
   16.1107  -10.1940   16.9575 C   0  0  0  0  0  0
   16.5858   -7.8643   18.0923 C   0  0  0  0  0  0
   18.2357   -7.5030   13.3813 C   0  0  0  0  0  0
   15.9426   -6.5197   17.7031 C   0  0  0  0  0  0
   17.3452   -7.4447   12.4735 N   0  0  0  0  0  0
   18.0645  -11.5460   14.1292 O   0  0  0  0  0  0
   19.0388   -6.1151   14.1810 S   0  0  0  0  0  0
   16.8959   -6.2689   11.8571 C   0  0  0  0  0  0
   17.7442   -5.3282   11.2495 C   0  0  0  0  0  0
   16.1468   -5.4987   18.3531 O   0  0  0  0  0  0
   17.2305   -4.2603   10.5141 C   0  0  0  0  0  0
   15.0960   -6.5893   16.6312 O   0  0  0  0  0  0
   18.3047   -3.1265    9.7809 Cl  0  0  0  0  0  0
   16.0494  -12.4309   16.0002 C   0  0  0  0  0  0
   15.0584  -10.5474   17.8129 C   0  0  0  0  0  0
   14.9931   -5.0289   10.9801 C   0  0  0  0  0  0
   15.5187   -6.0972   11.7050 C   0  0  0  0  0  0
   15.8512   -4.1166   10.3691 C   0  0  0  0  0  0
   15.0461  -12.7857   16.9000 C   0  0  0  0  0  0
   14.5450  -11.8426   17.7941 C   0  0  0  0  0  0
   19.7620   -8.7564   14.2632 H   0  0  0  0  0  0
   18.8341   -9.5227   13.0301 H   0  0  0  0  0  0
   16.0195   -8.2760   18.9238 H   0  0  0  0  0  0
   17.5648   -7.6389   18.5172 H   0  0  0  0  0  0
   19.4503   -6.7943   15.2544 H   0  0  0  0  0  0
   18.8140   -5.4465   11.3256 H   0  0  0  0  0  0
   15.1079   -7.4630   16.2355 H   0  0  0  0  0  0
   16.4008  -13.1639   15.2862 H   0  0  0  0  0  0
   14.6380   -9.8480   18.5196 H   0  0  0  0  0  0
   13.9228   -4.9154   10.8807 H   0  0  0  0  0  0
   14.8523   -6.8082   12.1624 H   0  0  0  0  0  0
   15.4426   -3.2949    9.7983 H   0  0  0  0  0  0
   14.6381  -13.7856   16.8883 H   0  0  0  0  0  0
   13.7454  -12.1147   18.4691 H   0  0  0  0  0  0
  1  2  1  0  0  0
  1  3  1  0  0  0
  1  6  1  0  0  0
  2  4  2  0  0  0
  3  5  1  0  0  0
  3 12  2  0  0  0
  4  8  1  0  0  0
  4  7  1  0  0  0
  5  7  2  0  0  0
  5 20  1  0  0  0
  6  9  1  0  0  0
  6 27  1  0  0  0
  6 28  1  0  0  0
  7 21  1  0  0  0
  8 10  1  0  0  0
  8 29  1  0  0  0
  8 30  1  0  0  0
  9 11  2  0  0  0
  9 13  1  0  0  0
 10 16  2  0  0  0
 10 18  1  0  0  0
 11 14  1  0  0  0
 13 31  1  0  0  0
 14 15  2  0  0  0
 14 23  1  0  0  0
 15 17  1  0  0  0
 15 32  1  0  0  0
 17 19  1  0  0  0
 17 24  2  0  0  0
 18 33  1  0  0  0
 20 25  2  0  0  0
 20 34  1  0  0  0
 21 26  2  0  0  0
 21 35  1  0  0  0
 22 23  2  0  0  0
 22 24  1  0  0  0
 22 36  1  0  0  0
 23 37  1  0  0  0
 24 38  1  0  0  0
 25 26  1  0  0  0
 25 39  1  0  0  0
 26 40  1  0  0  0
M  END
> <s_m_entry_id>
6325

> <s_m_entry_name>
dock_pv.160

> <s_m_Source_Path>
/home/csk/Desktop/cluster/DUD-E-result/aldr

> <s_m_Source_File>
dock_pv.maegz

> <i_m_Source_File_Index>
160

> <chembl_id>
CHEMBL140012

> <chembl_pref_name>
None

> <i_lp_mmshare_version>
53161

> <i_f3d_flags>
0

> <r_lp_tautomer_probability>
1

> <s_lp_Force_Field>
OPLS_2005

> <r_lp_Energy>
33.379421

> <b_lp_Chiralities_Consistent>
1

> <s_lp_Variant>
CHEMBL1900_lig191-1

> <s_i_glide_gridfile>
glide-grid_2hv5

> <i_i_glide_lignum>
267

> <i_i_glide_rotatable_bonds>
7

> <r_i_docking_score>
-9.62345032949935

> <r_i_glide_ligand_efficiency>
-0.370132704980744

> <r_i_glide_ligand_efficiency_sa>
-1.09651668210359

> <r_i_glide_ligand_efficiency_ln>
-2.26003573276685

> <r_i_glide_gscore>
-9.62345032949935

> <r_i_glide_lipo>
-3.95171421076535

> <r_i_glide_hbond>
0

> <r_i_glide_metal>
0

> <r_i_glide_rewards>
-3.02170601228377

> <r_i_glide_evdw>
-50.591178894043

> <r_i_glide_ecoul>
-5.11945772171021

> <r_i_glide_erotb>
0.647447496508443

> <r_i_glide_esite>
0

> <r_i_glide_emodel>
-80.6487030000867

> <r_i_glide_energy>
-55.7106366157532

> <r_i_glide_einternal>
8.23176574707031

> <i_i_glide_confnum>
4

> <i_i_glide_posenum>
259

> <r_i_glide_eff_state_penalty>
0

> <s_user_duplicate_titles>
CHEMBL1900_lig191,235823

> <s_m_subgroup_title>
dock_pv

> <s_m_subgroupid>
dock_pv

> <b_m_subgroup_collapsed>
1

$$$$
CHEMBL1900_lig596
                    3D
 Schrodinger Suite 2021-1.
 45 48  0  0  1  0            999 V2000
   16.6986   -7.8583   14.8934 C   0  0  0  0  0  0
   16.5206   -8.1045   16.3278 C   0  0  0  0  0  0
   16.8981   -9.2921   16.8624 C   0  0  0  0  0  0
   17.4733  -10.3627   16.0382 C   0  0  0  0  0  0
   17.6821  -11.6654   16.4969 C   0  0  0  0  0  0
   18.1865  -12.6325   15.6234 C   0  0  0  0  0  0
   18.4839  -12.3014   14.2978 C   0  0  0  0  0  0
   18.2660  -11.0030   13.8328 C   0  0  0  0  0  0
   17.7505  -10.0446   14.7032 C   0  0  0  0  0  0
   17.4791   -8.7799   14.2141 O   0  0  0  0  0  0
   15.9572   -7.0695   17.1818 C   0  0  0  0  0  0
   14.9015   -6.5073   16.8903 O   0  0  0  0  0  0
   16.7066   -6.7139   18.2493 N   0  0  0  0  0  0
   16.5226   -5.5599   19.0277 C   0  0  0  0  0  0
   16.1599   -6.8986   14.2553 N   0  0  0  0  0  0
   16.4421   -6.4654   12.9561 C   0  0  0  0  0  0
   17.7405   -6.1728   12.5220 C   0  0  0  0  0  0
   17.9453   -5.4003   11.3799 C   0  0  0  0  0  0
   16.8754   -4.9179   10.6336 C   0  0  0  0  0  0
   15.5766   -5.2563   11.0240 C   0  0  0  0  0  0
   15.3739   -5.9999   12.1806 C   0  0  0  0  0  0
   17.1781   -4.0954    9.5665 O   0  0  0  0  0  0
   16.1306   -3.3274    8.9816 C   0  0  0  0  0  0
   16.1454   -3.1914   19.2828 C   0  0  0  0  0  0
   16.2816   -4.3027   18.4495 C   0  0  0  0  0  0
   16.6399   -5.7149   20.3695 N   0  0  0  0  0  0
   16.5452   -4.6177   21.1640 C   0  0  0  0  0  0
   16.2710   -3.3462   20.6628 C   0  0  0  0  0  0
   16.7648   -9.4766   17.9204 H   0  0  0  0  0  0
   17.4483  -11.9371   17.5149 H   0  0  0  0  0  0
   18.3472  -13.6424   15.9729 H   0  0  0  0  0  0
   18.8730  -13.0544   13.6278 H   0  0  0  0  0  0
   18.4738  -10.7464   12.8048 H   0  0  0  0  0  0
   17.4414   -7.3344   18.5527 H   0  0  0  0  0  0
   18.5910   -6.4674   13.1189 H   0  0  0  0  0  0
   18.9450   -5.1365   11.0847 H   0  0  0  0  0  0
   14.7116   -4.8930   10.4904 H   0  0  0  0  0  0
   14.3594   -6.1146   12.5256 H   0  0  0  0  0  0
   16.5392   -2.7125    8.1793 H   0  0  0  0  0  0
   15.3540   -3.9613    8.5537 H   0  0  0  0  0  0
   15.6719   -2.6579    9.7112 H   0  0  0  0  0  0
   15.9522   -2.2141   18.8661 H   0  0  0  0  0  0
   16.1947   -4.1859   17.3813 H   0  0  0  0  0  0
   16.6530   -4.7790   22.2272 H   0  0  0  0  0  0
   16.1736   -2.4976   21.3255 H   0  0  0  0  0  0
  1  2  1  0  0  0
  1 10  1  0  0  0
  1 15  2  0  0  0
  2  3  2  0  0  0
  2 11  1  0  0  0
  3  4  1  0  0  0
  3 29  1  0  0  0
  4  5  2  0  0  0
  4  9  1  0  0  0
  5  6  1  0  0  0
  5 30  1  0  0  0
  6  7  2  0  0  0
  6 31  1  0  0  0
  7  8  1  0  0  0
  7 32  1  0  0  0
  8  9  2  0  0  0
  8 33  1  0  0  0
  9 10  1  0  0  0
 11 12  2  0  0  0
 11 13  1  0  0  0
 13 14  1  0  0  0
 13 34  1  0  0  0
 14 25  2  0  0  0
 14 26  1  0  0  0
 15 16  1  0  0  0
 16 17  2  0  0  0
 16 21  1  0  0  0
 17 18  1  0  0  0
 17 35  1  0  0  0
 18 19  2  0  0  0
 18 36  1  0  0  0
 19 20  1  0  0  0
 19 22  1  0  0  0
 20 21  2  0  0  0
 20 37  1  0  0  0
 21 38  1  0  0  0
 22 23  1  0  0  0
 23 39  1  0  0  0
 23 40  1  0  0  0
 23 41  1  0  0  0
 24 25  1  0  0  0
 24 28  2  0  0  0
 24 42  1  0  0  0
 25 43  1  0  0  0
 26 27  2  0  0  0
 27 28  1  0  0  0
 27 44  1  0  0  0
 28 45  1  0  0  0
M  END
> <s_m_entry_id>
6326

> <s_m_entry_name>
dock_pv.161

> <s_m_Source_Path>
/home/csk/Desktop/cluster/DUD-E-result/aldr

> <s_m_Source_File>
dock_pv.maegz

> <i_m_Source_File_Index>
161

> <chembl_id>
CHEMBL2440421

> <chembl_pref_name>
None

> <i_lp_mmshare_version>
53161

> <i_f3d_flags>
0

> <r_lp_tautomer_probability>
1

> <s_lp_Force_Field>
OPLS_2005

> <r_lp_Energy>
46.267654

> <b_lp_Chiralities_Consistent>
1

> <s_lp_Variant>
CHEMBL1900_lig596-1

> <s_i_glide_gridfile>
glide-grid_2hv5

> <i_i_glide_lignum>
720

> <i_i_glide_rotatable_bonds>
5

> <r_i_docking_score>
-9.62228124929886

> <r_i_glide_ligand_efficiency>
-0.343652901760674

> <r_i_glide_ligand_efficiency_sa>
-1.04353261048044

> <r_i_glide_ligand_efficiency_ln>
-2.22110503479202

> <r_i_glide_gscore>
-9.62228124929886

> <r_i_glide_lipo>
-4.70512579846576

> <r_i_glide_hbond>
-0.307884428247153

> <r_i_glide_metal>
0

> <r_i_glide_rewards>
-1.92744983989011

> <r_i_glide_evdw>
-49.9075546264648

> <r_i_glide_ecoul>
-4.97483062744141

> <r_i_glide_erotb>
0.559781142743618

> <r_i_glide_esite>
0

> <r_i_glide_emodel>
-63.8491633223631

> <r_i_glide_energy>
-54.8823852539062

> <r_i_glide_einternal>
23.5697917938232

> <i_i_glide_confnum>
5

> <i_i_glide_posenum>
6

> <r_i_glide_eff_state_penalty>
0

> <s_user_duplicate_titles>
CHEMBL1900_lig596

> <s_m_subgroup_title>
dock_pv

> <s_m_subgroupid>
dock_pv

> <b_m_subgroup_collapsed>
1

$$$$
CHEMBL1900_lig466
                    3D
 Schrodinger Suite 2021-1.
 36 37  0  0  1  0            999 V2000
   15.9782   -8.5826   17.4475 C   0  0  0  0  0  0
   17.7318   -7.1150   15.8811 C   0  0  0  0  0  0
   16.3487   -9.0887   16.1849 C   0  0  0  0  0  0
   16.4812   -7.3786   17.9188 C   0  0  0  0  0  0
   17.3450   -6.6436   17.1305 C   0  0  0  0  0  0
   17.2458   -8.3340   15.3820 C   0  0  0  0  0  0
   16.7432   -2.5089    8.5833 Br  0  0  0  0  0  0
   16.1450   -6.9240   19.1459 F   0  0  0  0  0  0
   17.7458   -8.7505   14.0352 C   0  0  0  0  0  0
   16.4193   -6.9808   12.8988 C   0  0  0  0  0  0
   14.1794   -6.0906   11.3829 F   0  0  0  0  0  0
   15.8402  -10.2881   15.7002 O   0  0  0  0  0  0
   18.5448  -10.1880   13.7833 S   0  0  0  0  0  0
   17.5727   -7.8822   12.9957 N   0  0  0  0  0  0
   14.8616  -11.0373   16.4445 C   0  0  0  0  0  0
   16.5226   -5.9002   11.8302 C   0  0  0  0  0  0
   16.6607   -3.8870    9.8895 C   0  0  0  0  0  0
   17.7460   -5.2893   11.5303 C   0  0  0  0  0  0
   15.3721   -5.5031   11.1355 C   0  0  0  0  0  0
   15.4417   -4.4948   10.1790 C   0  0  0  0  0  0
   17.8144   -4.2869   10.5623 C   0  0  0  0  0  0
   15.4912  -11.8264   17.6075 C   0  0  0  0  0  0
   14.5453  -12.3680   18.4331 O   0  0  0  0  0  0
   16.7037  -11.9344   17.7810 O   0  0  0  0  0  0
   15.3091   -9.1132   18.1042 H   0  0  0  0  0  0
   18.4293   -6.5196   15.3068 H   0  0  0  0  0  0
   17.7376   -5.7143   17.5082 H   0  0  0  0  0  0
   15.5567   -7.5980   12.6577 H   0  0  0  0  0  0
   16.1797   -6.4941   13.8440 H   0  0  0  0  0  0
   18.0040   -8.1371   12.1185 H   0  0  0  0  0  0
   14.0670  -10.3805   16.7975 H   0  0  0  0  0  0
   14.3980  -11.7544   15.7701 H   0  0  0  0  0  0
   18.6448   -5.5755   12.0566 H   0  0  0  0  0  0
   14.5453   -4.1864    9.6626 H   0  0  0  0  0  0
   18.7577   -3.8106   10.3426 H   0  0  0  0  0  0
   13.6278  -12.2205   18.1804 H   0  0  0  0  0  0
  1  3  2  0  0  0
  1  4  1  0  0  0
  1 25  1  0  0  0
  2  5  1  0  0  0
  2  6  2  0  0  0
  2 26  1  0  0  0
  3  6  1  0  0  0
  3 12  1  0  0  0
  4  5  2  0  0  0
  4  8  1  0  0  0
  5 27  1  0  0  0
  6  9  1  0  0  0
  7 17  1  0  0  0
  9 13  2  0  0  0
  9 14  1  0  0  0
 10 14  1  0  0  0
 10 16  1  0  0  0
 10 28  1  0  0  0
 10 29  1  0  0  0
 11 19  1  0  0  0
 12 15  1  0  0  0
 14 30  1  0  0  0
 15 22  1  0  0  0
 15 31  1  0  0  0
 15 32  1  0  0  0
 16 18  2  0  0  0
 16 19  1  0  0  0
 17 20  1  0  0  0
 17 21  2  0  0  0
 18 21  1  0  0  0
 18 33  1  0  0  0
 19 20  2  0  0  0
 20 34  1  0  0  0
 21 35  1  0  0  0
 22 23  1  0  0  0
 22 24  2  0  0  0
 23 36  1  0  0  0
M  END
> <s_m_entry_id>
6327

> <s_m_entry_name>
dock_pv.162

> <s_m_Source_Path>
/home/csk/Desktop/cluster/DUD-E-result/aldr

> <s_m_Source_File>
dock_pv.maegz

> <i_m_Source_File_Index>
162

> <chembl_id>
CHEMBL395347

> <chembl_pref_name>
None

> <i_lp_mmshare_version>
53161

> <i_f3d_flags>
0

> <r_lp_tautomer_probability>
1

> <s_lp_Force_Field>
OPLS_2005

> <r_lp_Energy>
22.368895

> <b_lp_Chiralities_Consistent>
1

> <s_lp_Variant>
CHEMBL1900_lig466-1

> <s_i_glide_gridfile>
glide-grid_2hv5

> <i_i_glide_lignum>
588

> <i_i_glide_rotatable_bonds>
8

> <r_i_docking_score>
-9.62025501429279

> <r_i_glide_ligand_efficiency>
-0.400843958928866

> <r_i_glide_ligand_efficiency_sa>
-1.1562340538261

> <r_i_glide_ligand_efficiency_ln>
-2.30256846965795

> <r_i_glide_gscore>
-9.62025501429279

> <r_i_glide_lipo>
-4.30102679715125

> <r_i_glide_hbond>
-0.293963919816654

> <r_i_glide_metal>
0

> <r_i_glide_rewards>
-2.76693352613407

> <r_i_glide_evdw>
-42.7636947631836

> <r_i_glide_ecoul>
-5.3617000579834

> <r_i_glide_erotb>
0.684108975665873

> <r_i_glide_esite>
0

> <r_i_glide_emodel>
-67.7772624350708

> <r_i_glide_energy>
-48.125394821167

> <r_i_glide_einternal>
12.3643665313721

> <i_i_glide_confnum>
31

> <i_i_glide_posenum>
368

> <r_i_glide_eff_state_penalty>
0

> <s_user_duplicate_titles>
CHEMBL1900_lig466,407182

> <s_m_subgroup_title>
dock_pv

> <s_m_subgroupid>
dock_pv

> <b_m_subgroup_collapsed>
1

$$$$
CHEMBL1900_lig245
                    3D
 Schrodinger Suite 2021-1.
 38 41  0  0  1  0            999 V2000
   18.1182   -8.0145   15.3800 N   0  0  0  0  0  0
   17.5453   -7.3008   16.4285 N   0  0  0  0  0  0
   17.8777   -9.3394   15.0655 C   0  0  0  0  0  0
   16.6211   -7.8152   17.1564 C   0  0  0  0  0  0
   18.0581   -6.5528   13.3351 C   0  0  0  0  0  0
   18.5450   -5.6676   12.5088 N   0  0  0  0  0  0
   18.9065   -7.1961   14.4272 C   0  0  0  0  0  0
   16.8318   -9.9660   15.9783 C   0  0  0  0  0  0
   16.3609   -6.9143   13.0921 S   0  0  0  0  0  0
   17.6072   -5.2048   11.6335 C   0  0  0  0  0  0
   16.1900   -9.2138   16.9837 C   0  0  0  0  0  0
   15.9112   -6.9428   18.2122 C   0  0  0  0  0  0
   16.3212   -5.7741   11.7836 C   0  0  0  0  0  0
   16.5508   -5.5799   18.5249 C   0  0  0  0  0  0
   17.8159   -4.2239   10.6516 C   0  0  0  0  0  0
   18.4137   -9.9346   14.1268 O   0  0  0  0  0  0
   16.1450   -4.5193   18.0558 O   0  0  0  0  0  0
   15.2430   -5.3979   10.9803 C   0  0  0  0  0  0
   16.7298   -3.8323    9.8652 C   0  0  0  0  0  0
   17.6087   -5.6946   19.3793 O   0  0  0  0  0  0
   15.4757   -4.4217   10.0168 C   0  0  0  0  0  0
   16.9412   -2.4492    8.5844 Br  0  0  0  0  0  0
   16.4832  -11.3095   15.7815 C   0  0  0  0  0  0
   15.2005   -9.8255   17.7720 C   0  0  0  0  0  0
   15.5033  -11.9027   16.5778 C   0  0  0  0  0  0
   14.8632  -11.1618   17.5682 C   0  0  0  0  0  0
   19.4684   -6.4466   14.9854 H   0  0  0  0  0  0
   19.6884   -7.7954   13.9558 H   0  0  0  0  0  0
   14.8848   -6.7555   17.8868 H   0  0  0  0  0  0
   15.8361   -7.4871   19.1541 H   0  0  0  0  0  0
   18.7793   -3.7565   10.5324 H   0  0  0  0  0  0
   14.2634   -5.8366   11.1087 H   0  0  0  0  0  0
   17.8244   -6.6083   19.5847 H   0  0  0  0  0  0
   14.6578   -4.1145    9.3818 H   0  0  0  0  0  0
   16.9590  -11.8943   15.0064 H   0  0  0  0  0  0
   14.6785   -9.2850   18.5457 H   0  0  0  0  0  0
   15.2285  -12.9357   16.4185 H   0  0  0  0  0  0
   14.0925  -11.6199   18.1736 H   0  0  0  0  0  0
  1  2  1  0  0  0
  1  3  1  0  0  0
  1  7  1  0  0  0
  2  4  2  0  0  0
  3  8  1  0  0  0
  3 16  2  0  0  0
  4 12  1  0  0  0
  4 11  1  0  0  0
  5  7  1  0  0  0
  5  6  2  0  0  0
  5  9  1  0  0  0
  6 10  1  0  0  0
  7 27  1  0  0  0
  7 28  1  0  0  0
  8 11  1  0  0  0
  8 23  2  0  0  0
  9 13  1  0  0  0
 10 15  1  0  0  0
 10 13  2  0  0  0
 11 24  2  0  0  0
 12 14  1  0  0  0
 12 29  1  0  0  0
 12 30  1  0  0  0
 13 18  1  0  0  0
 14 17  2  0  0  0
 14 20  1  0  0  0
 15 19  2  0  0  0
 15 31  1  0  0  0
 18 21  2  0  0  0
 18 32  1  0  0  0
 19 22  1  0  0  0
 19 21  1  0  0  0
 20 33  1  0  0  0
 21 34  1  0  0  0
 23 25  1  0  0  0
 23 35  1  0  0  0
 24 26  1  0  0  0
 24 36  1  0  0  0
 25 26  2  0  0  0
 25 37  1  0  0  0
 26 38  1  0  0  0
M  END
> <s_m_entry_id>
6328

> <s_m_entry_name>
dock_pv.163

> <s_m_Source_Path>
/home/csk/Desktop/cluster/DUD-E-result/aldr

> <s_m_Source_File>
dock_pv.maegz

> <i_m_Source_File_Index>
163

> <chembl_id>
CHEMBL20169

> <chembl_pref_name>
None

> <i_lp_mmshare_version>
53161

> <i_f3d_flags>
0

> <r_lp_tautomer_probability>
1

> <s_lp_Force_Field>
OPLS_2005

> <r_lp_Energy>
23.766935

> <b_lp_Chiralities_Consistent>
1

> <s_lp_Variant>
CHEMBL1900_lig245-1

> <s_i_glide_gridfile>
glide-grid_2hv5

> <i_i_glide_lignum>
358

> <i_i_glide_rotatable_bonds>
5

> <r_i_docking_score>
-9.61752571134636

> <r_i_glide_ligand_efficiency>
-0.369904835051783

> <r_i_glide_ligand_efficiency_sa>
-1.09584161833566

> <r_i_glide_ligand_efficiency_ln>
-2.25864435563387

> <r_i_glide_gscore>
-9.61752571134636

> <r_i_glide_lipo>
-5.09077121197627

> <r_i_glide_hbond>
0

> <r_i_glide_metal>
0

> <r_i_glide_rewards>
-1.99884934543571

> <r_i_glide_evdw>
-50.8476982116699

> <r_i_glide_ecoul>
-2.76689052581787

> <r_i_glide_erotb>
0.429513335521797

> <r_i_glide_esite>
0

> <r_i_glide_emodel>
-82.024394724634

> <r_i_glide_energy>
-53.6145887374878

> <r_i_glide_einternal>
3.60701179504395

> <i_i_glide_confnum>
10

> <i_i_glide_posenum>
276

> <r_i_glide_eff_state_penalty>
0

> <s_user_duplicate_titles>
CHEMBL1900_lig245,24241

> <s_m_subgroup_title>
dock_pv

> <s_m_subgroupid>
dock_pv

> <b_m_subgroup_collapsed>
1

$$$$
CHEMBL1900_lig270
                    3D
 Schrodinger Suite 2021-1.
 42 45  0  0  1  0            999 V2000
   17.9725   -8.1439   15.6160 N   0  0  0  0  0  0
   17.4449   -7.4794   16.7151 N   0  0  0  0  0  0
   17.6983   -9.4440   15.2280 C   0  0  0  0  0  0
   16.5354   -8.0201   17.4379 C   0  0  0  0  0  0
   18.0005   -6.6046   13.6338 C   0  0  0  0  0  0
   18.5451   -5.7185   12.8494 N   0  0  0  0  0  0
   18.7991   -7.2974   14.7289 C   0  0  0  0  0  0
   16.6349  -10.0883   16.1068 C   0  0  0  0  0  0
   16.3098   -6.9143   13.3052 S   0  0  0  0  0  0
   17.7004   -5.2999   11.8745 C   0  0  0  0  0  0
   16.4108   -5.8752   11.9180 C   0  0  0  0  0  0
   16.0349   -9.3808   17.1675 C   0  0  0  0  0  0
   15.9694   -7.2531   18.6540 C   0  0  0  0  0  0
   18.0109   -4.3588   10.8846 C   0  0  0  0  0  0
   15.4434   -5.5866   10.9576 C   0  0  0  0  0  0
   15.8006   -4.7047    9.9430 C   0  0  0  0  0  0
   17.0361   -4.0485    9.9391 C   0  0  0  0  0  0
   16.3464   -5.7833   18.9221 C   0  0  0  0  0  0
   18.2133   -9.9977   14.2518 O   0  0  0  0  0  0
   16.1445   -5.2633   20.0152 O   0  0  0  0  0  0
   14.9454   -4.5129    8.9222 F   0  0  0  0  0  0
   16.8040   -5.1144   17.8298 O   0  0  0  0  0  0
   17.3281   -3.1158    8.9786 O   0  0  0  0  0  0
   16.2241  -11.3971   15.8208 C   0  0  0  0  0  0
   15.0103   -9.9915   17.9054 C   0  0  0  0  0  0
   16.5757   -1.9129    9.0991 C   0  0  0  0  0  0
   15.2105  -11.9934   16.5718 C   0  0  0  0  0  0
   14.6003  -11.2905   17.6089 C   0  0  0  0  0  0
   19.3590   -6.5765   15.3279 H   0  0  0  0  0  0
   19.5857   -7.8932   14.2596 H   0  0  0  0  0  0
   14.8929   -7.2161   18.5528 H   0  0  0  0  0  0
   16.1662   -7.8171   19.5647 H   0  0  0  0  0  0
   18.9672   -3.8680   10.8574 H   0  0  0  0  0  0
   14.4672   -6.0504   10.9797 H   0  0  0  0  0  0
   17.0427   -5.7616   17.1539 H   0  0  0  0  0  0
   16.6732  -11.9519   15.0076 H   0  0  0  0  0  0
   14.5345   -9.4795   18.7264 H   0  0  0  0  0  0
   16.6691   -1.3305    8.1830 H   0  0  0  0  0  0
   15.5098   -2.0792    9.2634 H   0  0  0  0  0  0
   16.9523   -1.3145    9.9299 H   0  0  0  0  0  0
   14.8898  -12.9999   16.3440 H   0  0  0  0  0  0
   13.8077  -11.7520   18.1825 H   0  0  0  0  0  0
  1  2  1  0  0  0
  1  3  1  0  0  0
  1  7  1  0  0  0
  2  4  2  0  0  0
  3  8  1  0  0  0
  3 19  2  0  0  0
  4 13  1  0  0  0
  4 12  1  0  0  0
  5  7  1  0  0  0
  5  6  2  0  0  0
  5  9  1  0  0  0
  6 10  1  0  0  0
  7 29  1  0  0  0
  7 30  1  0  0  0
  8 12  1  0  0  0
  8 24  2  0  0  0
  9 11  1  0  0  0
 10 14  1  0  0  0
 10 11  2  0  0  0
 11 15  1  0  0  0
 12 25  2  0  0  0
 13 18  1  0  0  0
 13 31  1  0  0  0
 13 32  1  0  0  0
 14 17  2  0  0  0
 14 33  1  0  0  0
 15 16  2  0  0  0
 15 34  1  0  0  0
 16 21  1  0  0  0
 16 17  1  0  0  0
 17 23  1  0  0  0
 18 20  2  0  0  0
 18 22  1  0  0  0
 22 35  1  0  0  0
 23 26  1  0  0  0
 24 27  1  0  0  0
 24 36  1  0  0  0
 25 28  1  0  0  0
 25 37  1  0  0  0
 26 38  1  0  0  0
 26 39  1  0  0  0
 26 40  1  0  0  0
 27 28  2  0  0  0
 27 41  1  0  0  0
 28 42  1  0  0  0
M  END
> <s_m_entry_id>
6329

> <s_m_entry_name>
dock_pv.164

> <s_m_Source_Path>
/home/csk/Desktop/cluster/DUD-E-result/aldr

> <s_m_Source_File>
dock_pv.maegz

> <i_m_Source_File_Index>
164

> <chembl_id>
CHEMBL20380

> <chembl_pref_name>
None

> <i_lp_mmshare_version>
53161

> <i_f3d_flags>
0

> <r_lp_tautomer_probability>
1

> <s_lp_Force_Field>
OPLS_2005

> <r_lp_Energy>
29.597914

> <b_lp_Chiralities_Consistent>
1

> <s_lp_Variant>
CHEMBL1900_lig270-1

> <s_i_glide_gridfile>
glide-grid_2hv5

> <i_i_glide_lignum>
385

> <i_i_glide_rotatable_bonds>
6

> <r_i_docking_score>
-9.61456070834415

> <r_i_glide_ligand_efficiency>
-0.343377168155148

> <r_i_glide_ligand_efficiency_sa>
-1.04269532085566

> <r_i_glide_ligand_efficiency_ln>
-2.21932290725475

> <r_i_glide_gscore>
-9.61456070834415

> <r_i_glide_lipo>
-5.06536519953165

> <r_i_glide_hbond>
-0.249147101367863

> <r_i_glide_metal>
0

> <r_i_glide_rewards>
-2.21172693496227

> <r_i_glide_evdw>
-47.8563957214355

> <r_i_glide_ecoul>
-1.24556660652161

> <r_i_glide_erotb>
0.491333304567643

> <r_i_glide_esite>
0

> <r_i_glide_emodel>
-70.8256428443678

> <r_i_glide_energy>
-49.1019623279572

> <r_i_glide_einternal>
9.9699182510376

> <i_i_glide_confnum>
15

> <i_i_glide_posenum>
69

> <r_i_glide_eff_state_penalty>
0

> <s_user_duplicate_titles>
CHEMBL1900_lig270

> <s_m_subgroup_title>
dock_pv

> <s_m_subgroupid>
dock_pv

> <b_m_subgroup_collapsed>
1

$$$$
CHEMBL1900_lig631
                    3D
 Schrodinger Suite 2021-1.
 42 44  0  0  1  0            999 V2000
   15.7131   -4.1475    9.9848 C   0  0  0  0  0  0
   17.0372   -3.7335    9.8546 C   0  0  0  0  0  0
   18.0343   -4.2990   10.6449 C   0  0  0  0  0  0
   15.3654   -5.0910   10.9519 C   0  0  0  0  0  0
   16.3578   -5.6154   11.7816 C   0  0  0  0  0  0
   17.6850   -5.2343   11.6171 C   0  0  0  0  0  0
   18.6767   -5.7154   12.4497 O   0  0  0  0  0  0
   18.4180   -6.5152   13.5502 C   0  0  0  0  0  0
   16.9864   -6.8287   13.8582 C   0  0  0  0  0  0
   16.0607   -6.4206   12.9554 C   0  0  0  0  0  0
   19.4199   -6.8519   14.1813 O   0  0  0  0  0  0
   16.5291   -7.4127   15.1206 C   0  0  0  0  0  0
   17.4805   -7.6404   16.0366 N   0  0  0  0  0  0
   15.3456   -7.6305   15.3808 O   0  0  0  0  0  0
   17.2916   -8.1245   17.3981 C   0  0  0  0  0  0
   16.4143   -7.2391   18.3179 C   0  0  0  0  0  0
   16.7132   -5.7209   18.1972 C   0  0  0  0  0  0
   16.4892   -4.8277   19.4239 C   0  0  0  0  0  0
   16.1259   -3.4801   19.2709 C   0  0  0  0  0  0
   15.8632   -2.6925   20.3900 C   0  0  0  0  0  0
   16.0904   -3.1907   21.6708 C   0  0  0  0  0  0
   16.5448   -4.4936   21.8364 C   0  0  0  0  0  0
   16.6821   -5.3152   20.7213 C   0  0  0  0  0  0
   17.3452   -2.7349    8.9808 O   0  0  0  0  0  0
   15.9747   -2.9152   18.0325 O   0  0  0  0  0  0
   14.9449   -3.7109    9.3669 H   0  0  0  0  0  0
   19.0545   -3.9670   10.5437 H   0  0  0  0  0  0
   14.3273   -5.3608   11.0876 H   0  0  0  0  0  0
   15.0134   -6.5150   13.1750 H   0  0  0  0  0  0
   18.4324   -7.4385   15.7561 H   0  0  0  0  0  0
   18.3081   -8.1192   17.7813 H   0  0  0  0  0  0
   16.9383   -9.1577   17.3846 H   0  0  0  0  0  0
   16.5451   -7.6209   19.3263 H   0  0  0  0  0  0
   15.3603   -7.4094   18.0932 H   0  0  0  0  0  0
   16.1160   -5.3540   17.3629 H   0  0  0  0  0  0
   17.7450   -5.5739   17.9043 H   0  0  0  0  0  0
   15.5329   -1.6715   20.2675 H   0  0  0  0  0  0
   15.9149   -2.5606   22.5318 H   0  0  0  0  0  0
   16.7123   -4.8851   22.8290 H   0  0  0  0  0  0
   16.9450   -6.3406   20.8946 H   0  0  0  0  0  0
   16.5597   -2.3939    8.5486 H   0  0  0  0  0  0
   16.3638   -3.4502   17.3379 H   0  0  0  0  0  0
  1  2  2  0  0  0
  1  4  1  0  0  0
  1 26  1  0  0  0
  2  3  1  0  0  0
  2 24  1  0  0  0
  3  6  2  0  0  0
  3 27  1  0  0  0
  4  5  2  0  0  0
  4 28  1  0  0  0
  5  6  1  0  0  0
  5 10  1  0  0  0
  6  7  1  0  0  0
  7  8  1  0  0  0
  8  9  1  0  0  0
  8 11  2  0  0  0
  9 10  2  0  0  0
  9 12  1  0  0  0
 10 29  1  0  0  0
 12 13  1  0  0  0
 12 14  2  0  0  0
 13 15  1  0  0  0
 13 30  1  0  0  0
 15 16  1  0  0  0
 15 31  1  0  0  0
 15 32  1  0  0  0
 16 17  1  0  0  0
 16 33  1  0  0  0
 16 34  1  0  0  0
 17 18  1  0  0  0
 17 35  1  0  0  0
 17 36  1  0  0  0
 18 19  2  0  0  0
 18 23  1  0  0  0
 19 20  1  0  0  0
 19 25  1  0  0  0
 20 21  2  0  0  0
 20 37  1  0  0  0
 21 22  1  0  0  0
 21 38  1  0  0  0
 22 23  2  0  0  0
 22 39  1  0  0  0
 23 40  1  0  0  0
 24 41  1  0  0  0
 25 42  1  0  0  0
M  END
> <s_m_entry_id>
6330

> <s_m_entry_name>
dock_pv.165

> <s_m_Source_Path>
/home/csk/Desktop/cluster/DUD-E-result/aldr

> <s_m_Source_File>
dock_pv.maegz

> <i_m_Source_File_Index>
165

> <chembl_id>
CHEMBL4098452

> <chembl_pref_name>
None

> <i_lp_mmshare_version>
53161

> <i_f3d_flags>
0

> <r_lp_tautomer_probability>
0.999999999997365

> <s_lp_Force_Field>
OPLS_2005

> <r_lp_Energy>
22.828283

> <b_lp_Chiralities_Consistent>
1

> <s_lp_Variant>
CHEMBL1900_lig631-1

> <s_i_glide_gridfile>
glide-grid_2hv5

> <i_i_glide_lignum>
755

> <i_i_glide_rotatable_bonds>
8

> <r_i_docking_score>
-9.59098988103184

> <r_i_glide_ligand_efficiency>
-0.383639595241274

> <r_i_glide_ligand_efficiency_sa>
-1.12176898036268

> <r_i_glide_ligand_efficiency_ln>
-2.27335202057801

> <r_i_glide_gscore>
-9.59098988103184

> <r_i_glide_lipo>
-5.03313501500383

> <r_i_glide_hbond>
-0.32

> <r_i_glide_metal>
0

> <r_i_glide_rewards>
-2.35071890887025

> <r_i_glide_evdw>
-46.8065567016602

> <r_i_glide_ecoul>
-3.55205607414246

> <r_i_glide_erotb>
0.986000289046615

> <r_i_glide_esite>
0

> <r_i_glide_emodel>
-70.0598271485244

> <r_i_glide_energy>
-50.3586127758026

> <r_i_glide_einternal>
8.63844776153564

> <i_i_glide_confnum>
71

> <i_i_glide_posenum>
227

> <r_i_glide_eff_state_penalty>
0

> <s_user_duplicate_titles>
CHEMBL1900_lig631

> <s_m_subgroup_title>
dock_pv

> <s_m_subgroupid>
dock_pv

> <b_m_subgroup_collapsed>
1

$$$$
CHEMBL1900_lig502
                    3D
 Schrodinger Suite 2021-1.
 41 43  0  0  1  0            999 V2000
   15.9470   -3.1216   19.7824 C   0  0  0  0  0  0
   16.0969   -3.9129   20.8612 N   0  0  0  0  0  0
   16.2694   -5.2402   20.6261 C   0  0  0  0  0  0
   16.4516   -5.5223   19.2405 C   0  0  0  0  0  0
   16.5447   -4.0087   18.3448 S   0  0  0  0  0  0
   15.4216   -2.0115   19.7198 O   0  0  0  0  0  0
   16.1522   -6.1150   21.4800 O   0  0  0  0  0  0
   16.4126   -6.8059   18.8146 C   0  0  0  0  0  0
   16.5531   -7.1989   17.4276 C   0  0  0  0  0  0
   15.7484   -3.3470   22.2093 C   0  0  0  0  0  0
   16.5388   -3.9555   23.3961 C   0  0  0  0  0  0
   15.7451   -4.1156   24.4970 O   0  0  0  0  0  0
   17.7145   -4.2511   23.3342 O   0  0  0  0  0  0
   17.7451   -6.9152   16.7885 C   0  0  0  0  0  0
   17.8832   -7.1046   15.4266 C   0  0  0  0  0  0
   16.8051   -7.6076   14.6952 C   0  0  0  0  0  0
   15.6669   -8.0436   15.3810 C   0  0  0  0  0  0
   15.5215   -7.8270   16.7436 C   0  0  0  0  0  0
   16.7869   -7.7111   13.3218 O   0  0  0  0  0  0
   17.6861   -6.9495   12.5139 C   0  0  0  0  0  0
   16.9695   -5.9072   11.6593 C   0  0  0  0  0  0
   15.5740   -5.8589   11.5650 C   0  0  0  0  0  0
   14.9630   -4.9148   10.7446 C   0  0  0  0  0  0
   15.7454   -4.0198   10.0191 C   0  0  0  0  0  0
   17.1337   -4.0508   10.1155 C   0  0  0  0  0  0
   17.7437   -4.9931   10.9376 C   0  0  0  0  0  0
   16.2869   -7.6280   19.5086 H   0  0  0  0  0  0
   14.6780   -3.4632   22.3754 H   0  0  0  0  0  0
   15.9480   -2.2742   22.2232 H   0  0  0  0  0  0
   14.8287   -3.8056   24.4342 H   0  0  0  0  0  0
   18.5564   -6.5152   17.3640 H   0  0  0  0  0  0
   18.8271   -6.8359   14.9833 H   0  0  0  0  0  0
   14.8615   -8.5157   14.8512 H   0  0  0  0  0  0
   14.6030   -8.1035   17.2422 H   0  0  0  0  0  0
   18.5055   -6.4569   13.0299 H   0  0  0  0  0  0
   18.1449   -7.6698   11.8428 H   0  0  0  0  0  0
   14.9561   -6.5473   12.1206 H   0  0  0  0  0  0
   13.8854   -4.8751   10.6703 H   0  0  0  0  0  0
   15.2678   -3.2900    9.3816 H   0  0  0  0  0  0
   17.7313   -3.3489    9.5533 H   0  0  0  0  0  0
   18.8206   -5.0198   11.0049 H   0  0  0  0  0  0
  1  5  1  0  0  0
  1  2  1  0  0  0
  1  6  2  0  0  0
  2  3  1  0  0  0
  2 10  1  0  0  0
  3  7  2  0  0  0
  3  4  1  0  0  0
  4  8  2  0  0  0
  4  5  1  0  0  0
  8  9  1  0  0  0
  8 27  1  0  0  0
  9 14  2  0  0  0
  9 18  1  0  0  0
 10 11  1  0  0  0
 10 28  1  0  0  0
 10 29  1  0  0  0
 11 13  2  0  0  0
 11 12  1  0  0  0
 12 30  1  0  0  0
 14 15  1  0  0  0
 14 31  1  0  0  0
 15 16  2  0  0  0
 15 32  1  0  0  0
 16 17  1  0  0  0
 16 19  1  0  0  0
 17 18  2  0  0  0
 17 33  1  0  0  0
 18 34  1  0  0  0
 19 20  1  0  0  0
 20 21  1  0  0  0
 20 35  1  0  0  0
 20 36  1  0  0  0
 21 22  2  0  0  0
 21 26  1  0  0  0
 22 23  1  0  0  0
 22 37  1  0  0  0
 23 24  2  0  0  0
 23 38  1  0  0  0
 24 25  1  0  0  0
 24 39  1  0  0  0
 25 26  2  0  0  0
 25 40  1  0  0  0
 26 41  1  0  0  0
M  END
> <s_m_entry_id>
6331

> <s_m_entry_name>
dock_pv.166

> <s_m_Source_Path>
/home/csk/Desktop/cluster/DUD-E-result/aldr

> <s_m_Source_File>
dock_pv.maegz

> <i_m_Source_File_Index>
166

> <chembl_id>
CHEMBL1645382

> <chembl_pref_name>
None

> <i_lp_mmshare_version>
53161

> <i_f3d_flags>
0

> <r_lp_tautomer_probability>
1

> <s_lp_Force_Field>
OPLS_2005

> <r_lp_Energy>
23.396288

> <b_lp_Chiralities_Consistent>
1

> <s_lp_Variant>
CHEMBL1900_lig502-1

> <s_i_glide_gridfile>
glide-grid_2hv5

> <i_i_glide_lignum>
625

> <i_i_glide_rotatable_bonds>
7

> <r_i_docking_score>
-9.57859720389045

> <r_i_glide_ligand_efficiency>
-0.368407584765017

> <r_i_glide_ligand_efficiency_sa>
-1.09140602025252

> <r_i_glide_ligand_efficiency_ln>
-2.24950212339271

> <r_i_glide_gscore>
-9.57859720389045

> <r_i_glide_lipo>
-4.57834231568413

> <r_i_glide_hbond>
-0.0262095077366471

> <r_i_glide_metal>
0

> <r_i_glide_rewards>
-2.88922601110925

> <r_i_glide_evdw>
-39.560173034668

> <r_i_glide_ecoul>
-6.36407852172852

> <r_i_glide_erotb>
0.847801060632259

> <r_i_glide_esite>
0

> <r_i_glide_emodel>
-40.161832708492

> <r_i_glide_energy>
-45.9242515563965

> <r_i_glide_einternal>
14.6703500747681

> <i_i_glide_confnum>
16

> <i_i_glide_posenum>
351

> <r_i_glide_eff_state_penalty>
0

> <s_user_duplicate_titles>
CHEMBL1900_lig502

> <s_m_subgroup_title>
dock_pv

> <s_m_subgroupid>
dock_pv

> <b_m_subgroup_collapsed>
1

$$$$
CHEMBL1900_lig405
                    3D
 Schrodinger Suite 2021-1.
 50 54  0  0  1  0            999 V2000
   17.6859   -4.8317   11.2167 C   0  0  0  0  0  0
   17.5646   -7.8333   16.7196 N   0  0  0  0  0  0
   16.3347   -5.1972   11.3718 C   0  0  0  0  0  0
   18.5448   -5.5797   11.9371 N   0  0  0  0  0  0
   18.2659   -8.0028   14.5778 C   0  0  0  0  0  0
   17.3206   -9.1427   16.3375 C   0  0  0  0  0  0
   17.9741   -6.5408   12.5820 C   0  0  0  0  0  0
   18.0895   -7.1663   15.6446 C   0  0  0  0  0  0
   18.0623   -3.7764   10.3738 C   0  0  0  0  0  0
   16.2236   -6.5152   12.5210 S   0  0  0  0  0  0
   17.7998   -9.2877   15.0021 C   0  0  0  0  0  0
   16.7414  -10.2119   17.0255 C   0  0  0  0  0  0
   15.3329   -4.5157   10.6773 C   0  0  0  0  0  0
   17.0493   -3.1001    9.7021 C   0  0  0  0  0  0
   15.7148   -3.4657    9.8516 C   0  0  0  0  0  0
   16.6781  -11.4516   16.3848 C   0  0  0  0  0  0
   16.1309  -12.5269   17.0431 N   0  0  0  0  0  0
   18.8069   -7.6318   13.2253 C   0  0  0  0  0  0
   17.2815   -7.2216   18.0162 C   0  0  0  0  0  0
   17.7240  -10.5466   14.3822 C   0  0  0  0  0  0
   16.0593   -6.3112   18.0335 C   0  0  0  0  0  0
   17.1564  -11.6024   15.0794 C   0  0  0  0  0  0
   15.3458   -6.1077   17.0531 O   0  0  0  0  0  0
   19.3551   -3.4033   10.2239 F   0  0  0  0  0  0
   14.2874  -13.7723   18.8203 O   0  0  0  0  0  0
   14.0303   -4.8375   10.8379 F   0  0  0  0  0  0
   17.3438   -2.0575    8.9207 F   0  0  0  0  0  0
   15.8728   -5.7743   19.2729 O   0  0  0  0  0  0
   14.9962  -13.3081   16.5278 C   0  0  0  0  0  0
   16.5214  -12.9696   18.3909 C   0  0  0  0  0  0
   15.3181  -12.9506   19.3570 C   0  0  0  0  0  0
   13.8367  -13.3189   17.5445 C   0  0  0  0  0  0
   18.2960   -6.1168   15.7106 H   0  0  0  0  0  0
   16.3197  -10.0789   18.0054 H   0  0  0  0  0  0
   14.9505   -2.8866    9.3663 H   0  0  0  0  0  0
   19.8546   -7.3331   13.3280 H   0  0  0  0  0  0
   18.8195   -8.5071   12.5836 H   0  0  0  0  0  0
   17.1396   -8.0182   18.7417 H   0  0  0  0  0  0
   18.1610   -6.6457   18.3146 H   0  0  0  0  0  0
   18.0748  -10.6860   13.3727 H   0  0  0  0  0  0
   17.0888  -12.5682   14.6008 H   0  0  0  0  0  0
   16.5594   -6.0325   19.8935 H   0  0  0  0  0  0
   15.3194  -14.3204   16.3019 H   0  0  0  0  0  0
   14.6403  -12.8798   15.5894 H   0  0  0  0  0  0
   17.3585  -12.3784   18.7589 H   0  0  0  0  0  0
   16.9108  -13.9843   18.3144 H   0  0  0  0  0  0
   14.9546  -11.9358   19.5272 H   0  0  0  0  0  0
   15.6113  -13.3447   20.3293 H   0  0  0  0  0  0
   13.4228  -12.3176   17.6325 H   0  0  0  0  0  0
   13.0284  -13.9642   17.1982 H   0  0  0  0  0  0
  1  3  2  0  0  0
  1  4  1  0  0  0
  1  9  1  0  0  0
  2  8  1  0  0  0
  2 19  1  0  0  0
  2  6  1  0  0  0
  3 10  1  0  0  0
  3 13  1  0  0  0
  4  7  2  0  0  0
  5 18  1  0  0  0
  5  8  2  0  0  0
  5 11  1  0  0  0
  6 11  2  0  0  0
  6 12  1  0  0  0
  7 18  1  0  0  0
  7 10  1  0  0  0
  8 33  1  0  0  0
  9 14  2  0  0  0
  9 24  1  0  0  0
 11 20  1  0  0  0
 12 16  2  0  0  0
 12 34  1  0  0  0
 13 26  1  0  0  0
 13 15  2  0  0  0
 14 15  1  0  0  0
 14 27  1  0  0  0
 15 35  1  0  0  0
 16 22  1  0  0  0
 16 17  1  0  0  0
 17 29  1  0  0  0
 17 30  1  0  0  0
 18 36  1  0  0  0
 18 37  1  0  0  0
 19 21  1  0  0  0
 19 38  1  0  0  0
 19 39  1  0  0  0
 20 22  2  0  0  0
 20 40  1  0  0  0
 21 23  2  0  0  0
 21 28  1  0  0  0
 22 41  1  0  0  0
 25 31  1  0  0  0
 25 32  1  0  0  0
 28 42  1  0  0  0
 29 32  1  0  0  0
 29 43  1  0  0  0
 29 44  1  0  0  0
 30 31  1  0  0  0
 30 45  1  0  0  0
 30 46  1  0  0  0
 31 47  1  0  0  0
 31 48  1  0  0  0
 32 49  1  0  0  0
 32 50  1  0  0  0
M  END
> <s_m_entry_id>
6332

> <s_m_entry_name>
dock_pv.167

> <s_m_Source_Path>
/home/csk/Desktop/cluster/DUD-E-result/aldr

> <s_m_Source_File>
dock_pv.maegz

> <i_m_Source_File_Index>
167

> <chembl_id>
CHEMBL192762

> <chembl_pref_name>
None

> <i_lp_mmshare_version>
53161

> <i_f3d_flags>
0

> <r_lp_tautomer_probability>
1

> <s_lp_Force_Field>
OPLS_2005

> <r_lp_Energy>
28.31999

> <b_lp_Chiralities_Consistent>
1

> <s_lp_Variant>
CHEMBL1900_lig405-1

> <s_i_glide_gridfile>
glide-grid_2hv5

> <i_i_glide_lignum>
526

> <i_i_glide_rotatable_bonds>
6

> <r_i_docking_score>
-9.57819884470999

> <r_i_glide_ligand_efficiency>
-0.299318713897187

> <r_i_glide_ligand_efficiency_sa>
-0.950277681530523

> <r_i_glide_ligand_efficiency_ln>
-2.14481981317012

> <r_i_glide_gscore>
-9.57819884470999

> <r_i_glide_lipo>
-4.38819438325566

> <r_i_glide_hbond>
-0.275108126527571

> <r_i_glide_metal>
0

> <r_i_glide_rewards>
-2.42157751222044

> <r_i_glide_evdw>
-39.1222305297852

> <r_i_glide_ecoul>
-6.67148447036743

> <r_i_glide_erotb>
0.472810299129475

> <r_i_glide_esite>
-0.00929492479142584

> <r_i_glide_emodel>
-48.2472894727317

> <r_i_glide_energy>
-45.7937150001526

> <r_i_glide_einternal>
4.42240381240845

> <i_i_glide_confnum>
22

> <i_i_glide_posenum>
294

> <r_i_glide_eff_state_penalty>
0

> <s_user_duplicate_titles>
CHEMBL1900_lig405,321615

> <s_m_subgroup_title>
dock_pv

> <s_m_subgroupid>
dock_pv

> <b_m_subgroup_collapsed>
1

$$$$
CHEMBL1900_lig140
                    3D
 Schrodinger Suite 2021-1.
 43 45  0  0  1  0            999 V2000
   17.7168   -9.5051   15.0181 N   0  0  0  0  0  0
   17.4688   -8.5712   16.0221 N   0  0  0  0  0  0
   17.3449  -10.8374   15.0415 C   0  0  0  0  0  0
   16.6822   -8.8412   16.9902 C   0  0  0  0  0  0
   16.3755  -11.1346   16.1772 C   0  0  0  0  0  0
   18.5494   -9.0765   13.8663 C   0  0  0  0  0  0
   16.5011   -2.6085    9.4870 C   0  0  0  0  0  0
   16.0022  -10.1421   17.1081 C   0  0  0  0  0  0
   16.5958   -7.7645   18.0765 C   0  0  0  0  0  0
   18.3298   -7.6021   13.4733 C   0  0  0  0  0  0
   15.8121   -6.5204   17.6291 C   0  0  0  0  0  0
   16.6957   -3.8893   10.2868 C   0  0  0  0  0  0
   17.3107   -7.3324   12.6229 N   0  0  0  0  0  0
   17.7319  -11.6888   14.2332 O   0  0  0  0  0  0
   19.0984   -6.7588   13.9350 O   0  0  0  0  0  0
   14.9451   -6.5148   16.7559 O   0  0  0  0  0  0
   16.5470   -2.9028    8.1901 F   0  0  0  0  0  0
   17.4589   -1.7217    9.7628 F   0  0  0  0  0  0
   15.3434   -2.0323    9.7788 F   0  0  0  0  0  0
   17.9604   -4.1741   10.7909 C   0  0  0  0  0  0
   15.6218   -4.7406   10.5810 C   0  0  0  0  0  0
   17.0948   -6.1458   11.8913 C   0  0  0  0  0  0
   16.1621   -5.4365   18.3747 O   0  0  0  0  0  0
   18.1452   -5.2824   11.5938 C   0  0  0  0  0  0
   15.8249   -5.8740   11.3755 C   0  0  0  0  0  0
   15.8331  -12.4229   16.2795 C   0  0  0  0  0  0
   15.0163  -10.4301   18.0617 C   0  0  0  0  0  0
   14.9024  -12.7135   17.2737 C   0  0  0  0  0  0
   14.4944  -11.7180   18.1573 C   0  0  0  0  0  0
   18.3373   -9.6660   12.9756 H   0  0  0  0  0  0
   19.6091   -9.2460   14.0648 H   0  0  0  0  0  0
   16.1458   -8.1460   18.9883 H   0  0  0  0  0  0
   17.6086   -7.4719   18.3573 H   0  0  0  0  0  0
   16.6207   -8.0567   12.4921 H   0  0  0  0  0  0
   18.8035   -3.5331   10.5865 H   0  0  0  0  0  0
   14.6337   -4.5184   10.2058 H   0  0  0  0  0  0
   16.8956   -5.6200   18.9638 H   0  0  0  0  0  0
   19.1404   -5.4740   11.9504 H   0  0  0  0  0  0
   14.9889   -6.5194   11.5888 H   0  0  0  0  0  0
   16.1194  -13.1997   15.5823 H   0  0  0  0  0  0
   14.6664   -9.6824   18.7573 H   0  0  0  0  0  0
   14.4799  -13.7033   17.3482 H   0  0  0  0  0  0
   13.7454  -11.9390   18.9054 H   0  0  0  0  0  0
  1  2  1  0  0  0
  1  3  1  0  0  0
  1  6  1  0  0  0
  2  4  2  0  0  0
  3  5  1  0  0  0
  3 14  2  0  0  0
  4  9  1  0  0  0
  4  8  1  0  0  0
  5  8  2  0  0  0
  5 26  1  0  0  0
  6 10  1  0  0  0
  6 30  1  0  0  0
  6 31  1  0  0  0
  7 12  1  0  0  0
  7 17  1  0  0  0
  7 18  1  0  0  0
  7 19  1  0  0  0
  8 27  1  0  0  0
  9 11  1  0  0  0
  9 32  1  0  0  0
  9 33  1  0  0  0
 10 13  1  0  0  0
 10 15  2  0  0  0
 11 16  2  0  0  0
 11 23  1  0  0  0
 12 21  2  0  0  0
 12 20  1  0  0  0
 13 22  1  0  0  0
 13 34  1  0  0  0
 20 24  2  0  0  0
 20 35  1  0  0  0
 21 25  1  0  0  0
 21 36  1  0  0  0
 22 24  1  0  0  0
 22 25  2  0  0  0
 23 37  1  0  0  0
 24 38  1  0  0  0
 25 39  1  0  0  0
 26 28  2  0  0  0
 26 40  1  0  0  0
 27 29  2  0  0  0
 27 41  1  0  0  0
 28 29  1  0  0  0
 28 42  1  0  0  0
 29 43  1  0  0  0
M  END
> <s_m_entry_id>
6333

> <s_m_entry_name>
dock_pv.168

> <s_m_Source_Path>
/home/csk/Desktop/cluster/DUD-E-result/aldr

> <s_m_Source_File>
dock_pv.maegz

> <i_m_Source_File_Index>
168

> <chembl_id>
CHEMBL424485

> <chembl_pref_name>
None

> <i_lp_mmshare_version>
53161

> <i_f3d_flags>
0

> <r_lp_tautomer_probability>
1

> <s_lp_Force_Field>
OPLS_2005

> <r_lp_Energy>
33.595877

> <b_lp_Chiralities_Consistent>
1

> <s_lp_Variant>
CHEMBL1900_lig140-1

> <s_i_glide_gridfile>
glide-grid_2hv5

> <i_i_glide_lignum>
216

> <i_i_glide_rotatable_bonds>
8

> <r_i_docking_score>
-9.5695453103653

> <r_i_glide_ligand_efficiency>
-0.329984321047079

> <r_i_glide_ligand_efficiency_sa>
-1.01381638062752

> <r_i_glide_ligand_efficiency_ln>
-2.1911832133421

> <r_i_glide_gscore>
-9.5695453103653

> <r_i_glide_lipo>
-3.91515464181111

> <r_i_glide_hbond>
-0.32

> <r_i_glide_metal>
0

> <r_i_glide_rewards>
-3.07897406463161

> <r_i_glide_evdw>
-50.0718421936035

> <r_i_glide_ecoul>
-2.79905247688293

> <r_i_glide_erotb>
0.717692791817177

> <r_i_glide_esite>
-0.0496594145271367

> <r_i_glide_emodel>
-74.8728451287851

> <r_i_glide_energy>
-52.8708946704865

> <r_i_glide_einternal>
10.8824892044067

> <i_i_glide_confnum>
105

> <i_i_glide_posenum>
399

> <r_i_glide_eff_state_penalty>
0

> <s_user_duplicate_titles>
CHEMBL1900_lig140

> <s_m_subgroup_title>
dock_pv

> <s_m_subgroupid>
dock_pv

> <b_m_subgroup_collapsed>
1

$$$$
CHEMBL1900_lig312
                    3D
 Schrodinger Suite 2021-1.
 41 44  0  0  1  0            999 V2000
   17.9800   -8.5128   15.2968 N   0  0  0  0  0  0
   17.6836   -7.8123   16.4624 N   0  0  0  0  0  0
   17.8879   -6.8482   13.3871 C   0  0  0  0  0  0
   17.5193   -9.7844   14.9808 C   0  0  0  0  0  0
   18.4049   -5.9820   12.5560 N   0  0  0  0  0  0
   16.8589   -8.2726   17.3223 C   0  0  0  0  0  0
   18.7552   -7.7017   14.3118 C   0  0  2  0  0  0
   16.1452   -6.9150   13.3521 S   0  0  0  0  0  0
   16.5327  -10.3151   16.0145 C   0  0  0  0  0  0
   17.4738   -5.4235   11.7356 C   0  0  0  0  0  0
   16.1472   -9.5445   17.1294 C   0  0  0  0  0  0
   16.7505   -7.4557   18.6164 C   0  0  0  0  0  0
   16.1445   -5.8372   11.9814 C   0  0  0  0  0  0
   16.1829   -6.0367   18.4973 C   0  0  0  0  0  0
   17.7401   -4.5156   10.6996 C   0  0  0  0  0  0
   17.8186  -10.4119   13.9623 O   0  0  0  0  0  0
   16.1336   -5.2872   19.4684 O   0  0  0  0  0  0
   15.0741   -5.3794   11.2070 C   0  0  0  0  0  0
   16.6675   -4.0503    9.9357 C   0  0  0  0  0  0
   15.7453   -5.7140   17.2466 O   0  0  0  0  0  0
   15.3651   -4.4838   10.1812 C   0  0  0  0  0  0
   19.8284   -8.4619   13.5009 C   0  0  0  0  0  0
   16.9508   -2.9147    8.6686 Cl  0  0  0  0  0  0
   15.9559  -11.5751   15.8072 C   0  0  0  0  0  0
   15.1112  -10.0034   17.9556 C   0  0  0  0  0  0
   14.9724  -12.0471   16.6754 C   0  0  0  0  0  0
   14.5457  -11.2589   17.7410 C   0  0  0  0  0  0
   19.3482   -7.0034   14.9095 H   0  0  0  0  0  0
   16.1832   -7.9760   19.3829 H   0  0  0  0  0  0
   17.7467   -7.3176   19.0300 H   0  0  0  0  0  0
   18.7450   -4.1822   10.4994 H   0  0  0  0  0  0
   14.0576   -5.6944   11.4034 H   0  0  0  0  0  0
   16.0502   -6.3822   16.6250 H   0  0  0  0  0  0
   14.5562   -4.1135    9.5693 H   0  0  0  0  0  0
   20.5448   -7.7658   13.0897 H   0  0  0  0  0  0
   20.3772   -9.1750   14.1078 H   0  0  0  0  0  0
   19.3954   -9.0005   12.6575 H   0  0  0  0  0  0
   16.2503  -12.1865   14.9655 H   0  0  0  0  0  0
   14.7496   -9.4229   18.7899 H   0  0  0  0  0  0
   14.5232  -13.0155   16.5096 H   0  0  0  0  0  0
   13.7680  -11.6209   18.3979 H   0  0  0  0  0  0
  1  2  1  0  0  0
  1  4  1  0  0  0
  1  7  1  0  0  0
  2  6  2  0  0  0
  3  7  1  0  0  0
  3  5  2  0  0  0
  3  8  1  0  0  0
  4  9  1  0  0  0
  4 16  2  0  0  0
  5 10  1  0  0  0
  6 12  1  0  0  0
  6 11  1  0  0  0
  7 22  1  0  0  0
  7 28  1  0  0  0
  8 13  1  0  0  0
  9 11  1  0  0  0
  9 24  2  0  0  0
 10 15  1  0  0  0
 10 13  2  0  0  0
 11 25  2  0  0  0
 12 14  1  0  0  0
 12 29  1  0  0  0
 12 30  1  0  0  0
 13 18  1  0  0  0
 14 17  2  0  0  0
 14 20  1  0  0  0
 15 19  2  0  0  0
 15 31  1  0  0  0
 18 21  2  0  0  0
 18 32  1  0  0  0
 19 23  1  0  0  0
 19 21  1  0  0  0
 20 33  1  0  0  0
 21 34  1  0  0  0
 22 35  1  0  0  0
 22 36  1  0  0  0
 22 37  1  0  0  0
 24 26  1  0  0  0
 24 38  1  0  0  0
 25 27  1  0  0  0
 25 39  1  0  0  0
 26 27  2  0  0  0
 26 40  1  0  0  0
 27 41  1  0  0  0
M  END
> <s_m_entry_id>
6334

> <s_m_entry_name>
dock_pv.169

> <s_m_Source_Path>
/home/csk/Desktop/cluster/DUD-E-result/aldr

> <s_m_Source_File>
dock_pv.maegz

> <i_m_Source_File_Index>
169

> <chembl_id>
CHEMBL20009

> <chembl_pref_name>
None

> <i_lp_mmshare_version>
53161

> <i_f3d_flags>
0

> <r_lp_tautomer_probability>
1

> <s_lp_Force_Field>
OPLS_2005

> <r_lp_Energy>
22.682081

> <b_lp_Chiralities_Consistent>
1

> <s_lp_Variant>
CHEMBL1900_lig312-2

> <s_i_glide_gridfile>
glide-grid_2hv5

> <i_i_glide_lignum>
429

> <i_i_glide_rotatable_bonds>
5

> <r_i_docking_score>
-9.55931989883302

> <r_i_glide_ligand_efficiency>
-0.354048885141964

> <r_i_glide_ligand_efficiency_sa>
-1.062146654259

> <r_i_glide_ligand_efficiency_ln>
-2.22525207474287

> <r_i_glide_gscore>
-9.55931989883302

> <r_i_glide_lipo>
-5.01026450796177

> <r_i_glide_hbond>
-0.036756521020735

> <r_i_glide_metal>
0

> <r_i_glide_rewards>
-2.01858575682118

> <r_i_glide_evdw>
-46.1411781311035

> <r_i_glide_ecoul>
-4.51321268081665

> <r_i_glide_erotb>
0.490327695648328

> <r_i_glide_esite>
0

> <r_i_glide_emodel>
-74.4610614092415

> <r_i_glide_energy>
-50.6543908119202

> <r_i_glide_einternal>
7.99831008911133

> <i_i_glide_confnum>
26

> <i_i_glide_posenum>
363

> <r_i_glide_eff_state_penalty>
0

> <s_user_duplicate_titles>
CHEMBL1900_lig312

> <s_m_subgroup_title>
dock_pv

> <s_m_subgroupid>
dock_pv

> <b_m_subgroup_collapsed>
1

$$$$
CHEMBL1900_lig147
                    3D
 Schrodinger Suite 2021-1.
 41 43  0  0  1  0            999 V2000
   17.7718   -8.1501   15.4665 N   0  0  0  0  0  0
   17.2459   -7.3477   16.4769 N   0  0  0  0  0  0
   17.5784   -9.5156   15.3290 C   0  0  0  0  0  0
   16.4045   -7.8156   17.3250 C   0  0  0  0  0  0
   16.5167  -10.0442   16.2812 C   0  0  0  0  0  0
   17.4663   -5.3057   11.7806 C   0  0  0  0  0  0
   18.7823   -7.4845   14.6085 C   0  0  0  0  0  0
   15.9359   -9.2140   17.2603 C   0  0  0  0  0  0
   16.0735   -5.4268   11.6616 C   0  0  0  0  0  0
   15.8371   -6.8856   18.4195 C   0  0  0  0  0  0
   18.1441   -7.1424   13.2533 C   0  0  0  0  0  0
   15.3886   -4.7721   10.6383 C   0  0  0  0  0  0
   18.1808   -5.8525   12.8622 N   0  0  0  0  0  0
   18.1471   -4.5050   10.8675 C   0  0  0  0  0  0
   16.5582   -5.5437   18.6274 C   0  0  0  0  0  0
   16.0838   -3.9851    9.7232 C   0  0  0  0  0  0
   17.4643   -3.8512    9.8421 C   0  0  0  0  0  0
   18.1999  -10.2310   14.5400 O   0  0  0  0  0  0
   17.6323   -8.0352   12.5809 O   0  0  0  0  0  0
   16.1450   -4.4777   18.1805 O   0  0  0  0  0  0
   14.0441   -4.8638   10.5779 F   0  0  0  0  0  0
   15.3450   -6.1174   12.5811 O   0  0  0  0  0  0
   18.1441   -3.0657    8.9813 F   0  0  0  0  0  0
   17.6883   -5.6873   19.3745 O   0  0  0  0  0  0
   16.1373  -11.3894   16.1885 C   0  0  0  0  0  0
   14.9447   -9.7448   18.0978 C   0  0  0  0  0  0
   15.1500  -11.9000   17.0309 C   0  0  0  0  0  0
   14.5472  -11.0759   17.9790 C   0  0  0  0  0  0
   19.6671   -8.1054   14.4581 H   0  0  0  0  0  0
   19.1556   -6.5782   15.0902 H   0  0  0  0  0  0
   14.7957   -6.6655   18.1809 H   0  0  0  0  0  0
   15.8281   -7.4036   19.3778 H   0  0  0  0  0  0
   18.7424   -5.2130   13.4001 H   0  0  0  0  0  0
   19.2090   -4.3571   10.9720 H   0  0  0  0  0  0
   15.5456   -3.4638    8.9448 H   0  0  0  0  0  0
   14.4096   -5.8946   12.5233 H   0  0  0  0  0  0
   17.8884   -6.6059   19.5680 H   0  0  0  0  0  0
   16.5878  -12.0376   15.4515 H   0  0  0  0  0  0
   14.4683   -9.1403   18.8508 H   0  0  0  0  0  0
   14.8456  -12.9330   16.9447 H   0  0  0  0  0  0
   13.7716  -11.4703   18.6205 H   0  0  0  0  0  0
  1  2  1  0  0  0
  1  3  1  0  0  0
  1  7  1  0  0  0
  2  4  2  0  0  0
  3  5  1  0  0  0
  3 18  2  0  0  0
  4 10  1  0  0  0
  4  8  1  0  0  0
  5  8  2  0  0  0
  5 25  1  0  0  0
  6 13  1  0  0  0
  6  9  1  0  0  0
  6 14  2  0  0  0
  7 11  1  0  0  0
  7 29  1  0  0  0
  7 30  1  0  0  0
  8 26  1  0  0  0
  9 12  2  0  0  0
  9 22  1  0  0  0
 10 15  1  0  0  0
 10 31  1  0  0  0
 10 32  1  0  0  0
 11 13  1  0  0  0
 11 19  2  0  0  0
 12 21  1  0  0  0
 12 16  1  0  0  0
 13 33  1  0  0  0
 14 17  1  0  0  0
 14 34  1  0  0  0
 15 20  2  0  0  0
 15 24  1  0  0  0
 16 17  2  0  0  0
 16 35  1  0  0  0
 17 23  1  0  0  0
 22 36  1  0  0  0
 24 37  1  0  0  0
 25 27  2  0  0  0
 25 38  1  0  0  0
 26 28  2  0  0  0
 26 39  1  0  0  0
 27 28  1  0  0  0
 27 40  1  0  0  0
 28 41  1  0  0  0
M  END
> <s_m_entry_id>
6335

> <s_m_entry_name>
dock_pv.170

> <s_m_Source_Path>
/home/csk/Desktop/cluster/DUD-E-result/aldr

> <s_m_Source_File>
dock_pv.maegz

> <i_m_Source_File_Index>
170

> <chembl_id>
CHEMBL143863

> <chembl_pref_name>
None

> <i_lp_mmshare_version>
53161

> <i_f3d_flags>
0

> <r_lp_tautomer_probability>
0.999999999997365

> <s_lp_Force_Field>
OPLS_2005

> <r_lp_Energy>
30.870184

> <b_lp_Chiralities_Consistent>
1

> <s_lp_Variant>
CHEMBL1900_lig147-1

> <s_i_glide_gridfile>
glide-grid_2hv5

> <i_i_glide_lignum>
223

> <i_i_glide_rotatable_bonds>
8

> <r_i_docking_score>
-9.54350931447611

> <r_i_glide_ligand_efficiency>
-0.340839618374147

> <r_i_glide_ligand_efficiency_sa>
-1.03498982518364

> <r_i_glide_ligand_efficiency_ln>
-2.20292215939043

> <r_i_glide_gscore>
-9.54350931447611

> <r_i_glide_lipo>
-3.98553564935815

> <r_i_glide_hbond>
0

> <r_i_glide_metal>
0

> <r_i_glide_rewards>
-3.41990799921383

> <r_i_glide_evdw>
-49.4179344177246

> <r_i_glide_ecoul>
-2.92567133903503

> <r_i_glide_erotb>
0.771681755837358

> <r_i_glide_esite>
0

> <r_i_glide_emodel>
-76.9698665970164

> <r_i_glide_energy>
-52.3436057567596

> <r_i_glide_einternal>
8.62239360809326

> <i_i_glide_confnum>
63

> <i_i_glide_posenum>
385

> <r_i_glide_eff_state_penalty>
0

> <s_user_duplicate_titles>
CHEMBL1900_lig147,235577

> <s_m_subgroup_title>
dock_pv

> <s_m_subgroupid>
dock_pv

> <b_m_subgroup_collapsed>
1

$$$$
CHEMBL1900_lig151
                    3D
 Schrodinger Suite 2021-1.
 41 44  0  0  1  0            999 V2000
   17.7772   -9.7293   15.0543 N   0  0  0  0  0  0
   17.6351   -8.7058   15.9909 N   0  0  0  0  0  0
   17.9308   -6.2581   12.5398 C   0  0  0  0  0  0
   17.6021   -7.5330   12.5810 N   0  0  0  0  0  0
   17.2892  -11.0163   15.1787 C   0  0  0  0  0  0
   16.8074   -8.8173   16.9551 C   0  0  0  0  0  0
   18.4919   -8.0083   13.4050 C   0  0  0  0  0  0
   17.3090   -5.3191   11.5595 C   0  0  0  0  0  0
   18.8877   -5.8756   13.3640 N   0  0  0  0  0  0
   18.6352   -9.4348   13.8875 C   0  0  0  0  0  0
   16.2568  -11.1162   16.2953 C   0  0  0  0  0  0
   15.9786  -10.0176   17.1361 C   0  0  0  0  0  0
   16.8063   -7.6676   17.9659 C   0  0  0  0  0  0
   19.2957   -7.0666   13.9540 O   0  0  0  0  0  0
   15.9279   -5.2819   11.3135 C   0  0  0  0  0  0
   15.8631   -6.5154   17.5844 C   0  0  0  0  0  0
   18.1450   -4.4420   10.8565 C   0  0  0  0  0  0
   15.4024   -4.3457   10.4229 C   0  0  0  0  0  0
   17.6304  -11.9647   14.4664 O   0  0  0  0  0  0
   14.9454   -6.5870   16.7660 O   0  0  0  0  0  0
   16.2473   -3.4424    9.7806 C   0  0  0  0  0  0
   15.0820   -6.1153   11.9585 F   0  0  0  0  0  0
   17.6199   -3.5038    9.9771 C   0  0  0  0  0  0
   16.1458   -5.4055   18.3231 O   0  0  0  0  0  0
   15.7450   -2.4846    8.9811 F   0  0  0  0  0  0
   15.5702  -12.3239   16.4755 C   0  0  0  0  0  0
   14.9455  -10.1119   18.0739 C   0  0  0  0  0  0
   14.5788  -12.4207   17.4507 C   0  0  0  0  0  0
   14.2677  -11.3151   18.2391 C   0  0  0  0  0  0
   19.6718   -9.5980   14.1810 H   0  0  0  0  0  0
   18.4570  -10.1130   13.0500 H   0  0  0  0  0  0
   16.5310   -8.0262   18.9571 H   0  0  0  0  0  0
   17.8202   -7.2766   18.0744 H   0  0  0  0  0  0
   19.2116   -4.4745   10.9896 H   0  0  0  0  0  0
   14.3362   -4.2943   10.2572 H   0  0  0  0  0  0
   18.2685   -2.8110    9.4610 H   0  0  0  0  0  0
   16.9224   -5.5217   18.8743 H   0  0  0  0  0  0
   15.7832  -13.1805   15.8518 H   0  0  0  0  0  0
   14.6765   -9.2754   18.7015 H   0  0  0  0  0  0
   14.0356  -13.3444   17.5840 H   0  0  0  0  0  0
   13.4887  -11.3781   18.9812 H   0  0  0  0  0  0
  1  2  1  0  0  0
  1  5  1  0  0  0
  1 10  1  0  0  0
  2  6  2  0  0  0
  3  4  1  0  0  0
  3  8  1  0  0  0
  3  9  2  0  0  0
  4  7  2  0  0  0
  5 11  1  0  0  0
  5 19  2  0  0  0
  6 13  1  0  0  0
  6 12  1  0  0  0
  7 10  1  0  0  0
  7 14  1  0  0  0
  8 15  2  0  0  0
  8 17  1  0  0  0
  9 14  1  0  0  0
 10 30  1  0  0  0
 10 31  1  0  0  0
 11 12  2  0  0  0
 11 26  1  0  0  0
 12 27  1  0  0  0
 13 16  1  0  0  0
 13 32  1  0  0  0
 13 33  1  0  0  0
 15 18  1  0  0  0
 15 22  1  0  0  0
 16 20  2  0  0  0
 16 24  1  0  0  0
 17 23  2  0  0  0
 17 34  1  0  0  0
 18 21  2  0  0  0
 18 35  1  0  0  0
 21 23  1  0  0  0
 21 25  1  0  0  0
 23 36  1  0  0  0
 24 37  1  0  0  0
 26 28  2  0  0  0
 26 38  1  0  0  0
 27 29  2  0  0  0
 27 39  1  0  0  0
 28 29  1  0  0  0
 28 40  1  0  0  0
 29 41  1  0  0  0
M  END
> <s_m_entry_id>
6336

> <s_m_entry_name>
dock_pv.171

> <s_m_Source_Path>
/home/csk/Desktop/cluster/DUD-E-result/aldr

> <s_m_Source_File>
dock_pv.maegz

> <i_m_Source_File_Index>
171

> <chembl_id>
CHEMBL356286

> <chembl_pref_name>
None

> <i_lp_mmshare_version>
53161

> <i_f3d_flags>
0

> <r_lp_tautomer_probability>
1

> <s_lp_Force_Field>
OPLS_2005

> <r_lp_Energy>
30.982864

> <b_lp_Chiralities_Consistent>
1

> <s_lp_Variant>
CHEMBL1900_lig151-1

> <s_i_glide_gridfile>
glide-grid_2hv5

> <i_i_glide_lignum>
227

> <i_i_glide_rotatable_bonds>
6

> <r_i_docking_score>
-9.54030580244479

> <r_i_glide_ligand_efficiency>
-0.328976062153269

> <r_i_glide_ligand_efficiency_sa>
-1.0107186898669

> <r_i_glide_ligand_efficiency_ln>
-2.18448810747825

> <r_i_glide_gscore>
-9.54030580244479

> <r_i_glide_lipo>
-3.92502422889026

> <r_i_glide_hbond>
-0.312686626121338

> <r_i_glide_metal>
0

> <r_i_glide_rewards>
-2.96598035438813

> <r_i_glide_evdw>
-50.1020927429199

> <r_i_glide_ecoul>
-2.99111700057983

> <r_i_glide_erotb>
0.617157594187908

> <r_i_glide_esite>
0

> <r_i_glide_emodel>
-76.986602670287

> <r_i_glide_energy>
-53.0932097434998

> <r_i_glide_einternal>
5.40029525756836

> <i_i_glide_confnum>
58

> <i_i_glide_posenum>
292

> <r_i_glide_eff_state_penalty>
0

> <s_user_duplicate_titles>
CHEMBL1900_lig151,235295

> <s_m_subgroup_title>
dock_pv

> <s_m_subgroupid>
dock_pv

> <b_m_subgroup_collapsed>
1

$$$$
CHEMBL1900_lig198
                    3D
 Schrodinger Suite 2021-1.
 42 45  0  0  1  0            999 V2000
   17.8282   -8.5333   15.3143 N   0  0  0  0  0  0
   17.2784   -7.6705   16.2558 N   0  0  0  0  0  0
   17.5561   -9.8817   15.1768 C   0  0  0  0  0  0
   16.2907   -8.0463   16.9783 C   0  0  0  0  0  0
   18.1448   -6.1062   12.5053 N   0  0  0  0  0  0
   17.7570   -7.0535   13.3221 C   0  0  0  0  0  0
   16.4823  -10.3492   16.1540 C   0  0  0  0  0  0
   18.6276   -7.8615   14.2702 C   0  0  0  0  0  0
   17.0441   -5.7198   11.8726 C   0  0  0  0  0  0
   15.8576   -9.4524   17.0450 C   0  0  0  0  0  0
   15.5278   -6.9191   17.6913 C   0  0  0  0  0  0
   15.9686   -6.4550   12.3430 C   0  0  0  0  0  0
   16.4283   -7.3148   13.2738 O   0  0  0  0  0  0
   16.3072   -6.2021   18.8084 C   0  0  0  0  0  0
   18.0978  -10.6185   14.3462 O   0  0  0  0  0  0
   17.0202   -4.6270   10.8555 C   0  0  0  0  0  0
   15.7450   -5.7138   19.7810 O   0  0  0  0  0  0
   17.6465   -6.1154   18.5826 O   0  0  0  0  0  0
   16.1231  -11.7037   16.1618 C   0  0  0  0  0  0
   14.9461   -9.9490   17.9876 C   0  0  0  0  0  0
   18.1058   -3.7650   10.6931 C   0  0  0  0  0  0
   15.8782   -4.4326   10.0811 C   0  0  0  0  0  0
   15.1741  -12.1718   17.0702 C   0  0  0  0  0  0
   14.5938  -11.2992   17.9872 C   0  0  0  0  0  0
   15.8325   -3.3900    9.1670 C   0  0  0  0  0  0
   18.0620   -2.7138    9.7820 C   0  0  0  0  0  0
   16.9148   -2.5267    9.0190 C   0  0  0  0  0  0
   19.3726   -7.2314   14.7593 H   0  0  0  0  0  0
   19.2186   -8.5662   13.6797 H   0  0  0  0  0  0
   15.2590   -6.1574   16.9619 H   0  0  0  0  0  0
   14.5757   -7.2603   18.0915 H   0  0  0  0  0  0
   14.9092   -6.4636   12.1366 H   0  0  0  0  0  0
   17.8808   -6.5409   17.7501 H   0  0  0  0  0  0
   16.5812  -12.4011   15.4728 H   0  0  0  0  0  0
   14.5004   -9.3107   18.7319 H   0  0  0  0  0  0
   18.9458   -3.8833   11.3413 H   0  0  0  0  0  0
   15.0172   -5.0760   10.1847 H   0  0  0  0  0  0
   14.8959  -13.2162   17.0749 H   0  0  0  0  0  0
   13.8712  -11.6705   18.7018 H   0  0  0  0  0  0
   14.9452   -3.2605    8.5814 H   0  0  0  0  0  0
   18.8945   -2.0315    9.6931 H   0  0  0  0  0  0
   16.8557   -1.7152    8.3102 H   0  0  0  0  0  0
  1  2  1  0  0  0
  1  3  1  0  0  0
  1  8  1  0  0  0
  2  4  2  0  0  0
  3  7  1  0  0  0
  3 15  2  0  0  0
  4 11  1  0  0  0
  4 10  1  0  0  0
  5  6  2  0  0  0
  5  9  1  0  0  0
  6  8  1  0  0  0
  6 13  1  0  0  0
  7 10  2  0  0  0
  7 19  1  0  0  0
  8 28  1  0  0  0
  8 29  1  0  0  0
  9 16  1  0  0  0
  9 12  2  0  0  0
 10 20  1  0  0  0
 11 14  1  0  0  0
 11 30  1  0  0  0
 11 31  1  0  0  0
 12 13  1  0  0  0
 12 32  1  0  0  0
 14 17  2  0  0  0
 14 18  1  0  0  0
 16 21  2  0  0  0
 16 22  1  0  0  0
 18 33  1  0  0  0
 19 23  2  0  0  0
 19 34  1  0  0  0
 20 24  2  0  0  0
 20 35  1  0  0  0
 21 26  1  0  0  0
 21 36  1  0  0  0
 22 25  2  0  0  0
 22 37  1  0  0  0
 23 24  1  0  0  0
 23 38  1  0  0  0
 24 39  1  0  0  0
 25 27  1  0  0  0
 25 40  1  0  0  0
 26 27  2  0  0  0
 26 41  1  0  0  0
 27 42  1  0  0  0
M  END
> <s_m_entry_id>
6337

> <s_m_entry_name>
dock_pv.172

> <s_m_Source_Path>
/home/csk/Desktop/cluster/DUD-E-result/aldr

> <s_m_Source_File>
dock_pv.maegz

> <i_m_Source_File_Index>
172

> <chembl_id>
CHEMBL140980

> <chembl_pref_name>
None

> <i_lp_mmshare_version>
53161

> <i_f3d_flags>
0

> <r_lp_tautomer_probability>
1

> <s_lp_Force_Field>
OPLS_2005

> <r_lp_Energy>
27.018311

> <b_lp_Chiralities_Consistent>
1

> <s_lp_Variant>
CHEMBL1900_lig198-1

> <s_i_glide_gridfile>
glide-grid_2hv5

> <i_i_glide_lignum>
274

> <i_i_glide_rotatable_bonds>
6

> <r_i_docking_score>
-9.52893742484267

> <r_i_glide_ligand_efficiency>
-0.352923608327506

> <r_i_glide_ligand_efficiency_sa>
-1.05877082381934

> <r_i_glide_ligand_efficiency_ln>
-2.21817953569214

> <r_i_glide_gscore>
-9.52893742484267

> <r_i_glide_lipo>
-4.55019751134836

> <r_i_glide_hbond>
-0.32

> <r_i_glide_metal>
0

> <r_i_glide_rewards>
-2.46819553903895

> <r_i_glide_evdw>
-49.3697624206543

> <r_i_glide_ecoul>
-3.04578328132629

> <r_i_glide_erotb>
0.734811238776308

> <r_i_glide_esite>
0

> <r_i_glide_emodel>
-77.846101354649

> <r_i_glide_energy>
-52.4155457019806

> <r_i_glide_einternal>
3.93731188774109

> <i_i_glide_confnum>
90

> <i_i_glide_posenum>
337

> <r_i_glide_eff_state_penalty>
0

> <s_user_duplicate_titles>
CHEMBL1900_lig198

> <s_m_subgroup_title>
dock_pv

> <s_m_subgroupid>
dock_pv

> <b_m_subgroup_collapsed>
1

$$$$
CHEMBL1900_lig293
                    3D
 Schrodinger Suite 2021-1.
 41 44  0  0  1  0            999 V2000
   18.1435   -7.8334   14.8341 N   0  0  0  0  0  0
   17.6218   -7.3096   16.0114 N   0  0  0  0  0  0
   18.0989   -9.1528   14.4214 C   0  0  0  0  0  0
   17.0966   -8.0823   16.8854 C   0  0  0  0  0  0
   18.0029   -6.2080   12.9134 C   0  0  0  0  0  0
   16.7997   -9.4944   16.5940 C   0  0  0  0  0  0
   17.3367  -10.0278   15.4061 C   0  0  0  0  0  0
   18.5403   -5.3147   12.1401 N   0  0  0  0  0  0
   18.8574   -6.8608   13.9910 C   0  0  0  0  0  0
   16.3028   -6.5159   12.5874 S   0  0  0  0  0  0
   14.9198  -12.5320   17.9913 C   0  0  0  0  0  0
   16.9633   -7.5031   18.3089 C   0  0  0  0  0  0
   15.9622  -10.2933   17.3803 C   0  0  0  0  0  0
   15.7717  -11.6475   17.0812 C   0  0  0  0  0  0
   17.6817   -4.8044   11.2302 C   0  0  0  0  0  0
   16.3647   -5.3114   11.3080 C   0  0  0  0  0  0
   17.1411  -11.3791   15.0981 C   0  0  0  0  0  0
   16.1636   -6.1965   18.4852 C   0  0  0  0  0  0
   18.6145   -9.5748   13.3826 O   0  0  0  0  0  0
   16.3733  -12.1845   15.9380 C   0  0  0  0  0  0
   15.9282   -5.7203   19.5939 O   0  0  0  0  0  0
   14.1433  -13.3431   17.2716 F   0  0  0  0  0  0
   14.1463  -11.8046   18.7993 F   0  0  0  0  0  0
   15.7303  -13.2718   18.7477 F   0  0  0  0  0  0
   15.7495   -5.6419   17.3138 O   0  0  0  0  0  0
   18.0189   -3.8250   10.2827 C   0  0  0  0  0  0
   15.3622   -4.8323   10.4580 C   0  0  0  0  0  0
   17.0162   -3.3572    9.4362 C   0  0  0  0  0  0
   15.7195   -3.8566    9.5245 C   0  0  0  0  0  0
   19.3204   -6.1045   14.6282 H   0  0  0  0  0  0
   19.7252   -7.3306   13.5204 H   0  0  0  0  0  0
   16.5427   -8.2256   18.9992 H   0  0  0  0  0  0
   17.9637   -7.3067   18.6929 H   0  0  0  0  0  0
   15.4773   -9.8855   18.2548 H   0  0  0  0  0  0
   17.5609  -11.8073   14.1976 H   0  0  0  0  0  0
   16.2326  -13.2272   15.6883 H   0  0  0  0  0  0
   16.1836   -6.1066   16.5896 H   0  0  0  0  0  0
   19.0185   -3.4255   10.2276 H   0  0  0  0  0  0
   14.3453   -5.1925   10.5321 H   0  0  0  0  0  0
   17.2425   -2.5957    8.7038 H   0  0  0  0  0  0
   14.9595   -3.4712    8.8607 H   0  0  0  0  0  0
  1  2  1  0  0  0
  1  3  1  0  0  0
  1  9  1  0  0  0
  2  4  2  0  0  0
  3  7  1  0  0  0
  3 19  2  0  0  0
  4 12  1  0  0  0
  4  6  1  0  0  0
  5  9  1  0  0  0
  5  8  2  0  0  0
  5 10  1  0  0  0
  6  7  1  0  0  0
  6 13  2  0  0  0
  7 17  2  0  0  0
  8 15  1  0  0  0
  9 30  1  0  0  0
  9 31  1  0  0  0
 10 16  1  0  0  0
 11 14  1  0  0  0
 11 22  1  0  0  0
 11 23  1  0  0  0
 11 24  1  0  0  0
 12 18  1  0  0  0
 12 32  1  0  0  0
 12 33  1  0  0  0
 13 14  1  0  0  0
 13 34  1  0  0  0
 14 20  2  0  0  0
 15 26  1  0  0  0
 15 16  2  0  0  0
 16 27  1  0  0  0
 17 20  1  0  0  0
 17 35  1  0  0  0
 18 21  2  0  0  0
 18 25  1  0  0  0
 20 36  1  0  0  0
 25 37  1  0  0  0
 26 28  2  0  0  0
 26 38  1  0  0  0
 27 29  2  0  0  0
 27 39  1  0  0  0
 28 29  1  0  0  0
 28 40  1  0  0  0
 29 41  1  0  0  0
M  END
> <s_m_entry_id>
6338

> <s_m_entry_name>
dock_pv.173

> <s_m_Source_Path>
/home/csk/Desktop/cluster/DUD-E-result/aldr

> <s_m_Source_File>
dock_pv.maegz

> <i_m_Source_File_Index>
173

> <chembl_id>
CHEMBL283787

> <chembl_pref_name>
None

> <i_lp_mmshare_version>
53161

> <i_f3d_flags>
0

> <r_lp_tautomer_probability>
1

> <s_lp_Force_Field>
OPLS_2005

> <r_lp_Energy>
25.410112

> <b_lp_Chiralities_Consistent>
1

> <s_lp_Variant>
CHEMBL1900_lig293-1

> <s_i_glide_gridfile>
glide-grid_2hv5

> <i_i_glide_lignum>
409

> <i_i_glide_rotatable_bonds>
6

> <r_i_docking_score>
-9.52597651367634

> <r_i_glide_ligand_efficiency>
-0.32848194874746

> <r_i_glide_ligand_efficiency_sa>
-1.00920061693814

> <r_i_glide_ligand_efficiency_ln>
-2.18120706370968

> <r_i_glide_gscore>
-9.52597651367634

> <r_i_glide_lipo>
-4.31910264561436

> <r_i_glide_hbond>
-0.227928808578919

> <r_i_glide_metal>
0

> <r_i_glide_rewards>
-2.2218628149602

> <r_i_glide_evdw>
-50.5312538146973

> <r_i_glide_ecoul>
-4.11707878112793

> <r_i_glide_erotb>
0.449921467149157

> <r_i_glide_esite>
-0.0628792037679689

> <r_i_glide_emodel>
-79.8799926471943

> <r_i_glide_energy>
-54.6483325958252

> <r_i_glide_einternal>
4.15693235397339

> <i_i_glide_confnum>
25

> <i_i_glide_posenum>
153

> <r_i_glide_eff_state_penalty>
0

> <s_user_duplicate_titles>
CHEMBL1900_lig293,24150

> <s_m_subgroup_title>
dock_pv

> <s_m_subgroupid>
dock_pv

> <b_m_subgroup_collapsed>
1

$$$$
CHEMBL1900_lig59
                    3D
 Schrodinger Suite 2021-1.
 36 39  0  0  1  0            999 V2000
   17.7184   -7.8183   15.0432 N   0  0  0  0  0  0
   17.1429   -6.9151   15.8589 N   0  0  0  0  0  0
   16.3680   -7.5616   16.6924 C   0  0  0  0  0  0
   17.8631   -6.4519   12.9467 C   0  0  0  0  0  0
   16.4603   -8.9709   16.4694 C   0  0  0  0  0  0
   18.5294   -5.5702   12.2526 N   0  0  0  0  0  0
   17.3631   -9.1135   15.3833 C   0  0  0  0  0  0
   18.5742   -7.3446   13.9572 C   0  0  0  0  0  0
   16.1451   -6.5152   12.5812 S   0  0  0  0  0  0
   15.5379   -6.8152   17.7248 C   0  0  0  0  0  0
   17.7451   -4.9061   11.3640 C   0  0  0  0  0  0
   16.3782   -5.2697   11.3763 C   0  0  0  0  0  0
   16.3152   -6.1157   18.8515 C   0  0  0  0  0  0
   17.7129  -10.3669   14.8661 C   0  0  0  0  0  0
   15.8912  -10.1144   17.0476 C   0  0  0  0  0  0
   15.7455   -5.5545   19.7810 O   0  0  0  0  0  0
   16.2386  -11.3633   16.5380 C   0  0  0  0  0  0
   17.1294  -11.4833   15.4714 C   0  0  0  0  0  0
   17.6657   -6.1714   18.7031 O   0  0  0  0  0  0
   15.5579  -12.7799   17.2486 Cl  0  0  0  0  0  0
   18.1996   -3.9151   10.4809 C   0  0  0  0  0  0
   15.4539   -4.6547   10.5220 C   0  0  0  0  0  0
   15.9305   -3.6739    9.6510 C   0  0  0  0  0  0
   17.2752   -3.3097    9.6301 C   0  0  0  0  0  0
   19.4238   -6.8311   14.4121 H   0  0  0  0  0  0
   18.9931   -8.2147   13.4519 H   0  0  0  0  0  0
   14.9481   -6.0453   17.2307 H   0  0  0  0  0  0
   14.8134   -7.4902   18.1810 H   0  0  0  0  0  0
   18.3942  -10.4787   14.0352 H   0  0  0  0  0  0
   15.1979  -10.0329   17.8722 H   0  0  0  0  0  0
   17.3714  -12.4694   15.1006 H   0  0  0  0  0  0
   17.8981   -6.6124   17.8834 H   0  0  0  0  0  0
   19.2339   -3.6131   10.4708 H   0  0  0  0  0  0
   14.4062   -4.9237   10.5380 H   0  0  0  0  0  0
   15.2405   -3.1831    8.9807 H   0  0  0  0  0  0
   17.6017   -2.5379    8.9483 H   0  0  0  0  0  0
  1  2  1  0  0  0
  1  7  1  0  0  0
  1  8  1  0  0  0
  2  3  2  0  0  0
  3 10  1  0  0  0
  3  5  1  0  0  0
  4  8  1  0  0  0
  4  6  2  0  0  0
  4  9  1  0  0  0
  5  7  2  0  0  0
  5 15  1  0  0  0
  6 11  1  0  0  0
  7 14  1  0  0  0
  8 25  1  0  0  0
  8 26  1  0  0  0
  9 12  1  0  0  0
 10 13  1  0  0  0
 10 27  1  0  0  0
 10 28  1  0  0  0
 11 21  1  0  0  0
 11 12  2  0  0  0
 12 22  1  0  0  0
 13 16  2  0  0  0
 13 19  1  0  0  0
 14 18  2  0  0  0
 14 29  1  0  0  0
 15 17  2  0  0  0
 15 30  1  0  0  0
 17 18  1  0  0  0
 17 20  1  0  0  0
 18 31  1  0  0  0
 19 32  1  0  0  0
 21 24  2  0  0  0
 21 33  1  0  0  0
 22 23  2  0  0  0
 22 34  1  0  0  0
 23 24  1  0  0  0
 23 35  1  0  0  0
 24 36  1  0  0  0
M  END
> <s_m_entry_id>
6339

> <s_m_entry_name>
dock_pv.174

> <s_m_Source_Path>
/home/csk/Desktop/cluster/DUD-E-result/aldr

> <s_m_Source_File>
dock_pv.maegz

> <i_m_Source_File_Index>
174

> <chembl_id>
CHEMBL67591

> <chembl_pref_name>
None

> <i_lp_mmshare_version>
53161

> <i_f3d_flags>
0

> <r_lp_tautomer_probability>
1

> <s_lp_Force_Field>
OPLS_2005

> <r_lp_Energy>
9.477562

> <b_lp_Chiralities_Consistent>
1

> <s_lp_Variant>
CHEMBL1900_lig59-1

> <s_i_glide_gridfile>
glide-grid_2hv5

> <i_i_glide_lignum>
94

> <i_i_glide_rotatable_bonds>
5

> <r_i_docking_score>
-9.5199102062628

> <r_i_glide_ligand_efficiency>
-0.39666292526095

> <r_i_glide_ligand_efficiency_sa>
-1.14417386581689

> <r_i_glide_ligand_efficiency_ln>
-2.27855135257316

> <r_i_glide_gscore>
-9.5199102062628

> <r_i_glide_lipo>
-4.42959992767405

> <r_i_glide_hbond>
-0.32

> <r_i_glide_metal>
0

> <r_i_glide_rewards>
-2.59178383349996

> <r_i_glide_evdw>
-45.7374153137207

> <r_i_glide_ecoul>
-3.26599454879761

> <r_i_glide_erotb>
0.598243502916884

> <r_i_glide_esite>
0

> <r_i_glide_emodel>
-73.5254486679173

> <r_i_glide_energy>
-49.0034098625183

> <r_i_glide_einternal>
5.38358020782471

> <i_i_glide_confnum>
21

> <i_i_glide_posenum>
210

> <r_i_glide_eff_state_penalty>
0

> <s_user_duplicate_titles>
CHEMBL1900_lig59,107869

> <s_m_subgroup_title>
dock_pv

> <s_m_subgroupid>
dock_pv

> <b_m_subgroup_collapsed>
1

$$$$
CHEMBL1900_lig283
                    3D
 Schrodinger Suite 2021-1.
 38 41  0  0  1  0            999 V2000
   17.9716   -7.6896   15.3695 N   0  0  0  0  0  0
   17.4100   -6.9638   16.4146 N   0  0  0  0  0  0
   17.7450   -9.0231   15.0800 C   0  0  0  0  0  0
   16.5515   -7.4955   17.2063 C   0  0  0  0  0  0
   18.0193   -6.2587   13.2951 C   0  0  0  0  0  0
   18.5450   -5.3150   12.5657 N   0  0  0  0  0  0
   17.7366   -4.8907   11.5619 C   0  0  0  0  0  0
   16.4741   -5.5324   11.5415 C   0  0  0  0  0  0
   16.3822   -6.6834   12.8496 S   0  0  0  0  0  0
   18.8024   -6.8975   14.4354 C   0  0  0  0  0  0
   16.7092   -9.6412   16.0084 C   0  0  0  0  0  0
   16.0933   -8.8866   17.0280 C   0  0  0  0  0  0
   15.9846   -6.6686   18.3809 C   0  0  0  0  0  0
   18.0268   -3.8929   10.6009 C   0  0  0  0  0  0
   15.5168   -5.2262   10.5772 C   0  0  0  0  0  0
   16.6160   -5.2851   18.6231 C   0  0  0  0  0  0
   17.0954   -3.6495    9.6099 C   0  0  0  0  0  0
   15.8935   -4.3300    9.5772 C   0  0  0  0  0  0
   18.2918   -9.6342   14.1562 O   0  0  0  0  0  0
   16.1450   -4.2412   18.1810 O   0  0  0  0  0  0
   19.4397   -2.9150   10.5810 Cl  0  0  0  0  0  0
   14.9450   -4.1151    8.1810 Cl  0  0  0  0  0  0
   17.7450   -5.3650   19.3810 O   0  0  0  0  0  0
   16.3411  -10.9786   15.8092 C   0  0  0  0  0  0
   15.0761   -9.4754   17.7939 C   0  0  0  0  0  0
   15.3475  -11.5569   16.5982 C   0  0  0  0  0  0
   14.7119  -10.8052   17.5839 C   0  0  0  0  0  0
   19.3638   -6.1463   14.9911 H   0  0  0  0  0  0
   19.5922   -7.5169   14.0041 H   0  0  0  0  0  0
   14.9197   -6.5150   18.2098 H   0  0  0  0  0  0
   16.0637   -7.2420   19.3050 H   0  0  0  0  0  0
   14.5561   -5.7202   10.5810 H   0  0  0  0  0  0
   17.3197   -2.9329    8.8323 H   0  0  0  0  0  0
   18.0051   -6.2709   19.5596 H   0  0  0  0  0  0
   16.8063  -11.5694   15.0315 H   0  0  0  0  0  0
   14.5630   -8.9236   18.5669 H   0  0  0  0  0  0
   15.0583  -12.5852   16.4352 H   0  0  0  0  0  0
   13.9295  -11.2537   18.1810 H   0  0  0  0  0  0
  1  2  1  0  0  0
  1  3  1  0  0  0
  1 10  1  0  0  0
  2  4  2  0  0  0
  3 11  1  0  0  0
  3 19  2  0  0  0
  4 13  1  0  0  0
  4 12  1  0  0  0
  5 10  1  0  0  0
  5  6  2  0  0  0
  5  9  1  0  0  0
  6  7  1  0  0  0
  7 14  1  0  0  0
  7  8  2  0  0  0
  8  9  1  0  0  0
  8 15  1  0  0  0
 10 28  1  0  0  0
 10 29  1  0  0  0
 11 12  1  0  0  0
 11 24  2  0  0  0
 12 25  2  0  0  0
 13 16  1  0  0  0
 13 30  1  0  0  0
 13 31  1  0  0  0
 14 17  2  0  0  0
 14 21  1  0  0  0
 15 18  2  0  0  0
 15 32  1  0  0  0
 16 20  2  0  0  0
 16 23  1  0  0  0
 17 18  1  0  0  0
 17 33  1  0  0  0
 18 22  1  0  0  0
 23 34  1  0  0  0
 24 26  1  0  0  0
 24 35  1  0  0  0
 25 27  1  0  0  0
 25 36  1  0  0  0
 26 27  2  0  0  0
 26 37  1  0  0  0
 27 38  1  0  0  0
M  END
> <s_m_entry_id>
6340

> <s_m_entry_name>
dock_pv.175

> <s_m_Source_Path>
/home/csk/Desktop/cluster/DUD-E-result/aldr

> <s_m_Source_File>
dock_pv.maegz

> <i_m_Source_File_Index>
175

> <chembl_id>
CHEMBL20575

> <chembl_pref_name>
None

> <i_lp_mmshare_version>
53161

> <i_f3d_flags>
0

> <r_lp_tautomer_probability>
1

> <s_lp_Force_Field>
OPLS_2005

> <r_lp_Energy>
27.169877

> <b_lp_Chiralities_Consistent>
1

> <s_lp_Variant>
CHEMBL1900_lig283-1

> <s_i_glide_gridfile>
glide-grid_2hv5

> <i_i_glide_lignum>
398

> <i_i_glide_rotatable_bonds>
5

> <r_i_docking_score>
-9.51539099750664

> <r_i_glide_ligand_efficiency>
-0.352421888796542

> <r_i_glide_ligand_efficiency_sa>
-1.0572656652281

> <r_i_glide_ligand_efficiency_ln>
-2.21502615073862

> <r_i_glide_gscore>
-9.51539099750664

> <r_i_glide_lipo>
-5.28919932099401

> <r_i_glide_hbond>
0

> <r_i_glide_metal>
0

> <r_i_glide_rewards>
-2.12501382712007

> <r_i_glide_evdw>
-45.210807800293

> <r_i_glide_ecoul>
-1.92556738853455

> <r_i_glide_erotb>
0.44819764890227

> <r_i_glide_esite>
0

> <r_i_glide_emodel>
-65.5137367426244

> <r_i_glide_energy>
-47.1363751888275

> <r_i_glide_einternal>
3.52641153335571

> <i_i_glide_confnum>
29

> <i_i_glide_posenum>
362

> <r_i_glide_eff_state_penalty>
0

> <s_user_duplicate_titles>
CHEMBL1900_lig283,24105

> <s_m_subgroup_title>
dock_pv

> <s_m_subgroupid>
dock_pv

> <b_m_subgroup_collapsed>
1

$$$$
CHEMBL1900_lig309
                    3D
 Schrodinger Suite 2021-1.
 40 43  0  0  1  0            999 V2000
   18.1450   -7.7611   14.9536 N   0  0  0  0  0  0
   17.5416   -7.2237   16.0860 N   0  0  0  0  0  0
   18.1137   -9.0810   14.5489 C   0  0  0  0  0  0
   16.8357   -7.9520   16.8717 C   0  0  0  0  0  0
   18.0073   -6.1854   12.9811 C   0  0  0  0  0  0
   16.6099   -9.3851   16.5964 C   0  0  0  0  0  0
   14.7961  -12.4383   17.9515 N   0  3  0  0  0  0
   17.2587   -9.9360   15.4732 C   0  0  0  0  0  0
   18.5450   -5.3150   12.1810 N   0  0  0  0  0  0
   18.8509   -6.7898   14.0979 C   0  0  0  0  0  0
   16.3122   -6.5150   12.6502 S   0  0  0  0  0  0
   16.2174   -7.3286   18.1464 C   0  0  0  0  0  0
   15.7870  -10.2063   17.3810 C   0  0  0  0  0  0
   15.6320  -11.5701   17.0891 C   0  0  0  0  0  0
   17.6825   -4.8237   11.2625 C   0  0  0  0  0  0
   16.3671   -5.3313   11.3544 C   0  0  0  0  0  0
   17.1039  -11.2946   15.1758 C   0  0  0  0  0  0
   16.5620   -5.8555   18.4475 C   0  0  0  0  0  0
   14.5451  -12.0506   19.0890 O   0  5  0  0  0  0
   14.4142  -13.5158   17.5028 O   0  0  0  0  0  0
   18.6911   -9.5165   13.5474 O   0  0  0  0  0  0
   16.2987  -12.1010   15.9771 C   0  0  0  0  0  0
   16.1450   -4.9156   17.7810 O   0  0  0  0  0  0
   17.3450   -5.7150   19.5514 O   0  0  0  0  0  0
   18.0122   -3.8642   10.2925 C   0  0  0  0  0  0
   15.3589   -4.8738   10.5003 C   0  0  0  0  0  0
   15.7089   -3.9193    9.5432 C   0  0  0  0  0  0
   17.0046   -3.4191    9.4384 C   0  0  0  0  0  0
   19.2757   -6.0060   14.7276 H   0  0  0  0  0  0
   19.7405   -7.2473   13.6570 H   0  0  0  0  0  0
   15.1317   -7.3687   18.0585 H   0  0  0  0  0  0
   16.4677   -7.9436   19.0103 H   0  0  0  0  0  0
   15.2684   -9.8005   18.2385 H   0  0  0  0  0  0
   17.5948  -11.7305   14.3156 H   0  0  0  0  0  0
   16.1951  -13.1482   15.7280 H   0  0  0  0  0  0
   17.6470   -6.5541   19.9050 H   0  0  0  0  0  0
   19.0103   -3.4634   10.2239 H   0  0  0  0  0  0
   14.3451   -5.2410   10.5807 H   0  0  0  0  0  0
   14.9452   -3.5549    8.8712 H   0  0  0  0  0  0
   17.2255   -2.6736    8.6880 H   0  0  0  0  0  0
  1  2  1  0  0  0
  1  3  1  0  0  0
  1 10  1  0  0  0
  2  4  2  0  0  0
  3  8  1  0  0  0
  3 21  2  0  0  0
  4 12  1  0  0  0
  4  6  1  0  0  0
  5 10  1  0  0  0
  5  9  2  0  0  0
  5 11  1  0  0  0
  6  8  1  0  0  0
  6 13  2  0  0  0
  7 14  1  0  0  0
  7 19  1  0  0  0
  7 20  2  0  0  0
  8 17  2  0  0  0
  9 15  1  0  0  0
 10 29  1  0  0  0
 10 30  1  0  0  0
 11 16  1  0  0  0
 12 18  1  0  0  0
 12 31  1  0  0  0
 12 32  1  0  0  0
 13 14  1  0  0  0
 13 33  1  0  0  0
 14 22  2  0  0  0
 15 25  1  0  0  0
 15 16  2  0  0  0
 16 26  1  0  0  0
 17 22  1  0  0  0
 17 34  1  0  0  0
 18 23  2  0  0  0
 18 24  1  0  0  0
 22 35  1  0  0  0
 24 36  1  0  0  0
 25 28  2  0  0  0
 25 37  1  0  0  0
 26 27  2  0  0  0
 26 38  1  0  0  0
 27 28  1  0  0  0
 27 39  1  0  0  0
 28 40  1  0  0  0
M  CHG  2   7   1  19  -1
M  END
> <s_m_entry_id>
6341

> <s_m_entry_name>
dock_pv.176

> <s_m_Source_Path>
/home/csk/Desktop/cluster/DUD-E-result/aldr

> <s_m_Source_File>
dock_pv.maegz

> <i_m_Source_File_Index>
176

> <chembl_id>
CHEMBL278522

> <chembl_pref_name>
None

> <i_lp_mmshare_version>
53161

> <i_f3d_flags>
0

> <r_lp_tautomer_probability>
1

> <s_lp_Force_Field>
OPLS_2005

> <r_lp_Energy>
28.428353

> <b_lp_Chiralities_Consistent>
1

> <s_lp_Variant>
CHEMBL1900_lig309-1

> <s_i_glide_gridfile>
glide-grid_2hv5

> <i_i_glide_lignum>
425

> <i_i_glide_rotatable_bonds>
6

> <r_i_docking_score>
-9.50187534181053

> <r_i_glide_ligand_efficiency>
-0.339352690778947

> <r_i_glide_ligand_efficiency_sa>
-1.0304746372511

> <r_i_glide_ligand_efficiency_ln>
-2.19331181607266

> <r_i_glide_gscore>
-9.50187534181053

> <r_i_glide_lipo>
-4.49803574012257

> <r_i_glide_hbond>
0

> <r_i_glide_metal>
0

> <r_i_glide_rewards>
-2.32911446255139

> <r_i_glide_evdw>
-53.3237953186035

> <r_i_glide_ecoul>
-2.95796513557434

> <r_i_glide_erotb>
0.498086349191352

> <r_i_glide_esite>
-0.0629269520615888

> <r_i_glide_emodel>
-83.7078862155985

> <r_i_glide_energy>
-56.2817604541779

> <r_i_glide_einternal>
3.97841334342957

> <i_i_glide_confnum>
31

> <i_i_glide_posenum>
191

> <r_i_glide_eff_state_penalty>
0

> <s_user_duplicate_titles>
CHEMBL1900_lig309,24224

> <s_m_subgroup_title>
dock_pv

> <s_m_subgroupid>
dock_pv

> <b_m_subgroup_collapsed>
1

$$$$
CHEMBL1900_lig241
                    3D
 Schrodinger Suite 2021-1.
 39 42  0  0  1  0            999 V2000
   18.1146   -9.3259   15.1340 N   0  0  0  0  0  0
   17.7447   -8.4718   16.1661 N   0  0  0  0  0  0
   17.7046  -10.6346   14.9767 C   0  0  0  0  0  0
   16.8189   -8.7893   16.9859 C   0  0  0  0  0  0
   18.1532   -6.4168   13.1522 C   0  0  0  0  0  0
   18.3314   -5.5666   12.1819 N   0  0  0  0  0  0
   16.6164  -11.0161   15.9766 C   0  0  0  0  0  0
   16.5101   -6.9150   13.4328 S   0  0  0  0  0  0
   16.1416  -10.0964   16.9382 C   0  0  0  0  0  0
   19.4456   -6.9964   14.1808 S   0  0  0  0  0  0
   16.5495   -7.7537   18.0823 C   0  0  0  0  0  0
   19.0486   -8.7878   14.1183 C   0  0  0  0  0  0
   17.1636   -5.2635   11.5626 C   0  0  0  0  0  0
   16.0203   -5.9040   12.1039 C   0  0  0  0  0  0
   15.7951   -6.5148   17.5695 C   0  0  0  0  0  0
   18.1481  -11.3982   14.1134 O   0  0  0  0  0  0
   14.9456   -6.5266   16.6768 O   0  0  0  0  0  0
   16.1481   -5.4022   18.2733 O   0  0  0  0  0  0
   16.0681  -12.3039   15.9163 C   0  0  0  0  0  0
   15.0837  -10.4665   17.7809 C   0  0  0  0  0  0
   17.0287   -4.3735   10.4879 C   0  0  0  0  0  0
   14.7411   -5.6613   11.6041 C   0  0  0  0  0  0
   15.0400  -12.6687   16.7845 C   0  0  0  0  0  0
   14.5482  -11.7511   17.7101 C   0  0  0  0  0  0
   15.7430   -4.1142   10.0131 C   0  0  0  0  0  0
   14.6289   -4.7329   10.5797 C   0  0  0  0  0  0
   15.9946   -8.1719   18.9178 H   0  0  0  0  0  0
   17.5045   -7.4465   18.5124 H   0  0  0  0  0  0
   19.9987   -9.3154   14.1807 H   0  0  0  0  0  0
   18.6780   -9.0120   13.1147 H   0  0  0  0  0  0
   16.8682   -5.5698   18.8850 H   0  0  0  0  0  0
   16.4238  -13.0220   15.1894 H   0  0  0  0  0  0
   14.6675   -9.7872   18.5080 H   0  0  0  0  0  0
   17.8877   -3.8774   10.0627 H   0  0  0  0  0  0
   13.8598   -6.1151   12.0303 H   0  0  0  0  0  0
   14.6131  -13.6598   16.7318 H   0  0  0  0  0  0
   13.7452  -12.0366   18.3730 H   0  0  0  0  0  0
   15.5996   -3.4173    9.1997 H   0  0  0  0  0  0
   13.6487   -4.5149   10.1819 H   0  0  0  0  0  0
  1  2  1  0  0  0
  1  3  1  0  0  0
  1 12  1  0  0  0
  2  4  2  0  0  0
  3  7  1  0  0  0
  3 16  2  0  0  0
  4 11  1  0  0  0
  4  9  1  0  0  0
  5 10  1  0  0  0
  5  6  2  0  0  0
  5  8  1  0  0  0
  6 13  1  0  0  0
  7  9  1  0  0  0
  7 19  2  0  0  0
  8 14  1  0  0  0
  9 20  2  0  0  0
 10 12  1  0  0  0
 11 15  1  0  0  0
 11 27  1  0  0  0
 11 28  1  0  0  0
 12 29  1  0  0  0
 12 30  1  0  0  0
 13 21  1  0  0  0
 13 14  2  0  0  0
 14 22  1  0  0  0
 15 17  2  0  0  0
 15 18  1  0  0  0
 18 31  1  0  0  0
 19 23  1  0  0  0
 19 32  1  0  0  0
 20 24  1  0  0  0
 20 33  1  0  0  0
 21 25  2  0  0  0
 21 34  1  0  0  0
 22 26  2  0  0  0
 22 35  1  0  0  0
 23 24  2  0  0  0
 23 36  1  0  0  0
 24 37  1  0  0  0
 25 26  1  0  0  0
 25 38  1  0  0  0
 26 39  1  0  0  0
M  END
> <s_m_entry_id>
6342

> <s_m_entry_name>
dock_pv.177

> <s_m_Source_Path>
/home/csk/Desktop/cluster/DUD-E-result/aldr

> <s_m_Source_File>
dock_pv.maegz

> <i_m_Source_File_Index>
177

> <chembl_id>
CHEMBL281407

> <chembl_pref_name>
None

> <i_lp_mmshare_version>
53161

> <i_f3d_flags>
0

> <r_lp_tautomer_probability>
1

> <s_lp_Force_Field>
OPLS_2005

> <r_lp_Energy>
26.23483

> <b_lp_Chiralities_Consistent>
1

> <s_lp_Variant>
CHEMBL1900_lig241-1

> <s_i_glide_gridfile>
glide-grid_2hv5

> <i_i_glide_lignum>
352

> <i_i_glide_rotatable_bonds>
6

> <r_i_docking_score>
-9.49826100522786

> <r_i_glide_ligand_efficiency>
-0.365317730970302

> <r_i_glide_ligand_efficiency_sa>
-1.08225234054366

> <r_i_glide_ligand_efficiency_ln>
-2.23063543074137

> <r_i_glide_gscore>
-9.49826100522786

> <r_i_glide_lipo>
-4.53701618731135

> <r_i_glide_hbond>
-0.32

> <r_i_glide_metal>
0

> <r_i_glide_rewards>
-2.21312314491922

> <r_i_glide_evdw>
-48.1937942504883

> <r_i_glide_ecoul>
-4.52835130691528

> <r_i_glide_erotb>
0.660820735564419

> <r_i_glide_esite>
0

> <r_i_glide_emodel>
-71.8788548322197

> <r_i_glide_energy>
-52.7221455574036

> <r_i_glide_einternal>
18.6320896148682

> <i_i_glide_confnum>
32

> <i_i_glide_posenum>
105

> <r_i_glide_eff_state_penalty>
0

> <s_user_duplicate_titles>
CHEMBL1900_lig241,24151

> <s_m_subgroup_title>
dock_pv

> <s_m_subgroupid>
dock_pv

> <b_m_subgroup_collapsed>
1

$$$$
CHEMBL1900_lig291
                    3D
 Schrodinger Suite 2021-1.
 41 44  0  0  1  0            999 V2000
   17.4213   -9.3151   15.2532 N   0  0  0  0  0  0
   16.8067   -8.3303   16.0197 N   0  0  0  0  0  0
   17.2585  -10.6809   15.3803 C   0  0  0  0  0  0
   15.9822   -8.6331   16.9458 C   0  0  0  0  0  0
   17.9796   -7.6079   13.5140 C   0  0  0  0  0  0
   16.8433   -7.5512   12.8854 N   0  0  0  0  0  0
   18.4330   -8.8221   14.3004 C   0  0  0  0  0  0
   16.2604  -11.0322   16.4736 C   0  0  0  0  0  0
   18.9451   -6.1768   13.3824 S   0  0  0  0  0  0
   16.8389   -2.8244    9.7811 C   0  0  0  0  0  0
   15.6542  -10.0337   17.2668 C   0  0  0  0  0  0
   17.8279   -5.5810   12.1793 C   0  0  0  0  0  0
   15.3224   -7.4331   17.6491 C   0  0  0  0  0  0
   16.7104   -6.4339   12.1331 C   0  0  0  0  0  0
   16.8084   -4.1176   10.5826 C   0  0  0  0  0  0
   17.9068   -4.4463   11.3789 C   0  0  0  0  0  0
   16.2177   -6.6474   18.6310 C   0  0  0  0  0  0
   17.8664  -11.5242   14.7117 O   0  0  0  0  0  0
   15.6064   -6.1020   11.3344 C   0  0  0  0  0  0
   15.6687   -4.9318   10.5721 C   0  0  0  0  0  0
   15.7456   -5.9494   19.5231 O   0  0  0  0  0  0
   17.7764   -1.9652   10.1805 F   0  0  0  0  0  0
   17.1364   -3.1664    8.5493 F   0  0  0  0  0  0
   15.6637   -2.1991    9.7810 F   0  0  0  0  0  0
   17.5562   -6.7565   18.4101 O   0  0  0  0  0  0
   15.9855  -12.3844   16.7180 C   0  0  0  0  0  0
   14.8148  -10.4199   18.3159 C   0  0  0  0  0  0
   15.1234  -12.7476   17.7502 C   0  0  0  0  0  0
   14.5459  -11.7670   18.5520 C   0  0  0  0  0  0
   19.3107   -8.5628   14.8884 H   0  0  0  0  0  0
   18.7808   -9.5783   13.5940 H   0  0  0  0  0  0
   14.9891   -6.7191   16.8970 H   0  0  0  0  0  0
   14.4111   -7.7210   18.1669 H   0  0  0  0  0  0
   18.7704   -3.8015   11.4134 H   0  0  0  0  0  0
   14.7256   -6.7254   11.3108 H   0  0  0  0  0  0
   14.8182   -4.6516    9.9649 H   0  0  0  0  0  0
   18.0499   -6.2515   19.0566 H   0  0  0  0  0  0
   16.4411  -13.1600   16.1173 H   0  0  0  0  0  0
   14.3768   -9.6922   18.9793 H   0  0  0  0  0  0
   14.9043  -13.7892   17.9349 H   0  0  0  0  0  0
   13.8748  -12.0526   19.3503 H   0  0  0  0  0  0
  1  2  1  0  0  0
  1  3  1  0  0  0
  1  7  1  0  0  0
  2  4  2  0  0  0
  3  8  1  0  0  0
  3 18  2  0  0  0
  4 13  1  0  0  0
  4 11  1  0  0  0
  5  7  1  0  0  0
  5  6  2  0  0  0
  5  9  1  0  0  0
  6 14  1  0  0  0
  7 30  1  0  0  0
  7 31  1  0  0  0
  8 11  1  0  0  0
  8 26  2  0  0  0
  9 12  1  0  0  0
 10 15  1  0  0  0
 10 22  1  0  0  0
 10 23  1  0  0  0
 10 24  1  0  0  0
 11 27  2  0  0  0
 12 16  1  0  0  0
 12 14  2  0  0  0
 13 17  1  0  0  0
 13 32  1  0  0  0
 13 33  1  0  0  0
 14 19  1  0  0  0
 15 16  2  0  0  0
 15 20  1  0  0  0
 16 34  1  0  0  0
 17 21  2  0  0  0
 17 25  1  0  0  0
 19 20  2  0  0  0
 19 35  1  0  0  0
 20 36  1  0  0  0
 25 37  1  0  0  0
 26 28  1  0  0  0
 26 38  1  0  0  0
 27 29  1  0  0  0
 27 39  1  0  0  0
 28 29  2  0  0  0
 28 40  1  0  0  0
 29 41  1  0  0  0
M  END
> <s_m_entry_id>
6343

> <s_m_entry_name>
dock_pv.178

> <s_m_Source_Path>
/home/csk/Desktop/cluster/DUD-E-result/aldr

> <s_m_Source_File>
dock_pv.maegz

> <i_m_Source_File_Index>
178

> <chembl_id>
CHEMBL20740

> <chembl_pref_name>
None

> <i_lp_mmshare_version>
53161

> <i_f3d_flags>
0

> <r_lp_tautomer_probability>
1

> <s_lp_Force_Field>
OPLS_2005

> <r_lp_Energy>
24.258282

> <b_lp_Chiralities_Consistent>
1

> <s_lp_Variant>
CHEMBL1900_lig291-1

> <s_i_glide_gridfile>
glide-grid_2hv5

> <i_i_glide_lignum>
407

> <i_i_glide_rotatable_bonds>
6

> <r_i_docking_score>
-9.49117263418247

> <r_i_glide_ligand_efficiency>
-0.327281814971809

> <r_i_glide_ligand_efficiency_sa>
-1.00551342575027

> <r_i_glide_ligand_efficiency_ln>
-2.17323785785582

> <r_i_glide_gscore>
-9.49117263418247

> <r_i_glide_lipo>
-4.53288642947944

> <r_i_glide_hbond>
-0.272130749281523

> <r_i_glide_metal>
0

> <r_i_glide_rewards>
-2.52312652603288

> <r_i_glide_evdw>
-42.4955825805664

> <r_i_glide_ecoul>
-3.25447511672974

> <r_i_glide_erotb>
0.449921467149157

> <r_i_glide_esite>
0

> <r_i_glide_emodel>
-58.9484567515168

> <r_i_glide_energy>
-45.7500576972961

> <r_i_glide_einternal>
6.27917051315308

> <i_i_glide_confnum>
9

> <i_i_glide_posenum>
374

> <r_i_glide_eff_state_penalty>
0

> <s_user_duplicate_titles>
CHEMBL1900_lig291,24184

> <s_m_subgroup_title>
dock_pv

> <s_m_subgroupid>
dock_pv

> <b_m_subgroup_collapsed>
1

$$$$
CHEMBL1900_lig649
                    3D
 Schrodinger Suite 2021-1.
 38 40  0  0  1  0            999 V2000
   16.2047   -4.0280   20.8062 N   0  0  0  0  0  0
   15.8838   -3.3949   19.6475 C   0  0  0  0  0  0
   16.5450   -4.2272   18.2767 S   0  0  0  0  0  0
   16.6960   -5.6788   19.2353 C   0  0  0  0  0  0
   16.5450   -5.3247   20.6316 C   0  0  0  0  0  0
   16.5450   -6.1150   21.5580 O   0  0  0  0  0  0
   14.9450   -2.0866   19.3810 S   0  0  0  0  0  0
   15.7458   -3.4591   22.1302 C   0  0  0  0  0  0
   16.7912   -6.9769   18.8530 C   0  0  0  0  0  0
   16.5450   -3.9118   23.3751 C   0  0  0  0  0  0
   17.7419   -4.1150   23.3622 O   0  0  0  0  0  0
   16.9365   -7.5883   17.5106 C   0  0  0  0  0  0
   16.5450   -8.9214   17.3344 C   0  0  0  0  0  0
   16.7509   -9.5738   16.1175 C   0  0  0  0  0  0
   17.3450   -8.8952   15.0541 C   0  0  0  0  0  0
   17.7012   -7.5531   15.1953 C   0  0  0  0  0  0
   17.4930   -6.9150   16.4198 C   0  0  0  0  0  0
   18.2748   -6.8619   14.1512 O   0  0  0  0  0  0
   17.5110   -6.3861   13.0999 C   0  0  0  0  0  0
   16.1450   -6.6412   12.9539 C   0  0  0  0  0  0
   15.4301   -6.1150   11.8785 C   0  0  0  0  0  0
   16.0850   -5.3216   10.9414 C   0  0  0  0  0  0
   17.4442   -5.0534   11.0743 C   0  0  0  0  0  0
   18.1450   -5.5855   12.1545 C   0  0  0  0  0  0
   15.7450   -4.0509   24.4727 O   0  0  0  0  0  0
   14.6921   -3.6904   22.2714 H   0  0  0  0  0  0
   15.8307   -2.3724   22.1133 H   0  0  0  0  0  0
   16.7674   -7.7150   19.6360 H   0  0  0  0  0  0
   16.1022   -9.4709   18.1531 H   0  0  0  0  0  0
   16.4598  -10.6077   16.0018 H   0  0  0  0  0  0
   17.5158   -9.4003   14.1147 H   0  0  0  0  0  0
   17.8014   -5.8929   16.5265 H   0  0  0  0  0  0
   15.6447   -7.2424   13.6904 H   0  0  0  0  0  0
   14.3722   -6.3102   11.7778 H   0  0  0  0  0  0
   15.5332   -4.9074   10.1096 H   0  0  0  0  0  0
   17.9489   -4.4328   10.3490 H   0  0  0  0  0  0
   19.1942   -5.3744   12.2727 H   0  0  0  0  0  0
   14.8130   -3.7997   24.3887 H   0  0  0  0  0  0
  1  8  1  0  0  0
  1  2  1  0  0  0
  1  5  1  0  0  0
  2  3  1  0  0  0
  2  7  2  0  0  0
  3  4  1  0  0  0
  4  9  2  0  0  0
  4  5  1  0  0  0
  5  6  2  0  0  0
  8 10  1  0  0  0
  8 26  1  0  0  0
  8 27  1  0  0  0
  9 12  1  0  0  0
  9 28  1  0  0  0
 10 11  2  0  0  0
 10 25  1  0  0  0
 12 13  2  0  0  0
 12 17  1  0  0  0
 13 14  1  0  0  0
 13 29  1  0  0  0
 14 15  2  0  0  0
 14 30  1  0  0  0
 15 16  1  0  0  0
 15 31  1  0  0  0
 16 17  2  0  0  0
 16 18  1  0  0  0
 17 32  1  0  0  0
 18 19  1  0  0  0
 19 20  2  0  0  0
 19 24  1  0  0  0
 20 21  1  0  0  0
 20 33  1  0  0  0
 21 22  2  0  0  0
 21 34  1  0  0  0
 22 23  1  0  0  0
 22 35  1  0  0  0
 23 24  2  0  0  0
 23 36  1  0  0  0
 24 37  1  0  0  0
 25 38  1  0  0  0
M  END
> <s_m_entry_id>
6344

> <s_m_entry_name>
dock_pv.179

> <s_m_Source_Path>
/home/csk/Desktop/cluster/DUD-E-result/aldr

> <s_m_Source_File>
dock_pv.maegz

> <i_m_Source_File_Index>
179

> <chembl_id>
CHEMBL1172417

> <chembl_pref_name>
None

> <i_lp_mmshare_version>
53161

> <i_f3d_flags>
0

> <r_lp_tautomer_probability>
1

> <s_lp_Force_Field>
OPLS_2005

> <r_lp_Energy>
19.986071

> <b_lp_Chiralities_Consistent>
1

> <s_lp_Variant>
CHEMBL1900_lig649-1

> <s_i_glide_gridfile>
glide-grid_2hv5

> <i_i_glide_lignum>
775

> <i_i_glide_rotatable_bonds>
6

> <r_i_docking_score>
-9.49028468830479

> <r_i_glide_ligand_efficiency>
-0.379611387532192

> <r_i_glide_ligand_efficiency_sa>
-1.10999042958075

> <r_i_glide_ligand_efficiency_ln>
-2.2494818720106

> <r_i_glide_gscore>
-9.49028468830479

> <r_i_glide_lipo>
-4.10193157080707

> <r_i_glide_hbond>
-0.0019657703680853

> <r_i_glide_metal>
0

> <r_i_glide_rewards>
-3.19693219946186

> <r_i_glide_evdw>
-38.5673599243164

> <r_i_glide_ecoul>
-6.40444850921631

> <r_i_glide_erotb>
0.699580124930483

> <r_i_glide_esite>
0

> <r_i_glide_emodel>
-50.1118166470821

> <r_i_glide_energy>
-44.9718084335327

> <r_i_glide_einternal>
10.5235996246338

> <i_i_glide_confnum>
11

> <i_i_glide_posenum>
305

> <r_i_glide_eff_state_penalty>
0

> <s_user_duplicate_titles>
CHEMBL1900_lig649

> <s_m_subgroup_title>
dock_pv

> <s_m_subgroupid>
dock_pv

> <b_m_subgroup_collapsed>
1

$$$$
CHEMBL1900_lig18
                    3D
 Schrodinger Suite 2021-1.
 35 37  0  0  1  0            999 V2000
   15.3451   -6.6062   18.0082 N   0  0  0  0  0  0
   15.6948   -6.8278   16.7420 C   0  0  0  0  0  0
   16.3776   -6.5155   18.8582 C   0  0  0  0  0  0
   17.1818   -7.0778   16.7425 C   0  0  2  0  0  0
   17.4577   -8.4611   16.1262 C   0  0  0  0  0  0
   17.4434   -6.9156   18.1538 N   0  0  0  0  0  0
   17.9367   -8.6180   14.8056 C   0  0  0  0  0  0
   18.3460   -7.2429   13.7584 S   0  0  0  0  0  0
   17.1597   -9.6126   16.8718 C   0  0  0  0  0  0
   14.9450   -6.9151   15.7817 O   0  0  0  0  0  0
   16.3450   -6.0645   19.9979 O   0  0  0  0  0  0
   18.0849   -9.8983   14.2655 C   0  0  0  0  0  0
   17.2999  -10.8834   16.3220 C   0  0  0  0  0  0
   16.7590   -6.6601   13.0687 C   0  0  0  0  0  0
   16.7821   -3.8364    9.8072 C   0  0  0  0  0  0
   16.8272   -5.7151   11.8688 C   0  0  0  0  0  0
   17.7452  -11.0263   15.0111 C   0  0  0  0  0  0
   16.9169  -12.2738   17.2686 Cl  0  0  0  0  0  0
   16.7419   -2.6255    8.5811 Cl  0  0  0  0  0  0
   15.6062   -4.4814   10.1806 C   0  0  0  0  0  0
   17.9862   -4.1441   10.4350 C   0  0  0  0  0  0
   15.6303   -5.4191   11.2087 C   0  0  0  0  0  0
   18.0090   -5.0815   11.4652 C   0  0  0  0  0  0
   14.3826   -6.5131   18.2924 H   0  0  0  0  0  0
   17.7061   -6.2751   16.2249 H   0  0  0  0  0  0
   18.2835   -7.2768   18.5833 H   0  0  0  0  0  0
   16.7840   -9.5220   17.8802 H   0  0  0  0  0  0
   18.4429  -10.0207   13.2533 H   0  0  0  0  0  0
   16.2354   -6.1170   13.8507 H   0  0  0  0  0  0
   16.1511   -7.5273   12.8134 H   0  0  0  0  0  0
   17.8496  -12.0099   14.5766 H   0  0  0  0  0  0
   14.6726   -4.2355    9.6957 H   0  0  0  0  0  0
   18.8941   -3.6389   10.1419 H   0  0  0  0  0  0
   14.7059   -5.8874   11.5161 H   0  0  0  0  0  0
   18.9445   -5.2840   11.9629 H   0  0  0  0  0  0
  1  2  1  0  0  0
  1  3  1  0  0  0
  1 24  1  0  0  0
  2  4  1  0  0  0
  2 10  2  0  0  0
  3  6  1  0  0  0
  3 11  2  0  0  0
  4  5  1  0  0  0
  4  6  1  0  0  0
  4 25  1  0  0  0
  5  7  1  0  0  0
  5  9  2  0  0  0
  6 26  1  0  0  0
  7  8  1  0  0  0
  7 12  2  0  0  0
  8 14  1  0  0  0
  9 13  1  0  0  0
  9 27  1  0  0  0
 12 17  1  0  0  0
 12 28  1  0  0  0
 13 17  2  0  0  0
 13 18  1  0  0  0
 14 16  1  0  0  0
 14 29  1  0  0  0
 14 30  1  0  0  0
 15 21  2  0  0  0
 15 19  1  0  0  0
 15 20  1  0  0  0
 16 22  1  0  0  0
 16 23  2  0  0  0
 17 31  1  0  0  0
 20 22  2  0  0  0
 20 32  1  0  0  0
 21 23  1  0  0  0
 21 33  1  0  0  0
 22 34  1  0  0  0
 23 35  1  0  0  0
M  END
> <s_m_entry_id>
6345

> <s_m_entry_name>
dock_pv.180

> <s_m_Source_Path>
/home/csk/Desktop/cluster/DUD-E-result/aldr

> <s_m_Source_File>
dock_pv.maegz

> <i_m_Source_File_Index>
180

> <chembl_id>
CHEMBL19789

> <chembl_pref_name>
None

> <i_lp_mmshare_version>
53161

> <i_f3d_flags>
0

> <r_lp_tautomer_probability>
0.999999999781369

> <s_lp_Force_Field>
OPLS_2005

> <r_lp_Energy>
22.371325

> <b_lp_Chiralities_Consistent>
1

> <s_lp_Variant>
CHEMBL1900_lig18-2

> <s_i_glide_gridfile>
glide-grid_2hv5

> <i_i_glide_lignum>
33

> <i_i_glide_rotatable_bonds>
4

> <r_i_docking_score>
-9.48995727618393

> <r_i_glide_ligand_efficiency>
-0.412606838094953

> <r_i_glide_ligand_efficiency_sa>
-1.1733989612928

> <r_i_glide_ligand_efficiency_ln>
-2.29475771955632

> <r_i_glide_gscore>
-9.48995727618393

> <r_i_glide_lipo>
-4.3389673093112

> <r_i_glide_hbond>
-0.309516776737713

> <r_i_glide_metal>
0

> <r_i_glide_rewards>
-2.56442429993171

> <r_i_glide_evdw>
-46.2827796936035

> <r_i_glide_ecoul>
-3.56008911132812

> <r_i_glide_erotb>
0.571103461176083

> <r_i_glide_esite>
0

> <r_i_glide_emodel>
-73.6304727464502

> <r_i_glide_energy>
-49.8428688049316

> <r_i_glide_einternal>
4.62536382675171

> <i_i_glide_confnum>
41

> <i_i_glide_posenum>
361

> <r_i_glide_eff_state_penalty>
0

> <s_user_duplicate_titles>
CHEMBL1900_lig18

> <s_m_subgroup_title>
dock_pv

> <s_m_subgroupid>
dock_pv

> <b_m_subgroup_collapsed>
1

$$$$
CHEMBL1900_lig18
                    3D
 Schrodinger Suite 2021-1.
 35 37  0  0  1  0            999 V2000
   14.6918   -8.7420   17.1150 N   0  0  0  0  0  0
   15.6276   -9.6807   17.2888 C   0  0  0  0  0  0
   15.1643   -7.5636   16.6828 C   0  0  0  0  0  0
   16.9228   -9.0781   16.7509 C   0  0  1  0  0  0
   17.5361   -9.7660   15.4958 C   0  0  0  0  0  0
   16.4834   -7.7227   16.5994 N   0  0  0  0  0  0
   18.1454   -9.0846   14.4027 C   0  0  0  0  0  0
   18.2334   -7.3173   14.2122 S   0  0  0  0  0  0
   17.5621  -11.1747   15.4705 C   0  0  0  0  0  0
   15.4595  -10.8124   17.7395 O   0  0  0  0  0  0
   14.5453   -6.5152   16.5814 O   0  0  0  0  0  0
   18.7586   -9.8117   13.3813 C   0  0  0  0  0  0
   18.1453  -11.8847   14.4248 C   0  0  0  0  0  0
   16.6774   -6.8259   13.3805 C   0  0  0  0  0  0
   16.8671   -4.0864   10.0477 C   0  0  0  0  0  0
   16.7991   -5.8966   12.1716 C   0  0  0  0  0  0
   18.7519  -11.2011   13.3805 C   0  0  0  0  0  0
   18.1470  -13.6101   14.4445 Cl  0  0  0  0  0  0
   16.9043   -2.9158    8.7787 Cl  0  0  0  0  0  0
   15.6619   -4.6829   10.4079 C   0  0  0  0  0  0
   18.0421   -4.4116   10.7191 C   0  0  0  0  0  0
   15.6305   -5.5901   11.4640 C   0  0  0  0  0  0
   18.0107   -5.3148   11.7799 C   0  0  0  0  0  0
   13.7355   -8.8677   17.4057 H   0  0  0  0  0  0
   17.6553   -9.0851   17.5574 H   0  0  0  0  0  0
   17.0586   -7.0972   16.0516 H   0  0  0  0  0  0
   17.1460  -11.7544   16.2795 H   0  0  0  0  0  0
   19.2551   -9.2871   12.5811 H   0  0  0  0  0  0
   16.0414   -6.3354   14.1162 H   0  0  0  0  0  0
   16.1444   -7.7151   13.0629 H   0  0  0  0  0  0
   19.2242  -11.7430   12.5737 H   0  0  0  0  0  0
   14.7503   -4.4264    9.8854 H   0  0  0  0  0  0
   18.9701   -3.9423   10.4340 H   0  0  0  0  0  0
   14.6845   -6.0247   11.7557 H   0  0  0  0  0  0
   18.9299   -5.5286   12.3040 H   0  0  0  0  0  0
  1  2  1  0  0  0
  1  3  1  0  0  0
  1 24  1  0  0  0
  2  4  1  0  0  0
  2 10  2  0  0  0
  3  6  1  0  0  0
  3 11  2  0  0  0
  4  5  1  0  0  0
  4  6  1  0  0  0
  4 25  1  0  0  0
  5  7  1  0  0  0
  5  9  2  0  0  0
  6 26  1  0  0  0
  7  8  1  0  0  0
  7 12  2  0  0  0
  8 14  1  0  0  0
  9 13  1  0  0  0
  9 27  1  0  0  0
 12 17  1  0  0  0
 12 28  1  0  0  0
 13 17  2  0  0  0
 13 18  1  0  0  0
 14 16  1  0  0  0
 14 29  1  0  0  0
 14 30  1  0  0  0
 15 21  2  0  0  0
 15 19  1  0  0  0
 15 20  1  0  0  0
 16 22  1  0  0  0
 16 23  2  0  0  0
 17 31  1  0  0  0
 20 22  2  0  0  0
 20 32  1  0  0  0
 21 23  1  0  0  0
 21 33  1  0  0  0
 22 34  1  0  0  0
 23 35  1  0  0  0
M  END
> <s_m_entry_id>
6347

> <s_m_entry_name>
dock_pv.182

> <s_m_Source_Path>
/home/csk/Desktop/cluster/DUD-E-result/aldr

> <s_m_Source_File>
dock_pv.maegz

> <i_m_Source_File_Index>
182

> <chembl_id>
CHEMBL19789

> <chembl_pref_name>
None

> <i_lp_mmshare_version>
53161

> <i_f3d_flags>
0

> <r_lp_tautomer_probability>
0.999999999781369

> <s_lp_Force_Field>
OPLS_2005

> <r_lp_Energy>
23.447981

> <b_lp_Chiralities_Consistent>
1

> <s_lp_Variant>
CHEMBL1900_lig18-1

> <s_i_glide_gridfile>
glide-grid_2hv5

> <i_i_glide_lignum>
32

> <i_i_glide_rotatable_bonds>
4

> <r_i_docking_score>
-9.47378939937133

> <r_i_glide_ligand_efficiency>
-0.411903886929188

> <r_i_glide_ligand_efficiency_sa>
-1.17139986168612

> <r_i_glide_ligand_efficiency_ln>
-2.29084818034083

> <r_i_glide_gscore>
-9.47378939937133

> <r_i_glide_lipo>
-4.21771639064792

> <r_i_glide_hbond>
-0.32

> <r_i_glide_metal>
0

> <r_i_glide_rewards>
-2.59665348444111

> <r_i_glide_evdw>
-44.2282600402832

> <r_i_glide_ecoul>
-4.66073322296143

> <r_i_glide_erotb>
0.571103461176083

> <r_i_glide_esite>
0

> <r_i_glide_emodel>
-65.7932078684626

> <r_i_glide_energy>
-48.8889932632446

> <r_i_glide_einternal>
15.3160209655762

> <i_i_glide_confnum>
44

> <i_i_glide_posenum>
390

> <r_i_glide_eff_state_penalty>
0

> <s_user_duplicate_titles>
CHEMBL1900_lig18

> <s_m_subgroup_title>
dock_pv

> <s_m_subgroupid>
dock_pv

> <b_m_subgroup_collapsed>
1

$$$$
CHEMBL1900_lig45
                    3D
 Schrodinger Suite 2021-1.
 36 39  0  0  1  0            999 V2000
   17.7413   -7.7981   15.0239 N   0  0  0  0  0  0
   17.1500   -6.9160   15.8505 N   0  0  0  0  0  0
   16.3841   -7.5871   16.6727 C   0  0  0  0  0  0
   17.8673   -6.4303   12.9293 C   0  0  0  0  0  0
   18.5214   -5.5585   12.2123 N   0  0  0  0  0  0
   16.4895   -8.9909   16.4235 C   0  0  0  0  0  0
   18.5937   -7.2975   13.9493 C   0  0  0  0  0  0
   17.3893   -9.1013   15.3332 C   0  0  0  0  0  0
   16.1452   -6.5152   12.5805 S   0  0  0  0  0  0
   15.5467   -6.8689   17.7182 C   0  0  0  0  0  0
   17.7239   -4.9049   11.3294 C   0  0  0  0  0  0
   16.3564   -5.2732   11.3686 C   0  0  0  0  0  0
   16.3180   -6.1631   18.8448 C   0  0  0  0  0  0
   15.7453   -5.6211   19.7813 O   0  0  0  0  0  0
   17.6673   -6.1905   18.6836 O   0  0  0  0  0  0
   15.9320  -10.1535   16.9775 C   0  0  0  0  0  0
   17.7449  -10.3389   14.7832 C   0  0  0  0  0  0
   18.1557   -3.9153   10.4350 C   0  0  0  0  0  0
   15.4134   -4.6651   10.5301 C   0  0  0  0  0  0
   16.2840  -11.3864   16.4323 C   0  0  0  0  0  0
   17.1701  -11.4737   15.3596 C   0  0  0  0  0  0
   17.2118   -3.3143    9.6005 C   0  0  0  0  0  0
   15.8694   -3.6849    9.6478 C   0  0  0  0  0  0
   19.4168   -6.7513   14.4119 H   0  0  0  0  0  0
   19.0497   -8.1534   13.4505 H   0  0  0  0  0  0
   14.9373   -6.1081   17.2335 H   0  0  0  0  0  0
   14.8361   -7.5586   18.1723 H   0  0  0  0  0  0
   17.8961   -6.6204   17.8559 H   0  0  0  0  0  0
   15.2404  -10.0950   17.8037 H   0  0  0  0  0  0
   18.4271  -10.4237   13.9506 H   0  0  0  0  0  0
   19.1872   -3.6087   10.4061 H   0  0  0  0  0  0
   14.3675   -4.9335   10.5695 H   0  0  0  0  0  0
   15.8576  -12.2914   16.8409 H   0  0  0  0  0  0
   17.4151  -12.4478   14.9603 H   0  0  0  0  0  0
   17.5216   -2.5434    8.9110 H   0  0  0  0  0  0
   15.1640   -3.1955    8.9910 H   0  0  0  0  0  0
  1  2  1  0  0  0
  1  7  1  0  0  0
  1  8  1  0  0  0
  2  3  2  0  0  0
  3 10  1  0  0  0
  3  6  1  0  0  0
  4  7  1  0  0  0
  4  5  2  0  0  0
  4  9  1  0  0  0
  5 11  1  0  0  0
  6  8  2  0  0  0
  6 16  1  0  0  0
  7 24  1  0  0  0
  7 25  1  0  0  0
  8 17  1  0  0  0
  9 12  1  0  0  0
 10 13  1  0  0  0
 10 26  1  0  0  0
 10 27  1  0  0  0
 11 18  1  0  0  0
 11 12  2  0  0  0
 12 19  1  0  0  0
 13 14  2  0  0  0
 13 15  1  0  0  0
 15 28  1  0  0  0
 16 20  2  0  0  0
 16 29  1  0  0  0
 17 21  2  0  0  0
 17 30  1  0  0  0
 18 22  2  0  0  0
 18 31  1  0  0  0
 19 23  2  0  0  0
 19 32  1  0  0  0
 20 21  1  0  0  0
 20 33  1  0  0  0
 21 34  1  0  0  0
 22 23  1  0  0  0
 22 35  1  0  0  0
 23 36  1  0  0  0
M  END
> <s_m_entry_id>
6348

> <s_m_entry_name>
dock_pv.183

> <s_m_Source_Path>
/home/csk/Desktop/cluster/DUD-E-result/aldr

> <s_m_Source_File>
dock_pv.maegz

> <i_m_Source_File_Index>
183

> <chembl_id>
CHEMBL70247

> <chembl_pref_name>
None

> <i_lp_mmshare_version>
53161

> <i_f3d_flags>
0

> <r_lp_tautomer_probability>
1

> <s_lp_Force_Field>
OPLS_2005

> <r_lp_Energy>
10.638711

> <b_lp_Chiralities_Consistent>
1

> <s_lp_Variant>
CHEMBL1900_lig45-1

> <s_i_glide_gridfile>
glide-grid_2hv5

> <i_i_glide_lignum>
80

> <i_i_glide_rotatable_bonds>
5

> <r_i_docking_score>
-9.45140134259207

> <r_i_glide_ligand_efficiency>
-0.410930493156177

> <r_i_glide_ligand_efficiency_sa>
-1.16863165927956

> <r_i_glide_ligand_efficiency_ln>
-2.28543454520793

> <r_i_glide_gscore>
-9.45140134259207

> <r_i_glide_lipo>
-4.33071343634654

> <r_i_glide_hbond>
-0.32

> <r_i_glide_metal>
0

> <r_i_glide_rewards>
-2.83315443224729

> <r_i_glide_evdw>
-43.8569946289062

> <r_i_glide_ecoul>
-3.27005124092102

> <r_i_glide_erotb>
0.715823943585227

> <r_i_glide_esite>
0

> <r_i_glide_emodel>
-71.2793297036171

> <r_i_glide_energy>
-47.1270458698273

> <r_i_glide_einternal>
3.38670468330383

> <i_i_glide_confnum>
20

> <i_i_glide_posenum>
354

> <r_i_glide_eff_state_penalty>
0

> <s_user_duplicate_titles>
CHEMBL1900_lig45,108909

> <s_m_subgroup_title>
dock_pv

> <s_m_subgroupid>
dock_pv

> <b_m_subgroup_collapsed>
1

$$$$
CHEMBL1900_lig43
                    3D
 Schrodinger Suite 2021-1.
 44 48  0  0  1  0            999 V2000
   18.1489   -7.5148   15.0964 N   0  0  0  0  0  0
   17.7233   -6.9155   16.2770 N   0  0  0  0  0  0
   17.9738   -8.8310   14.7238 C   0  0  0  0  0  0
   17.1161   -9.5854   15.7188 C   0  0  0  0  0  0
   17.0152   -7.5630   17.1354 C   0  0  0  0  0  0
   18.0239   -6.1346   13.0381 C   0  0  0  0  0  0
   16.6112   -8.9639   16.8803 C   0  0  0  0  0  0
   18.5456   -5.3085   12.1968 N   0  0  0  0  0  0
   18.8755   -6.6383   14.1844 C   0  0  0  0  0  0
   16.3377   -6.5151   12.7280 S   0  0  0  0  0  0
   16.7323   -6.9089   18.4995 C   0  0  0  0  0  0
   16.8064  -10.9138   15.4262 C   0  0  0  0  0  0
   15.7662   -9.6811   17.7332 C   0  0  0  0  0  0
   17.6803   -4.8537   11.2693 C   0  0  0  0  0  0
   16.3730   -5.3528   11.4083 C   0  0  0  0  0  0
   16.7471   -5.3767   18.5860 C   0  0  0  0  0  0
   15.9925  -11.6570   16.2932 C   0  0  0  0  0  0
   15.4781  -11.0417   17.4717 C   0  0  0  0  0  0
   18.4588   -9.3233   13.6987 O   0  0  0  0  0  0
   16.1662   -4.6496   17.7822 O   0  0  0  0  0  0
   17.3850   -4.9171   19.6984 O   0  0  0  0  0  0
   18.0036   -3.9315   10.2500 C   0  0  0  0  0  0
   15.3408   -4.9171   10.5610 C   0  0  0  0  0  0
   14.6861  -11.8169   18.3623 C   0  0  0  0  0  0
   15.6730  -13.0126   16.0161 C   0  0  0  0  0  0
   16.9880   -3.5264    9.3859 C   0  0  0  0  0  0
   15.6983   -4.0351    9.5274 C   0  0  0  0  0  0
   14.8781  -13.7296   16.8993 C   0  0  0  0  0  0
   14.4077  -13.1514   18.0694 C   0  0  0  0  0  0
   19.7627   -7.1271   13.7835 H   0  0  0  0  0  0
   19.3064   -5.7884   14.7181 H   0  0  0  0  0  0
   15.7435   -7.1884   18.8698 H   0  0  0  0  0  0
   17.4426   -7.3036   19.2252 H   0  0  0  0  0  0
   17.1863  -11.3826   14.5224 H   0  0  0  0  0  0
   15.3689   -9.2587   18.6490 H   0  0  0  0  0  0
   17.3394   -3.9630   19.7237 H   0  0  0  0  0  0
   19.0068   -3.5098   10.1530 H   0  0  0  0  0  0
   14.3228   -5.2899   10.6695 H   0  0  0  0  0  0
   14.2863  -11.3645   19.2661 H   0  0  0  0  0  0
   16.0516  -13.4783   15.1149 H   0  0  0  0  0  0
   17.1898   -2.8207    8.5733 H   0  0  0  0  0  0
   14.9431   -3.7277    8.8136 H   0  0  0  0  0  0
   14.6056  -14.7429   16.6622 H   0  0  0  0  0  0
   13.7850  -13.7226   18.7417 H   0  0  0  0  0  0
  1  2  1  0  0  0
  1  3  1  0  0  0
  1  9  1  0  0  0
  2  5  2  0  0  0
  3  4  1  0  0  0
  3 19  2  0  0  0
  4  7  2  0  0  0
  4 12  1  0  0  0
  5 11  1  0  0  0
  5  7  1  0  0  0
  6  9  1  0  0  0
  6  8  2  0  0  0
  6 10  1  0  0  0
  7 13  1  0  0  0
  8 14  1  0  0  0
  9 30  1  0  0  0
  9 31  1  0  0  0
 10 15  1  0  0  0
 11 16  1  0  0  0
 11 32  1  0  0  0
 11 33  1  0  0  0
 12 17  2  0  0  0
 12 34  1  0  0  0
 13 18  2  0  0  0
 13 35  1  0  0  0
 14 22  1  0  0  0
 14 15  2  0  0  0
 15 23  1  0  0  0
 16 20  2  0  0  0
 16 21  1  0  0  0
 17 18  1  0  0  0
 17 25  1  0  0  0
 18 24  1  0  0  0
 21 36  1  0  0  0
 22 26  2  0  0  0
 22 37  1  0  0  0
 23 27  2  0  0  0
 23 38  1  0  0  0
 24 29  2  0  0  0
 24 39  1  0  0  0
 25 28  2  0  0  0
 25 40  1  0  0  0
 26 27  1  0  0  0
 26 41  1  0  0  0
 27 42  1  0  0  0
 28 29  1  0  0  0
 28 43  1  0  0  0
 29 44  1  0  0  0
M  END
> <s_m_entry_id>
6349

> <s_m_entry_name>
dock_pv.184

> <s_m_Source_Path>
/home/csk/Desktop/cluster/DUD-E-result/aldr

> <s_m_Source_File>
dock_pv.maegz

> <i_m_Source_File_Index>
184

> <chembl_id>
CHEMBL69537

> <chembl_pref_name>
None

> <i_lp_mmshare_version>
53161

> <i_f3d_flags>
0

> <r_lp_tautomer_probability>
1

> <s_lp_Force_Field>
OPLS_2005

> <r_lp_Energy>
31.123579

> <b_lp_Chiralities_Consistent>
1

> <s_lp_Variant>
CHEMBL1900_lig43-1

> <s_i_glide_gridfile>
glide-grid_2hv5

> <i_i_glide_lignum>
78

> <i_i_glide_rotatable_bonds>
5

> <r_i_docking_score>
-9.4488883424464

> <r_i_glide_ligand_efficiency>
-0.325823735946428

> <r_i_glide_ligand_efficiency_sa>
-1.00103374503244

> <r_i_glide_ligand_efficiency_ln>
-2.16355582728539

> <r_i_glide_gscore>
-9.4488883424464

> <r_i_glide_lipo>
-4.81431715440219

> <r_i_glide_hbond>
0

> <r_i_glide_metal>
0

> <r_i_glide_rewards>
-2.2721085494832

> <r_i_glide_evdw>
-50.9345855712891

> <r_i_glide_ecoul>
-2.01717472076416

> <r_i_glide_erotb>
0.486842848118064

> <r_i_glide_esite>
0

> <r_i_glide_emodel>
-66.1666012661873

> <r_i_glide_energy>
-52.9517602920532

> <r_i_glide_einternal>
4.69707870483398

> <i_i_glide_confnum>
4

> <i_i_glide_posenum>
45

> <r_i_glide_eff_state_penalty>
0

> <s_user_duplicate_titles>
CHEMBL1900_lig43,108213

> <s_m_subgroup_title>
dock_pv

> <s_m_subgroupid>
dock_pv

> <b_m_subgroup_collapsed>
1

$$$$
CHEMBL1900_lig300
                    3D
 Schrodinger Suite 2021-1.
 42 45  0  0  1  0            999 V2000
   17.5941   -8.7738   15.2848 N   0  0  0  0  0  0
   17.1024   -7.8637   16.2179 N   0  0  0  0  0  0
   17.3416  -10.1311   15.2349 C   0  0  0  0  0  0
   16.1650   -8.2047   17.0162 C   0  0  0  0  0  0
   17.7046   -7.1352   13.3964 C   0  0  0  0  0  0
   16.4675   -7.2023   12.9811 N   0  0  0  0  0  0
   18.4285   -8.1776   14.2336 C   0  0  0  0  0  0
   16.3075  -10.5457   16.2686 C   0  0  0  0  0  0
   18.5451   -5.7167   12.8907 S   0  0  0  0  0  0
   15.7453   -9.6081   17.1621 C   0  0  0  0  0  0
   17.2381   -5.3202   11.8331 C   0  0  0  0  0  0
   15.4501   -7.0448   17.7368 C   0  0  0  0  0  0
   16.1700   -6.1976   12.1065 C   0  0  0  0  0  0
   16.2746   -6.3102   18.8145 C   0  0  0  0  0  0
   17.1548   -4.2982   10.8896 C   0  0  0  0  0  0
   17.8761  -10.9167   14.4469 O   0  0  0  0  0  0
   15.7449   -5.7344   19.7617 O   0  0  0  0  0  0
   14.9429   -5.9875   11.4664 C   0  0  0  0  0  0
   15.9247   -4.0875   10.2634 C   0  0  0  0  0  0
   17.6153   -6.3155   18.5812 O   0  0  0  0  0  0
   14.8386   -4.9123   10.5809 C   0  0  0  0  0  0
   15.9414  -11.8955   16.3483 C   0  0  0  0  0  0
   14.9072  -10.0638   18.1809 C   0  0  0  0  0  0
   15.7088   -3.0615    9.3655 O   0  0  0  0  0  0
   16.7384   -2.1164    9.0962 C   0  0  0  0  0  0
   15.0491  -12.3202   17.3303 C   0  0  0  0  0  0
   14.5450  -11.4077   18.2536 C   0  0  0  0  0  0
   19.2960   -7.7399   14.7301 H   0  0  0  0  0  0
   18.8667   -8.9088   13.5515 H   0  0  0  0  0  0
   15.1687   -6.2956   16.9976 H   0  0  0  0  0  0
   14.5047   -7.3624   18.1702 H   0  0  0  0  0  0
   18.0039   -3.6590   10.7073 H   0  0  0  0  0  0
   14.0913   -6.6200   11.6609 H   0  0  0  0  0  0
   17.8086   -6.7783   17.7585 H   0  0  0  0  0  0
   13.8854   -4.7155   10.1143 H   0  0  0  0  0  0
   16.3500  -12.6214   15.6584 H   0  0  0  0  0  0
   14.5259   -9.3849   18.9288 H   0  0  0  0  0  0
   16.3498   -1.3369    8.4393 H   0  0  0  0  0  0
   17.0897   -1.6295   10.0070 H   0  0  0  0  0  0
   17.5806   -2.5875    8.5893 H   0  0  0  0  0  0
   14.7611  -13.3598   17.3888 H   0  0  0  0  0  0
   13.8641  -11.7428   19.0240 H   0  0  0  0  0  0
  1  2  1  0  0  0
  1  3  1  0  0  0
  1  7  1  0  0  0
  2  4  2  0  0  0
  3  8  1  0  0  0
  3 16  2  0  0  0
  4 12  1  0  0  0
  4 10  1  0  0  0
  5  7  1  0  0  0
  5  6  2  0  0  0
  5  9  1  0  0  0
  6 13  1  0  0  0
  7 28  1  0  0  0
  7 29  1  0  0  0
  8 10  1  0  0  0
  8 22  2  0  0  0
  9 11  1  0  0  0
 10 23  2  0  0  0
 11 15  1  0  0  0
 11 13  2  0  0  0
 12 14  1  0  0  0
 12 30  1  0  0  0
 12 31  1  0  0  0
 13 18  1  0  0  0
 14 17  2  0  0  0
 14 20  1  0  0  0
 15 19  2  0  0  0
 15 32  1  0  0  0
 18 21  2  0  0  0
 18 33  1  0  0  0
 19 24  1  0  0  0
 19 21  1  0  0  0
 20 34  1  0  0  0
 21 35  1  0  0  0
 22 26  1  0  0  0
 22 36  1  0  0  0
 23 27  1  0  0  0
 23 37  1  0  0  0
 24 25  1  0  0  0
 25 38  1  0  0  0
 25 39  1  0  0  0
 25 40  1  0  0  0
 26 27  2  0  0  0
 26 41  1  0  0  0
 27 42  1  0  0  0
M  END
> <s_m_entry_id>
6350

> <s_m_entry_name>
dock_pv.185

> <s_m_Source_Path>
/home/csk/Desktop/cluster/DUD-E-result/aldr

> <s_m_Source_File>
dock_pv.maegz

> <i_m_Source_File_Index>
185

> <chembl_id>
CHEMBL283984

> <chembl_pref_name>
None

> <i_lp_mmshare_version>
53161

> <i_f3d_flags>
0

> <r_lp_tautomer_probability>
1

> <s_lp_Force_Field>
OPLS_2005

> <r_lp_Energy>
30.169264

> <b_lp_Chiralities_Consistent>
1

> <s_lp_Variant>
CHEMBL1900_lig300-1

> <s_i_glide_gridfile>
glide-grid_2hv5

> <i_i_glide_lignum>
416

> <i_i_glide_rotatable_bonds>
6

> <r_i_docking_score>
-9.44404031547892

> <r_i_glide_ligand_efficiency>
-0.349779270943664

> <r_i_glide_ligand_efficiency_sa>
-1.04933781167818

> <r_i_glide_ligand_efficiency_ln>
-2.1984168882705

> <r_i_glide_gscore>
-9.44404031547892

> <r_i_glide_lipo>
-4.7500239370333

> <r_i_glide_hbond>
-0.32

> <r_i_glide_metal>
0

> <r_i_glide_rewards>
-2.35585587367599

> <r_i_glide_evdw>
-47.3434906005859

> <r_i_glide_ecoul>
-1.23148274421692

> <r_i_glide_erotb>
0.533736436892208

> <r_i_glide_esite>
0

> <r_i_glide_emodel>
-66.5922352561263

> <r_i_glide_energy>
-48.5749733448029

> <r_i_glide_einternal>
4.51473522186279

> <i_i_glide_confnum>
15

> <i_i_glide_posenum>
90

> <r_i_glide_eff_state_penalty>
0

> <s_user_duplicate_titles>
CHEMBL1900_lig300

> <s_m_subgroup_title>
dock_pv

> <s_m_subgroupid>
dock_pv

> <b_m_subgroup_collapsed>
1

$$$$
CHEMBL1900_lig162
                    3D
 Schrodinger Suite 2021-1.
 41 44  0  0  1  0            999 V2000
   17.5112   -9.9429   14.9866 N   0  0  0  0  0  0
   17.2641   -8.9220   15.9027 N   0  0  0  0  0  0
   17.4715   -7.5199   12.5820 N   0  0  0  0  0  0
   17.2140  -11.2830   15.1634 C   0  0  0  0  0  0
   16.5440   -9.1297   16.9363 C   0  0  0  0  0  0
   18.2790   -8.1036   13.4287 C   0  0  0  0  0  0
   17.7535   -6.2325   12.4788 C   0  0  0  0  0  0
   18.7076   -5.7151   13.2287 N   0  0  0  0  0  0
   18.2559   -9.5896   13.7553 C   0  0  0  0  0  0
   16.2969  -11.5024   16.3597 C   0  0  0  0  0  0
   19.3447   -6.9721   14.1782 S   0  0  0  0  0  0
   15.9134  -10.4313   17.1952 C   0  0  0  0  0  0
   16.5240   -7.9919   17.9634 C   0  0  0  0  0  0
   15.7823   -6.7299   17.4875 C   0  0  0  0  0  0
   17.6208  -12.1913   14.4306 O   0  0  0  0  0  0
   17.0437   -5.3688   11.4924 C   0  0  0  0  0  0
   14.9452   -6.6952   16.5857 O   0  0  0  0  0  0
   16.1456   -5.6532   18.2383 O   0  0  0  0  0  0
   15.8116  -12.7932   16.6063 C   0  0  0  0  0  0
   14.9450  -10.6457   18.1819 C   0  0  0  0  0  0
   15.6518   -5.4223   11.3711 C   0  0  0  0  0  0
   17.7784   -4.4844   10.6928 C   0  0  0  0  0  0
   14.9131  -13.0057   17.6502 C   0  0  0  0  0  0
   14.4826  -11.9344   18.4299 C   0  0  0  0  0  0
   17.1332   -3.6554    9.7830 C   0  0  0  0  0  0
   15.0025   -4.5701   10.4842 C   0  0  0  0  0  0
   15.7463   -3.7000    9.6889 C   0  0  0  0  0  0
   19.2852   -9.9319   13.8765 H   0  0  0  0  0  0
   17.8592  -10.1432   12.9021 H   0  0  0  0  0  0
   16.0973   -8.3075   18.9132 H   0  0  0  0  0  0
   17.5572   -7.7275   18.1965 H   0  0  0  0  0  0
   16.8551   -5.8592   18.8486 H   0  0  0  0  0  0
   16.1063  -13.6247   15.9801 H   0  0  0  0  0  0
   14.5728   -9.8391   18.7953 H   0  0  0  0  0  0
   15.0715   -6.0953   11.9878 H   0  0  0  0  0  0
   18.8542   -4.4411   10.7750 H   0  0  0  0  0  0
   14.5152  -13.9908   17.8394 H   0  0  0  0  0  0
   13.7450  -12.1026   19.2033 H   0  0  0  0  0  0
   17.7030   -2.9750    9.1671 H   0  0  0  0  0  0
   13.9248   -4.5871   10.4076 H   0  0  0  0  0  0
   15.2410   -3.0481    8.9935 H   0  0  0  0  0  0
  1  2  1  0  0  0
  1  4  1  0  0  0
  1  9  1  0  0  0
  2  5  2  0  0  0
  3  6  2  0  0  0
  3  7  1  0  0  0
  4 10  1  0  0  0
  4 15  2  0  0  0
  5 13  1  0  0  0
  5 12  1  0  0  0
  6  9  1  0  0  0
  6 11  1  0  0  0
  7 16  1  0  0  0
  7  8  2  0  0  0
  8 11  1  0  0  0
  9 28  1  0  0  0
  9 29  1  0  0  0
 10 12  2  0  0  0
 10 19  1  0  0  0
 12 20  1  0  0  0
 13 14  1  0  0  0
 13 30  1  0  0  0
 13 31  1  0  0  0
 14 17  2  0  0  0
 14 18  1  0  0  0
 16 21  2  0  0  0
 16 22  1  0  0  0
 18 32  1  0  0  0
 19 23  2  0  0  0
 19 33  1  0  0  0
 20 24  2  0  0  0
 20 34  1  0  0  0
 21 26  1  0  0  0
 21 35  1  0  0  0
 22 25  2  0  0  0
 22 36  1  0  0  0
 23 24  1  0  0  0
 23 37  1  0  0  0
 24 38  1  0  0  0
 25 27  1  0  0  0
 25 39  1  0  0  0
 26 27  2  0  0  0
 26 40  1  0  0  0
 27 41  1  0  0  0
M  END
> <s_m_entry_id>
6351

> <s_m_entry_name>
dock_pv.186

> <s_m_Source_Path>
/home/csk/Desktop/cluster/DUD-E-result/aldr

> <s_m_Source_File>
dock_pv.maegz

> <i_m_Source_File_Index>
186

> <chembl_id>
CHEMBL142542

> <chembl_pref_name>
None

> <i_lp_mmshare_version>
53161

> <i_f3d_flags>
0

> <r_lp_tautomer_probability>
1

> <s_lp_Force_Field>
OPLS_2005

> <r_lp_Energy>
32.221418

> <b_lp_Chiralities_Consistent>
1

> <s_lp_Variant>
CHEMBL1900_lig162-1

> <s_i_glide_gridfile>
glide-grid_2hv5

> <i_i_glide_lignum>
238

> <i_i_glide_rotatable_bonds>
6

> <r_i_docking_score>
-9.4379627707698

> <r_i_glide_ligand_efficiency>
-0.349554176695178

> <r_i_glide_ligand_efficiency_sa>
-1.04866252893346

> <r_i_glide_ligand_efficiency_ln>
-2.19700213605837

> <r_i_glide_gscore>
-9.4379627707698

> <r_i_glide_lipo>
-3.75333584889735

> <r_i_glide_hbond>
-0.32

> <r_i_glide_metal>
0

> <r_i_glide_rewards>
-2.80964997561536

> <r_i_glide_evdw>
-51.3308601379395

> <r_i_glide_ecoul>
-4.43408489227295

> <r_i_glide_erotb>
0.67667879448083

> <r_i_glide_esite>
0

> <r_i_glide_emodel>
-78.4403336866636

> <r_i_glide_energy>
-55.7649450302124

> <r_i_glide_einternal>
7.86629819869995

> <i_i_glide_confnum>
17

> <i_i_glide_posenum>
5

> <r_i_glide_eff_state_penalty>
0

> <s_user_duplicate_titles>
CHEMBL1900_lig162

> <s_m_subgroup_title>
dock_pv

> <s_m_subgroupid>
dock_pv

> <b_m_subgroup_collapsed>
1

$$$$
CHEMBL1900_lig56
                    3D
 Schrodinger Suite 2021-1.
 36 39  0  0  1  0            999 V2000
   17.5081   -8.0355   15.3929 N   0  0  0  0  0  0
   17.1305   -6.9321   16.0649 N   0  0  0  0  0  0
   16.2578   -7.2946   16.9693 C   0  0  0  0  0  0
   16.0900   -8.7143   16.9626 C   0  0  0  0  0  0
   17.8720   -6.9291   13.2224 C   0  0  0  0  0  0
   18.5449   -5.9657   12.6346 N   0  0  0  0  0  0
   16.9170   -9.1756   15.9062 C   0  0  0  0  0  0
   18.4091   -7.8933   14.2570 C   0  0  0  0  0  0
   16.5640   -7.0559   12.8507 O   0  0  0  0  0  0
   15.6076   -6.2562   17.8639 C   0  0  0  0  0  0
   17.6371   -5.4162   11.7814 C   0  0  0  0  0  0
   16.4025   -6.0685   11.9334 C   0  0  0  0  0  0
   16.4177   -5.8484   19.0998 C   0  0  0  0  0  0
   17.0062  -10.5313   15.5672 C   0  0  0  0  0  0
   15.3445   -9.6395   17.7061 C   0  0  0  0  0  0
   15.8962   -5.3122   20.0738 O   0  0  0  0  0  0
   15.4433  -10.9913   17.3822 C   0  0  0  0  0  0
   16.2528  -11.4228   16.3330 C   0  0  0  0  0  0
   17.7453   -6.1139   18.9810 O   0  0  0  0  0  0
   14.5628  -12.1453   18.3088 Cl  0  0  0  0  0  0
   17.7612   -4.3726   10.8533 C   0  0  0  0  0  0
   15.2543   -5.7068   11.2291 C   0  0  0  0  0  0
   15.3986   -4.6472   10.3305 C   0  0  0  0  0  0
   16.6215   -4.0006   10.1361 C   0  0  0  0  0  0
   19.3790   -7.5639   14.6338 H   0  0  0  0  0  0
   18.5694   -8.8748   13.8123 H   0  0  0  0  0  0
   15.4455   -5.3340   17.3064 H   0  0  0  0  0  0
   14.6218   -6.5949   18.1814 H   0  0  0  0  0  0
   17.6269  -10.8813   14.7571 H   0  0  0  0  0  0
   14.7177   -9.3177   18.5235 H   0  0  0  0  0  0
   16.2983  -12.4791   16.1067 H   0  0  0  0  0  0
   17.9395   -6.5060   18.1239 H   0  0  0  0  0  0
   18.6980   -3.8591   10.7119 H   0  0  0  0  0  0
   14.3093   -6.2044   11.3807 H   0  0  0  0  0  0
   14.5453   -4.3195    9.7685 H   0  0  0  0  0  0
   16.6761   -3.1892    9.4247 H   0  0  0  0  0  0
  1  2  1  0  0  0
  1  7  1  0  0  0
  1  8  1  0  0  0
  2  3  2  0  0  0
  3 10  1  0  0  0
  3  4  1  0  0  0
  4  7  2  0  0  0
  4 15  1  0  0  0
  5  8  1  0  0  0
  5  6  2  0  0  0
  5  9  1  0  0  0
  6 11  1  0  0  0
  7 14  1  0  0  0
  8 25  1  0  0  0
  8 26  1  0  0  0
  9 12  1  0  0  0
 10 13  1  0  0  0
 10 27  1  0  0  0
 10 28  1  0  0  0
 11 21  1  0  0  0
 11 12  2  0  0  0
 12 22  1  0  0  0
 13 16  2  0  0  0
 13 19  1  0  0  0
 14 18  2  0  0  0
 14 29  1  0  0  0
 15 17  2  0  0  0
 15 30  1  0  0  0
 17 18  1  0  0  0
 17 20  1  0  0  0
 18 31  1  0  0  0
 19 32  1  0  0  0
 21 24  2  0  0  0
 21 33  1  0  0  0
 22 23  2  0  0  0
 22 34  1  0  0  0
 23 24  1  0  0  0
 23 35  1  0  0  0
 24 36  1  0  0  0
M  END
> <s_m_entry_id>
6352

> <s_m_entry_name>
dock_pv.187

> <s_m_Source_Path>
/home/csk/Desktop/cluster/DUD-E-result/aldr

> <s_m_Source_File>
dock_pv.maegz

> <i_m_Source_File_Index>
187

> <chembl_id>
CHEMBL69907

> <chembl_pref_name>
None

> <i_lp_mmshare_version>
53161

> <i_f3d_flags>
0

> <r_lp_tautomer_probability>
1

> <s_lp_Force_Field>
OPLS_2005

> <r_lp_Energy>
12.26681

> <b_lp_Chiralities_Consistent>
1

> <s_lp_Variant>
CHEMBL1900_lig56-1

> <s_i_glide_gridfile>
glide-grid_2hv5

> <i_i_glide_lignum>
91

> <i_i_glide_rotatable_bonds>
5

> <r_i_docking_score>
-9.43292060459677

> <r_i_glide_ligand_efficiency>
-0.393038358524865

> <r_i_glide_ligand_efficiency_sa>
-1.13371880619263

> <r_i_glide_ligand_efficiency_ln>
-2.25773074920176

> <r_i_glide_gscore>
-9.43292060459677

> <r_i_glide_lipo>
-4.33987918766428

> <r_i_glide_hbond>
-0.315496281708244

> <r_i_glide_metal>
0

> <r_i_glide_rewards>
-2.67913069290676

> <r_i_glide_evdw>
-46.2020034790039

> <r_i_glide_ecoul>
-2.91642880439758

> <r_i_glide_erotb>
0.64915005229235

> <r_i_glide_esite>
0

> <r_i_glide_emodel>
-76.5191568971314

> <r_i_glide_energy>
-49.1184322834015

> <r_i_glide_einternal>
1.90120160579681

> <i_i_glide_confnum>
9

> <i_i_glide_posenum>
109

> <r_i_glide_eff_state_penalty>
0

> <s_user_duplicate_titles>
CHEMBL1900_lig56,108284

> <s_m_subgroup_title>
dock_pv

> <s_m_subgroupid>
dock_pv

> <b_m_subgroup_collapsed>
1

$$$$
CHEMBL1900_lig465
                    3D
 Schrodinger Suite 2021-1.
 41 43  0  0  1  0            999 V2000
   14.9854  -11.2821   18.0534 C   0  0  0  0  0  0
   14.9450   -9.9206   17.7829 C   0  0  0  0  0  0
   15.8033   -9.3429   16.8370 C   0  0  0  0  0  0
   16.7485  -10.1644   16.1793 C   0  0  0  0  0  0
   16.7727  -11.5394   16.4610 C   0  0  0  0  0  0
   15.8969  -12.0943   17.3904 C   0  0  0  0  0  0
   14.1477  -11.8094   18.9721 F   0  0  0  0  0  0
   15.7014   -8.0063   16.4804 O   0  0  0  0  0  0
   15.1534   -7.0273   17.3719 C   0  0  0  0  0  0
   16.1450   -6.6504   18.4861 C   0  0  0  0  0  0
   17.4402   -6.9449   18.1812 O   0  0  0  0  0  0
   15.7908   -6.1064   19.5278 O   0  0  0  0  0  0
   17.7403   -9.6160   15.1765 C   0  0  0  0  0  0
   18.1446  -10.3059   14.2408 O   0  0  0  0  0  0
   18.1450   -8.3512   15.3809 N   0  0  0  0  0  0
   18.9307   -7.5377   14.4484 C   0  0  0  0  0  0
   18.0485   -6.7552   13.4844 C   0  0  0  0  0  0
   18.5447   -5.8884   12.6475 N   0  0  0  0  0  0
   16.3052   -6.9150   13.4025 S   0  0  0  0  0  0
   16.2749   -5.8118   12.0654 C   0  0  0  0  0  0
   17.5892   -5.3383   11.8538 C   0  0  0  0  0  0
   17.8195   -4.3387   10.9099 C   0  0  0  0  0  0
   16.7196   -3.7995   10.2319 C   0  0  0  0  0  0
   15.4391   -4.3384   10.3986 C   0  0  0  0  0  0
   15.1902   -5.3554   11.3132 C   0  0  0  0  0  0
   16.8883   -2.5667    9.3704 C   0  0  0  0  0  0
   18.1428   -2.1151    9.3812 F   0  0  0  0  0  0
   16.5452   -2.9001    8.1438 F   0  0  0  0  0  0
   16.0788   -1.5926    9.7770 F   0  0  0  0  0  0
   14.2096   -9.3399   18.3120 H   0  0  0  0  0  0
   17.4765  -12.1913   15.9598 H   0  0  0  0  0  0
   15.9242  -13.1537   17.6010 H   0  0  0  0  0  0
   14.9782   -6.1265   16.7862 H   0  0  0  0  0  0
   14.1807   -7.3076   17.7765 H   0  0  0  0  0  0
   18.0213   -6.7110   18.9080 H   0  0  0  0  0  0
   17.7505   -7.8716   16.1811 H   0  0  0  0  0  0
   19.5296   -6.8447   15.0410 H   0  0  0  0  0  0
   19.6566   -8.1538   13.9111 H   0  0  0  0  0  0
   18.8114   -3.9365   10.7802 H   0  0  0  0  0  0
   14.6063   -3.9185    9.8509 H   0  0  0  0  0  0
   14.1867   -5.7217   11.4838 H   0  0  0  0  0  0
  1  7  1  0  0  0
  1  6  1  0  0  0
  1  2  2  0  0  0
  2  3  1  0  0  0
  2 30  1  0  0  0
  3  4  2  0  0  0
  3  8  1  0  0  0
  4  5  1  0  0  0
  4 13  1  0  0  0
  5  6  2  0  0  0
  5 31  1  0  0  0
  6 32  1  0  0  0
  8  9  1  0  0  0
  9 10  1  0  0  0
  9 33  1  0  0  0
  9 34  1  0  0  0
 10 11  1  0  0  0
 10 12  2  0  0  0
 11 35  1  0  0  0
 13 15  1  0  0  0
 13 14  2  0  0  0
 15 16  1  0  0  0
 15 36  1  0  0  0
 16 17  1  0  0  0
 16 37  1  0  0  0
 16 38  1  0  0  0
 17 18  2  0  0  0
 17 19  1  0  0  0
 18 21  1  0  0  0
 19 20  1  0  0  0
 20 21  2  0  0  0
 20 25  1  0  0  0
 21 22  1  0  0  0
 22 23  2  0  0  0
 22 39  1  0  0  0
 23 24  1  0  0  0
 23 26  1  0  0  0
 24 25  2  0  0  0
 24 40  1  0  0  0
 25 41  1  0  0  0
 26 27  1  0  0  0
 26 28  1  0  0  0
 26 29  1  0  0  0
M  END
> <s_m_entry_id>
6353

> <s_m_entry_name>
dock_pv.188

> <s_m_Source_Path>
/home/csk/Desktop/cluster/DUD-E-result/aldr

> <s_m_Source_File>
dock_pv.maegz

> <i_m_Source_File_Index>
188

> <chembl_id>
CHEMBL240721

> <chembl_pref_name>
None

> <i_lp_mmshare_version>
53161

> <i_f3d_flags>
0

> <r_lp_tautomer_probability>
1

> <s_lp_Force_Field>
OPLS_2005

> <r_lp_Energy>
20.147768

> <b_lp_Chiralities_Consistent>
1

> <s_lp_Variant>
CHEMBL1900_lig465-1

> <s_i_glide_gridfile>
glide-grid_2hv5

> <i_i_glide_lignum>
587

> <i_i_glide_rotatable_bonds>
9

> <r_i_docking_score>
-9.41581415429363

> <r_i_glide_ligand_efficiency>
-0.32468324669978

> <r_i_glide_ligand_efficiency_sa>
-0.997529800734385

> <r_i_glide_ligand_efficiency_ln>
-2.15598267688745

> <r_i_glide_gscore>
-9.41581415429363

> <r_i_glide_lipo>
-4.35101612104708

> <r_i_glide_hbond>
-0.219325614533223

> <r_i_glide_metal>
0

> <r_i_glide_rewards>
-2.88391369316162

> <r_i_glide_evdw>
-45.5813217163086

> <r_i_glide_ecoul>
-2.6672670841217

> <r_i_glide_erotb>
0.757753675151202

> <r_i_glide_esite>
-0.0401562522692151

> <r_i_glide_emodel>
-71.5280092683015

> <r_i_glide_energy>
-48.2485888004303

> <r_i_glide_einternal>
5.83486890792847

> <i_i_glide_confnum>
119

> <i_i_glide_posenum>
65

> <r_i_glide_eff_state_penalty>
0

> <s_user_duplicate_titles>
CHEMBL1900_lig465,407183

> <s_m_subgroup_title>
dock_pv

> <s_m_subgroupid>
dock_pv

> <b_m_subgroup_collapsed>
1

$$$$
CHEMBL1900_lig161
                    3D
 Schrodinger Suite 2021-1.
 41 44  0  0  1  0            999 V2000
   18.1442   -8.7057   15.0517 N   0  0  0  0  0  0
   17.7362   -8.0226   16.1868 N   0  0  0  0  0  0
   18.2551   -5.9579   12.5697 N   0  0  0  0  0  0
   17.8648  -10.0222   14.7344 C   0  0  0  0  0  0
   16.9215   -8.5612   17.0119 C   0  0  0  0  0  0
   17.9267   -6.9854   13.2911 C   0  0  0  0  0  0
   17.1291   -5.6894   11.9333 C   0  0  0  0  0  0
   16.0897   -6.4220   12.2717 N   0  0  0  0  0  0
   18.8680   -7.8747   14.0772 C   0  0  0  0  0  0
   16.8989  -10.6522   15.7302 C   0  0  0  0  0  0
   16.3675   -9.9121   16.8073 C   0  0  0  0  0  0
   16.6887   -7.7747   18.3058 C   0  0  0  0  0  0
   16.6168   -7.3164   13.1928 O   0  0  0  0  0  0
   15.9370   -6.4524   18.1159 C   0  0  0  0  0  0
   18.3180  -10.6114   13.7482 O   0  0  0  0  0  0
   17.0395   -4.6232   10.8852 C   0  0  0  0  0  0
   15.3449   -6.1150   17.0901 O   0  0  0  0  0  0
   15.9836   -5.7172   19.2656 O   0  0  0  0  0  0
   16.4903  -11.9760   15.5233 C   0  0  0  0  0  0
   15.3459  -10.4755   17.5870 C   0  0  0  0  0  0
   15.9021   -4.5096   10.0812 C   0  0  0  0  0  0
   18.0885   -3.7151   10.7078 C   0  0  0  0  0  0
   15.5119  -12.5410   16.3409 C   0  0  0  0  0  0
   14.9309  -11.7876   17.3599 C   0  0  0  0  0  0
   17.9963   -2.6833    9.7809 C   0  0  0  0  0  0
   15.8197   -3.4935    9.1393 C   0  0  0  0  0  0
   16.8553   -2.5772    8.9943 C   0  0  0  0  0  0
   19.6300   -7.2925   14.5966 H   0  0  0  0  0  0
   19.4409   -8.4769   13.3694 H   0  0  0  0  0  0
   16.1495   -8.3600   19.0455 H   0  0  0  0  0  0
   17.6572   -7.5450   18.7517 H   0  0  0  0  0  0
   16.5473   -6.1263   19.9242 H   0  0  0  0  0  0
   16.8965  -12.5591   14.7071 H   0  0  0  0  0  0
   14.8698   -9.9249   18.3834 H   0  0  0  0  0  0
   15.0750   -5.1996   10.1834 H   0  0  0  0  0  0
   18.9449   -3.7681   11.3498 H   0  0  0  0  0  0
   15.1834  -13.5554   16.1670 H   0  0  0  0  0  0
   14.1517  -12.2214   17.9730 H   0  0  0  0  0  0
   18.7939   -1.9605    9.6850 H   0  0  0  0  0  0
   14.9465   -3.4220    8.5191 H   0  0  0  0  0  0
   16.7681   -1.7803    8.2706 H   0  0  0  0  0  0
  1  2  1  0  0  0
  1  4  1  0  0  0
  1  9  1  0  0  0
  2  5  2  0  0  0
  3  6  2  0  0  0
  3  7  1  0  0  0
  4 10  1  0  0  0
  4 15  2  0  0  0
  5 12  1  0  0  0
  5 11  1  0  0  0
  6  9  1  0  0  0
  6 13  1  0  0  0
  7 16  1  0  0  0
  7  8  2  0  0  0
  8 13  1  0  0  0
  9 28  1  0  0  0
  9 29  1  0  0  0
 10 11  2  0  0  0
 10 19  1  0  0  0
 11 20  1  0  0  0
 12 14  1  0  0  0
 12 30  1  0  0  0
 12 31  1  0  0  0
 14 17  2  0  0  0
 14 18  1  0  0  0
 16 21  1  0  0  0
 16 22  2  0  0  0
 18 32  1  0  0  0
 19 23  2  0  0  0
 19 33  1  0  0  0
 20 24  2  0  0  0
 20 34  1  0  0  0
 21 26  2  0  0  0
 21 35  1  0  0  0
 22 25  1  0  0  0
 22 36  1  0  0  0
 23 24  1  0  0  0
 23 37  1  0  0  0
 24 38  1  0  0  0
 25 27  2  0  0  0
 25 39  1  0  0  0
 26 27  1  0  0  0
 26 40  1  0  0  0
 27 41  1  0  0  0
M  END
> <s_m_entry_id>
6354

> <s_m_entry_name>
dock_pv.189

> <s_m_Source_Path>
/home/csk/Desktop/cluster/DUD-E-result/aldr

> <s_m_Source_File>
dock_pv.maegz

> <i_m_Source_File_Index>
189

> <chembl_id>
CHEMBL143231

> <chembl_pref_name>
None

> <i_lp_mmshare_version>
53161

> <i_f3d_flags>
0

> <r_lp_tautomer_probability>
1

> <s_lp_Force_Field>
OPLS_2005

> <r_lp_Energy>
31.646725

> <b_lp_Chiralities_Consistent>
1

> <s_lp_Variant>
CHEMBL1900_lig161-1

> <s_i_glide_gridfile>
glide-grid_2hv5

> <i_i_glide_lignum>
237

> <i_i_glide_rotatable_bonds>
6

> <r_i_docking_score>
-9.4039976867842

> <r_i_glide_ligand_efficiency>
-0.348296210621637

> <r_i_glide_ligand_efficiency_sa>
-1.04488863071698

> <r_i_glide_ligand_efficiency_ln>
-2.18909562446469

> <r_i_glide_gscore>
-9.4039976867842

> <r_i_glide_lipo>
-3.88410774299795

> <r_i_glide_hbond>
-0.253314468080006

> <r_i_glide_metal>
0

> <r_i_glide_rewards>
-2.81403113702074

> <r_i_glide_evdw>
-48.5033340454102

> <r_i_glide_ecoul>
-5.05746030807495

> <r_i_glide_erotb>
0.731241409796245

> <r_i_glide_esite>
0

> <r_i_glide_emodel>
-79.9362484320546

> <r_i_glide_energy>
-53.5607943534851

> <r_i_glide_einternal>
3.92277407646179

> <i_i_glide_confnum>
30

> <i_i_glide_posenum>
224

> <r_i_glide_eff_state_penalty>
0

> <s_user_duplicate_titles>
CHEMBL1900_lig161,235863

> <s_m_subgroup_title>
dock_pv

> <s_m_subgroupid>
dock_pv

> <b_m_subgroup_collapsed>
1

$$$$
CHEMBL1900_lig618
                    3D
 Schrodinger Suite 2021-1.
 32 34  0  0  1  0            999 V2000
   15.3450   -3.7150    8.5810 O   0  0  0  0  0  0
   16.2538   -3.8985    9.5584 C   0  0  0  0  0  0
   17.3900   -3.3970    9.4815 N   0  0  0  0  0  0
   18.2161   -3.7887   10.4899 C   0  0  0  0  0  0
   19.3450   -3.3150   10.5800 O   0  0  0  0  0  0
   17.5917   -4.7781   11.3671 C   0  0  0  0  0  0
   18.2836   -5.3910   12.3603 C   0  0  0  0  0  0
   17.8183   -6.3125   13.4294 C   0  0  0  0  0  0
   18.6373   -6.4278   14.5578 C   0  0  0  0  0  0
   18.1832   -7.0703   15.7058 C   0  0  0  0  0  0
   16.9414   -7.6811   15.7243 C   0  0  0  0  0  0
   16.5081   -8.2689   16.8905 O   0  0  0  0  0  0
   16.0492   -9.5682   16.8977 C   0  0  0  0  0  0
   16.6169  -10.5711   16.1005 C   0  0  0  0  0  0
   16.1406  -11.8774   16.1803 C   0  0  0  0  0  0
   15.1053  -12.1817   17.0617 C   0  0  0  0  0  0
   14.5450  -11.1925   17.8660 C   0  0  0  0  0  0
   15.0181   -9.8861   17.7810 C   0  0  0  0  0  0
   16.1450   -7.6333   14.5857 C   0  0  0  0  0  0
   16.5740   -6.9564   13.4439 C   0  0  0  0  0  0
   15.8871   -4.9318   10.9198 S   0  0  0  0  0  0
   14.4481   -3.6355    8.9398 H   0  0  0  0  0  0
   19.3396   -5.1902   12.4290 H   0  0  0  0  0  0
   19.5994   -5.9355   14.5904 H   0  0  0  0  0  0
   18.7887   -7.0662   16.5989 H   0  0  0  0  0  0
   17.4278  -10.3397   15.4257 H   0  0  0  0  0  0
   16.5734  -12.6512   15.5629 H   0  0  0  0  0  0
   14.7336  -13.1941   17.1244 H   0  0  0  0  0  0
   13.7450  -11.4382   18.5493 H   0  0  0  0  0  0
   14.5912   -9.1167   18.4066 H   0  0  0  0  0  0
   15.1842   -8.1151   14.6127 H   0  0  0  0  0  0
   15.9094   -6.9335   12.5979 H   0  0  0  0  0  0
  1  2  1  0  0  0
  1 22  1  0  0  0
  2  3  2  0  0  0
  2 21  1  0  0  0
  3  4  1  0  0  0
  4  5  2  0  0  0
  4  6  1  0  0  0
  6  7  2  0  0  0
  6 21  1  0  0  0
  7  8  1  0  0  0
  7 23  1  0  0  0
  8  9  2  0  0  0
  8 20  1  0  0  0
  9 10  1  0  0  0
  9 24  1  0  0  0
 10 11  2  0  0  0
 10 25  1  0  0  0
 11 12  1  0  0  0
 11 19  1  0  0  0
 12 13  1  0  0  0
 13 14  2  0  0  0
 13 18  1  0  0  0
 14 15  1  0  0  0
 14 26  1  0  0  0
 15 16  2  0  0  0
 15 27  1  0  0  0
 16 17  1  0  0  0
 16 28  1  0  0  0
 17 18  2  0  0  0
 17 29  1  0  0  0
 18 30  1  0  0  0
 19 20  2  0  0  0
 19 31  1  0  0  0
 20 32  1  0  0  0
M  END
> <s_m_entry_id>
6355

> <s_m_entry_name>
dock_pv.190

> <s_m_Source_Path>
/home/csk/Desktop/cluster/DUD-E-result/aldr

> <s_m_Source_File>
dock_pv.maegz

> <i_m_Source_File_Index>
190

> <chembl_id>
CHEMBL1645385

> <chembl_pref_name>
None

> <i_lp_mmshare_version>
53161

> <i_f3d_flags>
0

> <r_lp_tautomer_probability>
1

> <s_lp_Force_Field>
OPLS_2005

> <r_lp_Energy>
25.993314

> <b_lp_Chiralities_Consistent>
1

> <s_lp_Variant>
CHEMBL1900_lig618-1

> <s_i_glide_gridfile>
glide-grid_2hv5

> <i_i_glide_lignum>
742

> <i_i_glide_rotatable_bonds>
4

> <r_i_docking_score>
-9.39383283606686

> <r_i_glide_ligand_efficiency>
-0.447325373146041

> <r_i_glide_ligand_efficiency_sa>
-1.23413678542887

> <r_i_glide_ligand_efficiency_ln>
-2.32260618669097

> <r_i_glide_gscore>
-9.39383283606686

> <r_i_glide_lipo>
-3.59606766186915

> <r_i_glide_hbond>
-0.393104055392564

> <r_i_glide_metal>
0

> <r_i_glide_rewards>
-3.18184472727273

> <r_i_glide_evdw>
-28.8244094848633

> <r_i_glide_ecoul>
-9.3583402633667

> <r_i_glide_erotb>
0.622155122215755

> <r_i_glide_esite>
0

> <r_i_glide_emodel>
-51.9999916121976

> <r_i_glide_energy>
-38.18274974823

> <r_i_glide_einternal>
8.02702331542969

> <i_i_glide_confnum>
9

> <i_i_glide_posenum>
42

> <r_i_glide_eff_state_penalty>
0

> <s_user_duplicate_titles>
CHEMBL1900_lig618

> <s_m_subgroup_title>
dock_pv

> <s_m_subgroupid>
dock_pv

> <b_m_subgroup_collapsed>
1

$$$$
CHEMBL1900_lig159
                    3D
 Schrodinger Suite 2021-1.
 42 45  0  0  1  0            999 V2000
   17.5308   -9.9805   15.0245 N   0  0  0  0  0  0
   17.2475   -8.9370   15.9050 N   0  0  0  0  0  0
   17.3014  -11.3229   15.2560 C   0  0  0  0  0  0
   16.5409   -9.1353   16.9479 C   0  0  0  0  0  0
   17.4253   -7.5772   12.5809 N   0  0  0  0  0  0
   18.2472   -8.1586   13.4208 C   0  0  0  0  0  0
   16.3776  -11.5319   16.4464 C   0  0  0  0  0  0
   18.2107   -9.6426   13.7532 C   0  0  0  0  0  0
   17.6603   -6.2829   12.4444 C   0  0  0  0  0  0
   15.9391  -10.4451   17.2321 C   0  0  0  0  0  0
   16.5134   -7.9866   17.9643 C   0  0  0  0  0  0
   19.3450   -7.0632   14.1824 S   0  0  0  0  0  0
   18.6522   -5.7844   13.2730 C   0  0  0  0  0  0
   15.7810   -6.7236   17.4796 C   0  0  0  0  0  0
   17.7563  -12.2401   14.5635 O   0  0  0  0  0  0
   16.9041   -5.4556   11.4786 C   0  0  0  0  0  0
   14.9450   -6.6899   16.5784 O   0  0  0  0  0  0
   16.1480   -5.6445   18.2258 O   0  0  0  0  0  0
   15.9328  -12.8279   16.7359 C   0  0  0  0  0  0
   14.9450  -10.6517   18.1910 C   0  0  0  0  0  0
   17.5955   -4.5467   10.6698 C   0  0  0  0  0  0
   15.5128   -5.5430   11.4156 C   0  0  0  0  0  0
   15.0094  -13.0305   17.7588 C   0  0  0  0  0  0
   14.5123  -11.9444   18.4737 C   0  0  0  0  0  0
   14.8126   -4.6864   10.5793 C   0  0  0  0  0  0
   16.8951   -3.7139    9.8049 C   0  0  0  0  0  0
   15.5063   -3.7826    9.7769 C   0  0  0  0  0  0
   19.2392  -10.0056   13.8157 H   0  0  0  0  0  0
   17.7446  -10.1992   12.9405 H   0  0  0  0  0  0
   16.0746   -8.2939   18.9112 H   0  0  0  0  0  0
   17.5447   -7.7195   18.2004 H   0  0  0  0  0  0
   19.0031   -4.7726   13.3840 H   0  0  0  0  0  0
   16.8488   -5.8519   18.8459 H   0  0  0  0  0  0
   16.2728  -13.6737   16.1525 H   0  0  0  0  0  0
   14.5426   -9.8300   18.7615 H   0  0  0  0  0  0
   18.6720   -4.4843   10.7181 H   0  0  0  0  0  0
   14.9722   -6.2311   12.0490 H   0  0  0  0  0  0
   14.6460  -14.0219   17.9779 H   0  0  0  0  0  0
   13.7549  -12.1059   19.2285 H   0  0  0  0  0  0
   13.7342   -4.7219   10.5485 H   0  0  0  0  0  0
   17.4188   -3.0076    9.1773 H   0  0  0  0  0  0
   14.9505   -3.1238    9.1276 H   0  0  0  0  0  0
  1  2  1  0  0  0
  1  3  1  0  0  0
  1  8  1  0  0  0
  2  4  2  0  0  0
  3  7  1  0  0  0
  3 15  2  0  0  0
  4 11  1  0  0  0
  4 10  1  0  0  0
  5  6  2  0  0  0
  5  9  1  0  0  0
  6  8  1  0  0  0
  6 12  1  0  0  0
  7 10  2  0  0  0
  7 19  1  0  0  0
  8 28  1  0  0  0
  8 29  1  0  0  0
  9 16  1  0  0  0
  9 13  2  0  0  0
 10 20  1  0  0  0
 11 14  1  0  0  0
 11 30  1  0  0  0
 11 31  1  0  0  0
 12 13  1  0  0  0
 13 32  1  0  0  0
 14 17  2  0  0  0
 14 18  1  0  0  0
 16 21  2  0  0  0
 16 22  1  0  0  0
 18 33  1  0  0  0
 19 23  2  0  0  0
 19 34  1  0  0  0
 20 24  2  0  0  0
 20 35  1  0  0  0
 21 26  1  0  0  0
 21 36  1  0  0  0
 22 25  2  0  0  0
 22 37  1  0  0  0
 23 24  1  0  0  0
 23 38  1  0  0  0
 24 39  1  0  0  0
 25 27  1  0  0  0
 25 40  1  0  0  0
 26 27  2  0  0  0
 26 41  1  0  0  0
 27 42  1  0  0  0
M  END
> <s_m_entry_id>
6356

> <s_m_entry_name>
dock_pv.191

> <s_m_Source_Path>
/home/csk/Desktop/cluster/DUD-E-result/aldr

> <s_m_Source_File>
dock_pv.maegz

> <i_m_Source_File_Index>
191

> <chembl_id>
CHEMBL140199

> <chembl_pref_name>
None

> <i_lp_mmshare_version>
53161

> <i_f3d_flags>
0

> <r_lp_tautomer_probability>
1

> <s_lp_Force_Field>
OPLS_2005

> <r_lp_Energy>
28.830778

> <b_lp_Chiralities_Consistent>
1

> <s_lp_Variant>
CHEMBL1900_lig159-1

> <s_i_glide_gridfile>
glide-grid_2hv5

> <i_i_glide_lignum>
235

> <i_i_glide_rotatable_bonds>
6

> <r_i_docking_score>
-9.39346770741288

> <r_i_glide_ligand_efficiency>
-0.347906211385662

> <r_i_glide_ligand_efficiency_sa>
-1.04371863301034

> <r_i_glide_ligand_efficiency_ln>
-2.18664441886733

> <r_i_glide_gscore>
-9.39346770741288

> <r_i_glide_lipo>
-4.29676644820792

> <r_i_glide_hbond>
-0.32

> <r_i_glide_metal>
0

> <r_i_glide_rewards>
-2.3623261025923

> <r_i_glide_evdw>
-49.0422477722168

> <r_i_glide_ecoul>
-4.28078126907349

> <r_i_glide_erotb>
0.679854422359206

> <r_i_glide_esite>
0

> <r_i_glide_emodel>
-73.331502350472

> <r_i_glide_energy>
-53.3230290412903

> <r_i_glide_einternal>
9.71987819671631

> <i_i_glide_confnum>
10

> <i_i_glide_posenum>
360

> <r_i_glide_eff_state_penalty>
0

> <s_user_duplicate_titles>
CHEMBL1900_lig159,235310

> <s_m_subgroup_title>
dock_pv

> <s_m_subgroupid>
dock_pv

> <b_m_subgroup_collapsed>
1

$$$$
CHEMBL1900_lig175
                    3D
 Schrodinger Suite 2021-1.
 41 44  0  0  1  0            999 V2000
   17.7675   -9.5806   14.9591 N   0  0  0  0  0  0
   17.4960   -8.5882   15.9005 N   0  0  0  0  0  0
   17.8355   -6.1470   12.3613 C   0  0  0  0  0  0
   17.5560   -7.4023   12.5810 N   0  0  0  0  0  0
   17.4061  -10.9119   15.0540 C   0  0  0  0  0  0
   16.7277   -8.8227   16.8939 C   0  0  0  0  0  0
   18.5238   -7.7631   13.3970 C   0  0  0  0  0  0
   18.9022   -5.7104   13.0802 O   0  0  0  0  0  0
   18.6714   -9.2046   13.8491 C   0  0  0  0  0  0
   16.4178  -11.1507   16.1884 C   0  0  0  0  0  0
   17.2076   -5.2269   11.3643 C   0  0  0  0  0  0
   16.0402  -10.1112   17.0641 C   0  0  0  0  0  0
   16.6799   -7.7279   17.9641 C   0  0  0  0  0  0
   19.3446   -6.8178   13.7971 N   0  0  0  0  0  0
   15.8293   -6.5131   17.5636 C   0  0  0  0  0  0
   17.8295  -11.8045   14.3123 O   0  0  0  0  0  0
   15.8510   -5.2936   11.0037 C   0  0  0  0  0  0
   14.9459   -6.5168   16.7059 O   0  0  0  0  0  0
   14.7496   -6.3984   11.7408 Cl  0  0  0  0  0  0
   16.1465   -5.4352   18.3337 O   0  0  0  0  0  0
   18.0209   -4.2730   10.7366 C   0  0  0  0  0  0
   15.8780  -12.4328   16.3531 C   0  0  0  0  0  0
   15.0335  -10.3419   18.0096 C   0  0  0  0  0  0
   15.3425   -4.4325   10.0363 C   0  0  0  0  0  0
   17.5026   -3.4022    9.7788 C   0  0  0  0  0  0
   14.9322  -12.6669   17.3493 C   0  0  0  0  0  0
   14.5079  -11.6219   18.1666 C   0  0  0  0  0  0
   16.1598   -3.4850    9.4242 C   0  0  0  0  0  0
   19.6970   -9.3632   14.1823 H   0  0  0  0  0  0
   18.5647   -9.8590   12.9814 H   0  0  0  0  0  0
   16.3063   -8.1089   18.9129 H   0  0  0  0  0  0
   17.6995   -7.3963   18.1721 H   0  0  0  0  0  0
   16.8934   -5.6065   18.9105 H   0  0  0  0  0  0
   19.0674   -4.2040   10.9812 H   0  0  0  0  0  0
   16.1730  -13.2450   15.7023 H   0  0  0  0  0  0
   14.6760   -9.5537   18.6550 H   0  0  0  0  0  0
   14.2989   -4.5129    9.7670 H   0  0  0  0  0  0
   18.1418   -2.6693    9.3085 H   0  0  0  0  0  0
   14.5068  -13.6525   17.4731 H   0  0  0  0  0  0
   13.7499  -11.8031   18.9156 H   0  0  0  0  0  0
   15.7495   -2.8205    8.6790 H   0  0  0  0  0  0
  1  2  1  0  0  0
  1  5  1  0  0  0
  1  9  1  0  0  0
  2  6  2  0  0  0
  3  4  2  0  0  0
  3 11  1  0  0  0
  3  8  1  0  0  0
  4  7  1  0  0  0
  5 10  1  0  0  0
  5 16  2  0  0  0
  6 13  1  0  0  0
  6 12  1  0  0  0
  7  9  1  0  0  0
  7 14  2  0  0  0
  8 14  1  0  0  0
  9 29  1  0  0  0
  9 30  1  0  0  0
 10 12  2  0  0  0
 10 22  1  0  0  0
 11 17  2  0  0  0
 11 21  1  0  0  0
 12 23  1  0  0  0
 13 15  1  0  0  0
 13 31  1  0  0  0
 13 32  1  0  0  0
 15 18  2  0  0  0
 15 20  1  0  0  0
 17 19  1  0  0  0
 17 24  1  0  0  0
 20 33  1  0  0  0
 21 25  2  0  0  0
 21 34  1  0  0  0
 22 26  2  0  0  0
 22 35  1  0  0  0
 23 27  2  0  0  0
 23 36  1  0  0  0
 24 28  2  0  0  0
 24 37  1  0  0  0
 25 28  1  0  0  0
 25 38  1  0  0  0
 26 27  1  0  0  0
 26 39  1  0  0  0
 27 40  1  0  0  0
 28 41  1  0  0  0
M  END
> <s_m_entry_id>
6357

> <s_m_entry_name>
dock_pv.192

> <s_m_Source_Path>
/home/csk/Desktop/cluster/DUD-E-result/aldr

> <s_m_Source_File>
dock_pv.maegz

> <i_m_Source_File_Index>
192

> <chembl_id>
CHEMBL2111988

> <chembl_pref_name>
None

> <i_lp_mmshare_version>
53161

> <i_f3d_flags>
0

> <r_lp_tautomer_probability>
1

> <s_lp_Force_Field>
OPLS_2005

> <r_lp_Energy>
29.268548

> <b_lp_Chiralities_Consistent>
1

> <s_lp_Variant>
CHEMBL1900_lig175-1

> <s_i_glide_gridfile>
glide-grid_2hv5

> <i_i_glide_lignum>
251

> <i_i_glide_rotatable_bonds>
6

> <r_i_docking_score>
-9.38176257426363

> <r_i_glide_ligand_efficiency>
-0.335062949080844

> <r_i_glide_ligand_efficiency_sa>
-1.01744845493291

> <r_i_glide_ligand_efficiency_ln>
-2.16558626265873

> <r_i_glide_gscore>
-9.38176257426363

> <r_i_glide_lipo>
-3.92763469074648

> <r_i_glide_hbond>
-0.32

> <r_i_glide_metal>
0

> <r_i_glide_rewards>
-2.54266761899287

> <r_i_glide_evdw>
-53.1438598632812

> <r_i_glide_ecoul>
-3.70486664772034

> <r_i_glide_erotb>
0.621462725797838

> <r_i_glide_esite>
0

> <r_i_glide_emodel>
-83.6348544448621

> <r_i_glide_energy>
-56.8487265110016

> <r_i_glide_einternal>
5.01621294021606

> <i_i_glide_confnum>
59

> <i_i_glide_posenum>
373

> <r_i_glide_eff_state_penalty>
0

> <s_user_duplicate_titles>
CHEMBL1900_lig175

> <s_m_subgroup_title>
dock_pv

> <s_m_subgroupid>
dock_pv

> <b_m_subgroup_collapsed>
1

$$$$
CHEMBL1900_lig301
                    3D
 Schrodinger Suite 2021-1.
 42 45  0  0  1  0            999 V2000
   18.1040   -8.6921   15.2675 N   0  0  0  0  0  0
   17.7421   -7.9686   16.3908 N   0  0  0  0  0  0
   17.7440   -9.9960   14.9777 C   0  0  0  0  0  0
   16.8952   -8.4342   17.2232 C   0  0  0  0  0  0
   18.0172   -6.9686   13.4429 C   0  0  0  0  0  0
   18.5845   -6.1075   12.6587 N   0  0  0  0  0  0
   18.8707   -7.9110   14.2808 C   0  0  0  0  0  0
   16.7176  -10.5337   15.9723 C   0  0  0  0  0  0
   16.2665   -6.9150   13.3982 S   0  0  0  0  0  0
   17.7056   -5.4622   11.8616 C   0  0  0  0  0  0
   16.2372   -9.7366   17.0323 C   0  0  0  0  0  0
   16.6680   -7.5606   18.4618 C   0  0  0  0  0  0
   16.3555   -5.8248   12.0374 C   0  0  0  0  0  0
   16.0526   -6.1815   18.1758 C   0  0  0  0  0  0
   18.0602   -4.4996   10.9207 C   0  0  0  0  0  0
   18.1606  -10.6313   14.0052 O   0  0  0  0  0  0
   16.1452   -5.2598   18.9813 O   0  0  0  0  0  0
   15.3484   -5.2988   11.2248 C   0  0  0  0  0  0
   17.0617   -3.9096   10.1614 C   0  0  0  0  0  0
   15.3555   -6.1134   16.9987 O   0  0  0  0  0  0
   15.7275   -4.3408   10.2844 C   0  0  0  0  0  0
   16.1950  -11.8194   15.7806 C   0  0  0  0  0  0
   15.1497  -10.1892   17.7926 C   0  0  0  0  0  0
   17.4900   -2.8905    9.3435 O   0  0  0  0  0  0
   16.5159   -2.2155    8.5781 C   0  0  0  0  0  0
   15.1539  -12.2812   16.5862 C   0  0  0  0  0  0
   14.6200  -11.4609   17.5784 C   0  0  0  0  0  0
   19.6572   -7.3608   14.8008 H   0  0  0  0  0  0
   19.4293   -8.5597   13.6025 H   0  0  0  0  0  0
   16.0644   -8.0591   19.2157 H   0  0  0  0  0  0
   17.6241   -7.3719   18.9524 H   0  0  0  0  0  0
   19.0804   -4.1819   10.8060 H   0  0  0  0  0  0
   14.3120   -5.5815   11.3511 H   0  0  0  0  0  0
   15.4874   -6.9160   16.4884 H   0  0  0  0  0  0
   14.9451   -3.9059    9.6805 H   0  0  0  0  0  0
   16.5630  -12.4489   14.9811 H   0  0  0  0  0  0
   14.7123   -9.5860   18.5734 H   0  0  0  0  0  0
   16.9449   -1.3520    8.0796 H   0  0  0  0  0  0
   16.1450   -2.9105    7.8219 H   0  0  0  0  0  0
   15.6925   -1.8437    9.1889 H   0  0  0  0  0  0
   14.7409  -13.2663   16.4223 H   0  0  0  0  0  0
   13.7922  -11.8102   18.1810 H   0  0  0  0  0  0
  1  2  1  0  0  0
  1  3  1  0  0  0
  1  7  1  0  0  0
  2  4  2  0  0  0
  3  8  1  0  0  0
  3 16  2  0  0  0
  4 12  1  0  0  0
  4 11  1  0  0  0
  5  7  1  0  0  0
  5  6  2  0  0  0
  5  9  1  0  0  0
  6 10  1  0  0  0
  7 28  1  0  0  0
  7 29  1  0  0  0
  8 11  1  0  0  0
  8 22  2  0  0  0
  9 13  1  0  0  0
 10 15  1  0  0  0
 10 13  2  0  0  0
 11 23  2  0  0  0
 12 14  1  0  0  0
 12 30  1  0  0  0
 12 31  1  0  0  0
 13 18  1  0  0  0
 14 17  2  0  0  0
 14 20  1  0  0  0
 15 19  2  0  0  0
 15 32  1  0  0  0
 18 21  2  0  0  0
 18 33  1  0  0  0
 19 24  1  0  0  0
 19 21  1  0  0  0
 20 34  1  0  0  0
 21 35  1  0  0  0
 22 26  1  0  0  0
 22 36  1  0  0  0
 23 27  1  0  0  0
 23 37  1  0  0  0
 24 25  1  0  0  0
 25 38  1  0  0  0
 25 39  1  0  0  0
 25 40  1  0  0  0
 26 27  2  0  0  0
 26 41  1  0  0  0
 27 42  1  0  0  0
M  END
> <s_m_entry_id>
6358

> <s_m_entry_name>
dock_pv.193

> <s_m_Source_Path>
/home/csk/Desktop/cluster/DUD-E-result/aldr

> <s_m_Source_File>
dock_pv.maegz

> <i_m_Source_File_Index>
193

> <chembl_id>
CHEMBL19873

> <chembl_pref_name>
None

> <i_lp_mmshare_version>
53161

> <i_f3d_flags>
0

> <r_lp_tautomer_probability>
1

> <s_lp_Force_Field>
OPLS_2005

> <r_lp_Energy>
29.789328

> <b_lp_Chiralities_Consistent>
1

> <s_lp_Variant>
CHEMBL1900_lig301-1

> <s_i_glide_gridfile>
glide-grid_2hv5

> <i_i_glide_lignum>
417

> <i_i_glide_rotatable_bonds>
6

> <r_i_docking_score>
-9.38120224256656

> <r_i_glide_ligand_efficiency>
-0.347451934909872

> <r_i_glide_ligand_efficiency_sa>
-1.04235580358447

> <r_i_glide_ligand_efficiency_ln>
-2.1837892208631

> <r_i_glide_gscore>
-9.38120224256656

> <r_i_glide_lipo>
-4.83872136914529

> <r_i_glide_hbond>
0

> <r_i_glide_metal>
0

> <r_i_glide_rewards>
-2.18148528802801

> <r_i_glide_evdw>
-47.7375984191895

> <r_i_glide_ecoul>
-3.38568067550659

> <r_i_glide_erotb>
0.533736436892208

> <r_i_glide_esite>
0

> <r_i_glide_emodel>
-75.9654023521785

> <r_i_glide_energy>
-51.123279094696

> <r_i_glide_einternal>
9.23188400268555

> <i_i_glide_confnum>
13

> <i_i_glide_posenum>
80

> <r_i_glide_eff_state_penalty>
0

> <s_user_duplicate_titles>
CHEMBL1900_lig301,23363

> <s_m_subgroup_title>
dock_pv

> <s_m_subgroupid>
dock_pv

> <b_m_subgroup_collapsed>
1

$$$$
CHEMBL1900_lig153
                    3D
 Schrodinger Suite 2021-1.
 42 45  0  0  1  0            999 V2000
   17.5094  -10.0148   14.9753 N   0  0  0  0  0  0
   17.2750   -8.9854   15.8892 N   0  0  0  0  0  0
   17.1933  -11.3495   15.1593 C   0  0  0  0  0  0
   17.7535   -6.3621   12.4499 C   0  0  0  0  0  0
   16.5495   -9.1753   16.9209 C   0  0  0  0  0  0
   17.5473   -7.6477   12.5849 N   0  0  0  0  0  0
   18.3734   -8.1903   13.4681 C   0  0  0  0  0  0
   16.2814  -11.5512   16.3597 C   0  0  0  0  0  0
   17.0815   -5.4683   11.4562 C   0  0  0  0  0  0
   18.9312   -5.7150   13.5513 S   0  0  0  0  0  0
   15.9082  -10.4692   17.1886 C   0  0  0  0  0  0
   16.5395   -8.0313   17.9445 C   0  0  0  0  0  0
   18.2543   -9.6818   13.7390 C   0  0  0  0  0  0
   19.2426   -7.3114   14.0986 C   0  0  0  0  0  0
   15.7888   -6.7687   17.4818 C   0  0  0  0  0  0
   17.5848  -12.2621   14.4267 O   0  0  0  0  0  0
   15.7087   -5.5553   11.1954 C   0  0  0  0  0  0
   14.9471   -6.7304   16.5833 O   0  0  0  0  0  0
   14.9512   -6.5082   11.7800 F   0  0  0  0  0  0
   16.1456   -5.6978   18.2473 O   0  0  0  0  0  0
   17.8401   -4.5007   10.7801 C   0  0  0  0  0  0
   15.7908  -12.8365   16.6197 C   0  0  0  0  0  0
   14.9454  -10.6720   18.1814 C   0  0  0  0  0  0
   15.1005   -4.6443   10.3324 C   0  0  0  0  0  0
   17.2337   -3.6195    9.8843 C   0  0  0  0  0  0
   14.8993  -13.0368   17.6691 C   0  0  0  0  0  0
   14.4790  -11.9567   18.4442 C   0  0  0  0  0  0
   15.8619   -3.6825    9.6731 C   0  0  0  0  0  0
   16.1203   -8.3488   18.8957 H   0  0  0  0  0  0
   17.5723   -7.7551   18.1707 H   0  0  0  0  0  0
   19.2657  -10.0768   13.8460 H   0  0  0  0  0  0
   17.8310  -10.2048   12.8781 H   0  0  0  0  0  0
   19.9751   -7.4970   14.8656 H   0  0  0  0  0  0
   16.8538   -5.9129   18.8584 H   0  0  0  0  0  0
   18.9042   -4.4223   10.9501 H   0  0  0  0  0  0
   16.0780  -13.6769   16.0009 H   0  0  0  0  0  0
   14.5847   -9.8551   18.7908 H   0  0  0  0  0  0
   14.0336   -4.7001   10.1699 H   0  0  0  0  0  0
   17.8254   -2.8745    9.3738 H   0  0  0  0  0  0
   14.5024  -14.0223   17.8668 H   0  0  0  0  0  0
   13.7488  -12.1168   19.2245 H   0  0  0  0  0  0
   15.3804   -2.9929    8.9943 H   0  0  0  0  0  0
  1  2  1  0  0  0
  1  3  1  0  0  0
  1 13  1  0  0  0
  2  5  2  0  0  0
  3  8  1  0  0  0
  3 16  2  0  0  0
  4  6  2  0  0  0
  4  9  1  0  0  0
  4 10  1  0  0  0
  5 12  1  0  0  0
  5 11  1  0  0  0
  6  7  1  0  0  0
  7 13  1  0  0  0
  7 14  2  0  0  0
  8 11  2  0  0  0
  8 22  1  0  0  0
  9 17  2  0  0  0
  9 21  1  0  0  0
 10 14  1  0  0  0
 11 23  1  0  0  0
 12 15  1  0  0  0
 12 29  1  0  0  0
 12 30  1  0  0  0
 13 31  1  0  0  0
 13 32  1  0  0  0
 14 33  1  0  0  0
 15 18  2  0  0  0
 15 20  1  0  0  0
 17 19  1  0  0  0
 17 24  1  0  0  0
 20 34  1  0  0  0
 21 25  2  0  0  0
 21 35  1  0  0  0
 22 26  2  0  0  0
 22 36  1  0  0  0
 23 27  2  0  0  0
 23 37  1  0  0  0
 24 28  2  0  0  0
 24 38  1  0  0  0
 25 28  1  0  0  0
 25 39  1  0  0  0
 26 27  1  0  0  0
 26 40  1  0  0  0
 27 41  1  0  0  0
 28 42  1  0  0  0
M  END
> <s_m_entry_id>
6359

> <s_m_entry_name>
dock_pv.194

> <s_m_Source_Path>
/home/csk/Desktop/cluster/DUD-E-result/aldr

> <s_m_Source_File>
dock_pv.maegz

> <i_m_Source_File_Index>
194

> <chembl_id>
CHEMBL143387

> <chembl_pref_name>
None

> <i_lp_mmshare_version>
53161

> <i_f3d_flags>
0

> <r_lp_tautomer_probability>
1

> <s_lp_Force_Field>
OPLS_2005

> <r_lp_Energy>
31.144284

> <b_lp_Chiralities_Consistent>
1

> <s_lp_Variant>
CHEMBL1900_lig153-1

> <s_i_glide_gridfile>
glide-grid_2hv5

> <i_i_glide_lignum>
229

> <i_i_glide_rotatable_bonds>
6

> <r_i_docking_score>
-9.3792081482502

> <r_i_glide_ligand_efficiency>
-0.334971719580364

> <r_i_glide_ligand_efficiency_sa>
-1.01717142843815

> <r_i_glide_ligand_efficiency_ln>
-2.16499662613363

> <r_i_glide_gscore>
-9.3792081482502

> <r_i_glide_lipo>
-4.46428772698774

> <r_i_glide_hbond>
-0.301994036521608

> <r_i_glide_metal>
0

> <r_i_glide_rewards>
-2.33670611567442

> <r_i_glide_evdw>
-45.4720916748047

> <r_i_glide_ecoul>
-4.18648338317871

> <r_i_glide_erotb>
0.62535682215061

> <r_i_glide_esite>
0

> <r_i_glide_emodel>
-64.2578496904456

> <r_i_glide_energy>
-49.6585750579834

> <r_i_glide_einternal>
11.7441501617432

> <i_i_glide_confnum>
41

> <i_i_glide_posenum>
300

> <r_i_glide_eff_state_penalty>
0

> <s_user_duplicate_titles>
CHEMBL1900_lig153,236587

> <s_m_subgroup_title>
dock_pv

> <s_m_subgroupid>
dock_pv

> <b_m_subgroup_collapsed>
1

$$$$
CHEMBL1900_lig575
                    3D
 Schrodinger Suite 2021-1.
 33 35  0  0  1  0            999 V2000
   18.0175   -5.3160   11.7650 C   0  0  0  0  0  0
   17.7536   -4.4129   10.7282 C   0  0  0  0  0  0
   16.4369   -4.2045   10.2974 C   0  0  0  0  0  0
   15.3999   -4.9144   10.9041 C   0  0  0  0  0  0
   15.6696   -5.8422   11.8978 C   0  0  0  0  0  0
   16.9737   -6.0348   12.3596 C   0  0  0  0  0  0
   18.7754   -3.7174   10.1737 F   0  0  0  0  0  0
   16.1451   -3.2918    9.3121 O   0  0  0  0  0  0
   14.1142   -4.6772   10.5805 F   0  0  0  0  0  0
   17.1904   -6.9167   13.4403 N   0  0  0  0  0  0
   16.3416   -7.1141   14.5056 C   0  0  0  0  0  0
   16.7596   -8.1590   15.3226 C   0  0  0  0  0  0
   17.9729   -8.5779   14.7434 C   0  0  0  0  0  0
   18.2423   -7.7744   13.6475 C   0  0  0  0  0  0
   15.9820   -8.6652   16.4696 C   0  0  0  0  0  0
   16.0962  -10.0925   16.9292 C   0  0  0  0  0  0
   17.3100  -10.7921   16.9810 C   0  0  0  0  0  0
   17.3449  -12.1211   17.3972 C   0  0  0  0  0  0
   16.1692  -12.7538   17.7909 C   0  0  0  0  0  0
   14.9611  -12.0631   17.7887 C   0  0  0  0  0  0
   14.9293  -10.7371   17.3675 C   0  0  0  0  0  0
   15.0967   -7.9392   16.9346 O   0  0  0  0  0  0
   19.0275   -5.4438   12.1174 H   0  0  0  0  0  0
   14.8382   -6.3715   12.3324 H   0  0  0  0  0  0
   15.1961   -3.2256    9.1509 H   0  0  0  0  0  0
   15.4446   -6.5185   14.5762 H   0  0  0  0  0  0
   18.6297   -9.3728   15.0504 H   0  0  0  0  0  0
   19.0837   -7.7898   12.9769 H   0  0  0  0  0  0
   18.2478  -10.3188   16.7601 H   0  0  0  0  0  0
   18.2833  -12.6560   17.4288 H   0  0  0  0  0  0
   16.1960  -13.7845   18.1129 H   0  0  0  0  0  0
   14.0504  -12.5521   18.1064 H   0  0  0  0  0  0
   13.9803  -10.2194   17.3671 H   0  0  0  0  0  0
  1  6  1  0  0  0
  1  2  2  0  0  0
  1 23  1  0  0  0
  2  3  1  0  0  0
  2  7  1  0  0  0
  3  4  2  0  0  0
  3  8  1  0  0  0
  4  9  1  0  0  0
  4  5  1  0  0  0
  5  6  2  0  0  0
  5 24  1  0  0  0
  6 10  1  0  0  0
  8 25  1  0  0  0
 10 14  1  0  0  0
 10 11  1  0  0  0
 11 12  2  0  0  0
 11 26  1  0  0  0
 12 13  1  0  0  0
 12 15  1  0  0  0
 13 14  2  0  0  0
 13 27  1  0  0  0
 14 28  1  0  0  0
 15 16  1  0  0  0
 15 22  2  0  0  0
 16 17  2  0  0  0
 16 21  1  0  0  0
 17 18  1  0  0  0
 17 29  1  0  0  0
 18 19  2  0  0  0
 18 30  1  0  0  0
 19 20  1  0  0  0
 19 31  1  0  0  0
 20 21  2  0  0  0
 20 32  1  0  0  0
 21 33  1  0  0  0
M  END
> <s_m_entry_id>
6360

> <s_m_entry_name>
dock_pv.195

> <s_m_Source_Path>
/home/csk/Desktop/cluster/DUD-E-result/aldr

> <s_m_Source_File>
dock_pv.maegz

> <i_m_Source_File_Index>
195

> <chembl_id>
CHEMBL1673027

> <chembl_pref_name>
None

> <i_lp_mmshare_version>
53161

> <i_f3d_flags>
0

> <r_lp_tautomer_probability>
1

> <s_lp_Force_Field>
OPLS_2005

> <r_lp_Energy>
17.763814

> <b_lp_Chiralities_Consistent>
1

> <s_lp_Variant>
CHEMBL1900_lig575-1

> <s_i_glide_gridfile>
glide-grid_2hv5

> <i_i_glide_lignum>
698

> <i_i_glide_rotatable_bonds>
4

> <r_i_docking_score>
-9.36790665298668

> <r_i_glide_ligand_efficiency>
-0.425813938772122

> <r_i_glide_ligand_efficiency_sa>
-1.19314740275141

> <r_i_glide_ligand_efficiency_ln>
-2.28985808868755

> <r_i_glide_gscore>
-9.36790665298668

> <r_i_glide_lipo>
-3.53266128004286

> <r_i_glide_hbond>
-0.067845043827795

> <r_i_glide_metal>
0

> <r_i_glide_rewards>
-3.77192991643219

> <r_i_glide_evdw>
-40.1184463500977

> <r_i_glide_ecoul>
-4.03106117248535

> <r_i_glide_erotb>
0.61511108069385

> <r_i_glide_esite>
0

> <r_i_glide_emodel>
-65.7607410004495

> <r_i_glide_energy>
-44.149507522583

> <r_i_glide_einternal>
3.37073993682861

> <i_i_glide_confnum>
24

> <i_i_glide_posenum>
228

> <r_i_glide_eff_state_penalty>
0

> <s_user_duplicate_titles>
CHEMBL1900_lig575

> <s_m_subgroup_title>
dock_pv

> <s_m_subgroupid>
dock_pv

> <b_m_subgroup_collapsed>
1

$$$$
CHEMBL1900_lig537
                    3D
 Schrodinger Suite 2021-1.
 44 45  0  0  1  0            999 V2000
   16.0361   -3.5749   22.2668 C   0  0  0  0  0  0
   15.7296   -2.8856   21.1026 C   0  0  0  0  0  0
   15.8851   -3.4846   19.8465 C   0  0  0  0  0  0
   16.3616   -4.7997   19.7683 C   0  0  0  0  0  0
   16.6507   -5.4795   20.9519 C   0  0  0  0  0  0
   16.5450   -4.8630   22.1955 C   0  0  0  0  0  0
   16.4780   -5.4623   18.4530 C   0  0  0  0  0  0
   16.6833   -6.7771   18.2155 C   0  0  0  0  0  0
   16.7380   -7.3378   16.8742 C   0  0  0  0  0  0
   16.1455   -6.5498   15.9418 O   0  0  0  0  0  0
   17.2598   -8.4293   16.6445 O   0  0  0  0  0  0
   16.0793   -6.9150   14.5729 C   0  0  0  0  0  0
   17.4058   -6.7065   13.8270 C   0  0  0  0  0  0
   17.2389   -6.9582   12.3218 C   0  0  0  0  0  0
   16.9215   -5.7302   11.4658 C   0  0  0  0  0  0
   17.9769   -4.9101   11.0588 C   0  0  0  0  0  0
   17.7605   -3.8196   10.2163 C   0  0  0  0  0  0
   16.4709   -3.5330    9.7774 C   0  0  0  0  0  0
   15.4086   -4.3385   10.1811 C   0  0  0  0  0  0
   15.6237   -5.4298   11.0220 C   0  0  0  0  0  0
   15.7450   -3.0126   23.4737 O   0  0  0  0  0  0
   15.5235   -2.8543   18.6752 O   0  0  0  0  0  0
   14.5252   -1.8534   18.7608 C   0  0  0  0  0  0
   14.5448   -6.1904   11.3815 O   0  0  0  0  0  0
   15.3456   -1.8814   21.1837 H   0  0  0  0  0  0
   16.9448   -6.5147   20.9186 H   0  0  0  0  0  0
   16.7573   -5.4119   23.1002 H   0  0  0  0  0  0
   16.3862   -4.7963   17.6059 H   0  0  0  0  0  0
   16.8127   -7.4923   19.0120 H   0  0  0  0  0  0
   15.7432   -7.9488   14.4847 H   0  0  0  0  0  0
   15.3201   -6.2974   14.0985 H   0  0  0  0  0  0
   17.8201   -5.7156   14.0067 H   0  0  0  0  0  0
   18.1372   -7.4115   14.2251 H   0  0  0  0  0  0
   18.1449   -7.4147   11.9395 H   0  0  0  0  0  0
   16.4851   -7.7208   12.1810 H   0  0  0  0  0  0
   18.9714   -5.1320   11.3992 H   0  0  0  0  0  0
   18.5865   -3.1954    9.9099 H   0  0  0  0  0  0
   16.2902   -2.6902    9.1263 H   0  0  0  0  0  0
   14.4157   -4.1151    9.8326 H   0  0  0  0  0  0
   15.1589   -2.2469   23.3822 H   0  0  0  0  0  0
   14.0749   -1.7151   17.7813 H   0  0  0  0  0  0
   13.7070   -2.1266   19.4285 H   0  0  0  0  0  0
   14.9613   -0.9151   19.0985 H   0  0  0  0  0  0
   13.7116   -5.8217   11.0762 H   0  0  0  0  0  0
  1  6  1  0  0  0
  1  2  2  0  0  0
  1 21  1  0  0  0
  2  3  1  0  0  0
  2 25  1  0  0  0
  3  4  2  0  0  0
  3 22  1  0  0  0
  4  7  1  0  0  0
  4  5  1  0  0  0
  5  6  2  0  0  0
  5 26  1  0  0  0
  6 27  1  0  0  0
  7  8  2  0  0  0
  7 28  1  0  0  0
  8  9  1  0  0  0
  8 29  1  0  0  0
  9 10  1  0  0  0
  9 11  2  0  0  0
 10 12  1  0  0  0
 12 13  1  0  0  0
 12 30  1  0  0  0
 12 31  1  0  0  0
 13 14  1  0  0  0
 13 32  1  0  0  0
 13 33  1  0  0  0
 14 15  1  0  0  0
 14 34  1  0  0  0
 14 35  1  0  0  0
 15 16  2  0  0  0
 15 20  1  0  0  0
 16 17  1  0  0  0
 16 36  1  0  0  0
 17 18  2  0  0  0
 17 37  1  0  0  0
 18 19  1  0  0  0
 18 38  1  0  0  0
 19 20  2  0  0  0
 19 39  1  0  0  0
 20 24  1  0  0  0
 21 40  1  0  0  0
 22 23  1  0  0  0
 23 41  1  0  0  0
 23 42  1  0  0  0
 23 43  1  0  0  0
 24 44  1  0  0  0
M  END
> <s_m_entry_id>
6361

> <s_m_entry_name>
dock_pv.196

> <s_m_Source_Path>
/home/csk/Desktop/cluster/DUD-E-result/aldr

> <s_m_Source_File>
dock_pv.maegz

> <i_m_Source_File_Index>
196

> <chembl_id>
CHEMBL1940399

> <chembl_pref_name>
None

> <i_lp_mmshare_version>
53161

> <i_f3d_flags>
0

> <r_lp_tautomer_probability>
0.999999999997365

> <s_lp_Force_Field>
OPLS_2005

> <r_lp_Energy>
16.35402

> <b_lp_Chiralities_Consistent>
1

> <s_lp_Variant>
CHEMBL1900_lig537-1

> <s_i_glide_gridfile>
glide-grid_2hv5

> <i_i_glide_lignum>
660

> <i_i_glide_rotatable_bonds>
10

> <r_i_docking_score>
-9.36171842850291

> <r_i_glide_ligand_efficiency>
-0.390071601187621

> <r_i_glide_ligand_efficiency_sa>
-1.125161197212

> <r_i_glide_ligand_efficiency_ln>
-2.24068880120754

> <r_i_glide_gscore>
-9.36171842850291

> <r_i_glide_lipo>
-4.42583707755605

> <r_i_glide_hbond>
-0.47954041663672

> <r_i_glide_metal>
0

> <r_i_glide_rewards>
-2.44946318091724

> <r_i_glide_evdw>
-39.430347442627

> <r_i_glide_ecoul>
-8.36433696746826

> <r_i_glide_erotb>
1.21929016385869

> <r_i_glide_esite>
0

> <r_i_glide_emodel>
-65.892877859836

> <r_i_glide_energy>
-47.7946844100952

> <r_i_glide_einternal>
6.19207715988159

> <i_i_glide_confnum>
76

> <i_i_glide_posenum>
387

> <r_i_glide_eff_state_penalty>
0

> <s_user_duplicate_titles>
CHEMBL1900_lig537

> <s_m_subgroup_title>
dock_pv

> <s_m_subgroupid>
dock_pv

> <b_m_subgroup_collapsed>
1

$$$$
CHEMBL1900_lig327
                    3D
 Schrodinger Suite 2021-1.
 41 43  0  0  1  0            999 V2000
   16.4382   -5.1890   20.3215 C   0  0  0  0  0  0
   15.7585   -6.3218   19.7807 O   0  0  0  0  0  0
   16.1894   -6.8531   18.5806 C   0  0  0  0  0  0
   16.9449   -6.1142   17.6748 C   0  0  0  0  0  0
   17.4422   -6.6670   16.5037 C   0  0  0  0  0  0
   17.1384   -7.9944   16.2299 C   0  0  0  0  0  0
   16.3228   -8.7677   17.0829 C   0  0  0  0  0  0
   15.8592   -8.1786   18.2718 C   0  0  0  0  0  0
   16.1483  -10.0418   16.4449 C   0  0  0  0  0  0
   15.1692  -11.1285   16.8777 C   0  0  0  0  0  0
   15.7477  -12.2111   17.7890 C   0  0  0  0  0  0
   16.9444  -12.3352   18.0447 O   0  0  0  0  0  0
   14.7600  -12.9986   18.3027 O   0  0  0  0  0  0
   17.0238  -10.0569   15.3572 C   0  0  0  0  0  0
   17.3486  -11.2041   14.4131 C   0  0  0  0  0  0
   17.5407   -8.7784   15.1712 N   0  0  0  0  0  0
   18.2934   -8.3207   14.0486 C   0  0  0  0  0  0
   19.3255   -8.8889   13.6930 O   0  0  0  0  0  0
   17.7254   -7.1396   13.2875 C   0  0  0  0  0  0
   16.3550   -7.0312   13.0939 C   0  0  0  0  0  0
   15.8149   -6.1149   12.1948 C   0  0  0  0  0  0
   16.6670   -5.2410   11.5302 C   0  0  0  0  0  0
   16.0267   -4.1168   10.3875 Cl  0  0  0  0  0  0
   18.0293   -5.2429   11.8156 C   0  0  0  0  0  0
   18.5450   -6.1722   12.7212 C   0  0  0  0  0  0
   16.1452   -5.0512   21.3620 H   0  0  0  0  0  0
   16.1783   -4.2771   19.7827 H   0  0  0  0  0  0
   17.5223   -5.3155   20.3060 H   0  0  0  0  0  0
   17.1874   -5.0848   17.8856 H   0  0  0  0  0  0
   18.0846   -6.1150   15.8361 H   0  0  0  0  0  0
   15.3237   -8.7840   18.9810 H   0  0  0  0  0  0
   14.3145  -10.6749   17.3819 H   0  0  0  0  0  0
   14.7574  -11.6306   16.0017 H   0  0  0  0  0  0
   13.8771  -12.7274   18.0389 H   0  0  0  0  0  0
   16.6494  -12.0340   14.5152 H   0  0  0  0  0  0
   17.3449  -10.9116   13.3628 H   0  0  0  0  0  0
   18.3423  -11.6039   14.6176 H   0  0  0  0  0  0
   15.7450   -7.7149   13.6410 H   0  0  0  0  0  0
   14.7504   -6.0775   12.0146 H   0  0  0  0  0  0
   18.6679   -4.5228   11.3315 H   0  0  0  0  0  0
   19.5872   -6.1946   12.9810 H   0  0  0  0  0  0
  1  2  1  0  0  0
  1 26  1  0  0  0
  1 27  1  0  0  0
  1 28  1  0  0  0
  2  3  1  0  0  0
  3  4  2  0  0  0
  3  8  1  0  0  0
  4  5  1  0  0  0
  4 29  1  0  0  0
  5  6  2  0  0  0
  5 30  1  0  0  0
  6  7  1  0  0  0
  6 16  1  0  0  0
  7  8  2  0  0  0
  7  9  1  0  0  0
  8 31  1  0  0  0
  9 10  1  0  0  0
  9 14  2  0  0  0
 10 11  1  0  0  0
 10 32  1  0  0  0
 10 33  1  0  0  0
 11 12  2  0  0  0
 11 13  1  0  0  0
 13 34  1  0  0  0
 14 15  1  0  0  0
 14 16  1  0  0  0
 15 35  1  0  0  0
 15 36  1  0  0  0
 15 37  1  0  0  0
 16 17  1  0  0  0
 17 18  2  0  0  0
 17 19  1  0  0  0
 19 20  2  0  0  0
 19 25  1  0  0  0
 20 21  1  0  0  0
 20 38  1  0  0  0
 21 22  2  0  0  0
 21 39  1  0  0  0
 22 23  1  0  0  0
 22 24  1  0  0  0
 24 25  2  0  0  0
 24 40  1  0  0  0
 25 41  1  0  0  0
M  END
> <s_m_entry_id>
6362

> <s_m_entry_name>
dock_pv.197

> <s_m_Source_Path>
/home/csk/Desktop/cluster/DUD-E-result/aldr

> <s_m_Source_File>
dock_pv.maegz

> <i_m_Source_File_Index>
197

> <chembl_id>
CHEMBL6

> <chembl_pref_name>
INDOMETHACIN

> <i_lp_mmshare_version>
53161

> <i_f3d_flags>
0

> <r_lp_tautomer_probability>
1

> <s_lp_Force_Field>
OPLS_2005

> <r_lp_Energy>
28.132168

> <b_lp_Chiralities_Consistent>
1

> <s_lp_Variant>
CHEMBL1900_lig327-1

> <s_i_glide_gridfile>
glide-grid_2hv5

> <i_i_glide_lignum>
446

> <i_i_glide_rotatable_bonds>
6

> <r_i_docking_score>
-9.3543274115781

> <r_i_glide_ligand_efficiency>
-0.374173096463124

> <r_i_glide_ligand_efficiency_sa>
-1.0940887700463

> <r_i_glide_ligand_efficiency_ln>
-2.21725592311557

> <r_i_glide_gscore>
-9.3543274115781

> <r_i_glide_lipo>
-4.50565151811412

> <r_i_glide_hbond>
-0.567243133708808

> <r_i_glide_metal>
0

> <r_i_glide_rewards>
-2.500370431685

> <r_i_glide_evdw>
-31.6214866638184

> <r_i_glide_ecoul>
-5.26169967651367

> <r_i_glide_erotb>
0.598325246128399

> <r_i_glide_esite>
-0.00905828953061226

> <r_i_glide_emodel>
-36.5403580119563

> <r_i_glide_energy>
-36.883186340332

> <r_i_glide_einternal>
17.9907512664795

> <i_i_glide_confnum>
18

> <i_i_glide_posenum>
171

> <r_i_glide_eff_state_penalty>
0

> <s_user_duplicate_titles>
CHEMBL1900_lig327

> <s_m_subgroup_title>
dock_pv

> <s_m_subgroupid>
dock_pv

> <b_m_subgroup_collapsed>
1

$$$$
CHEMBL1900_lig641
                    3D
 Schrodinger Suite 2021-1.
 39 41  0  0  1  0            999 V2000
   15.3601   -4.8653   10.5811 C   0  0  0  0  0  0
   16.6118   -4.3464   10.2473 C   0  0  0  0  0  0
   17.7448   -4.7280   10.9664 C   0  0  0  0  0  0
   17.6152   -5.6027   12.0447 C   0  0  0  0  0  0
   16.3626   -6.1144   12.3871 C   0  0  0  0  0  0
   15.2318   -5.7523   11.6503 C   0  0  0  0  0  0
   16.3035   -6.9144   13.6052 C   0  0  0  0  0  0
   17.3783   -7.1648   14.3823 C   0  0  0  0  0  0
   18.6979   -6.6349   13.9738 C   0  0  0  0  0  0
   18.7462   -5.8934   12.7945 O   0  0  0  0  0  0
   19.7673   -6.7463   14.5701 O   0  0  0  0  0  0
   17.1944   -7.8229   15.6549 C   0  0  0  0  0  0
   17.7551   -8.8727   15.9593 O   0  0  0  0  0  0
   16.3742   -7.1537   16.4813 N   0  0  0  0  0  0
   16.1110   -7.5090   17.8695 C   0  0  0  0  0  0
   17.0062   -6.7461   18.8700 C   0  0  0  0  0  0
   16.5881   -5.3189   19.2182 C   0  0  0  0  0  0
   16.2219   -4.4207   18.2172 C   0  0  0  0  0  0
   15.7453   -3.1616   18.5502 C   0  0  0  0  0  0
   15.5948   -2.8103   19.8831 C   0  0  0  0  0  0
   16.0392   -3.6587   20.8931 C   0  0  0  0  0  0
   16.5453   -4.9137   20.5581 C   0  0  0  0  0  0
   14.9451   -1.6473   20.1811 O   0  0  0  0  0  0
   16.7156   -3.4320    9.2364 O   0  0  0  0  0  0
   14.4804   -4.5603   10.0325 H   0  0  0  0  0  0
   18.7073   -4.3137   10.7109 H   0  0  0  0  0  0
   14.2505   -6.1165   11.9220 H   0  0  0  0  0  0
   15.3454   -7.2432   13.9578 H   0  0  0  0  0  0
   15.9569   -6.3058   16.1394 H   0  0  0  0  0  0
   15.0660   -7.2715   18.0755 H   0  0  0  0  0  0
   16.1703   -8.5851   18.0500 H   0  0  0  0  0  0
   16.9445   -7.3151   19.7810 H   0  0  0  0  0  0
   18.0563   -6.7839   18.5731 H   0  0  0  0  0  0
   16.2137   -4.7165   17.1864 H   0  0  0  0  0  0
   15.3802   -2.5149   17.7769 H   0  0  0  0  0  0
   15.9433   -3.3766   21.9318 H   0  0  0  0  0  0
   16.8488   -5.5868   21.3470 H   0  0  0  0  0  0
   14.8883   -1.4744   21.1300 H   0  0  0  0  0  0
   15.8538   -3.2139    8.8729 H   0  0  0  0  0  0
  1  2  2  0  0  0
  1  6  1  0  0  0
  1 25  1  0  0  0
  2  3  1  0  0  0
  2 24  1  0  0  0
  3  4  2  0  0  0
  3 26  1  0  0  0
  4  5  1  0  0  0
  4 10  1  0  0  0
  5  6  2  0  0  0
  5  7  1  0  0  0
  6 27  1  0  0  0
  7  8  2  0  0  0
  7 28  1  0  0  0
  8  9  1  0  0  0
  8 12  1  0  0  0
  9 10  1  0  0  0
  9 11  2  0  0  0
 12 13  2  0  0  0
 12 14  1  0  0  0
 14 15  1  0  0  0
 14 29  1  0  0  0
 15 16  1  0  0  0
 15 30  1  0  0  0
 15 31  1  0  0  0
 16 17  1  0  0  0
 16 32  1  0  0  0
 16 33  1  0  0  0
 17 18  2  0  0  0
 17 22  1  0  0  0
 18 19  1  0  0  0
 18 34  1  0  0  0
 19 20  2  0  0  0
 19 35  1  0  0  0
 20 21  1  0  0  0
 20 23  1  0  0  0
 21 22  2  0  0  0
 21 36  1  0  0  0
 22 37  1  0  0  0
 23 38  1  0  0  0
 24 39  1  0  0  0
M  END
> <s_m_entry_id>
6363

> <s_m_entry_name>
dock_pv.198

> <s_m_Source_Path>
/home/csk/Desktop/cluster/DUD-E-result/aldr

> <s_m_Source_File>
dock_pv.maegz

> <i_m_Source_File_Index>
198

> <chembl_id>
CHEMBL3318218

> <chembl_pref_name>
None

> <i_lp_mmshare_version>
53161

> <i_f3d_flags>
0

> <r_lp_tautomer_probability>
0.999999999997365

> <s_lp_Force_Field>
OPLS_2005

> <r_lp_Energy>
22.718357

> <b_lp_Chiralities_Consistent>
1

> <s_lp_Variant>
CHEMBL1900_lig641-1

> <s_i_glide_gridfile>
glide-grid_2hv5

> <i_i_glide_lignum>
765

> <i_i_glide_rotatable_bonds>
7

> <r_i_docking_score>
-9.33580992111738

> <r_i_glide_ligand_efficiency>
-0.388992080046558

> <r_i_glide_ligand_efficiency_sa>
-1.12204731941162

> <r_i_glide_ligand_efficiency_ln>
-2.23448770652625

> <r_i_glide_gscore>
-9.33580992111738

> <r_i_glide_lipo>
-4.92182177444289

> <r_i_glide_hbond>
-0.32

> <r_i_glide_metal>
0

> <r_i_glide_rewards>
-2.4369631386735

> <r_i_glide_evdw>
-46.0344505310059

> <r_i_glide_ecoul>
-1.60442280769348

> <r_i_glide_erotb>
0.885360939703321

> <r_i_glide_esite>
0

> <r_i_glide_emodel>
-63.7878905636516

> <r_i_glide_energy>
-47.6388733386993

> <r_i_glide_einternal>
10.7378234863281

> <i_i_glide_confnum>
13

> <i_i_glide_posenum>
254

> <r_i_glide_eff_state_penalty>
0

> <s_user_duplicate_titles>
CHEMBL1900_lig641

> <s_m_subgroup_title>
dock_pv

> <s_m_subgroupid>
dock_pv

> <b_m_subgroup_collapsed>
1

$$$$
CHEMBL1900_lig201
                    3D
 Schrodinger Suite 2021-1.
 42 45  0  0  1  0            999 V2000
   17.7331   -9.9679   15.0850 N   0  0  0  0  0  0
   17.4963   -8.9430   16.0008 N   0  0  0  0  0  0
   17.3512  -11.2879   15.2335 C   0  0  0  0  0  0
   16.6944   -9.1086   16.9810 C   0  0  0  0  0  0
   18.7136   -5.6835   13.1974 N   0  0  0  0  0  0
   18.4045   -8.1674   13.4613 C   0  0  0  0  0  0
   16.3772  -11.4672   16.3910 C   0  0  0  0  0  0
   17.6094   -7.5643   12.5072 C   0  0  0  0  0  0
   17.8181   -6.1916   12.3877 C   0  0  0  0  0  0
   15.9960  -10.3819   17.2094 C   0  0  0  0  0  0
   19.3455   -6.9084   14.1817 S   0  0  0  0  0  0
   16.6183   -7.9405   17.9701 C   0  0  0  0  0  0
   18.5135   -9.6263   13.8717 C   0  0  0  0  0  0
   15.8115   -6.7365   17.4551 C   0  0  0  0  0  0
   17.7302  -12.2077   14.5005 O   0  0  0  0  0  0
   17.1376   -5.2992   11.4054 C   0  0  0  0  0  0
   14.9456   -6.7844   16.5816 O   0  0  0  0  0  0
   16.1468   -5.6061   18.1379 O   0  0  0  0  0  0
   15.8355  -12.7379   16.6202 C   0  0  0  0  0  0
   15.0036  -10.5676   18.1809 C   0  0  0  0  0  0
   17.8753   -4.3578   10.6745 C   0  0  0  0  0  0
   15.7537   -5.3873   11.2267 C   0  0  0  0  0  0
   14.9082  -12.9236   17.6425 C   0  0  0  0  0  0
   14.4993  -11.8419   18.4158 C   0  0  0  0  0  0
   15.1110   -4.5161   10.3532 C   0  0  0  0  0  0
   17.2329   -3.5005    9.7856 C   0  0  0  0  0  0
   15.8523   -3.5789    9.6397 C   0  0  0  0  0  0
   16.9450   -8.1150   11.8735 H   0  0  0  0  0  0
   16.2018   -8.2456   18.9287 H   0  0  0  0  0  0
   17.6346   -7.6128   18.1951 H   0  0  0  0  0  0
   19.5590   -9.8597   14.0685 H   0  0  0  0  0  0
   18.2279  -10.2521   13.0226 H   0  0  0  0  0  0
   16.8713   -5.7510   18.7505 H   0  0  0  0  0  0
   16.1157  -13.5799   16.0050 H   0  0  0  0  0  0
   14.6519   -9.7531   18.7944 H   0  0  0  0  0  0
   18.9440   -4.2871   10.8053 H   0  0  0  0  0  0
   15.1685   -6.1053   11.7861 H   0  0  0  0  0  0
   14.4808  -13.8986   17.8184 H   0  0  0  0  0  0
   13.7520  -11.9862   19.1826 H   0  0  0  0  0  0
   14.0390   -4.5632   10.2299 H   0  0  0  0  0  0
   17.7950   -2.7684    9.2241 H   0  0  0  0  0  0
   15.3447   -2.9045    8.9685 H   0  0  0  0  0  0
  1  2  1  0  0  0
  1  3  1  0  0  0
  1 13  1  0  0  0
  2  4  2  0  0  0
  3  7  1  0  0  0
  3 15  2  0  0  0
  4 12  1  0  0  0
  4 10  1  0  0  0
  5 11  1  0  0  0
  5  9  2  0  0  0
  6 13  1  0  0  0
  6  8  2  0  0  0
  6 11  1  0  0  0
  7 10  2  0  0  0
  7 19  1  0  0  0
  8  9  1  0  0  0
  8 28  1  0  0  0
  9 16  1  0  0  0
 10 20  1  0  0  0
 12 14  1  0  0  0
 12 29  1  0  0  0
 12 30  1  0  0  0
 13 31  1  0  0  0
 13 32  1  0  0  0
 14 17  2  0  0  0
 14 18  1  0  0  0
 16 21  2  0  0  0
 16 22  1  0  0  0
 18 33  1  0  0  0
 19 23  2  0  0  0
 19 34  1  0  0  0
 20 24  2  0  0  0
 20 35  1  0  0  0
 21 26  1  0  0  0
 21 36  1  0  0  0
 22 25  2  0  0  0
 22 37  1  0  0  0
 23 24  1  0  0  0
 23 38  1  0  0  0
 24 39  1  0  0  0
 25 27  1  0  0  0
 25 40  1  0  0  0
 26 27  2  0  0  0
 26 41  1  0  0  0
 27 42  1  0  0  0
M  END
> <s_m_entry_id>
6364

> <s_m_entry_name>
dock_pv.199

> <s_m_Source_Path>
/home/csk/Desktop/cluster/DUD-E-result/aldr

> <s_m_Source_File>
dock_pv.maegz

> <i_m_Source_File_Index>
199

> <chembl_id>
CHEMBL357435

> <chembl_pref_name>
None

> <i_lp_mmshare_version>
53161

> <i_f3d_flags>
0

> <r_lp_tautomer_probability>
1

> <s_lp_Force_Field>
OPLS_2005

> <r_lp_Energy>
30.748908

> <b_lp_Chiralities_Consistent>
1

> <s_lp_Variant>
CHEMBL1900_lig201-1

> <s_i_glide_gridfile>
glide-grid_2hv5

> <i_i_glide_lignum>
277

> <i_i_glide_rotatable_bonds>
6

> <r_i_docking_score>
-9.31582632175059

> <r_i_glide_ligand_efficiency>
-0.345030604509281

> <r_i_glide_ligand_efficiency_sa>
-1.03509181239068

> <r_i_glide_ligand_efficiency_ln>
-2.16857078430343

> <r_i_glide_gscore>
-9.31582632175059

> <r_i_glide_lipo>
-4.38401155621562

> <r_i_glide_hbond>
-0.267589109501619

> <r_i_glide_metal>
0

> <r_i_glide_rewards>
-2.33562403896385

> <r_i_glide_evdw>
-49.1128692626953

> <r_i_glide_ecoul>
-3.68541717529297

> <r_i_glide_erotb>
0.679854422359206

> <r_i_glide_esite>
0

> <r_i_glide_emodel>
-73.066836678298

> <r_i_glide_energy>
-52.7982864379883

> <r_i_glide_einternal>
10.5203456878662

> <i_i_glide_confnum>
28

> <i_i_glide_posenum>
116

> <r_i_glide_eff_state_penalty>
0

> <s_user_duplicate_titles>
CHEMBL1900_lig201,235189

> <s_m_subgroup_title>
dock_pv

> <s_m_subgroupid>
dock_pv

> <b_m_subgroup_collapsed>
1

$$$$
CHEMBL1900_lig55
                    3D
 Schrodinger Suite 2021-1.
 36 39  0  0  1  0            999 V2000
   17.9185   -7.7780   15.6440 N   0  0  0  0  0  0
   17.5088   -6.9150   16.5928 N   0  0  0  0  0  0
   16.7095   -7.5565   17.4125 C   0  0  0  0  0  0
   17.9900   -6.6051   13.4492 C   0  0  0  0  0  0
   16.5252   -8.9010   16.9574 C   0  0  0  0  0  0
   18.5450   -5.7148   12.6799 N   0  0  0  0  0  0
   17.3447   -9.0250   15.8080 C   0  0  0  0  0  0
   18.7685   -7.2991   14.5554 C   0  0  0  0  0  0
   16.3063   -6.9150   13.0914 S   0  0  0  0  0  0
   17.6792   -5.1939   11.7731 C   0  0  0  0  0  0
   16.0474   -6.9334   18.6426 C   0  0  0  0  0  0
   16.3743   -5.7363   11.8107 C   0  0  0  0  0  0
   16.5450   -5.5869   19.1952 C   0  0  0  0  0  0
   17.9791   -4.1640   10.8726 C   0  0  0  0  0  0
   17.4395  -10.2188   15.0820 C   0  0  0  0  0  0
   15.7685  -10.0040   17.3810 C   0  0  0  0  0  0
   16.4895   -5.3150   20.3907 O   0  0  0  0  0  0
   15.3691   -5.2973   10.9442 C   0  0  0  0  0  0
   16.9592   -3.6873   10.0559 C   0  0  0  0  0  0
   15.8620  -11.1963   16.6663 C   0  0  0  0  0  0
   16.6844  -11.2985   15.5451 C   0  0  0  0  0  0
   16.9448   -4.7189   18.2288 O   0  0  0  0  0  0
   15.6943   -4.2650   10.0669 C   0  0  0  0  0  0
   17.2716   -2.1575    8.9810 Br  0  0  0  0  0  0
   14.9450  -12.5632   17.1814 Cl  0  0  0  0  0  0
   19.5236   -6.6348   14.9810 H   0  0  0  0  0  0
   19.3200   -8.1519   14.1588 H   0  0  0  0  0  0
   14.9780   -6.8292   18.4636 H   0  0  0  0  0  0
   16.1450   -7.6434   19.4655 H   0  0  0  0  0  0
   18.9450   -3.6935   10.8562 H   0  0  0  0  0  0
   18.0604  -10.3085   14.2022 H   0  0  0  0  0  0
   15.1259   -9.9337   18.2461 H   0  0  0  0  0  0
   14.3699   -5.7091   10.9810 H   0  0  0  0  0  0
   16.7305  -12.2379   15.0127 H   0  0  0  0  0  0
   17.0250   -5.1786   17.3891 H   0  0  0  0  0  0
   14.9450   -3.8747    9.4013 H   0  0  0  0  0  0
  1  2  1  0  0  0
  1  7  1  0  0  0
  1  8  1  0  0  0
  2  3  2  0  0  0
  3 11  1  0  0  0
  3  5  1  0  0  0
  4  8  1  0  0  0
  4  6  2  0  0  0
  4  9  1  0  0  0
  5  7  2  0  0  0
  5 16  1  0  0  0
  6 10  1  0  0  0
  7 15  1  0  0  0
  8 26  1  0  0  0
  8 27  1  0  0  0
  9 12  1  0  0  0
 10 14  1  0  0  0
 10 12  2  0  0  0
 11 13  1  0  0  0
 11 28  1  0  0  0
 11 29  1  0  0  0
 12 18  1  0  0  0
 13 17  2  0  0  0
 13 22  1  0  0  0
 14 19  2  0  0  0
 14 30  1  0  0  0
 15 21  2  0  0  0
 15 31  1  0  0  0
 16 20  2  0  0  0
 16 32  1  0  0  0
 18 23  2  0  0  0
 18 33  1  0  0  0
 19 24  1  0  0  0
 19 23  1  0  0  0
 20 21  1  0  0  0
 20 25  1  0  0  0
 21 34  1  0  0  0
 22 35  1  0  0  0
 23 36  1  0  0  0
M  END
> <s_m_entry_id>
6365

> <s_m_entry_name>
dock_pv.200

> <s_m_Source_Path>
/home/csk/Desktop/cluster/DUD-E-result/aldr

> <s_m_Source_File>
dock_pv.maegz

> <i_m_Source_File_Index>
200

> <chembl_id>
CHEMBL421487

> <chembl_pref_name>
None

> <i_lp_mmshare_version>
53161

> <i_f3d_flags>
0

> <r_lp_tautomer_probability>
1

> <s_lp_Force_Field>
OPLS_2005

> <r_lp_Energy>
7.700628

> <b_lp_Chiralities_Consistent>
1

> <s_lp_Variant>
CHEMBL1900_lig55-1

> <s_i_glide_gridfile>
glide-grid_2hv5

> <i_i_glide_lignum>
90

> <i_i_glide_rotatable_bonds>
5

> <r_i_docking_score>
-9.30986896814487

> <r_i_glide_ligand_efficiency>
-0.372394758725795

> <r_i_glide_ligand_efficiency_sa>
-1.08888887896339

> <r_i_glide_ligand_efficiency_ln>
-2.20671793970985

> <r_i_glide_gscore>
-9.30986896814487

> <r_i_glide_lipo>
-4.9303438744108

> <r_i_glide_hbond>
-0.0804661273336374

> <r_i_glide_metal>
0

> <r_i_glide_rewards>
-1.99318241175117

> <r_i_glide_evdw>
-49.4525299072266

> <r_i_glide_ecoul>
-1.675741314888

> <r_i_glide_erotb>
0.418111137945265

> <r_i_glide_esite>
0

> <r_i_glide_emodel>
-75.7880403690473

> <r_i_glide_energy>
-51.1282712221146

> <r_i_glide_einternal>
4.95303297042847

> <i_i_glide_confnum>
15

> <i_i_glide_posenum>
61

> <r_i_glide_eff_state_penalty>
0

> <s_user_duplicate_titles>
CHEMBL1900_lig55,108103

> <s_m_subgroup_title>
dock_pv

> <s_m_subgroupid>
dock_pv

> <b_m_subgroup_collapsed>
1

$$$$
CHEMBL1900_lig290
                    3D
 Schrodinger Suite 2021-1.
 39 43  0  0  1  0            999 V2000
   16.8495   -7.8194   16.4870 C   0  0  1  0  0  0
   17.3372   -9.1949   16.0737 C   0  0  0  0  0  0
   15.3413   -7.7799   16.5665 C   0  0  0  0  0  0
   17.5223   -7.9411   14.1977 N   0  0  0  0  0  0
   15.0755   -7.0088   17.6240 N   0  0  0  0  0  0
   17.2019   -7.2883   17.7755 N   0  0  0  0  0  0
   16.1560   -6.6914   18.3677 C   0  0  0  0  0  0
   17.7565   -9.2096   14.7360 C   0  0  0  0  0  0
   17.6581   -6.2434   12.3190 C   0  0  0  0  0  0
   17.3851   -7.0020   15.3013 C   0  0  0  0  0  0
   18.3988   -5.3150   11.7806 N   0  0  0  0  0  0
   15.9446   -6.1153   11.9561 S   0  0  0  0  0  0
   18.3082   -7.3759   13.1013 C   0  0  0  0  0  0
   17.6915   -4.4834   10.9802 C   0  0  0  0  0  0
   16.3013   -4.7414   10.9334 C   0  0  0  0  0  0
   17.3409  -10.3827   16.8060 C   0  0  0  0  0  0
   18.1444  -10.4098   14.1332 C   0  0  0  0  0  0
   14.5451   -8.3041   15.7964 O   0  0  0  0  0  0
   16.1449   -6.1154   19.4510 O   0  0  0  0  0  0
   17.7450  -11.5777   16.2126 C   0  0  0  0  0  0
   18.1400  -11.5936   14.8733 C   0  0  0  0  0  0
   17.7583  -13.0321   17.1397 Cl  0  0  0  0  0  0
   18.2401   -3.4213   10.2443 C   0  0  0  0  0  0
   15.4415   -3.9371   10.1809 C   0  0  0  0  0  0
   16.0022   -2.8570    9.5001 C   0  0  0  0  0  0
   17.3725   -2.6081    9.5172 C   0  0  0  0  0  0
   14.1289   -6.8522   17.9368 H   0  0  0  0  0  0
   18.1487   -6.9766   17.9341 H   0  0  0  0  0  0
   18.3604   -6.5692   15.5384 H   0  0  0  0  0  0
   16.7416   -6.1671   15.0193 H   0  0  0  0  0  0
   18.4860   -8.1960   12.4087 H   0  0  0  0  0  0
   19.2968   -7.0889   13.4664 H   0  0  0  0  0  0
   16.9989  -10.3826   17.8264 H   0  0  0  0  0  0
   18.4180  -10.4428   13.0896 H   0  0  0  0  0  0
   18.4371  -12.5215   14.4070 H   0  0  0  0  0  0
   19.2966   -3.2088   10.2773 H   0  0  0  0  0  0
   14.3749   -4.1126   10.1739 H   0  0  0  0  0  0
   15.3449   -2.1803    8.9812 H   0  0  0  0  0  0
   17.7639   -1.7566    8.9805 H   0  0  0  0  0  0
  1  2  1  0  0  0
  1  3  1  0  0  0
  1  6  1  0  0  0
  1 10  1  0  0  0
  2  8  1  0  0  0
  2 16  2  0  0  0
  3  5  1  0  0  0
  3 18  2  0  0  0
  4 10  1  0  0  0
  4 13  1  0  0  0
  4  8  1  0  0  0
  5  7  1  0  0  0
  5 27  1  0  0  0
  6  7  1  0  0  0
  6 28  1  0  0  0
  7 19  2  0  0  0
  8 17  2  0  0  0
  9 13  1  0  0  0
  9 11  2  0  0  0
  9 12  1  0  0  0
 10 29  1  0  0  0
 10 30  1  0  0  0
 11 14  1  0  0  0
 12 15  1  0  0  0
 13 31  1  0  0  0
 13 32  1  0  0  0
 14 23  1  0  0  0
 14 15  2  0  0  0
 15 24  1  0  0  0
 16 20  1  0  0  0
 16 33  1  0  0  0
 17 21  1  0  0  0
 17 34  1  0  0  0
 20 21  2  0  0  0
 20 22  1  0  0  0
 21 35  1  0  0  0
 23 26  2  0  0  0
 23 36  1  0  0  0
 24 25  2  0  0  0
 24 37  1  0  0  0
 25 26  1  0  0  0
 25 38  1  0  0  0
 26 39  1  0  0  0
M  END
> <s_m_entry_id>
6366

> <s_m_entry_name>
dock_pv.201

> <s_m_Source_Path>
/home/csk/Desktop/cluster/DUD-E-result/aldr

> <s_m_Source_File>
dock_pv.maegz

> <i_m_Source_File_Index>
201

> <chembl_id>
CHEMBL20685

> <chembl_pref_name>
None

> <i_lp_mmshare_version>
53161

> <i_f3d_flags>
0

> <r_lp_tautomer_probability>
0.99999999978137

> <s_lp_Force_Field>
OPLS_2005

> <r_lp_Energy>
31.373778

> <b_lp_Chiralities_Consistent>
1

> <s_lp_Variant>
CHEMBL1900_lig290-1

> <s_i_glide_gridfile>
glide-grid_2hv5

> <i_i_glide_lignum>
405

> <i_i_glide_rotatable_bonds>
2

> <r_i_docking_score>
-9.30778785176538

> <r_i_glide_ligand_efficiency>
-0.357991840452515

> <r_i_glide_ligand_efficiency_sa>
-1.0605494187107

> <r_i_glide_ligand_efficiency_ln>
-2.18590343564409

> <r_i_glide_gscore>
-9.30778785176538

> <r_i_glide_lipo>
-4.01160690926715

> <r_i_glide_hbond>
0

> <r_i_glide_metal>
0

> <r_i_glide_rewards>
-2.81327074107253

> <r_i_glide_evdw>
-48.0376777648926

> <r_i_glide_ecoul>
-2.29093265533447

> <r_i_glide_erotb>
0.262613585119095

> <r_i_glide_esite>
0

> <r_i_glide_emodel>
-70.3041394584678

> <r_i_glide_energy>
-50.3286104202271

> <r_i_glide_einternal>
1.72013509273529

> <i_i_glide_confnum>
5

> <i_i_glide_posenum>
80

> <r_i_glide_eff_state_penalty>
0

> <s_user_duplicate_titles>
CHEMBL1900_lig290,24112

> <s_m_subgroup_title>
dock_pv

> <s_m_subgroupid>
dock_pv

> <b_m_subgroup_collapsed>
1

$$$$
CHEMBL1900_lig638
                    3D
 Schrodinger Suite 2021-1.
 45 47  0  0  1  0            999 V2000
   15.6674   -2.5069   20.7591 C   0  0  0  0  0  0
   16.0154   -3.3694   21.7965 C   0  0  0  0  0  0
   16.5063   -4.6430   21.5110 C   0  0  0  0  0  0
   15.7653   -2.9042   19.4304 C   0  0  0  0  0  0
   16.1575   -4.2068   19.1471 C   0  0  0  0  0  0
   16.4584   -5.0872   20.1897 C   0  0  0  0  0  0
   16.5449   -6.4497   19.9681 O   0  0  0  0  0  0
   16.2845   -7.0088   18.7314 C   0  0  0  0  0  0
   16.2223   -6.0979   17.5872 C   0  0  0  0  0  0
   16.1464   -4.7648   17.7982 C   0  0  0  0  0  0
   16.1432   -8.2258   18.6950 O   0  0  0  0  0  0
   16.3831   -6.6799   16.2880 C   0  0  0  0  0  0
   17.6859   -6.9151   16.0251 N   0  0  0  0  0  0
   15.4209   -6.9994   15.5954 O   0  0  0  0  0  0
   18.3227   -7.8917   15.1393 C   0  0  0  0  0  0
   17.5781   -8.3669   13.8866 C   0  0  0  0  0  0
   17.6910   -7.4479   12.6571 C   0  0  0  0  0  0
   15.7555   -3.0058   23.0887 O   0  0  0  0  0  0
   16.6859   -6.2921   12.6761 C   0  0  0  0  0  0
   16.8278   -5.3162   11.5208 C   0  0  0  0  0  0
   15.7196   -5.0284   10.7228 C   0  0  0  0  0  0
   15.7955   -4.0009    9.7911 C   0  0  0  0  0  0
   16.9599   -3.2556    9.6762 C   0  0  0  0  0  0
   18.0992   -3.5945   10.4006 C   0  0  0  0  0  0
   18.0305   -4.6312   11.3286 C   0  0  0  0  0  0
   16.9466   -2.1471    8.8811 O   0  0  0  0  0  0
   15.3073   -1.5132   20.9810 H   0  0  0  0  0  0
   16.7099   -5.3303   22.3166 H   0  0  0  0  0  0
   15.4887   -2.2183   18.6431 H   0  0  0  0  0  0
   16.1102   -4.0650   16.9815 H   0  0  0  0  0  0
   18.3267   -6.5006   16.6876 H   0  0  0  0  0  0
   18.5439   -8.7715   15.7453 H   0  0  0  0  0  0
   19.2961   -7.4900   14.8540 H   0  0  0  0  0  0
   16.5469   -8.5332   14.1770 H   0  0  0  0  0  0
   17.9736   -9.3452   13.6094 H   0  0  0  0  0  0
   17.5338   -8.0393   11.7565 H   0  0  0  0  0  0
   18.7072   -7.0624   12.5819 H   0  0  0  0  0  0
   15.1781   -2.2280   23.1370 H   0  0  0  0  0  0
   16.8100   -5.7154   13.5903 H   0  0  0  0  0  0
   15.6692   -6.6871   12.7132 H   0  0  0  0  0  0
   14.7866   -5.5583   10.8555 H   0  0  0  0  0  0
   14.9441   -3.7466    9.1890 H   0  0  0  0  0  0
   19.0029   -3.0132   10.2947 H   0  0  0  0  0  0
   18.8866   -4.8589   11.9450 H   0  0  0  0  0  0
   16.0686   -1.9814    8.5309 H   0  0  0  0  0  0
  1  2  2  0  0  0
  1  4  1  0  0  0
  1 27  1  0  0  0
  2  3  1  0  0  0
  2 18  1  0  0  0
  3  6  2  0  0  0
  3 28  1  0  0  0
  4  5  2  0  0  0
  4 29  1  0  0  0
  5  6  1  0  0  0
  5 10  1  0  0  0
  6  7  1  0  0  0
  7  8  1  0  0  0
  8  9  1  0  0  0
  8 11  2  0  0  0
  9 10  2  0  0  0
  9 12  1  0  0  0
 10 30  1  0  0  0
 12 13  1  0  0  0
 12 14  2  0  0  0
 13 15  1  0  0  0
 13 31  1  0  0  0
 15 16  1  0  0  0
 15 32  1  0  0  0
 15 33  1  0  0  0
 16 17  1  0  0  0
 16 34  1  0  0  0
 16 35  1  0  0  0
 17 19  1  0  0  0
 17 36  1  0  0  0
 17 37  1  0  0  0
 18 38  1  0  0  0
 19 20  1  0  0  0
 19 39  1  0  0  0
 19 40  1  0  0  0
 20 21  2  0  0  0
 20 25  1  0  0  0
 21 22  1  0  0  0
 21 41  1  0  0  0
 22 23  2  0  0  0
 22 42  1  0  0  0
 23 24  1  0  0  0
 23 26  1  0  0  0
 24 25  2  0  0  0
 24 43  1  0  0  0
 25 44  1  0  0  0
 26 45  1  0  0  0
M  END
> <s_m_entry_id>
6367

> <s_m_entry_name>
dock_pv.202

> <s_m_Source_Path>
/home/csk/Desktop/cluster/DUD-E-result/aldr

> <s_m_Source_File>
dock_pv.maegz

> <i_m_Source_File_Index>
202

> <chembl_id>
CHEMBL4071420

> <chembl_pref_name>
None

> <i_lp_mmshare_version>
53161

> <i_f3d_flags>
0

> <r_lp_tautomer_probability>
0.999999999997365

> <s_lp_Force_Field>
OPLS_2005

> <r_lp_Energy>
21.213082

> <b_lp_Chiralities_Consistent>
1

> <s_lp_Variant>
CHEMBL1900_lig638-1

> <s_i_glide_gridfile>
glide-grid_2hv5

> <i_i_glide_lignum>
762

> <i_i_glide_rotatable_bonds>
9

> <r_i_docking_score>
-9.30536261596035

> <r_i_glide_ligand_efficiency>
-0.357898562152321

> <r_i_glide_ligand_efficiency_sa>
-1.06027308211341

> <r_i_glide_ligand_efficiency_ln>
-2.18533387697313

> <r_i_glide_gscore>
-9.30536261596035

> <r_i_glide_lipo>
-4.81152374047568

> <r_i_glide_hbond>
-0.423772765671317

> <r_i_glide_metal>
0

> <r_i_glide_rewards>
-2.15354040468104

> <r_i_glide_evdw>
-38.6283721923828

> <r_i_glide_ecoul>
-7.03735017776489

> <r_i_glide_erotb>
1.07049543115156

> <r_i_glide_esite>
0

> <r_i_glide_emodel>
-50.6496289770671

> <r_i_glide_energy>
-45.6657223701477

> <r_i_glide_einternal>
29.0440673828125

> <i_i_glide_confnum>
102

> <i_i_glide_posenum>
340

> <r_i_glide_eff_state_penalty>
0

> <s_user_duplicate_titles>
CHEMBL1900_lig638

> <s_m_subgroup_title>
dock_pv

> <s_m_subgroupid>
dock_pv

> <b_m_subgroup_collapsed>
1

$$$$
CHEMBL1900_lig462
                    3D
 Schrodinger Suite 2021-1.
 39 40  0  0  1  0            999 V2000
   15.3883  -10.3245   17.3842 C   0  0  0  0  0  0
   15.4681   -8.9366   17.3735 C   0  0  0  0  0  0
   16.2387   -8.2533   16.4159 C   0  0  0  0  0  0
   16.9559   -9.0032   15.4494 C   0  0  0  0  0  0
   16.8765  -10.4049   15.4897 C   0  0  0  0  0  0
   16.0961  -11.0656   16.4408 C   0  0  0  0  0  0
   16.2883   -6.8650   16.3716 O   0  0  0  0  0  0
   15.6951   -6.0443   17.3850 C   0  0  0  0  0  0
   16.4662   -6.0741   18.7183 C   0  0  0  0  0  0
   17.7444   -6.5169   18.5812 O   0  0  0  0  0  0
   15.9655   -5.7152   19.7809 O   0  0  0  0  0  0
   17.7719   -8.3701   14.3315 C   0  0  0  0  0  0
   18.1743   -9.0460   13.3822 O   0  0  0  0  0  0
   17.9948   -7.0488   14.4045 N   0  0  0  0  0  0
   18.5026   -6.2048   13.3215 C   0  0  0  0  0  0
   17.4676   -5.7481   12.2812 C   0  0  0  0  0  0
   17.8362   -4.7804   11.3439 C   0  0  0  0  0  0
   16.9097   -4.2411   10.4414 C   0  0  0  0  0  0
   15.5985   -4.7347   10.4535 C   0  0  0  0  0  0
   15.2176   -5.7145   11.3652 C   0  0  0  0  0  0
   16.1442   -6.2088   12.2801 C   0  0  0  0  0  0
   17.2992   -3.1379    9.5346 N   0  3  0  0  0  0
   16.5679   -2.8676    8.5838 O   0  0  0  0  0  0
   18.3366   -2.5257    9.7809 O   0  5  0  0  0  0
   14.6200  -10.9290   18.3223 F   0  0  0  0  0  0
   16.0230  -12.5195   16.4276 C   0  0  0  0  0  0
   15.9649  -13.6736   16.4177 N   0  0  0  0  0  0
   14.9122   -8.4109   18.1333 H   0  0  0  0  0  0
   17.4152  -10.9912   14.7543 H   0  0  0  0  0  0
   15.7223   -5.0153   17.0229 H   0  0  0  0  0  0
   14.6483   -6.3100   17.5271 H   0  0  0  0  0  0
   18.1906   -6.5621   19.4302 H   0  0  0  0  0  0
   17.5944   -6.5754   15.2058 H   0  0  0  0  0  0
   18.9294   -5.3119   13.7827 H   0  0  0  0  0  0
   19.3383   -6.6878   12.8162 H   0  0  0  0  0  0
   18.8460   -4.4105   11.3443 H   0  0  0  0  0  0
   14.8615   -4.3332    9.7762 H   0  0  0  0  0  0
   14.1955   -6.0675   11.3803 H   0  0  0  0  0  0
   15.8078   -6.9365   13.0015 H   0  0  0  0  0  0
  1  2  2  0  0  0
  1 25  1  0  0  0
  1  6  1  0  0  0
  2  3  1  0  0  0
  2 28  1  0  0  0
  3  7  1  0  0  0
  3  4  2  0  0  0
  4  5  1  0  0  0
  4 12  1  0  0  0
  5  6  2  0  0  0
  5 29  1  0  0  0
  6 26  1  0  0  0
  7  8  1  0  0  0
  8  9  1  0  0  0
  8 30  1  0  0  0
  8 31  1  0  0  0
  9 10  1  0  0  0
  9 11  2  0  0  0
 10 32  1  0  0  0
 12 14  1  0  0  0
 12 13  2  0  0  0
 14 15  1  0  0  0
 14 33  1  0  0  0
 15 16  1  0  0  0
 15 34  1  0  0  0
 15 35  1  0  0  0
 16 17  2  0  0  0
 16 21  1  0  0  0
 17 18  1  0  0  0
 17 36  1  0  0  0
 18 19  2  0  0  0
 18 22  1  0  0  0
 19 20  1  0  0  0
 19 37  1  0  0  0
 20 21  2  0  0  0
 20 38  1  0  0  0
 21 39  1  0  0  0
 22 23  2  0  0  0
 22 24  1  0  0  0
 26 27  3  0  0  0
M  CHG  2  22   1  24  -1
M  END
> <s_m_entry_id>
6368

> <s_m_entry_name>
dock_pv.203

> <s_m_Source_Path>
/home/csk/Desktop/cluster/DUD-E-result/aldr

> <s_m_Source_File>
dock_pv.maegz

> <i_m_Source_File_Index>
203

> <chembl_id>
CHEMBL241367

> <chembl_pref_name>
None

> <i_lp_mmshare_version>
53161

> <i_f3d_flags>
0

> <r_lp_tautomer_probability>
1

> <s_lp_Force_Field>
OPLS_2005

> <r_lp_Energy>
20.138716

> <b_lp_Chiralities_Consistent>
1

> <s_lp_Variant>
CHEMBL1900_lig462-1

> <s_i_glide_gridfile>
glide-grid_2hv5

> <i_i_glide_lignum>
584

> <i_i_glide_rotatable_bonds>
9

> <r_i_docking_score>
-9.30121483074884

> <r_i_glide_ligand_efficiency>
-0.344489438175883

> <r_i_glide_ligand_efficiency_sa>
-1.03346831339227

> <r_i_glide_ligand_efficiency_ln>
-2.16516947008748

> <r_i_glide_gscore>
-9.30121483074884

> <r_i_glide_lipo>
-3.7380853685392

> <r_i_glide_hbond>
-0.29357128530955

> <r_i_glide_metal>
0

> <r_i_glide_rewards>
-3.27250632437067

> <r_i_glide_evdw>
-52.5053405761719

> <r_i_glide_ecoul>
-2.28324818611145

> <r_i_glide_erotb>
0.970702404195891

> <r_i_glide_esite>
0

> <r_i_glide_emodel>
-81.462131362935

> <r_i_glide_energy>
-54.7885887622833

> <r_i_glide_einternal>
5.6821026802063

> <i_i_glide_confnum>
180

> <i_i_glide_posenum>
207

> <r_i_glide_eff_state_penalty>
0

> <s_user_duplicate_titles>
CHEMBL1900_lig462,407186

> <s_m_subgroup_title>
dock_pv

> <s_m_subgroupid>
dock_pv

> <b_m_subgroup_collapsed>
1

$$$$
CHEMBL1900_lig277
                    3D
 Schrodinger Suite 2021-1.
 44 47  0  0  1  0            999 V2000
   17.9943   -8.4211   15.5789 N   0  0  0  0  0  0
   17.5336   -7.6640   16.6492 N   0  0  0  0  0  0
   17.6607   -9.7309   15.2935 C   0  0  0  0  0  0
   16.5602   -8.0752   17.3755 C   0  0  0  0  0  0
   17.8984   -6.8949   13.6000 C   0  0  0  0  0  0
   16.9140   -2.3881    9.4751 S   0  0  0  0  0  0
   18.4224   -6.1144   12.7040 N   0  0  0  0  0  0
   18.7733   -7.6604   14.5815 C   0  0  0  0  0  0
   16.5740  -10.2525   16.2239 C   0  0  0  0  0  0
   16.1450   -6.9150   13.5937 S   0  0  0  0  0  0
   17.4737   -5.5096   11.9453 C   0  0  0  0  0  0
   16.0032   -9.4328   17.2204 C   0  0  0  0  0  0
   15.9463   -7.1262   18.4251 C   0  0  0  0  0  0
   16.6530   -3.8538   10.4349 C   0  0  0  0  0  0
   16.1391   -5.8923   12.1917 C   0  0  0  0  0  0
   17.7410   -4.5138   11.0161 C   0  0  0  0  0  0
   16.5749   -5.7266   18.5453 C   0  0  0  0  0  0
   16.9450   -2.9150    8.1388 O   0  0  0  0  0  0
   15.8973   -1.3818    9.7810 O   0  0  0  0  0  0
   18.1449  -10.3835   14.3634 O   0  0  0  0  0  0
   15.3510   -4.3315   10.5810 C   0  0  0  0  0  0
   15.0670   -5.3814   11.4482 C   0  0  0  0  0  0
   16.1450   -4.7439   17.9499 O   0  0  0  0  0  0
   18.6419   -1.7702    9.9436 C   0  0  0  0  0  0
   17.6494   -5.7150   19.3810 O   0  0  0  0  0  0
   16.1216  -11.5682   16.0584 C   0  0  0  0  0  0
   14.9857   -9.9522   18.0343 C   0  0  0  0  0  0
   15.1099  -12.0693   16.8765 C   0  0  0  0  0  0
   14.5450  -11.2638   17.8627 C   0  0  0  0  0  0
   19.4524   -6.9842   15.1045 H   0  0  0  0  0  0
   19.4490   -8.3110   14.0217 H   0  0  0  0  0  0
   14.8934   -6.9795   18.1810 H   0  0  0  0  0  0
   15.9773   -7.6000   19.4057 H   0  0  0  0  0  0
   18.7599   -4.2119   10.8670 H   0  0  0  0  0  0
   14.5450   -3.8268   10.0694 H   0  0  0  0  0  0
   14.0469   -5.6873   11.6371 H   0  0  0  0  0  0
   18.9450   -0.9150    9.3577 H   0  0  0  0  0  0
   18.6321   -1.4891   10.9810 H   0  0  0  0  0  0
   19.3712   -2.5550    9.7810 H   0  0  0  0  0  0
   17.9012   -6.5940   19.6723 H   0  0  0  0  0  0
   16.5449  -12.2051   15.2932 H   0  0  0  0  0  0
   14.5425   -9.3577   18.8176 H   0  0  0  0  0  0
   14.7592  -13.0828   16.7439 H   0  0  0  0  0  0
   13.7586  -11.6571   18.4921 H   0  0  0  0  0  0
  1  2  1  0  0  0
  1  3  1  0  0  0
  1  8  1  0  0  0
  2  4  2  0  0  0
  3  9  1  0  0  0
  3 20  2  0  0  0
  4 13  1  0  0  0
  4 12  1  0  0  0
  5  8  1  0  0  0
  5  7  2  0  0  0
  5 10  1  0  0  0
  6 14  1  0  0  0
  6 18  2  0  0  0
  6 19  2  0  0  0
  6 24  1  0  0  0
  7 11  1  0  0  0
  8 30  1  0  0  0
  8 31  1  0  0  0
  9 12  1  0  0  0
  9 26  2  0  0  0
 10 15  1  0  0  0
 11 16  1  0  0  0
 11 15  2  0  0  0
 12 27  2  0  0  0
 13 17  1  0  0  0
 13 32  1  0  0  0
 13 33  1  0  0  0
 14 16  2  0  0  0
 14 21  1  0  0  0
 15 22  1  0  0  0
 16 34  1  0  0  0
 17 23  2  0  0  0
 17 25  1  0  0  0
 21 22  2  0  0  0
 21 35  1  0  0  0
 22 36  1  0  0  0
 24 37  1  0  0  0
 24 38  1  0  0  0
 24 39  1  0  0  0
 25 40  1  0  0  0
 26 28  1  0  0  0
 26 41  1  0  0  0
 27 29  1  0  0  0
 27 42  1  0  0  0
 28 29  2  0  0  0
 28 43  1  0  0  0
 29 44  1  0  0  0
M  END
> <s_m_entry_id>
6369

> <s_m_entry_name>
dock_pv.204

> <s_m_Source_Path>
/home/csk/Desktop/cluster/DUD-E-result/aldr

> <s_m_Source_File>
dock_pv.maegz

> <i_m_Source_File_Index>
204

> <chembl_id>
CHEMBL20199

> <chembl_pref_name>
None

> <i_lp_mmshare_version>
53161

> <i_f3d_flags>
0

> <r_lp_tautomer_probability>
1

> <s_lp_Force_Field>
OPLS_2005

> <r_lp_Energy>
19.323713

> <b_lp_Chiralities_Consistent>
1

> <s_lp_Variant>
CHEMBL1900_lig277-1

> <s_i_glide_gridfile>
glide-grid_2hv5

> <i_i_glide_lignum>
392

> <i_i_glide_rotatable_bonds>
6

> <r_i_docking_score>
-9.29061577208617

> <r_i_glide_ligand_efficiency>
-0.32036606110642

> <r_i_glide_ligand_efficiency_sa>
-0.984266038811182

> <r_i_glide_ligand_efficiency_ln>
-2.12731542211899

> <r_i_glide_gscore>
-9.29061577208617

> <r_i_glide_lipo>
-4.61265775808505

> <r_i_glide_hbond>
0

> <r_i_glide_metal>
0

> <r_i_glide_rewards>
-2.37900941129006

> <r_i_glide_evdw>
-42.9465065002441

> <r_i_glide_ecoul>
-3.88396906852722

> <r_i_glide_erotb>
0.430972082580236

> <r_i_glide_esite>
0

> <r_i_glide_emodel>
-55.3553968105577

> <r_i_glide_energy>
-46.8304755687714

> <r_i_glide_einternal>
11.9791717529297

> <i_i_glide_confnum>
18

> <i_i_glide_posenum>
368

> <r_i_glide_eff_state_penalty>
0

> <s_user_duplicate_titles>
CHEMBL1900_lig277

> <s_m_subgroup_title>
dock_pv

> <s_m_subgroupid>
dock_pv

> <b_m_subgroup_collapsed>
1

$$$$
CHEMBL1900_lig628
                    3D
 Schrodinger Suite 2021-1.
 37 38  0  0  1  0            999 V2000
   16.0653   -6.9150   14.8623 N   0  0  0  0  0  0
   15.9621   -7.5855   15.9249 C   0  0  0  0  0  0
   16.8724   -8.5781   15.9956 N   0  0  0  0  0  0
   17.6338   -8.5456   14.8878 C   0  0  0  0  0  0
   17.0966   -7.4270   14.1589 C   0  0  0  0  0  0
   18.5450   -9.3150   14.5810 O   0  0  0  0  0  0
   14.9450   -7.3637   17.0304 C   0  0  0  0  0  0
   17.6572   -7.0934   12.9708 C   0  0  0  0  0  0
   17.1707   -6.0572   12.0412 C   0  0  0  0  0  0
   17.0903   -9.5705   17.0685 C   0  0  0  0  0  0
   16.1801  -10.8152   16.9746 C   0  0  0  0  0  0
   15.3044  -10.7826   15.9274 O   0  0  0  0  0  0
   16.2624  -11.7150   17.7810 O   0  0  0  0  0  0
   15.8082   -5.8992   11.8055 C   0  0  0  0  0  0
   15.3414   -4.9305   10.9208 C   0  0  0  0  0  0
   16.2374   -4.1077   10.2368 C   0  0  0  0  0  0
   17.6114   -4.2433   10.4758 C   0  0  0  0  0  0
   18.0636   -5.2140   11.3789 C   0  0  0  0  0  0
   18.6051   -3.3301    9.7810 C   0  0  0  0  0  0
   13.8538   -4.7456   10.7847 C   0  0  0  0  0  0
   15.7581   -3.1529    9.3704 O   0  0  0  0  0  0
   14.3041   -8.2368   17.1561 H   0  0  0  0  0  0
   15.4388   -7.1663   17.9819 H   0  0  0  0  0  0
   14.2973   -6.5150   16.8145 H   0  0  0  0  0  0
   18.5184   -7.6439   12.6154 H   0  0  0  0  0  0
   16.9450   -9.1041   18.0434 H   0  0  0  0  0  0
   18.1228   -9.9221   17.0505 H   0  0  0  0  0  0
   15.4097   -9.9895   15.3993 H   0  0  0  0  0  0
   15.0997   -6.5212   12.3293 H   0  0  0  0  0  0
   19.1155   -5.3150   11.5765 H   0  0  0  0  0  0
   18.5450   -3.4940    8.7057 H   0  0  0  0  0  0
   18.3473   -2.2863    9.9660 H   0  0  0  0  0  0
   19.6293   -3.4870   10.1167 H   0  0  0  0  0  0
   13.3450   -5.3836   11.5000 H   0  0  0  0  0  0
   13.6035   -3.7150   10.9810 H   0  0  0  0  0  0
   13.4935   -4.9150    9.7810 H   0  0  0  0  0  0
   14.7978   -3.1866    9.2695 H   0  0  0  0  0  0
  1  2  2  0  0  0
  1  5  1  0  0  0
  2  3  1  0  0  0
  2  7  1  0  0  0
  3  4  1  0  0  0
  3 10  1  0  0  0
  4  5  1  0  0  0
  4  6  2  0  0  0
  5  8  2  0  0  0
  7 22  1  0  0  0
  7 23  1  0  0  0
  7 24  1  0  0  0
  8  9  1  0  0  0
  8 25  1  0  0  0
  9 14  2  0  0  0
  9 18  1  0  0  0
 10 11  1  0  0  0
 10 26  1  0  0  0
 10 27  1  0  0  0
 11 12  1  0  0  0
 11 13  2  0  0  0
 12 28  1  0  0  0
 14 15  1  0  0  0
 14 29  1  0  0  0
 15 16  2  0  0  0
 15 20  1  0  0  0
 16 17  1  0  0  0
 16 21  1  0  0  0
 17 18  2  0  0  0
 17 19  1  0  0  0
 18 30  1  0  0  0
 19 31  1  0  0  0
 19 32  1  0  0  0
 19 33  1  0  0  0
 20 34  1  0  0  0
 20 35  1  0  0  0
 20 36  1  0  0  0
 21 37  1  0  0  0
M  END
> <s_m_entry_id>
6370

> <s_m_entry_name>
dock_pv.205

> <s_m_Source_Path>
/home/csk/Desktop/cluster/DUD-E-result/aldr

> <s_m_Source_File>
dock_pv.maegz

> <i_m_Source_File_Index>
205

> <chembl_id>
CHEMBL3956034

> <chembl_pref_name>
None

> <i_lp_mmshare_version>
53161

> <i_f3d_flags>
0

> <r_lp_tautomer_probability>
0.5

> <s_lp_Force_Field>
OPLS_2005

> <r_lp_Energy>
25.076795

> <b_lp_Chiralities_Consistent>
1

> <s_lp_Variant>
CHEMBL1900_lig628-1

> <s_i_glide_gridfile>
glide-grid_2hv5

> <i_i_glide_lignum>
752

> <i_i_glide_rotatable_bonds>
5

> <r_i_docking_score>
-9.28927311943614

> <r_i_glide_ligand_efficiency>
-0.442346339020768

> <r_i_glide_ligand_efficiency_sa>
-1.22040000781957

> <r_i_glide_ligand_efficiency_ln>
-2.29675400803682

> <r_i_glide_gscore>
-9.28927311943614

> <r_i_glide_lipo>
-3.49555989779919

> <r_i_glide_hbond>
-0.524918282491029

> <r_i_glide_metal>
0

> <r_i_glide_rewards>
-3.45879417402488

> <r_i_glide_evdw>
-37.5261535644531

> <r_i_glide_ecoul>
-3.93506813049316

> <r_i_glide_erotb>
0.656567132675597

> <r_i_glide_esite>
0

> <r_i_glide_emodel>
-61.1510205433272

> <r_i_glide_energy>
-41.4612216949463

> <r_i_glide_einternal>
2.78074836730957

> <i_i_glide_confnum>
9

> <i_i_glide_posenum>
399

> <r_i_glide_eff_state_penalty>
0

> <s_user_duplicate_titles>
CHEMBL1900_lig628

> <s_m_subgroup_title>
dock_pv

> <s_m_subgroupid>
dock_pv

> <b_m_subgroup_collapsed>
1

$$$$
CHEMBL1900_lig152
                    3D
 Schrodinger Suite 2021-1.
 41 44  0  0  1  0            999 V2000
   17.9463   -7.8982   15.5036 N   0  0  0  0  0  0
   17.3445   -7.1074   16.4754 N   0  0  0  0  0  0
   17.7480   -9.2537   15.3083 C   0  0  0  0  0  0
   16.4785   -7.5982   17.2847 C   0  0  0  0  0  0
   18.1785   -6.8554   13.2637 C   0  0  0  0  0  0
   16.9450   -6.8476   11.5059 N   0  0  0  0  0  0
   17.5698   -5.7071   11.6017 C   0  0  0  0  0  0
   18.4051   -5.6541   12.6726 O   0  0  0  0  0  0
   17.3450   -7.6037   12.5902 N   0  0  0  0  0  0
   18.8515   -7.1792   14.5803 C   0  0  0  0  0  0
   16.6733   -9.8136   16.2267 C   0  0  0  0  0  0
   16.0165   -8.9951   17.1669 C   0  0  0  0  0  0
   15.9205   -6.7160   18.4229 C   0  0  0  0  0  0
   16.5995   -5.3511   18.6388 C   0  0  0  0  0  0
   18.3543   -9.9274   14.4696 O   0  0  0  0  0  0
   17.3664   -4.5159   10.7454 C   0  0  0  0  0  0
   16.1451   -4.3016   18.1898 O   0  0  0  0  0  0
   17.7414   -5.4532   19.3808 O   0  0  0  0  0  0
   16.3135  -11.1622   16.0983 C   0  0  0  0  0  0
   14.9450   -9.5265   17.8970 C   0  0  0  0  0  0
   16.1184   -4.3239   10.1535 C   0  0  0  0  0  0
   18.3812   -3.5827   10.5425 C   0  0  0  0  0  0
   15.2748  -11.6860   16.8668 C   0  0  0  0  0  0
   14.5835  -10.8668   17.7564 C   0  0  0  0  0  0
   18.1455   -2.4429    9.7811 C   0  0  0  0  0  0
   15.8953   -3.1952    9.3812 C   0  0  0  0  0  0
   16.8980   -2.2552    9.2008 C   0  0  0  0  0  0
   19.2057   -6.2655   15.0590 H   0  0  0  0  0  0
   19.7631   -7.7501   14.3966 H   0  0  0  0  0  0
   14.8679   -6.5194   18.2216 H   0  0  0  0  0  0
   15.9564   -7.2624   19.3652 H   0  0  0  0  0  0
   17.9789   -6.3628   19.5727 H   0  0  0  0  0  0
   16.8159  -11.8024   15.3855 H   0  0  0  0  0  0
   14.3829   -8.9141   18.5813 H   0  0  0  0  0  0
   15.3175   -5.0357   10.2958 H   0  0  0  0  0  0
   19.3449   -3.7386   10.9810 H   0  0  0  0  0  0
   14.9893  -12.7222   16.7553 H   0  0  0  0  0  0
   13.7595  -11.2705   18.3291 H   0  0  0  0  0  0
   18.9249   -1.7073    9.6476 H   0  0  0  0  0  0
   14.9450   -3.0446    8.9155 H   0  0  0  0  0  0
   16.6950   -1.3813    8.6010 H   0  0  0  0  0  0
  1  2  1  0  0  0
  1  3  1  0  0  0
  1 10  1  0  0  0
  2  4  2  0  0  0
  3 11  1  0  0  0
  3 15  2  0  0  0
  4 13  1  0  0  0
  4 12  1  0  0  0
  5 10  1  0  0  0
  5  8  1  0  0  0
  5  9  2  0  0  0
  6  9  1  0  0  0
  6  7  2  0  0  0
  7  8  1  0  0  0
  7 16  1  0  0  0
 10 28  1  0  0  0
 10 29  1  0  0  0
 11 12  2  0  0  0
 11 19  1  0  0  0
 12 20  1  0  0  0
 13 14  1  0  0  0
 13 30  1  0  0  0
 13 31  1  0  0  0
 14 17  2  0  0  0
 14 18  1  0  0  0
 16 21  2  0  0  0
 16 22  1  0  0  0
 18 32  1  0  0  0
 19 23  2  0  0  0
 19 33  1  0  0  0
 20 24  2  0  0  0
 20 34  1  0  0  0
 21 26  1  0  0  0
 21 35  1  0  0  0
 22 25  2  0  0  0
 22 36  1  0  0  0
 23 24  1  0  0  0
 23 37  1  0  0  0
 24 38  1  0  0  0
 25 27  1  0  0  0
 25 39  1  0  0  0
 26 27  2  0  0  0
 26 40  1  0  0  0
 27 41  1  0  0  0
M  END
> <s_m_entry_id>
6371

> <s_m_entry_name>
dock_pv.206

> <s_m_Source_Path>
/home/csk/Desktop/cluster/DUD-E-result/aldr

> <s_m_Source_File>
dock_pv.maegz

> <i_m_Source_File_Index>
206

> <chembl_id>
CHEMBL358550

> <chembl_pref_name>
None

> <i_lp_mmshare_version>
53161

> <i_f3d_flags>
0

> <r_lp_tautomer_probability>
1

> <s_lp_Force_Field>
OPLS_2005

> <r_lp_Energy>
28.611526

> <b_lp_Chiralities_Consistent>
1

> <s_lp_Variant>
CHEMBL1900_lig152-1

> <s_i_glide_gridfile>
glide-grid_2hv5

> <i_i_glide_lignum>
228

> <i_i_glide_rotatable_bonds>
6

> <r_i_docking_score>
-9.28053467412906

> <r_i_glide_ligand_efficiency>
-0.343723506449224

> <r_i_glide_ligand_efficiency_sa>
-1.03117051821482

> <r_i_glide_ligand_efficiency_ln>
-2.16035547056542

> <r_i_glide_gscore>
-9.28053467412906

> <r_i_glide_lipo>
-4.73916501205445

> <r_i_glide_hbond>
0

> <r_i_glide_metal>
0

> <r_i_glide_rewards>
-2.48563510398678

> <r_i_glide_evdw>
-49.8069343566895

> <r_i_glide_ecoul>
-1.97752833366394

> <r_i_glide_erotb>
0.731241409796245

> <r_i_glide_esite>
0

> <r_i_glide_emodel>
-78.0705246929035

> <r_i_glide_energy>
-51.7844626903534

> <r_i_glide_einternal>
4.63891839981079

> <i_i_glide_confnum>
16

> <i_i_glide_posenum>
336

> <r_i_glide_eff_state_penalty>
0

> <s_user_duplicate_titles>
CHEMBL1900_lig152

> <s_m_subgroup_title>
dock_pv

> <s_m_subgroupid>
dock_pv

> <b_m_subgroup_collapsed>
1

$$$$
CHEMBL1900_lig501
                    3D
 Schrodinger Suite 2021-1.
 38 40  0  0  1  0            999 V2000
   15.9050   -2.9157   19.9763 C   0  0  0  0  0  0
   16.1510   -3.7576   21.0013 N   0  0  0  0  0  0
   16.5143   -5.0308   20.6944 C   0  0  0  0  0  0
   16.6845   -5.2124   19.2767 C   0  0  0  0  0  0
   16.4780   -3.6725   18.4562 S   0  0  0  0  0  0
   15.3448   -1.8209   20.0061 O   0  0  0  0  0  0
   16.5450   -5.9400   21.5141 O   0  0  0  0  0  0
   16.8755   -6.4482   18.7582 C   0  0  0  0  0  0
   16.8941   -6.7827   17.3326 C   0  0  0  0  0  0
   15.7433   -3.3151   22.3784 C   0  0  0  0  0  0
   16.5450   -3.8988   23.5653 C   0  0  0  0  0  0
   15.7451   -4.1150   24.6509 O   0  0  0  0  0  0
   17.7379   -4.1188   23.5242 O   0  0  0  0  0  0
   15.7451   -6.6467   16.5593 C   0  0  0  0  0  0
   15.8059   -6.9150   15.1962 C   0  0  0  0  0  0
   16.9971   -7.3147   14.5964 C   0  0  0  0  0  0
   18.1294   -7.5093   15.3826 C   0  0  0  0  0  0
   18.0668   -7.2540   16.7527 C   0  0  0  0  0  0
   17.0541   -7.5333   13.2408 O   0  0  0  0  0  0
   16.9748   -6.4473   12.3992 C   0  0  0  0  0  0
   18.1221   -5.7059   12.1187 C   0  0  0  0  0  0
   18.0636   -4.6538   11.2048 C   0  0  0  0  0  0
   16.8576   -4.3429   10.5810 C   0  0  0  0  0  0
   15.7036   -5.0640   10.8733 C   0  0  0  0  0  0
   15.7649   -6.1151   11.7832 C   0  0  0  0  0  0
   16.9860   -7.3043   19.4098 H   0  0  0  0  0  0
   14.6871   -3.5454   22.5133 H   0  0  0  0  0  0
   15.8379   -2.2320   22.4589 H   0  0  0  0  0  0
   14.8178   -3.8368   24.5795 H   0  0  0  0  0  0
   14.8185   -6.3140   17.0038 H   0  0  0  0  0  0
   14.9451   -6.7583   14.5810 H   0  0  0  0  0  0
   19.0550   -7.8247   14.9249 H   0  0  0  0  0  0
   18.9450   -7.3182   17.3727 H   0  0  0  0  0  0
   19.0551   -5.9617   12.5977 H   0  0  0  0  0  0
   18.9450   -4.0759   10.9791 H   0  0  0  0  0  0
   16.8115   -3.5268    9.8750 H   0  0  0  0  0  0
   14.7683   -4.8118   10.3941 H   0  0  0  0  0  0
   14.8772   -6.6885   11.9926 H   0  0  0  0  0  0
  1  6  2  0  0  0
  1  5  1  0  0  0
  1  2  1  0  0  0
  2  3  1  0  0  0
  2 10  1  0  0  0
  3  7  2  0  0  0
  3  4  1  0  0  0
  4  8  2  0  0  0
  4  5  1  0  0  0
  8  9  1  0  0  0
  8 26  1  0  0  0
  9 14  2  0  0  0
  9 18  1  0  0  0
 10 11  1  0  0  0
 10 27  1  0  0  0
 10 28  1  0  0  0
 11 13  2  0  0  0
 11 12  1  0  0  0
 12 29  1  0  0  0
 14 15  1  0  0  0
 14 30  1  0  0  0
 15 16  2  0  0  0
 15 31  1  0  0  0
 16 17  1  0  0  0
 16 19  1  0  0  0
 17 18  2  0  0  0
 17 32  1  0  0  0
 18 33  1  0  0  0
 19 20  1  0  0  0
 20 21  2  0  0  0
 20 25  1  0  0  0
 21 22  1  0  0  0
 21 34  1  0  0  0
 22 23  2  0  0  0
 22 35  1  0  0  0
 23 24  1  0  0  0
 23 36  1  0  0  0
 24 25  2  0  0  0
 24 37  1  0  0  0
 25 38  1  0  0  0
M  END
> <s_m_entry_id>
6372

> <s_m_entry_name>
dock_pv.207

> <s_m_Source_Path>
/home/csk/Desktop/cluster/DUD-E-result/aldr

> <s_m_Source_File>
dock_pv.maegz

> <i_m_Source_File_Index>
207

> <chembl_id>
CHEMBL1645381

> <chembl_pref_name>
None

> <i_lp_mmshare_version>
53161

> <i_f3d_flags>
0

> <r_lp_tautomer_probability>
1

> <s_lp_Force_Field>
OPLS_2005

> <r_lp_Energy>
21.553852

> <b_lp_Chiralities_Consistent>
1

> <s_lp_Variant>
CHEMBL1900_lig501-1

> <s_i_glide_gridfile>
glide-grid_2hv5

> <i_i_glide_lignum>
624

> <i_i_glide_rotatable_bonds>
6

> <r_i_docking_score>
-9.27993287311796

> <r_i_glide_ligand_efficiency>
-0.371197314924719

> <r_i_glide_ligand_efficiency_sa>
-1.08538753205229

> <r_i_glide_ligand_efficiency_ln>
-2.1996221880761

> <r_i_glide_gscore>
-9.27993287311796

> <r_i_glide_lipo>
-3.98170961779072

> <r_i_glide_hbond>
-0.0075647705174723

> <r_i_glide_metal>
0

> <r_i_glide_rewards>
-3.17654011531318

> <r_i_glide_evdw>
-42.704662322998

> <r_i_glide_ecoul>
-4.90595722198486

> <r_i_glide_erotb>
0.757008329951038

> <r_i_glide_esite>
0

> <r_i_glide_emodel>
-61.6462192292691

> <r_i_glide_energy>
-47.6106195449829

> <r_i_glide_einternal>
10.9144887924194

> <i_i_glide_confnum>
2

> <i_i_glide_posenum>
319

> <r_i_glide_eff_state_penalty>
0

> <s_user_duplicate_titles>
CHEMBL1900_lig501

> <s_m_subgroup_title>
dock_pv

> <s_m_subgroupid>
dock_pv

> <b_m_subgroup_collapsed>
1

$$$$
CHEMBL1900_lig148
                    3D
 Schrodinger Suite 2021-1.
 42 45  0  0  1  0            999 V2000
   17.5447  -10.0368   15.0077 N   0  0  0  0  0  0
   17.3227   -9.0268   15.9438 N   0  0  0  0  0  0
   17.1394  -11.3529   15.1180 C   0  0  0  0  0  0
   16.5663   -9.2156   16.9528 C   0  0  0  0  0  0
   17.6092   -7.7155   12.7281 N   0  0  0  0  0  0
   17.7565   -6.4237   12.5801 C   0  0  0  0  0  0
   18.4960   -8.2179   13.5739 C   0  0  0  0  0  0
   16.2030  -11.5558   16.2965 C   0  0  0  0  0  0
   15.8818  -10.4955   17.1741 C   0  0  0  0  0  0
   18.9451   -5.7210   13.6215 S   0  0  0  0  0  0
   16.5347   -8.0655   17.9678 C   0  0  0  0  0  0
   18.4385   -9.7036   13.8792 C   0  0  0  0  0  0
   19.3460   -7.2930   14.1653 C   0  0  0  0  0  0
   15.7877   -6.8095   17.4790 C   0  0  0  0  0  0
   17.4870  -12.2601   14.3531 O   0  0  0  0  0  0
   17.0126   -5.5815   11.6082 C   0  0  0  0  0  0
   14.9456   -6.7857   16.5808 O   0  0  0  0  0  0
   16.1456   -5.7231   18.2209 O   0  0  0  0  0  0
   15.6558  -12.8286   16.5054 C   0  0  0  0  0  0
   14.9449  -10.7086   18.1908 C   0  0  0  0  0  0
   17.7099   -4.6460   10.8323 C   0  0  0  0  0  0
   15.6296   -5.7151   11.4705 C   0  0  0  0  0  0
   14.7858  -13.0442   17.5688 C   0  0  0  0  0  0
   14.4408  -11.9858   18.4074 C   0  0  0  0  0  0
   14.9455   -4.8929   10.5813 C   0  0  0  0  0  0
   17.0265   -3.8470    9.9229 C   0  0  0  0  0  0
   15.6479   -3.9758    9.8015 C   0  0  0  0  0  0
   16.1095   -8.3728   18.9208 H   0  0  0  0  0  0
   17.5639   -7.7808   18.1934 H   0  0  0  0  0  0
   19.4395  -10.0239   14.1709 H   0  0  0  0  0  0
   18.2051  -10.2756   12.9788 H   0  0  0  0  0  0
   20.1206   -7.4351   14.8980 H   0  0  0  0  0  0
   16.8395   -5.9291   18.8497 H   0  0  0  0  0  0
   15.8993  -13.6494   15.8402 H   0  0  0  0  0  0
   14.6380   -9.9153   18.8584 H   0  0  0  0  0  0
   18.7811   -4.5452   10.9258 H   0  0  0  0  0  0
   15.0814   -6.4238   12.0764 H   0  0  0  0  0  0
   14.3527  -14.0193   17.7305 H   0  0  0  0  0  0
   13.7453  -12.1606   19.2134 H   0  0  0  0  0  0
   13.8717   -4.9690   10.4900 H   0  0  0  0  0  0
   17.5614   -3.1292    9.3186 H   0  0  0  0  0  0
   15.1115   -3.3481    9.1044 H   0  0  0  0  0  0
  1  2  1  0  0  0
  1  3  1  0  0  0
  1 12  1  0  0  0
  2  4  2  0  0  0
  3  8  1  0  0  0
  3 15  2  0  0  0
  4 11  1  0  0  0
  4  9  1  0  0  0
  5  7  1  0  0  0
  5  6  2  0  0  0
  6 16  1  0  0  0
  6 10  1  0  0  0
  7 12  1  0  0  0
  7 13  2  0  0  0
  8  9  2  0  0  0
  8 19  1  0  0  0
  9 20  1  0  0  0
 10 13  1  0  0  0
 11 14  1  0  0  0
 11 28  1  0  0  0
 11 29  1  0  0  0
 12 30  1  0  0  0
 12 31  1  0  0  0
 13 32  1  0  0  0
 14 17  2  0  0  0
 14 18  1  0  0  0
 16 21  2  0  0  0
 16 22  1  0  0  0
 18 33  1  0  0  0
 19 23  2  0  0  0
 19 34  1  0  0  0
 20 24  2  0  0  0
 20 35  1  0  0  0
 21 26  1  0  0  0
 21 36  1  0  0  0
 22 25  2  0  0  0
 22 37  1  0  0  0
 23 24  1  0  0  0
 23 38  1  0  0  0
 24 39  1  0  0  0
 25 27  1  0  0  0
 25 40  1  0  0  0
 26 27  2  0  0  0
 26 41  1  0  0  0
 27 42  1  0  0  0
M  END
> <s_m_entry_id>
6373

> <s_m_entry_name>
dock_pv.208

> <s_m_Source_Path>
/home/csk/Desktop/cluster/DUD-E-result/aldr

> <s_m_Source_File>
dock_pv.maegz

> <i_m_Source_File_Index>
208

> <chembl_id>
CHEMBL423187

> <chembl_pref_name>
None

> <i_lp_mmshare_version>
53161

> <i_f3d_flags>
0

> <r_lp_tautomer_probability>
1

> <s_lp_Force_Field>
OPLS_2005

> <r_lp_Energy>
30.410858

> <b_lp_Chiralities_Consistent>
1

> <s_lp_Variant>
CHEMBL1900_lig148-1

> <s_i_glide_gridfile>
glide-grid_2hv5

> <i_i_glide_lignum>
224

> <i_i_glide_rotatable_bonds>
6

> <r_i_docking_score>
-9.2765334656354

> <r_i_glide_ligand_efficiency>
-0.343575313542052

> <r_i_glide_ligand_efficiency_sa>
-1.03072593949379

> <r_i_glide_ligand_efficiency_ln>
-2.15942405519317

> <r_i_glide_gscore>
-9.2765334656354

> <r_i_glide_lipo>
-4.51329324964168

> <r_i_glide_hbond>
-0.267019359302722

> <r_i_glide_metal>
0

> <r_i_glide_rewards>
-2.36258202724967

> <r_i_glide_evdw>
-44.9965705871582

> <r_i_glide_ecoul>
-3.75776481628418

> <r_i_glide_erotb>
0.679854422359206

> <r_i_glide_esite>
0

> <r_i_glide_emodel>
-64.6692003034393

> <r_i_glide_energy>
-48.7543354034424

> <r_i_glide_einternal>
10.5469007492065

> <i_i_glide_confnum>
9

> <i_i_glide_posenum>
302

> <r_i_glide_eff_state_penalty>
0

> <s_user_duplicate_titles>
CHEMBL1900_lig148

> <s_m_subgroup_title>
dock_pv

> <s_m_subgroupid>
dock_pv

> <b_m_subgroup_collapsed>
1

$$$$
CHEMBL1900_lig585
                    3D
 Schrodinger Suite 2021-1.
 28 29  0  0  1  0            999 V2000
   16.5571   -7.5679   14.8272 C   0  0  0  0  0  0
   16.5911   -8.4463   15.8650 N   0  0  0  0  0  0
   17.3287   -9.5699   15.7672 C   0  0  0  0  0  0
   18.1450   -9.5652   14.1794 S   0  0  0  0  0  0
   17.3485   -8.0608   13.7212 C   0  0  0  0  0  0
   17.4685  -10.4694   16.5971 O   0  0  0  0  0  0
   15.9240   -6.5164   14.8440 O   0  0  0  0  0  0
   17.4926   -7.4663   12.5128 C   0  0  0  0  0  0
   16.9000   -6.2591   11.8926 C   0  0  0  0  0  0
   15.5185   -6.1151   11.7474 C   0  0  0  0  0  0
   14.9876   -5.0778   10.9814 C   0  0  0  0  0  0
   15.8450   -4.1587   10.3825 C   0  0  0  0  0  0
   17.2222   -4.2655   10.5566 C   0  0  0  0  0  0
   17.7462   -5.3143   11.3076 C   0  0  0  0  0  0
   15.8228   -8.1916   17.1187 C   0  0  0  0  0  0
   16.4077   -7.0448   17.9699 C   0  0  0  0  0  0
   17.7495   -6.9146   17.7998 O   0  0  0  0  0  0
   15.7447   -6.3829   18.7357 O   0  0  0  0  0  0
   15.3451   -3.1359    9.6221 O   0  0  0  0  0  0
   18.1450   -7.9928   11.8381 H   0  0  0  0  0  0
   14.8620   -6.8478   12.1800 H   0  0  0  0  0  0
   13.9175   -4.9928   10.8584 H   0  0  0  0  0  0
   17.8808   -3.5453   10.0958 H   0  0  0  0  0  0
   18.8177   -5.4093   11.4030 H   0  0  0  0  0  0
   15.8052   -9.0739   17.7607 H   0  0  0  0  0  0
   14.7766   -7.9959   16.8800 H   0  0  0  0  0  0
   18.0980   -6.2103   18.3511 H   0  0  0  0  0  0
   14.3992   -3.1967    9.4046 H   0  0  0  0  0  0
  1  2  1  0  0  0
  1  5  1  0  0  0
  1  7  2  0  0  0
  2  3  1  0  0  0
  2 15  1  0  0  0
  3  4  1  0  0  0
  3  6  2  0  0  0
  4  5  1  0  0  0
  5  8  2  0  0  0
  8  9  1  0  0  0
  8 20  1  0  0  0
  9 10  2  0  0  0
  9 14  1  0  0  0
 10 11  1  0  0  0
 10 21  1  0  0  0
 11 12  2  0  0  0
 11 22  1  0  0  0
 12 13  1  0  0  0
 12 19  1  0  0  0
 13 14  2  0  0  0
 13 23  1  0  0  0
 14 24  1  0  0  0
 15 16  1  0  0  0
 15 25  1  0  0  0
 15 26  1  0  0  0
 16 17  1  0  0  0
 16 18  2  0  0  0
 17 27  1  0  0  0
 19 28  1  0  0  0
M  END
> <s_m_entry_id>
6374

> <s_m_entry_name>
dock_pv.209

> <s_m_Source_Path>
/home/csk/Desktop/cluster/DUD-E-result/aldr

> <s_m_Source_File>
dock_pv.maegz

> <i_m_Source_File_Index>
209

> <chembl_id>
CHEMBL2260158

> <chembl_pref_name>
None

> <i_lp_mmshare_version>
53161

> <i_f3d_flags>
0

> <r_lp_tautomer_probability>
1

> <s_lp_Force_Field>
OPLS_2005

> <r_lp_Energy>
13.234376

> <b_lp_Chiralities_Consistent>
1

> <s_lp_Variant>
CHEMBL1900_lig585-1

> <s_i_glide_gridfile>
glide-grid_2hv5

> <i_i_glide_lignum>
708

> <i_i_glide_rotatable_bonds>
5

> <r_i_docking_score>
-9.26580742425988

> <r_i_glide_ligand_efficiency>
-0.487674074961046

> <r_i_glide_ligand_efficiency_sa>
-1.3013103043878

> <r_i_glide_ligand_efficiency_ln>
-2.34908119334577

> <r_i_glide_gscore>
-9.26580742425988

> <r_i_glide_lipo>
-2.96074970608114

> <r_i_glide_hbond>
-0.333671547962129

> <r_i_glide_metal>
0

> <r_i_glide_rewards>
-3.64690190746721

> <r_i_glide_evdw>
-33.6840591430664

> <r_i_glide_ecoul>
-8.89474296569824

> <r_i_glide_erotb>
0.693930139258655

> <r_i_glide_esite>
0

> <r_i_glide_emodel>
-59.0949915589774

> <r_i_glide_energy>
-42.5788021087646

> <r_i_glide_einternal>
5.72236680984497

> <i_i_glide_confnum>
1

> <i_i_glide_posenum>
145

> <r_i_glide_eff_state_penalty>
0

> <s_user_duplicate_titles>
CHEMBL1900_lig585,CHEMBL1900_lig477,507773

> <s_m_subgroup_title>
dock_pv

> <s_m_subgroupid>
dock_pv

> <b_m_subgroup_collapsed>
1

$$$$
CHEMBL1900_lig186
                    3D
 Schrodinger Suite 2021-1.
 43 45  0  0  1  0            999 V2000
   18.1450   -8.8213   15.4428 N   0  0  0  0  0  0
   17.7451   -7.9701   16.4765 N   0  0  0  0  0  0
   17.7447  -10.1392   15.2660 C   0  0  0  0  0  0
   16.9051   -8.3702   17.3512 C   0  0  0  0  0  0
   16.6394  -10.5341   16.2338 C   0  0  0  0  0  0
   19.2284   -8.2844   14.5787 C   0  0  0  0  0  0
   17.4203   -3.2754    9.5347 C   0  0  0  0  0  0
   16.1874   -9.6478   17.2312 C   0  0  0  0  0  0
   16.8396   -7.5385   18.6348 C   0  0  0  0  0  0
   18.5726   -7.7371   13.3347 C   0  0  0  0  0  0
   17.5724   -5.8124   12.3422 C   0  0  0  0  0  0
   18.5449   -6.4003   13.1585 N   0  0  0  0  0  0
   16.9687   -4.3188   10.5417 C   0  0  0  0  0  0
   16.1083   -6.1961   18.5797 C   0  0  0  0  0  0
   17.9373   -4.9144   11.3527 C   0  0  0  0  0  0
   18.2241  -10.9087   14.4283 O   0  0  0  0  0  0
   16.2180   -6.0628   12.5810 C   0  0  0  0  0  0
   17.9928   -8.5148   12.5815 O   0  0  0  0  0  0
   15.6230   -4.6819   10.6909 C   0  0  0  0  0  0
   15.7451   -5.6290   19.6071 O   0  0  0  0  0  0
   15.2465   -5.5504   11.7197 C   0  0  0  0  0  0
   18.5445   -3.7150    8.9810 F   0  0  0  0  0  0
   17.6846   -2.1282   10.1582 F   0  0  0  0  0  0
   16.5216   -3.0384    8.5813 F   0  0  0  0  0  0
   15.7449   -6.9149   14.2190 Br  0  0  0  0  0  0
   15.9063   -5.7146   17.3219 O   0  0  0  0  0  0
   16.0700  -11.8090   16.1229 C   0  0  0  0  0  0
   15.0901  -10.0080   18.0241 C   0  0  0  0  0  0
   15.0321  -12.1859   16.9729 C   0  0  0  0  0  0
   14.5450  -11.2860   17.9177 C   0  0  0  0  0  0
   19.9660   -9.0210   14.2571 H   0  0  0  0  0  0
   19.7702   -7.4576   15.0329 H   0  0  0  0  0  0
   16.3809   -8.1136   19.4330 H   0  0  0  0  0  0
   17.8477   -7.3149   18.9807 H   0  0  0  0  0  0
   19.2034   -5.8047   13.6370 H   0  0  0  0  0  0
   18.9733   -4.6633   11.2197 H   0  0  0  0  0  0
   14.8599   -4.2393   10.0649 H   0  0  0  0  0  0
   14.1996   -5.7456   11.9025 H   0  0  0  0  0  0
   16.3446   -6.2810   16.6786 H   0  0  0  0  0  0
   16.4208  -12.5075   15.3751 H   0  0  0  0  0  0
   14.6851   -9.3347   18.7649 H   0  0  0  0  0  0
   14.5950  -13.1705   16.8914 H   0  0  0  0  0  0
   13.7447  -11.5841   18.5754 H   0  0  0  0  0  0
  1  2  1  0  0  0
  1  3  1  0  0  0
  1  6  1  0  0  0
  2  4  2  0  0  0
  3  5  1  0  0  0
  3 16  2  0  0  0
  4  9  1  0  0  0
  4  8  1  0  0  0
  5  8  2  0  0  0
  5 27  1  0  0  0
  6 10  1  0  0  0
  6 31  1  0  0  0
  6 32  1  0  0  0
  7 13  1  0  0  0
  7 22  1  0  0  0
  7 23  1  0  0  0
  7 24  1  0  0  0
  8 28  1  0  0  0
  9 14  1  0  0  0
  9 33  1  0  0  0
  9 34  1  0  0  0
 10 12  1  0  0  0
 10 18  2  0  0  0
 11 12  1  0  0  0
 11 15  2  0  0  0
 11 17  1  0  0  0
 12 35  1  0  0  0
 13 15  1  0  0  0
 13 19  2  0  0  0
 14 20  2  0  0  0
 14 26  1  0  0  0
 15 36  1  0  0  0
 17 21  2  0  0  0
 17 25  1  0  0  0
 19 21  1  0  0  0
 19 37  1  0  0  0
 21 38  1  0  0  0
 26 39  1  0  0  0
 27 29  2  0  0  0
 27 40  1  0  0  0
 28 30  2  0  0  0
 28 41  1  0  0  0
 29 30  1  0  0  0
 29 42  1  0  0  0
 30 43  1  0  0  0
M  END
> <s_m_entry_id>
6375

> <s_m_entry_name>
dock_pv.210

> <s_m_Source_Path>
/home/csk/Desktop/cluster/DUD-E-result/aldr

> <s_m_Source_File>
dock_pv.maegz

> <i_m_Source_File_Index>
210

> <chembl_id>
CHEMBL142599

> <chembl_pref_name>
None

> <i_lp_mmshare_version>
53161

> <i_f3d_flags>
0

> <r_lp_tautomer_probability>
1

> <s_lp_Force_Field>
OPLS_2005

> <r_lp_Energy>
32.169255

> <b_lp_Chiralities_Consistent>
1

> <s_lp_Variant>
CHEMBL1900_lig186-1

> <s_i_glide_gridfile>
glide-grid_2hv5

> <i_i_glide_lignum>
262

> <i_i_glide_rotatable_bonds>
8

> <r_i_docking_score>
-9.26141031491538

> <r_i_glide_ligand_efficiency>
-0.308713677163846

> <r_i_glide_ligand_efficiency_sa>
-0.95924517162852

> <r_i_glide_ligand_efficiency_ln>
-2.1042933346965

> <r_i_glide_gscore>
-9.26141031491538

> <r_i_glide_lipo>
-3.99324163600711

> <r_i_glide_hbond>
-0.32

> <r_i_glide_metal>
0

> <r_i_glide_rewards>
-2.4605191922683

> <r_i_glide_evdw>
-39.8362884521484

> <r_i_glide_ecoul>
-6.76975393295288

> <r_i_glide_erotb>
0.519628025910382

> <r_i_glide_esite>
0

> <r_i_glide_emodel>
-51.1668988038886

> <r_i_glide_energy>
-46.6060423851013

> <r_i_glide_einternal>
20.7752723693848

> <i_i_glide_confnum>
38

> <i_i_glide_posenum>
310

> <r_i_glide_eff_state_penalty>
0

> <s_user_duplicate_titles>
CHEMBL1900_lig186,236215

> <s_m_subgroup_title>
dock_pv

> <s_m_subgroupid>
dock_pv

> <b_m_subgroup_collapsed>
1

$$$$
CHEMBL1900_lig500
                    3D
 Schrodinger Suite 2021-1.
 38 40  0  0  1  0            999 V2000
   15.9757   -3.2259   19.6015 C   0  0  0  0  0  0
   16.1573   -3.9831   20.6966 N   0  0  0  0  0  0
   16.4950   -5.2900   20.5076 C   0  0  0  0  0  0
   16.6660   -5.6186   19.1107 C   0  0  0  0  0  0
   16.5450   -4.1382   18.1810 S   0  0  0  0  0  0
   15.4568   -2.1150   19.5156 O   0  0  0  0  0  0
   16.5450   -6.1117   21.4141 O   0  0  0  0  0  0
   16.7875   -6.9171   18.7197 C   0  0  0  0  0  0
   16.9478   -7.5343   17.3810 C   0  0  0  0  0  0
   15.7481   -3.3834   22.0150 C   0  0  0  0  0  0
   16.5449   -3.8720   23.2459 C   0  0  0  0  0  0
   15.7450   -3.9815   24.3462 O   0  0  0  0  0  0
   17.7340   -4.1151   23.2226 O   0  0  0  0  0  0
   17.5225   -6.8695   16.2968 C   0  0  0  0  0  0
   17.7137   -7.4928   15.0629 C   0  0  0  0  0  0
   17.3450   -8.8304   14.9156 C   0  0  0  0  0  0
   16.7481   -9.5112   15.9768 C   0  0  0  0  0  0
   16.5450   -8.8633   17.1971 C   0  0  0  0  0  0
   18.2807   -6.7908   14.0200 O   0  0  0  0  0  0
   17.5109   -6.2927   12.9810 C   0  0  0  0  0  0
   16.1379   -6.5181   12.8546 C   0  0  0  0  0  0
   15.4195   -5.9925   11.7810 C   0  0  0  0  0  0
   16.0766   -5.2169   10.8309 C   0  0  0  0  0  0
   17.4403   -4.9656   10.9504 C   0  0  0  0  0  0
   18.1450   -5.5052   12.0240 C   0  0  0  0  0  0
   16.7807   -7.6665   19.4954 H   0  0  0  0  0  0
   14.6867   -3.5680   22.1699 H   0  0  0  0  0  0
   15.8710   -2.2987   21.9930 H   0  0  0  0  0  0
   14.8189   -3.7150   24.2592 H   0  0  0  0  0  0
   17.8519   -5.8556   16.4147 H   0  0  0  0  0  0
   17.5064   -9.3304   13.9718 H   0  0  0  0  0  0
   16.4473  -10.5415   15.8547 H   0  0  0  0  0  0
   16.0921   -9.4120   18.0110 H   0  0  0  0  0  0
   15.6286   -7.0995   13.6017 H   0  0  0  0  0  0
   14.3572   -6.1708   11.6953 H   0  0  0  0  0  0
   15.5224   -4.8004   10.0018 H   0  0  0  0  0  0
   17.9470   -4.3575   10.2160 H   0  0  0  0  0  0
   19.1992   -5.3152   12.1248 H   0  0  0  0  0  0
  1  6  2  0  0  0
  1  5  1  0  0  0
  1  2  1  0  0  0
  2  3  1  0  0  0
  2 10  1  0  0  0
  3  7  2  0  0  0
  3  4  1  0  0  0
  4  8  2  0  0  0
  4  5  1  0  0  0
  8  9  1  0  0  0
  8 26  1  0  0  0
  9 14  2  0  0  0
  9 18  1  0  0  0
 10 11  1  0  0  0
 10 27  1  0  0  0
 10 28  1  0  0  0
 11 13  2  0  0  0
 11 12  1  0  0  0
 12 29  1  0  0  0
 14 15  1  0  0  0
 14 30  1  0  0  0
 15 16  2  0  0  0
 15 19  1  0  0  0
 16 17  1  0  0  0
 16 31  1  0  0  0
 17 18  2  0  0  0
 17 32  1  0  0  0
 18 33  1  0  0  0
 19 20  1  0  0  0
 20 21  2  0  0  0
 20 25  1  0  0  0
 21 22  1  0  0  0
 21 34  1  0  0  0
 22 23  2  0  0  0
 22 35  1  0  0  0
 23 24  1  0  0  0
 23 36  1  0  0  0
 24 25  2  0  0  0
 24 37  1  0  0  0
 25 38  1  0  0  0
M  END
> <s_m_entry_id>
6376

> <s_m_entry_name>
dock_pv.211

> <s_m_Source_Path>
/home/csk/Desktop/cluster/DUD-E-result/aldr

> <s_m_Source_File>
dock_pv.maegz

> <i_m_Source_File_Index>
211

> <chembl_id>
CHEMBL1645380

> <chembl_pref_name>
None

> <i_lp_mmshare_version>
53161

> <i_f3d_flags>
0

> <r_lp_tautomer_probability>
1

> <s_lp_Force_Field>
OPLS_2005

> <r_lp_Energy>
20.177893

> <b_lp_Chiralities_Consistent>
1

> <s_lp_Variant>
CHEMBL1900_lig500-1

> <s_i_glide_gridfile>
glide-grid_2hv5

> <i_i_glide_lignum>
623

> <i_i_glide_rotatable_bonds>
6

> <r_i_docking_score>
-9.25600232100878

> <r_i_glide_ligand_efficiency>
-0.370240092840351

> <r_i_glide_ligand_efficiency_sa>
-1.08258859770119

> <r_i_glide_ligand_efficiency_ln>
-2.19394993008545

> <r_i_glide_gscore>
-9.25600232100878

> <r_i_glide_lipo>
-4.16960352330041

> <r_i_glide_hbond>
-0.00722075970584046

> <r_i_glide_metal>
0

> <r_i_glide_rewards>
-3.08070302673653

> <r_i_glide_evdw>
-40.0657730102539

> <r_i_glide_ecoul>
-5.0146312713623

> <r_i_glide_erotb>
0.757008329951038

> <r_i_glide_esite>
0

> <r_i_glide_emodel>
-61.6035114218512

> <r_i_glide_energy>
-45.0804042816162

> <r_i_glide_einternal>
5.9284520149231

> <i_i_glide_confnum>
64

> <i_i_glide_posenum>
9

> <r_i_glide_eff_state_penalty>
0

> <s_user_duplicate_titles>
CHEMBL1900_lig500

> <s_m_subgroup_title>
dock_pv

> <s_m_subgroupid>
dock_pv

> <b_m_subgroup_collapsed>
1

$$$$
CHEMBL1900_lig581
                    3D
 Schrodinger Suite 2021-1.
 29 30  0  0  1  0            999 V2000
   16.4533   -7.5136   15.0687 C   0  0  0  0  0  0
   16.5181   -8.3554   16.1338 N   0  0  0  0  0  0
   17.2716   -9.4691   16.0620 C   0  0  0  0  0  0
   18.1149   -9.4659   14.4891 S   0  0  0  0  0  0
   17.3081   -7.9754   13.9987 C   0  0  0  0  0  0
   17.4001  -10.3623   16.9006 O   0  0  0  0  0  0
   15.7450   -6.5150   15.0449 O   0  0  0  0  0  0
   17.4807   -7.3971   12.7852 C   0  0  0  0  0  0
   16.9260   -6.2158   12.0718 C   0  0  0  0  0  0
   17.7631   -5.2572   11.4846 C   0  0  0  0  0  0
   17.2514   -4.2475   10.6427 C   0  0  0  0  0  0
   15.8704   -4.2148   10.3990 C   0  0  0  0  0  0
   15.0287   -5.1533   10.9812 C   0  0  0  0  0  0
   15.5652   -6.1374   11.8041 C   0  0  0  0  0  0
   15.7590   -8.0676   17.3848 C   0  0  0  0  0  0
   16.3889   -6.9243   18.2096 C   0  0  0  0  0  0
   17.7450   -6.9121   18.1079 O   0  0  0  0  0  0
   15.7450   -6.1742   18.9087 O   0  0  0  0  0  0
   18.1319   -3.2253   10.0273 N   0  3  0  0  0  0
   17.6130   -2.3199    9.3810 O   0  0  0  0  0  0
   19.3450   -3.3150   10.1810 O   0  5  0  0  0  0
   18.1450   -7.9653   12.1810 H   0  0  0  0  0  0
   18.8233   -5.3150   11.6724 H   0  0  0  0  0  0
   15.4341   -3.4574    9.7621 H   0  0  0  0  0  0
   13.9661   -5.1238   10.7885 H   0  0  0  0  0  0
   14.9450   -6.9150   12.1810 H   0  0  0  0  0  0
   15.7210   -8.9411   18.0376 H   0  0  0  0  0  0
   14.7186   -7.8397   17.1493 H   0  0  0  0  0  0
   18.1207   -6.2184   18.6530 H   0  0  0  0  0  0
  1  2  1  0  0  0
  1  5  1  0  0  0
  1  7  2  0  0  0
  2  3  1  0  0  0
  2 15  1  0  0  0
  3  4  1  0  0  0
  3  6  2  0  0  0
  4  5  1  0  0  0
  5  8  2  0  0  0
  8  9  1  0  0  0
  8 22  1  0  0  0
  9 10  2  0  0  0
  9 14  1  0  0  0
 10 11  1  0  0  0
 10 23  1  0  0  0
 11 12  2  0  0  0
 11 19  1  0  0  0
 12 13  1  0  0  0
 12 24  1  0  0  0
 13 14  2  0  0  0
 13 25  1  0  0  0
 14 26  1  0  0  0
 15 16  1  0  0  0
 15 27  1  0  0  0
 15 28  1  0  0  0
 16 17  1  0  0  0
 16 18  2  0  0  0
 17 29  1  0  0  0
 19 20  2  0  0  0
 19 21  1  0  0  0
M  CHG  2  19   1  21  -1
M  END
> <s_m_entry_id>
6377

> <s_m_entry_name>
dock_pv.212

> <s_m_Source_Path>
/home/csk/Desktop/cluster/DUD-E-result/aldr

> <s_m_Source_File>
dock_pv.maegz

> <i_m_Source_File_Index>
212

> <chembl_id>
CHEMBL2260162

> <chembl_pref_name>
None

> <i_lp_mmshare_version>
53161

> <i_f3d_flags>
0

> <r_lp_tautomer_probability>
1

> <s_lp_Force_Field>
OPLS_2005

> <r_lp_Energy>
16.333386

> <b_lp_Chiralities_Consistent>
1

> <s_lp_Variant>
CHEMBL1900_lig581-1

> <s_i_glide_gridfile>
glide-grid_2hv5

> <i_i_glide_lignum>
704

> <i_i_glide_rotatable_bonds>
5

> <r_i_docking_score>
-9.24392762340539

> <r_i_glide_ligand_efficiency>
-0.440187029685971

> <r_i_glide_ligand_efficiency_sa>
-1.21444263709755

> <r_i_glide_ligand_efficiency_ln>
-2.28554242577242

> <r_i_glide_gscore>
-9.24392762340539

> <r_i_glide_lipo>
-2.97382554382183

> <r_i_glide_hbond>
-0.0570730408714041

> <r_i_glide_metal>
0

> <r_i_glide_rewards>
-3.88226554545454

> <r_i_glide_evdw>
-38.7006378173828

> <r_i_glide_ecoul>
-6.53041696548462

> <r_i_glide_erotb>
0.584001880173831

> <r_i_glide_esite>
-0.000170937739608592

> <r_i_glide_emodel>
-60.2057255883426

> <r_i_glide_energy>
-45.2310547828674

> <r_i_glide_einternal>
7.02877521514893

> <i_i_glide_confnum>
14

> <i_i_glide_posenum>
120

> <r_i_glide_eff_state_penalty>
0

> <s_user_duplicate_titles>
CHEMBL1900_lig581

> <s_m_subgroup_title>
dock_pv

> <s_m_subgroupid>
dock_pv

> <b_m_subgroup_collapsed>
1

$$$$
CHEMBL1900_lig467
                    3D
 Schrodinger Suite 2021-1.
 41 43  0  0  1  0            999 V2000
   15.2893  -11.9476   17.7819 C   0  0  0  0  0  0
   15.2120  -10.5583   17.7847 C   0  0  0  0  0  0
   16.0146   -9.7949   16.9318 C   0  0  0  0  0  0
   16.8756  -10.4418   16.0146 C   0  0  0  0  0  0
   16.9128  -11.8457   16.0051 C   0  0  0  0  0  0
   16.1350  -12.5921   16.8864 C   0  0  0  0  0  0
   14.3741  -12.8676   18.9171 Cl  0  0  0  0  0  0
   15.9270   -8.4233   17.0160 O   0  0  0  0  0  0
   16.5305   -7.8509   18.1803 C   0  0  0  0  0  0
   16.3318   -6.3319   18.1665 C   0  0  0  0  0  0
   16.8888   -5.7453   19.2614 O   0  0  0  0  0  0
   15.7450   -5.7156   17.2810 O   0  0  0  0  0  0
   17.7580   -9.6963   15.0369 C   0  0  0  0  0  0
   18.1523  -10.2393   14.0041 O   0  0  0  0  0  0
   18.1083   -8.4420   15.3681 N   0  0  0  0  0  0
   18.8951   -7.5266   14.5323 C   0  0  0  0  0  0
   18.0328   -6.7491   13.5496 C   0  0  0  0  0  0
   18.5426   -5.8877   12.7123 N   0  0  0  0  0  0
   16.2912   -6.9150   13.4510 S   0  0  0  0  0  0
   16.2763   -5.8122   12.1124 C   0  0  0  0  0  0
   17.5922   -5.3365   11.9095 C   0  0  0  0  0  0
   17.8251   -4.3360   10.9627 C   0  0  0  0  0  0
   16.7273   -3.8011   10.2747 C   0  0  0  0  0  0
   15.4477   -4.3436   10.4367 C   0  0  0  0  0  0
   15.1958   -5.3588   11.3521 C   0  0  0  0  0  0
   16.8909   -2.5741    9.3970 C   0  0  0  0  0  0
   16.0772   -1.5956    9.7809 F   0  0  0  0  0  0
   18.1419   -2.1150    9.3918 F   0  0  0  0  0  0
   16.5476   -2.9149    8.1752 F   0  0  0  0  0  0
   14.5471  -10.0658   18.4784 H   0  0  0  0  0  0
   17.5571  -12.3748   15.3159 H   0  0  0  0  0  0
   16.1932  -13.6705   16.8757 H   0  0  0  0  0  0
   16.0881   -8.2512   19.0935 H   0  0  0  0  0  0
   17.6019   -8.0556   18.1819 H   0  0  0  0  0  0
   16.7949   -4.7913   19.2185 H   0  0  0  0  0  0
   17.6325   -8.0373   16.1618 H   0  0  0  0  0  0
   19.3994   -6.8277   15.2005 H   0  0  0  0  0  0
   19.7001   -8.0614   14.0221 H   0  0  0  0  0  0
   18.8172   -3.9335   10.8360 H   0  0  0  0  0  0
   14.6170   -3.9278    9.8831 H   0  0  0  0  0  0
   14.1923   -5.7272   11.5171 H   0  0  0  0  0  0
  1  7  1  0  0  0
  1  6  1  0  0  0
  1  2  2  0  0  0
  2  3  1  0  0  0
  2 30  1  0  0  0
  3  4  2  0  0  0
  3  8  1  0  0  0
  4  5  1  0  0  0
  4 13  1  0  0  0
  5  6  2  0  0  0
  5 31  1  0  0  0
  6 32  1  0  0  0
  8  9  1  0  0  0
  9 10  1  0  0  0
  9 33  1  0  0  0
  9 34  1  0  0  0
 10 11  1  0  0  0
 10 12  2  0  0  0
 11 35  1  0  0  0
 13 15  1  0  0  0
 13 14  2  0  0  0
 15 16  1  0  0  0
 15 36  1  0  0  0
 16 17  1  0  0  0
 16 37  1  0  0  0
 16 38  1  0  0  0
 17 18  2  0  0  0
 17 19  1  0  0  0
 18 21  1  0  0  0
 19 20  1  0  0  0
 20 21  2  0  0  0
 20 25  1  0  0  0
 21 22  1  0  0  0
 22 23  2  0  0  0
 22 39  1  0  0  0
 23 24  1  0  0  0
 23 26  1  0  0  0
 24 25  2  0  0  0
 24 40  1  0  0  0
 25 41  1  0  0  0
 26 27  1  0  0  0
 26 28  1  0  0  0
 26 29  1  0  0  0
M  END
> <s_m_entry_id>
6378

> <s_m_entry_name>
dock_pv.213

> <s_m_Source_Path>
/home/csk/Desktop/cluster/DUD-E-result/aldr

> <s_m_Source_File>
dock_pv.maegz

> <i_m_Source_File_Index>
213

> <chembl_id>
CHEMBL240720

> <chembl_pref_name>
None

> <i_lp_mmshare_version>
53161

> <i_f3d_flags>
0

> <r_lp_tautomer_probability>
1

> <s_lp_Force_Field>
OPLS_2005

> <r_lp_Energy>
19.878914

> <b_lp_Chiralities_Consistent>
1

> <s_lp_Variant>
CHEMBL1900_lig467-1

> <s_i_glide_gridfile>
glide-grid_2hv5

> <i_i_glide_lignum>
589

> <i_i_glide_rotatable_bonds>
9

> <r_i_docking_score>
-9.24166109899273

> <r_i_glide_ligand_efficiency>
-0.318677968930784

> <r_i_glide_ligand_efficiency_sa>
-0.979079684822489

> <r_i_glide_ligand_efficiency_ln>
-2.11610604336399

> <r_i_glide_gscore>
-9.24166109899273

> <r_i_glide_lipo>
-4.25045381833219

> <r_i_glide_hbond>
-0.0741547742597168

> <r_i_glide_metal>
0

> <r_i_glide_rewards>
-2.81512943900449

> <r_i_glide_evdw>
-45.7435035705566

> <r_i_glide_ecoul>
-3.48288130760193

> <r_i_glide_erotb>
0.707684307271786

> <r_i_glide_esite>
0

> <r_i_glide_emodel>
-71.9385507243346

> <r_i_glide_energy>
-49.2263848781586

> <r_i_glide_einternal>
6.61439037322998

> <i_i_glide_confnum>
1

> <i_i_glide_posenum>
78

> <r_i_glide_eff_state_penalty>
0

> <s_user_duplicate_titles>
CHEMBL1900_lig467,407181

> <s_m_subgroup_title>
dock_pv

> <s_m_subgroupid>
dock_pv

> <b_m_subgroup_collapsed>
1

$$$$
CHEMBL1900_lig541
                    3D
 Schrodinger Suite 2021-1.
 40 41  0  0  1  0            999 V2000
   15.9323   -4.2414   10.1852 C   0  0  0  0  0  0
   17.2074   -4.5221   10.6763 C   0  0  0  0  0  0
   17.3833   -5.4726   11.6885 C   0  0  0  0  0  0
   16.2831   -6.1984   12.1686 C   0  0  0  0  0  0
   15.0072   -5.8948   11.6774 C   0  0  0  0  0  0
   14.8326   -4.9164   10.7011 C   0  0  0  0  0  0
   16.4791   -7.2197   13.2155 C   0  0  0  0  0  0
   15.7450   -7.2288   14.3390 C   0  0  0  0  0  0
   15.9219   -8.1091   15.4680 C   0  0  0  0  0  0
   15.0517   -7.7629   16.4378 O   0  0  0  0  0  0
   16.7609   -9.0092   15.5336 O   0  0  0  0  0  0
   15.0700   -8.3449   17.7261 C   0  0  0  0  0  0
   16.2227   -7.8235   18.6107 C   0  0  0  0  0  0
   15.7452   -3.2999    9.2102 O   0  0  0  0  0  0
   18.6586   -5.7149   12.1355 O   0  0  0  0  0  0
   18.9681   -5.5208   13.5175 C   0  0  0  0  0  0
   16.2517   -6.3216   18.9043 C   0  0  0  0  0  0
   16.4649   -5.3914   17.8863 C   0  0  0  0  0  0
   16.5447   -4.0301   18.1811 C   0  0  0  0  0  0
   16.4308   -3.5972   19.4978 C   0  0  0  0  0  0
   16.2404   -4.5154   20.5228 C   0  0  0  0  0  0
   16.1462   -5.8722   20.2212 C   0  0  0  0  0  0
   18.0614   -3.9905   10.2860 H   0  0  0  0  0  0
   14.1380   -6.4158   12.0432 H   0  0  0  0  0  0
   13.8374   -4.6987   10.3415 H   0  0  0  0  0  0
   17.2641   -7.9478   13.0544 H   0  0  0  0  0  0
   14.9516   -6.5147   14.4515 H   0  0  0  0  0  0
   14.1098   -8.1124   18.1809 H   0  0  0  0  0  0
   15.1153   -9.4322   17.6440 H   0  0  0  0  0  0
   16.1450   -8.3588   19.5535 H   0  0  0  0  0  0
   17.1836   -8.1101   18.1808 H   0  0  0  0  0  0
   14.8112   -3.1922    8.9813 H   0  0  0  0  0  0
   19.7698   -6.2075   13.7875 H   0  0  0  0  0  0
   19.3448   -4.5160   13.7006 H   0  0  0  0  0  0
   18.1603   -5.7005   14.2207 H   0  0  0  0  0  0
   16.5890   -5.7231   16.8688 H   0  0  0  0  0  0
   16.7184   -3.3127   17.3919 H   0  0  0  0  0  0
   16.5105   -2.5441   19.7283 H   0  0  0  0  0  0
   16.1722   -4.1780   21.5476 H   0  0  0  0  0  0
   16.0257   -6.5795   21.0289 H   0  0  0  0  0  0
  1  6  1  0  0  0
  1  2  2  0  0  0
  1 14  1  0  0  0
  2  3  1  0  0  0
  2 23  1  0  0  0
  3 15  1  0  0  0
  3  4  2  0  0  0
  4  7  1  0  0  0
  4  5  1  0  0  0
  5  6  2  0  0  0
  5 24  1  0  0  0
  6 25  1  0  0  0
  7  8  2  0  0  0
  7 26  1  0  0  0
  8  9  1  0  0  0
  8 27  1  0  0  0
  9 11  2  0  0  0
  9 10  1  0  0  0
 10 12  1  0  0  0
 12 13  1  0  0  0
 12 28  1  0  0  0
 12 29  1  0  0  0
 13 17  1  0  0  0
 13 30  1  0  0  0
 13 31  1  0  0  0
 14 32  1  0  0  0
 15 16  1  0  0  0
 16 33  1  0  0  0
 16 34  1  0  0  0
 16 35  1  0  0  0
 17 18  2  0  0  0
 17 22  1  0  0  0
 18 19  1  0  0  0
 18 36  1  0  0  0
 19 20  2  0  0  0
 19 37  1  0  0  0
 20 21  1  0  0  0
 20 38  1  0  0  0
 21 22  2  0  0  0
 21 39  1  0  0  0
 22 40  1  0  0  0
M  END
> <s_m_entry_id>
6379

> <s_m_entry_name>
dock_pv.214

> <s_m_Source_Path>
/home/csk/Desktop/cluster/DUD-E-result/aldr

> <s_m_Source_File>
dock_pv.maegz

> <i_m_Source_File_Index>
214

> <chembl_id>
CHEMBL1940394

> <chembl_pref_name>
None

> <i_lp_mmshare_version>
53161

> <i_f3d_flags>
0

> <r_lp_tautomer_probability>
1

> <s_lp_Force_Field>
OPLS_2005

> <r_lp_Energy>
16.988293

> <b_lp_Chiralities_Consistent>
1

> <s_lp_Variant>
CHEMBL1900_lig541-1

> <s_i_glide_gridfile>
glide-grid_2hv5

> <i_i_glide_lignum>
664

> <i_i_glide_rotatable_bonds>
8

> <r_i_docking_score>
-9.23410604181415

> <r_i_glide_ligand_efficiency>
-0.419732092809734

> <r_i_glide_ligand_efficiency_sa>
-1.17610583117937

> <r_i_glide_ligand_efficiency_ln>
-2.2571523388211

> <r_i_glide_gscore>
-9.23410604181415

> <r_i_glide_lipo>
-4.46159131296697

> <r_i_glide_hbond>
-0.32

> <r_i_glide_metal>
0

> <r_i_glide_rewards>
-2.62889504264061

> <r_i_glide_evdw>
-36.9140357971191

> <r_i_glide_ecoul>
-6.72500419616699

> <r_i_glide_erotb>
1.03083273307444

> <r_i_glide_esite>
0

> <r_i_glide_emodel>
-58.7177961000294

> <r_i_glide_energy>
-43.6390399932861

> <r_i_glide_einternal>
7.61264753341675

> <i_i_glide_confnum>
7

> <i_i_glide_posenum>
164

> <r_i_glide_eff_state_penalty>
0

> <s_user_duplicate_titles>
CHEMBL1900_lig541

> <s_m_subgroup_title>
dock_pv

> <s_m_subgroupid>
dock_pv

> <b_m_subgroup_collapsed>
1

$$$$
CHEMBL1900_lig519
                    3D
 Schrodinger Suite 2021-1.
 39 41  0  0  1  0            999 V2000
   17.4617  -12.9013   14.1857 C   0  0  0  0  0  0
   18.2724  -11.8728   13.7343 C   0  0  0  0  0  0
   18.2218  -10.5960   14.3053 C   0  0  0  0  0  0
   16.5433  -12.7174   15.2108 C   0  0  0  0  0  0
   16.4462  -11.4344   15.7651 C   0  0  0  0  0  0
   17.2938  -10.3579   15.3544 C   0  0  0  0  0  0
   16.9637   -9.2365   16.2120 C   0  0  0  0  0  0
   15.9085   -9.6362   17.0189 C   0  0  0  0  0  0
   15.5893  -10.9523   16.7415 N   0  0  0  0  0  0
   17.7442   -7.6520   16.3178 S   0  0  0  0  0  0
   17.5257   -6.9838   14.6989 C   0  0  0  0  0  0
   18.6045   -6.3452   14.0891 C   0  0  0  0  0  0
   18.4528   -5.8061   12.8163 C   0  0  0  0  0  0
   17.2247   -5.8897   12.1657 C   0  0  0  0  0  0
   16.1448   -6.5148   12.7816 C   0  0  0  0  0  0
   16.2935   -7.0632   14.0553 C   0  0  0  0  0  0
   14.5743  -11.7595   17.4364 C   0  0  0  0  0  0
   17.0380   -5.1923   10.5984 Cl  0  0  0  0  0  0
   15.1637   -8.8530   18.0841 C   0  0  0  0  0  0
   19.2053   -9.5627   13.7791 C   0  0  0  0  0  0
   19.1334  -12.1333   12.7232 F   0  0  0  0  0  0
   15.1373  -12.6669   18.5391 C   0  0  0  0  0  0
   14.1450  -13.2780   19.2421 O   0  0  0  0  0  0
   16.3389  -12.8314   18.7462 O   0  0  0  0  0  0
   17.5482  -13.8686   13.7158 H   0  0  0  0  0  0
   15.9144  -13.5330   15.5350 H   0  0  0  0  0  0
   19.5573   -6.2731   14.5937 H   0  0  0  0  0  0
   19.2833   -5.3160   12.3400 H   0  0  0  0  0  0
   15.1918   -6.5565   12.2751 H   0  0  0  0  0  0
   15.4600   -7.5367   14.5521 H   0  0  0  0  0  0
   13.8015  -11.1046   17.8385 H   0  0  0  0  0  0
   14.0875  -12.3897   16.6924 H   0  0  0  0  0  0
   15.6616   -7.9162   18.3291 H   0  0  0  0  0  0
   14.1539   -8.6010   17.7635 H   0  0  0  0  0  0
   15.0822   -9.4078   19.0174 H   0  0  0  0  0  0
   19.5440   -8.9117   14.5805 H   0  0  0  0  0  0
   18.7502   -8.9611   12.9922 H   0  0  0  0  0  0
   20.1097  -10.0231   13.3810 H   0  0  0  0  0  0
   13.2483  -13.0185   18.9807 H   0  0  0  0  0  0
  1  2  2  0  0  0
  1  4  1  0  0  0
  1 25  1  0  0  0
  2  3  1  0  0  0
  2 21  1  0  0  0
  3  6  2  0  0  0
  3 20  1  0  0  0
  4  5  2  0  0  0
  4 26  1  0  0  0
  5  9  1  0  0  0
  5  6  1  0  0  0
  6  7  1  0  0  0
  7  8  2  0  0  0
  7 10  1  0  0  0
  8  9  1  0  0  0
  8 19  1  0  0  0
  9 17  1  0  0  0
 10 11  1  0  0  0
 11 12  2  0  0  0
 11 16  1  0  0  0
 12 13  1  0  0  0
 12 27  1  0  0  0
 13 14  2  0  0  0
 13 28  1  0  0  0
 14 15  1  0  0  0
 14 18  1  0  0  0
 15 16  2  0  0  0
 15 29  1  0  0  0
 16 30  1  0  0  0
 17 22  1  0  0  0
 17 31  1  0  0  0
 17 32  1  0  0  0
 19 33  1  0  0  0
 19 34  1  0  0  0
 19 35  1  0  0  0
 20 36  1  0  0  0
 20 37  1  0  0  0
 20 38  1  0  0  0
 22 23  1  0  0  0
 22 24  2  0  0  0
 23 39  1  0  0  0
M  END
> <s_m_entry_id>
6380

> <s_m_entry_name>
dock_pv.215

> <s_m_Source_Path>
/home/csk/Desktop/cluster/DUD-E-result/aldr

> <s_m_Source_File>
dock_pv.maegz

> <i_m_Source_File_Index>
215

> <chembl_id>
CHEMBL1917427

> <chembl_pref_name>
None

> <i_lp_mmshare_version>
53161

> <i_f3d_flags>
0

> <r_lp_tautomer_probability>
1

> <s_lp_Force_Field>
OPLS_2005

> <r_lp_Energy>
13.200009

> <b_lp_Chiralities_Consistent>
1

> <s_lp_Variant>
CHEMBL1900_lig519-1

> <s_i_glide_gridfile>
glide-grid_2hv5

> <i_i_glide_lignum>
642

> <i_i_glide_rotatable_bonds>
5

> <r_i_docking_score>
-9.219363833401

> <r_i_glide_ligand_efficiency>
-0.384140159725042

> <r_i_glide_ligand_efficiency_sa>
-1.10805195942871

> <r_i_glide_ligand_efficiency_ln>
-2.20661681437293

> <r_i_glide_gscore>
-9.219363833401

> <r_i_glide_lipo>
-4.2342475882654

> <r_i_glide_hbond>
-0.304

> <r_i_glide_metal>
0

> <r_i_glide_rewards>
-2.31347473787284

> <r_i_glide_evdw>
-36.6432914733887

> <r_i_glide_ecoul>
-7.19846153259277

> <r_i_glide_erotb>
0.580710353365517

> <r_i_glide_esite>
-0.0364180570699297

> <r_i_glide_emodel>
-60.8799795309226

> <r_i_glide_energy>
-43.8417530059814

> <r_i_glide_einternal>
4.44791412353516

> <i_i_glide_confnum>
32

> <i_i_glide_posenum>
118

> <r_i_glide_eff_state_penalty>
0

> <s_user_duplicate_titles>
CHEMBL1900_lig519

> <s_m_subgroup_title>
dock_pv

> <s_m_subgroupid>
dock_pv

> <b_m_subgroup_collapsed>
1

$$$$
CHEMBL1900_lig193
                    3D
 Schrodinger Suite 2021-1.
 41 44  0  0  1  0            999 V2000
   18.0160   -9.3137   14.9152 N   0  0  0  0  0  0
   17.8512   -5.8774   12.2222 C   0  0  0  0  0  0
   17.7445   -8.3786   15.9114 N   0  0  0  0  0  0
   17.6595   -7.1738   12.3893 N   0  0  0  0  0  0
   17.6438  -10.6464   14.9259 C   0  0  0  0  0  0
   16.9260   -8.6555   16.8532 C   0  0  0  0  0  0
   18.5326   -7.4731   13.3108 C   0  0  0  0  0  0
   18.7375   -5.3394   13.0252 N   0  0  0  0  0  0
   17.1196   -5.0590   11.1929 C   0  0  0  0  0  0
   18.8957   -8.8500   13.8232 C   0  0  0  0  0  0
   16.5959  -10.9283   15.9965 C   0  0  0  0  0  0
   16.1965   -9.9315   16.9103 C   0  0  0  0  0  0
   16.8443   -7.6319   17.9872 C   0  0  0  0  0  0
   19.2192   -6.4062   13.7792 O   0  0  0  0  0  0
   15.8717   -6.4797   17.6992 C   0  0  0  0  0  0
   18.0895  -11.5043   14.1576 O   0  0  0  0  0  0
   17.7722   -4.0494   10.4450 C   0  0  0  0  0  0
   15.7455   -5.2598   10.9586 C   0  0  0  0  0  0
   14.9460   -6.5153   16.8877 O   0  0  0  0  0  0
   14.7969   -6.4409   11.7808 Cl  0  0  0  0  0  0
   19.0770   -3.7583   10.5810 F   0  0  0  0  0  0
   16.1452   -5.4146   18.5052 O   0  0  0  0  0  0
   16.0126  -12.2009   16.0579 C   0  0  0  0  0  0
   15.1291  -10.1827   17.7802 C   0  0  0  0  0  0
   15.7450   -3.5015    9.3075 C   0  0  0  0  0  0
   15.0732   -4.4734   10.0363 C   0  0  0  0  0  0
   17.0908   -3.2864    9.5096 C   0  0  0  0  0  0
   14.9928  -12.4582   16.9736 C   0  0  0  0  0  0
   14.5455  -11.4476   17.8225 C   0  0  0  0  0  0
   19.9226   -8.8275   14.1813 H   0  0  0  0  0  0
   18.9269   -9.5390   12.9786 H   0  0  0  0  0  0
   16.5454   -8.1086   18.9188 H   0  0  0  0  0  0
   17.8393   -7.2260   18.1781 H   0  0  0  0  0  0
   16.9331   -5.5524   19.0338 H   0  0  0  0  0  0
   16.3235  -12.9841   15.3807 H   0  0  0  0  0  0
   14.7631   -9.4216   18.4531 H   0  0  0  0  0  0
   15.2145   -2.9148    8.5820 H   0  0  0  0  0  0
   14.0160   -4.6145    9.8771 H   0  0  0  0  0  0
   17.6105   -2.5244    8.9478 H   0  0  0  0  0  0
   14.5314  -13.4345   17.0115 H   0  0  0  0  0  0
   13.7453  -11.6465   18.5185 H   0  0  0  0  0  0
  1  3  1  0  0  0
  1  5  1  0  0  0
  1 10  1  0  0  0
  2  4  1  0  0  0
  2  9  1  0  0  0
  2  8  2  0  0  0
  3  6  2  0  0  0
  4  7  2  0  0  0
  5 11  1  0  0  0
  5 16  2  0  0  0
  6 13  1  0  0  0
  6 12  1  0  0  0
  7 10  1  0  0  0
  7 14  1  0  0  0
  8 14  1  0  0  0
  9 17  1  0  0  0
  9 18  2  0  0  0
 10 30  1  0  0  0
 10 31  1  0  0  0
 11 12  2  0  0  0
 11 23  1  0  0  0
 12 24  1  0  0  0
 13 15  1  0  0  0
 13 32  1  0  0  0
 13 33  1  0  0  0
 15 19  2  0  0  0
 15 22  1  0  0  0
 17 21  1  0  0  0
 17 27  2  0  0  0
 18 20  1  0  0  0
 18 26  1  0  0  0
 22 34  1  0  0  0
 23 28  2  0  0  0
 23 35  1  0  0  0
 24 29  2  0  0  0
 24 36  1  0  0  0
 25 26  2  0  0  0
 25 27  1  0  0  0
 25 37  1  0  0  0
 26 38  1  0  0  0
 27 39  1  0  0  0
 28 29  1  0  0  0
 28 40  1  0  0  0
 29 41  1  0  0  0
M  END
> <s_m_entry_id>
6381

> <s_m_entry_name>
dock_pv.216

> <s_m_Source_Path>
/home/csk/Desktop/cluster/DUD-E-result/aldr

> <s_m_Source_File>
dock_pv.maegz

> <i_m_Source_File_Index>
216

> <chembl_id>
CHEMBL143241

> <chembl_pref_name>
None

> <i_lp_mmshare_version>
53161

> <i_f3d_flags>
0

> <r_lp_tautomer_probability>
1

> <s_lp_Force_Field>
OPLS_2005

> <r_lp_Energy>
31.315017

> <b_lp_Chiralities_Consistent>
1

> <s_lp_Variant>
CHEMBL1900_lig193-1

> <s_i_glide_gridfile>
glide-grid_2hv5

> <i_i_glide_lignum>
269

> <i_i_glide_rotatable_bonds>
6

> <r_i_docking_score>
-9.21838043854579

> <r_i_glide_ligand_efficiency>
-0.317875187536062

> <r_i_glide_ligand_efficiency_sa>
-0.976613286038904

> <r_i_glide_ligand_efficiency_ln>
-2.11077536246825

> <r_i_glide_gscore>
-9.21838043854579

> <r_i_glide_lipo>
-3.8326851897004

> <r_i_glide_hbond>
-0.294627612923426

> <r_i_glide_metal>
0

> <r_i_glide_rewards>
-2.50620604374996

> <r_i_glide_evdw>
-45.3224754333496

> <r_i_glide_ecoul>
-5.94978761672974

> <r_i_glide_erotb>
0.573730322004939

> <r_i_glide_esite>
0

> <r_i_glide_emodel>
-74.3082854921487

> <r_i_glide_energy>
-51.2722630500793

> <r_i_glide_einternal>
4.18814039230347

> <i_i_glide_confnum>
87

> <i_i_glide_posenum>
204

> <r_i_glide_eff_state_penalty>
0

> <s_user_duplicate_titles>
CHEMBL1900_lig193,235294

> <s_m_subgroup_title>
dock_pv

> <s_m_subgroupid>
dock_pv

> <b_m_subgroup_collapsed>
1

$$$$
CHEMBL1900_lig302
                    3D
 Schrodinger Suite 2021-1.
 38 41  0  0  1  0            999 V2000
   18.0316   -8.0917   15.4242 N   0  0  0  0  0  0
   17.4978   -7.3652   16.4844 N   0  0  0  0  0  0
   17.7451   -9.4062   15.1020 C   0  0  0  0  0  0
   16.5776   -7.8601   17.2301 C   0  0  0  0  0  0
   18.1112   -6.6120   13.3949 C   0  0  0  0  0  0
   18.6678   -5.7149   12.6333 N   0  0  0  0  0  0
   16.5109   -5.6912   11.7805 C   0  0  0  0  0  0
   16.4322   -6.9149   13.0286 S   0  0  0  0  0  0
   18.8880   -7.3104   14.5043 C   0  0  0  0  0  0
   16.6713   -9.9954   16.0065 C   0  0  0  0  0  0
   16.0695   -9.2302   17.0264 C   0  0  0  0  0  0
   17.8208   -5.1886   11.7114 C   0  0  0  0  0  0
   15.9858   -7.0143   18.3780 C   0  0  0  0  0  0
   16.6185   -5.6336   18.6200 C   0  0  0  0  0  0
   18.2708  -10.0205   14.1684 O   0  0  0  0  0  0
   15.5109   -5.1972   10.9483 C   0  0  0  0  0  0
   16.1450   -4.5901   18.1812 O   0  0  0  0  0  0
   13.7450   -5.8304   11.1392 Br  0  0  0  0  0  0
   17.7446   -5.7148   19.3809 O   0  0  0  0  0  0
   16.2587  -11.3169   15.7890 C   0  0  0  0  0  0
   18.1451   -4.2070   10.7567 C   0  0  0  0  0  0
   15.0388   -9.7990   17.7901 C   0  0  0  0  0  0
   17.1389   -3.7345    9.9110 C   0  0  0  0  0  0
   15.8362   -4.2175   10.0123 C   0  0  0  0  0  0
   15.2473  -11.8732   16.5717 C   0  0  0  0  0  0
   14.6356  -11.1148   17.5675 C   0  0  0  0  0  0
   19.4775   -6.5975   15.0838 H   0  0  0  0  0  0
   19.6495   -7.9473   14.0480 H   0  0  0  0  0  0
   14.9263   -6.8505   18.1808 H   0  0  0  0  0  0
   16.0409   -7.5766   19.3108 H   0  0  0  0  0  0
   18.0056   -6.6204   19.5609 H   0  0  0  0  0  0
   16.7102  -11.9144   15.0084 H   0  0  0  0  0  0
   19.1424   -3.8072   10.6873 H   0  0  0  0  0  0
   14.5456   -9.2432   18.5731 H   0  0  0  0  0  0
   17.3646   -2.9719    9.1796 H   0  0  0  0  0  0
   15.0629   -3.8240    9.3668 H   0  0  0  0  0  0
   14.9281  -12.8906   16.3975 H   0  0  0  0  0  0
   13.8421  -11.5459   18.1633 H   0  0  0  0  0  0
  1  2  1  0  0  0
  1  3  1  0  0  0
  1  9  1  0  0  0
  2  4  2  0  0  0
  3 10  1  0  0  0
  3 15  2  0  0  0
  4 13  1  0  0  0
  4 11  1  0  0  0
  5  9  1  0  0  0
  5  6  2  0  0  0
  5  8  1  0  0  0
  6 12  1  0  0  0
  7  8  1  0  0  0
  7 16  1  0  0  0
  7 12  2  0  0  0
  9 27  1  0  0  0
  9 28  1  0  0  0
 10 11  1  0  0  0
 10 20  2  0  0  0
 11 22  2  0  0  0
 12 21  1  0  0  0
 13 14  1  0  0  0
 13 29  1  0  0  0
 13 30  1  0  0  0
 14 17  2  0  0  0
 14 19  1  0  0  0
 16 18  1  0  0  0
 16 24  2  0  0  0
 19 31  1  0  0  0
 20 25  1  0  0  0
 20 32  1  0  0  0
 21 23  2  0  0  0
 21 33  1  0  0  0
 22 26  1  0  0  0
 22 34  1  0  0  0
 23 24  1  0  0  0
 23 35  1  0  0  0
 24 36  1  0  0  0
 25 26  2  0  0  0
 25 37  1  0  0  0
 26 38  1  0  0  0
M  END
> <s_m_entry_id>
6382

> <s_m_entry_name>
dock_pv.217

> <s_m_Source_Path>
/home/csk/Desktop/cluster/DUD-E-result/aldr

> <s_m_Source_File>
dock_pv.maegz

> <i_m_Source_File_Index>
217

> <chembl_id>
CHEMBL21038

> <chembl_pref_name>
None

> <i_lp_mmshare_version>
53161

> <i_f3d_flags>
0

> <r_lp_tautomer_probability>
1

> <s_lp_Force_Field>
OPLS_2005

> <r_lp_Energy>
24.512419

> <b_lp_Chiralities_Consistent>
1

> <s_lp_Variant>
CHEMBL1900_lig302-1

> <s_i_glide_gridfile>
glide-grid_2hv5

> <i_i_glide_lignum>
418

> <i_i_glide_rotatable_bonds>
5

> <r_i_docking_score>
-9.21217191110213

> <r_i_glide_ligand_efficiency>
-0.354314304273159

> <r_i_glide_ligand_efficiency_sa>
-1.04965473224977

> <r_i_glide_ligand_efficiency_ln>
-2.16344834572082

> <r_i_glide_gscore>
-9.21217191110213

> <r_i_glide_lipo>
-4.97668313046702

> <r_i_glide_hbond>
0

> <r_i_glide_metal>
0

> <r_i_glide_rewards>
-1.99603952427039

> <r_i_glide_evdw>
-48.9836044311523

> <r_i_glide_ecoul>
-1.46521580219269

> <r_i_glide_erotb>
0.429513335521797

> <r_i_glide_esite>
0

> <r_i_glide_emodel>
-76.0530435724826

> <r_i_glide_energy>
-50.448820233345

> <r_i_glide_einternal>
3.3744478225708

> <i_i_glide_confnum>
33

> <i_i_glide_posenum>
102

> <r_i_glide_eff_state_penalty>
0

> <s_user_duplicate_titles>
CHEMBL1900_lig302,24149

> <s_m_subgroup_title>
dock_pv

> <s_m_subgroupid>
dock_pv

> <b_m_subgroup_collapsed>
1

$$$$
CHEMBL1900_lig11
                    3D
 Schrodinger Suite 2021-1.
 36 38  0  0  1  0            999 V2000
   15.4767   -6.5150   17.8911 N   0  0  0  0  0  0
   17.5068   -8.5530   16.0096 C   0  0  0  0  0  0
   15.7450   -6.9145   16.6505 C   0  0  0  0  0  0
   17.2307   -7.1538   16.5901 C   0  0  1  0  0  0
   16.5450   -6.4425   18.6968 C   0  0  0  0  0  0
   17.5620   -6.9418   17.9800 N   0  0  0  0  0  0
   17.9954   -8.7685   14.6992 C   0  0  0  0  0  0
   18.5433   -7.4478   13.5451 S   0  0  1  0  0  0
   18.1085  -10.0710   14.2024 C   0  0  0  0  0  0
   17.1822   -9.6749   16.7912 C   0  0  0  0  0  0
   16.8843   -6.7039   13.1418 C   0  0  0  0  0  0
   14.9450   -7.0795   15.7430 O   0  0  0  0  0  0
   19.3448   -6.4292   14.3553 O   0  0  0  0  0  0
   16.5390   -6.1182   19.8791 O   0  0  0  0  0  0
   17.2982  -10.9663   16.2867 C   0  0  0  0  0  0
   16.8910   -5.7695   11.9328 C   0  0  0  0  0  0
   17.7454  -11.1648   14.9844 C   0  0  0  0  0  0
   16.7742   -3.9221    9.8477 C   0  0  0  0  0  0
   16.8813  -12.3128   17.2812 Cl  0  0  0  0  0  0
   16.6956   -2.7542    8.5820 Cl  0  0  0  0  0  0
   15.7020   -5.5842   11.2215 C   0  0  0  0  0  0
   18.0225   -5.0247   11.5857 C   0  0  0  0  0  0
   17.9697   -4.1114   10.5383 C   0  0  0  0  0  0
   15.6411   -4.6592   10.1820 C   0  0  0  0  0  0
   14.5301   -6.3979   18.2194 H   0  0  0  0  0  0
   17.7152   -6.3630   16.0243 H   0  0  0  0  0  0
   18.5290   -6.8143   18.2492 H   0  0  0  0  0  0
   18.4748  -10.2392   13.2000 H   0  0  0  0  0  0
   16.8050   -9.5411   17.7938 H   0  0  0  0  0  0
   16.5405   -6.1167   13.9888 H   0  0  0  0  0  0
   16.1686   -7.5116   12.9889 H   0  0  0  0  0  0
   17.8313  -12.1646   14.5861 H   0  0  0  0  0  0
   14.8089   -6.1304   11.4918 H   0  0  0  0  0  0
   18.9444   -5.1284   12.1377 H   0  0  0  0  0  0
   18.8415   -3.5273   10.2841 H   0  0  0  0  0  0
   14.7146   -4.5066    9.6471 H   0  0  0  0  0  0
  1  3  1  0  0  0
  1  5  1  0  0  0
  1 25  1  0  0  0
  2  4  1  0  0  0
  2  7  2  0  0  0
  2 10  1  0  0  0
  3  4  1  0  0  0
  3 12  2  0  0  0
  4  6  1  0  0  0
  4 26  1  0  0  0
  5  6  1  0  0  0
  5 14  2  0  0  0
  6 27  1  0  0  0
  7  8  1  0  0  0
  7  9  1  0  0  0
  8 11  1  0  0  0
  8 13  2  0  0  0
  9 17  2  0  0  0
  9 28  1  0  0  0
 10 15  2  0  0  0
 10 29  1  0  0  0
 11 16  1  0  0  0
 11 30  1  0  0  0
 11 31  1  0  0  0
 15 17  1  0  0  0
 15 19  1  0  0  0
 16 21  2  0  0  0
 16 22  1  0  0  0
 17 32  1  0  0  0
 18 23  1  0  0  0
 18 20  1  0  0  0
 18 24  2  0  0  0
 21 24  1  0  0  0
 21 33  1  0  0  0
 22 23  2  0  0  0
 22 34  1  0  0  0
 23 35  1  0  0  0
 24 36  1  0  0  0
M  END
> <s_m_entry_id>
6383

> <s_m_entry_name>
dock_pv.218

> <s_m_Source_Path>
/home/csk/Desktop/cluster/DUD-E-result/aldr

> <s_m_Source_File>
dock_pv.maegz

> <i_m_Source_File_Index>
218

> <chembl_id>
CHEMBL19781

> <chembl_pref_name>
None

> <i_lp_mmshare_version>
53161

> <i_f3d_flags>
0

> <r_lp_tautomer_probability>
0.999999999781369

> <s_lp_Force_Field>
OPLS_2005

> <r_lp_Energy>
20.68526

> <b_lp_Chiralities_Consistent>
1

> <s_lp_Variant>
CHEMBL1900_lig11-2

> <s_i_glide_gridfile>
glide-grid_2hv5

> <i_i_glide_lignum>
18

> <i_i_glide_rotatable_bonds>
4

> <r_i_docking_score>
-9.21158108876788

> <r_i_glide_ligand_efficiency>
-0.383815878698662

> <r_i_glide_ligand_efficiency_sa>
-1.10711657108779

> <r_i_glide_ligand_efficiency_ln>
-2.20475404645534

> <r_i_glide_gscore>
-9.21158108876788

> <r_i_glide_lipo>
-3.99529762565102

> <r_i_glide_hbond>
-0.195350328360941

> <r_i_glide_metal>
0

> <r_i_glide_rewards>
-2.91163258359803

> <r_i_glide_evdw>
-48.9773788452148

> <r_i_glide_ecoul>
-1.26383113861084

> <r_i_glide_erotb>
0.52914306189447

> <r_i_glide_esite>
0

> <r_i_glide_emodel>
-74.4372630392277

> <r_i_glide_energy>
-50.2412099838257

> <r_i_glide_einternal>
4.78337478637695

> <i_i_glide_confnum>
5

> <i_i_glide_posenum>
136

> <r_i_glide_eff_state_penalty>
0

> <s_user_duplicate_titles>
CHEMBL1900_lig11,23642

> <s_m_subgroup_title>
dock_pv

> <s_m_subgroupid>
dock_pv

> <b_m_subgroup_collapsed>
1

$$$$
CHEMBL1900_lig662 
                    3D
 Schrodinger Suite 2021-1.
 45 47  0  0  1  0            999 V2000
   17.9083   -7.1695   14.7810 C   0  0  0  0  0  0
   16.5934   -7.0966   14.3159 C   0  0  0  0  0  0
   15.5718   -6.9154   15.2610 C   0  0  0  0  0  0
   15.8426   -6.6590   16.5995 C   0  0  0  0  0  0
   17.1623   -6.6031   17.0289 C   0  0  0  0  0  0
   18.1675   -6.9339   16.1262 C   0  0  0  0  0  0
   17.5218   -6.1151   18.3672 C   0  0  0  0  0  0
   17.1049   -4.9387   18.8892 C   0  0  0  0  0  0
   17.4610   -4.5310   20.2135 C   0  0  0  0  0  0
   16.5186   -3.6888   20.6963 N   0  0  0  0  0  0
   15.7557   -3.0237   19.8084 C   0  0  0  0  0  0
   16.1450   -3.6530   18.1810 S   0  0  0  0  0  0
   18.4412   -4.9150   20.8403 O   0  0  0  0  0  0
   14.9450   -2.1227   20.0119 O   0  0  0  0  0  0
   16.4666   -3.3146   22.1325 C   0  0  0  0  0  0
   16.2649   -4.4876   23.1169 C   0  0  0  0  0  0
   16.5450   -5.6411   22.8862 O   0  0  0  0  0  0
   15.7460   -4.0427   24.2911 O   0  0  0  0  0  0
   18.9746   -7.3683   13.9392 O   0  0  0  0  0  0
   19.1038   -8.6948   13.4501 C   0  0  0  0  0  0
   16.3731   -7.2166   12.9571 O   0  0  0  0  0  0
   15.4566   -6.3188   12.3131 C   0  0  0  0  0  0
   16.1592   -5.3364   11.3803 C   0  0  0  0  0  0
   17.5499   -5.1777   11.3810 C   0  0  0  0  0  0
   18.1428   -4.2307   10.5487 C   0  0  0  0  0  0
   17.3501   -3.4498    9.7114 C   0  0  0  0  0  0
   15.9671   -3.6090    9.6974 C   0  0  0  0  0  0
   15.3727   -4.5492   10.5336 C   0  0  0  0  0  0
   14.5450   -6.9150   14.9810 H   0  0  0  0  0  0
   15.0318   -6.4559   17.2846 H   0  0  0  0  0  0
   19.1970   -6.9150   16.4439 H   0  0  0  0  0  0
   18.1450   -6.7783   18.9530 H   0  0  0  0  0  0
   15.7350   -2.5272   22.3231 H   0  0  0  0  0  0
   17.4492   -2.9150   22.3313 H   0  0  0  0  0  0
   15.4459   -3.1309   24.2793 H   0  0  0  0  0  0
   20.0805   -8.8061   12.9810 H   0  0  0  0  0  0
   19.0362   -9.4362   14.2482 H   0  0  0  0  0  0
   18.3425   -8.9150   12.7018 H   0  0  0  0  0  0
   14.7638   -6.9150   11.7208 H   0  0  0  0  0  0
   14.8447   -5.7288   12.9897 H   0  0  0  0  0  0
   18.1739   -5.7694   12.0342 H   0  0  0  0  0  0
   19.2123   -4.0952   10.5592 H   0  0  0  0  0  0
   17.8095   -2.7134    9.0688 H   0  0  0  0  0  0
   15.3517   -3.0014    9.0490 H   0  0  0  0  0  0
   14.2967   -4.6541   10.5290 H   0  0  0  0  0  0
  1  2  2  0  0  0
  1  6  1  0  0  0
  1 19  1  0  0  0
  2  3  1  0  0  0
  2 21  1  0  0  0
  3  4  2  0  0  0
  3 29  1  0  0  0
  4  5  1  0  0  0
  4 30  1  0  0  0
  5  6  2  0  0  0
  5  7  1  0  0  0
  6 31  1  0  0  0
  7  8  2  0  0  0
  7 32  1  0  0  0
  8  9  1  0  0  0
  8 12  1  0  0  0
  9 10  1  0  0  0
  9 13  2  0  0  0
 10 11  1  0  0  0
 10 15  1  0  0  0
 11 12  1  0  0  0
 11 14  2  0  0  0
 15 16  1  0  0  0
 15 33  1  0  0  0
 15 34  1  0  0  0
 16 17  2  0  0  0
 16 18  1  0  0  0
 18 35  1  0  0  0
 19 20  1  0  0  0
 20 36  1  0  0  0
 20 37  1  0  0  0
 20 38  1  0  0  0
 21 22  1  0  0  0
 22 23  1  0  0  0
 22 39  1  0  0  0
 22 40  1  0  0  0
 23 24  2  0  0  0
 23 28  1  0  0  0
 24 25  1  0  0  0
 24 41  1  0  0  0
 25 26  2  0  0  0
 25 42  1  0  0  0
 26 27  1  0  0  0
 26 43  1  0  0  0
 27 28  2  0  0  0
 27 44  1  0  0  0
 28 45  1  0  0  0
M  END
> <s_m_entry_id>
6384

> <s_m_entry_name>
dock_pv.219

> <s_m_Source_Path>
/home/csk/Desktop/cluster/DUD-E-result/aldr

> <s_m_Source_File>
dock_pv.maegz

> <i_m_Source_File_Index>
219

> <chembl_id>
CHEMBL4455326

> <chembl_pref_name>
None

> <i_lp_mmshare_version>
53161

> <i_f3d_flags>
0

> <r_lp_tautomer_probability>
1

> <s_lp_Force_Field>
OPLS_2005

> <r_lp_Energy>
27.051366

> <b_lp_Chiralities_Consistent>
1

> <s_lp_Variant>
CHEMBL1900_lig662 -1

> <s_i_glide_gridfile>
glide-grid_2hv5

> <i_i_glide_lignum>
788

> <i_i_glide_rotatable_bonds>
8

> <r_i_docking_score>
-9.20515824334163

> <r_i_glide_ligand_efficiency>
-0.328755651547915

> <r_i_glide_ligand_efficiency_sa>
-0.998295784823356

> <r_i_glide_ligand_efficiency_ln>
-2.12482079775346

> <r_i_glide_gscore>
-9.20515824334163

> <r_i_glide_lipo>
-4.23414952898936

> <r_i_glide_hbond>
0

> <r_i_glide_metal>
0

> <r_i_glide_rewards>
-3.10123951466504

> <r_i_glide_evdw>
-45.1758117675781

> <r_i_glide_ecoul>
-2.31938076019287

> <r_i_glide_erotb>
0.736928502720603

> <r_i_glide_esite>
0

> <r_i_glide_emodel>
-49.0463337848103

> <r_i_glide_energy>
-47.495192527771

> <r_i_glide_einternal>
15.7471351623535

> <i_i_glide_confnum>
40

> <i_i_glide_posenum>
355

> <r_i_glide_eff_state_penalty>
0

> <s_user_duplicate_titles>
CHEMBL1900_lig662 

> <s_m_subgroup_title>
dock_pv

> <s_m_subgroupid>
dock_pv

> <b_m_subgroup_collapsed>
1

$$$$
CHEMBL1900_lig592
                    3D
 Schrodinger Suite 2021-1.
 31 32  0  0  1  0            999 V2000
   16.5445   -7.5513   14.8027 C   0  0  0  0  0  0
   16.5908   -8.3935   15.8659 N   0  0  0  0  0  0
   17.3441   -9.5086   15.8023 C   0  0  0  0  0  0
   18.1448   -9.5496   14.2033 S   0  0  0  0  0  0
   17.3490   -8.0550   13.7131 C   0  0  0  0  0  0
   17.4975  -10.3769   16.6624 O   0  0  0  0  0  0
   15.8876   -6.5168   14.7904 O   0  0  0  0  0  0
   17.4944   -7.4698   12.4999 C   0  0  0  0  0  0
   16.9010   -6.2629   11.8761 C   0  0  0  0  0  0
   17.7463   -5.3153   11.2942 C   0  0  0  0  0  0
   17.2222   -4.2625   10.5495 C   0  0  0  0  0  0
   15.8443   -4.1529   10.3806 C   0  0  0  0  0  0
   14.9872   -5.0719   10.9810 C   0  0  0  0  0  0
   15.5191   -6.1150   11.7373 C   0  0  0  0  0  0
   15.8328   -8.0719   17.1070 C   0  0  0  0  0  0
   16.5709   -7.0418   17.9808 C   0  0  0  0  0  0
   15.7453   -6.3418   18.7808 O   0  0  0  0  0  0
   17.7932   -6.9153   17.9353 O   0  0  0  0  0  0
   15.3450   -3.1259    9.6254 O   0  0  0  0  0  0
   16.2782   -5.3413   19.6402 C   0  0  0  0  0  0
   18.1450   -8.0007   11.8282 H   0  0  0  0  0  0
   18.8178   -5.4106   11.3889 H   0  0  0  0  0  0
   17.8807   -3.5411   10.0893 H   0  0  0  0  0  0
   13.9167   -4.9847   10.8644 H   0  0  0  0  0  0
   14.8623   -6.8452   12.1743 H   0  0  0  0  0  0
   15.6915   -8.9713   17.7082 H   0  0  0  0  0  0
   14.8218   -7.7343   16.8759 H   0  0  0  0  0  0
   14.4000   -3.1866    9.4039 H   0  0  0  0  0  0
   15.4755   -4.7958   20.1344 H   0  0  0  0  0  0
   16.8742   -4.6176   19.0809 H   0  0  0  0  0  0
   16.9132   -5.7865   20.4080 H   0  0  0  0  0  0
  1  2  1  0  0  0
  1  5  1  0  0  0
  1  7  2  0  0  0
  2  3  1  0  0  0
  2 15  1  0  0  0
  3  4  1  0  0  0
  3  6  2  0  0  0
  4  5  1  0  0  0
  5  8  2  0  0  0
  8  9  1  0  0  0
  8 21  1  0  0  0
  9 10  2  0  0  0
  9 14  1  0  0  0
 10 11  1  0  0  0
 10 22  1  0  0  0
 11 12  2  0  0  0
 11 23  1  0  0  0
 12 13  1  0  0  0
 12 19  1  0  0  0
 13 14  2  0  0  0
 13 24  1  0  0  0
 14 25  1  0  0  0
 15 16  1  0  0  0
 15 26  1  0  0  0
 15 27  1  0  0  0
 16 17  1  0  0  0
 16 18  2  0  0  0
 17 20  1  0  0  0
 19 28  1  0  0  0
 20 29  1  0  0  0
 20 30  1  0  0  0
 20 31  1  0  0  0
M  END
> <s_m_entry_id>
6385

> <s_m_entry_name>
dock_pv.220

> <s_m_Source_Path>
/home/csk/Desktop/cluster/DUD-E-result/aldr

> <s_m_Source_File>
dock_pv.maegz

> <i_m_Source_File_Index>
220

> <chembl_id>
CHEMBL2260157

> <chembl_pref_name>
None

> <i_lp_mmshare_version>
53161

> <i_f3d_flags>
0

> <r_lp_tautomer_probability>
1

> <s_lp_Force_Field>
OPLS_2005

> <r_lp_Energy>
13.688378

> <b_lp_Chiralities_Consistent>
1

> <s_lp_Variant>
CHEMBL1900_lig592-1

> <s_i_glide_gridfile>
glide-grid_2hv5

> <i_i_glide_lignum>
715

> <i_i_glide_rotatable_bonds>
5

> <r_i_docking_score>
-9.09129648535835

> <r_i_glide_ligand_efficiency>
-0.454564824267918

> <r_i_glide_ligand_efficiency_sa>
-1.23387876564508

> <r_i_glide_ligand_efficiency_ln>
-2.27525165925897

> <r_i_glide_gscore>
-9.09129648535835

> <r_i_glide_lipo>
-3.18909493443047

> <r_i_glide_hbond>
-0.331427947675347

> <r_i_glide_metal>
0

> <r_i_glide_rewards>
-3.5643890464714

> <r_i_glide_evdw>
-34.3822479248047

> <r_i_glide_ecoul>
-6.16300630569458

> <r_i_glide_erotb>
0.637178785313294

> <r_i_glide_esite>
0

> <r_i_glide_emodel>
-57.1278382781301

> <r_i_glide_energy>
-40.5452542304993

> <r_i_glide_einternal>
3.79361939430237

> <i_i_glide_confnum>
5

> <i_i_glide_posenum>
189

> <r_i_glide_eff_state_penalty>
0

> <s_user_duplicate_titles>
CHEMBL1900_lig592

> <s_m_subgroup_title>
dock_pv

> <s_m_subgroupid>
dock_pv

> <b_m_subgroup_collapsed>
1

$$$$
CHEMBL1900_lig259
                    3D
 Schrodinger Suite 2021-1.
 41 44  0  0  1  0            999 V2000
   18.0208   -8.4450   15.6366 N   0  0  0  0  0  0
   17.4376   -7.8090   16.7243 N   0  0  0  0  0  0
   17.7448   -9.7233   15.1823 C   0  0  0  0  0  0
   16.4908   -8.3650   17.3812 C   0  0  0  0  0  0
   18.1602   -6.7721   13.7882 C   0  0  0  0  0  0
   18.7775   -5.9131   13.0303 N   0  0  0  0  0  0
   18.9078   -7.5757   14.8347 C   0  0  0  0  0  0
   16.6821  -10.4112   16.0280 C   0  0  0  0  0  0
   16.4432   -6.9149   13.4821 S   0  0  0  0  0  0
   16.0256   -9.7312   17.0732 C   0  0  0  0  0  0
   15.7993   -7.5837   18.5133 C   0  0  0  0  0  0
   16.6278   -5.8594   12.1189 C   0  0  0  0  0  0
   17.9637   -5.4064   12.0648 C   0  0  0  0  0  0
   16.4090   -6.2808   19.0788 C   0  0  0  0  0  0
   18.2690  -10.2318   14.1860 O   0  0  0  0  0  0
   15.6797   -5.4597   11.1817 C   0  0  0  0  0  0
   15.7457   -5.5199   19.7795 O   0  0  0  0  0  0
   18.3467   -4.5155   11.0510 C   0  0  0  0  0  0
   16.1044   -4.5975   10.1737 C   0  0  0  0  0  0
   17.7319   -6.1107   18.8159 O   0  0  0  0  0  0
   17.4071   -4.1177   10.1123 C   0  0  0  0  0  0
   16.3268  -11.7317   15.7236 C   0  0  0  0  0  0
   15.0038  -10.3848   17.7793 C   0  0  0  0  0  0
   15.1345   -4.1814    9.1170 C   0  0  0  0  0  0
   15.3188  -12.3720   16.4438 C   0  0  0  0  0  0
   14.6552  -11.6980   17.4665 C   0  0  0  0  0  0
   19.4736   -6.9148   15.4932 H   0  0  0  0  0  0
   19.6790   -8.1647   14.3335 H   0  0  0  0  0  0
   14.7837   -7.3577   18.1815 H   0  0  0  0  0  0
   15.7460   -8.2401   19.3799 H   0  0  0  0  0  0
   14.6603   -5.8162   11.2322 H   0  0  0  0  0  0
   19.3445   -4.1355   10.9802 H   0  0  0  0  0  0
   18.0097   -6.7549   18.1530 H   0  0  0  0  0  0
   17.6969   -3.4416    9.3207 H   0  0  0  0  0  0
   16.8174  -12.2634   14.9195 H   0  0  0  0  0  0
   14.4724   -9.8963   18.5813 H   0  0  0  0  0  0
   15.1501   -3.0963    8.9780 H   0  0  0  0  0  0
   15.3443   -4.6775    8.1800 H   0  0  0  0  0  0
   14.1465   -4.5152    9.3959 H   0  0  0  0  0  0
   15.0437  -13.3888   16.2002 H   0  0  0  0  0  0
   13.8646  -12.1916   18.0151 H   0  0  0  0  0  0
  1  2  1  0  0  0
  1  3  1  0  0  0
  1  7  1  0  0  0
  2  4  2  0  0  0
  3  8  1  0  0  0
  3 15  2  0  0  0
  4 11  1  0  0  0
  4 10  1  0  0  0
  5  7  1  0  0  0
  5  6  2  0  0  0
  5  9  1  0  0  0
  6 13  1  0  0  0
  7 27  1  0  0  0
  7 28  1  0  0  0
  8 10  1  0  0  0
  8 22  2  0  0  0
  9 12  1  0  0  0
 10 23  2  0  0  0
 11 14  1  0  0  0
 11 29  1  0  0  0
 11 30  1  0  0  0
 12 16  1  0  0  0
 12 13  2  0  0  0
 13 18  1  0  0  0
 14 17  2  0  0  0
 14 20  1  0  0  0
 16 19  2  0  0  0
 16 31  1  0  0  0
 18 21  2  0  0  0
 18 32  1  0  0  0
 19 24  1  0  0  0
 19 21  1  0  0  0
 20 33  1  0  0  0
 21 34  1  0  0  0
 22 25  1  0  0  0
 22 35  1  0  0  0
 23 26  1  0  0  0
 23 36  1  0  0  0
 24 37  1  0  0  0
 24 38  1  0  0  0
 24 39  1  0  0  0
 25 26  2  0  0  0
 25 40  1  0  0  0
 26 41  1  0  0  0
M  END
> <s_m_entry_id>
6386

> <s_m_entry_name>
dock_pv.221

> <s_m_Source_Path>
/home/csk/Desktop/cluster/DUD-E-result/aldr

> <s_m_Source_File>
dock_pv.maegz

> <i_m_Source_File_Index>
221

> <chembl_id>
CHEMBL418008

> <chembl_pref_name>
None

> <i_lp_mmshare_version>
53161

> <i_f3d_flags>
0

> <r_lp_tautomer_probability>
1

> <s_lp_Force_Field>
OPLS_2005

> <r_lp_Energy>
25.546763

> <b_lp_Chiralities_Consistent>
1

> <s_lp_Variant>
CHEMBL1900_lig259-1

> <s_i_glide_gridfile>
glide-grid_2hv5

> <i_i_glide_lignum>
373

> <i_i_glide_rotatable_bonds>
5

> <r_i_docking_score>
-9.08646093569815

> <r_i_glide_ligand_efficiency>
-0.349479266757621

> <r_i_glide_ligand_efficiency_sa>
-1.03533095263494

> <r_i_glide_ligand_efficiency_ln>
-2.13392553563855

> <r_i_glide_gscore>
-9.08646093569815

> <r_i_glide_lipo>
-4.49085913174165

> <r_i_glide_hbond>
-0.32

> <r_i_glide_metal>
0

> <r_i_glide_rewards>
-2.37045660509541

> <r_i_glide_evdw>
-40.5578880310059

> <r_i_glide_ecoul>
-3.02339172363281

> <r_i_glide_erotb>
0.576257961234132

> <r_i_glide_esite>
0

> <r_i_glide_emodel>
-62.4417617837003

> <r_i_glide_energy>
-43.5812797546387

> <r_i_glide_einternal>
3.7199113368988

> <i_i_glide_confnum>
18

> <i_i_glide_posenum>
111

> <r_i_glide_eff_state_penalty>
0

> <s_user_duplicate_titles>
CHEMBL1900_lig259,24140

> <s_m_subgroup_title>
dock_pv

> <s_m_subgroupid>
dock_pv

> <b_m_subgroup_collapsed>
1

$$$$
CHEMBL1900_lig13
                    3D
 Schrodinger Suite 2021-1.
 37 39  0  0  1  0            999 V2000
   18.4141   -7.8510   14.0740 S   0  0  0  0  0  0
   15.3450   -6.5150   18.1810 N   0  0  0  0  0  0
   17.2517   -8.6726   16.5358 C   0  0  0  0  0  0
   15.6816   -6.8222   16.9317 C   0  0  0  0  0  0
   17.1295   -7.2076   16.9826 C   0  0  1  0  0  0
   16.3731   -6.4168   19.0332 C   0  0  0  0  0  0
   17.7622   -9.0387   15.2733 C   0  0  0  0  0  0
   17.4152   -6.9150   18.3633 N   0  0  0  0  0  0
   16.8693   -6.9200   13.4756 C   0  0  0  0  0  0
   18.9450   -8.6590   12.9810 O   0  0  0  0  0  0
   19.3069   -6.9150   14.7636 O   0  0  0  0  0  0
   17.7474  -10.3906   14.8942 C   0  0  0  0  0  0
   16.7346   -9.6778   17.3691 C   0  0  0  0  0  0
   14.9450   -6.9150   15.9605 O   0  0  0  0  0  0
   16.3661   -5.8632   20.1274 O   0  0  0  0  0  0
   16.7331  -11.0138   16.9810 C   0  0  0  0  0  0
   16.9789   -6.0467   12.2333 C   0  0  0  0  0  0
   17.2440  -11.3721   15.7410 C   0  0  0  0  0  0
   16.9946   -4.1818   10.1650 C   0  0  0  0  0  0
   16.0916  -12.2166   18.0390 Cl  0  0  0  0  0  0
   16.9932   -2.9812    8.9253 Cl  0  0  0  0  0  0
   15.8335   -5.8484   11.4547 C   0  0  0  0  0  0
   18.1363   -5.3151   11.9620 C   0  0  0  0  0  0
   18.1450   -4.3908   10.9197 C   0  0  0  0  0  0
   15.8397   -4.9149   10.4222 C   0  0  0  0  0  0
   14.3917   -6.3274   18.4476 H   0  0  0  0  0  0
   17.7016   -6.4979   16.3961 H   0  0  0  0  0  0
   18.2385   -7.2796   18.8227 H   0  0  0  0  0  0
   16.5809   -6.2512   14.2781 H   0  0  0  0  0  0
   16.0933   -7.6698   13.3464 H   0  0  0  0  0  0
   18.1246  -10.7017   13.9307 H   0  0  0  0  0  0
   16.2980   -9.4112   18.3200 H   0  0  0  0  0  0
   17.2422  -12.4065   15.4287 H   0  0  0  0  0  0
   14.9189   -6.3793   11.6768 H   0  0  0  0  0  0
   19.0119   -5.4331   12.5815 H   0  0  0  0  0  0
   19.0284   -3.8059   10.7193 H   0  0  0  0  0  0
   14.9450   -4.7395    9.8421 H   0  0  0  0  0  0
  1  7  1  0  0  0
  1  9  1  0  0  0
  1 10  2  0  0  0
  1 11  2  0  0  0
  2  4  1  0  0  0
  2  6  1  0  0  0
  2 26  1  0  0  0
  3  7  1  0  0  0
  3  5  1  0  0  0
  3 13  2  0  0  0
  4  5  1  0  0  0
  4 14  2  0  0  0
  5  8  1  0  0  0
  5 27  1  0  0  0
  6  8  1  0  0  0
  6 15  2  0  0  0
  7 12  2  0  0  0
  8 28  1  0  0  0
  9 17  1  0  0  0
  9 29  1  0  0  0
  9 30  1  0  0  0
 12 18  1  0  0  0
 12 31  1  0  0  0
 13 16  1  0  0  0
 13 32  1  0  0  0
 16 18  2  0  0  0
 16 20  1  0  0  0
 17 22  2  0  0  0
 17 23  1  0  0  0
 18 33  1  0  0  0
 19 24  1  0  0  0
 19 21  1  0  0  0
 19 25  2  0  0  0
 22 25  1  0  0  0
 22 34  1  0  0  0
 23 24  2  0  0  0
 23 35  1  0  0  0
 24 36  1  0  0  0
 25 37  1  0  0  0
M  END
> <s_m_entry_id>
6387

> <s_m_entry_name>
dock_pv.222

> <s_m_Source_Path>
/home/csk/Desktop/cluster/DUD-E-result/aldr

> <s_m_Source_File>
dock_pv.maegz

> <i_m_Source_File_Index>
222

> <chembl_id>
CHEMBL19649

> <chembl_pref_name>
None

> <i_lp_mmshare_version>
53161

> <i_f3d_flags>
0

> <r_lp_tautomer_probability>
0.999999999781369

> <s_lp_Force_Field>
OPLS_2005

> <r_lp_Energy>
23.812615

> <b_lp_Chiralities_Consistent>
1

> <s_lp_Variant>
CHEMBL1900_lig13-2

> <s_i_glide_gridfile>
glide-grid_2hv5

> <i_i_glide_lignum>
23

> <i_i_glide_rotatable_bonds>
4

> <r_i_docking_score>
-9.07374665375439

> <r_i_glide_ligand_efficiency>
-0.362949866150176

> <r_i_glide_ligand_efficiency_sa>
-1.0612718455664

> <r_i_glide_ligand_efficiency_ln>
-2.15074987518455

> <r_i_glide_gscore>
-9.07374665375439

> <r_i_glide_lipo>
-3.8120414807735

> <r_i_glide_hbond>
-0.381742791857973

> <r_i_glide_metal>
0

> <r_i_glide_rewards>
-2.75918681175172

> <r_i_glide_evdw>
-46.6595191955566

> <r_i_glide_ecoul>
-1.86306703090668

> <r_i_glide_erotb>
0.491660445042628

> <r_i_glide_esite>
0

> <r_i_glide_emodel>
-68.1572427823994

> <r_i_glide_energy>
-48.5225862264633

> <r_i_glide_einternal>
3.78608965873718

> <i_i_glide_confnum>
2

> <i_i_glide_posenum>
214

> <r_i_glide_eff_state_penalty>
0

> <s_user_duplicate_titles>
CHEMBL1900_lig13,23643

> <s_m_subgroup_title>
dock_pv

> <s_m_subgroupid>
dock_pv

> <b_m_subgroup_collapsed>
1

$$$$
CHEMBL1900_lig144
                    3D
 Schrodinger Suite 2021-1.
 42 45  0  0  1  0            999 V2000
   17.9321   -8.3226   15.4069 N   0  0  0  0  0  0
   17.3577   -7.6494   16.4811 N   0  0  0  0  0  0
   17.7455   -9.6533   15.0809 C   0  0  0  0  0  0
   16.4695   -8.2131   17.2161 C   0  0  0  0  0  0
   17.7210   -6.9149   13.3717 C   0  0  0  0  0  0
   16.7350  -10.3329   15.9942 C   0  0  0  0  0  0
   18.6542   -7.4609   14.4417 C   0  0  0  0  0  0
   16.4880   -7.2950   13.1479 N   0  0  0  0  0  0
   17.0685   -5.6441   11.7803 C   0  0  0  0  0  0
   16.0698   -9.6194   17.0112 C   0  0  0  0  0  0
   18.1498   -5.9092   12.5613 O   0  0  0  0  0  0
   15.8034   -7.4354   18.3711 C   0  0  0  0  0  0
   16.0733   -6.5149   12.1793 C   0  0  0  0  0  0
   16.2476   -5.9851   18.6447 C   0  0  0  0  0  0
   18.3044  -10.2141   14.1335 O   0  0  0  0  0  0
   17.1040   -4.5195   10.8131 C   0  0  0  0  0  0
   16.5428   -5.1645   17.7825 O   0  0  0  0  0  0
   16.1763   -5.6836   19.9695 O   0  0  0  0  0  0
   16.4371  -11.6857   15.7800 C   0  0  0  0  0  0
   15.0930  -10.2727   17.7798 C   0  0  0  0  0  0
   18.2698   -3.7947   10.5586 C   0  0  0  0  0  0
   15.9030   -4.1371   10.2123 C   0  0  0  0  0  0
   15.4750  -12.3234   16.5626 C   0  0  0  0  0  0
   14.8024  -11.6179   17.5581 C   0  0  0  0  0  0
   15.8671   -3.0067    9.4120 C   0  0  0  0  0  0
   18.2169   -2.6431    9.7811 C   0  0  0  0  0  0
   17.0122   -2.2582    9.2066 C   0  0  0  0  0  0
   19.1542   -6.6575   14.9850 H   0  0  0  0  0  0
   19.4702   -8.0063   13.9628 H   0  0  0  0  0  0
   14.7314   -7.3866   18.1796 H   0  0  0  0  0  0
   15.9434   -8.0060   19.2899 H   0  0  0  0  0  0
   15.0652   -6.5657   11.7924 H   0  0  0  0  0  0
   16.4946   -4.7866   20.1072 H   0  0  0  0  0  0
   16.9384  -12.2426   14.9992 H   0  0  0  0  0  0
   14.5559   -9.7593   18.5633 H   0  0  0  0  0  0
   19.2089   -4.1025   10.9809 H   0  0  0  0  0  0
   14.9836   -4.6756   10.3963 H   0  0  0  0  0  0
   15.2455  -13.3652   16.3909 H   0  0  0  0  0  0
   14.0513  -12.1147   18.1550 H   0  0  0  0  0  0
   14.9451   -2.6779    8.9809 H   0  0  0  0  0  0
   19.1007   -2.0400    9.6393 H   0  0  0  0  0  0
   16.9447   -1.3731    8.5950 H   0  0  0  0  0  0
  1  2  1  0  0  0
  1  3  1  0  0  0
  1  7  1  0  0  0
  2  4  2  0  0  0
  3  6  1  0  0  0
  3 15  2  0  0  0
  4 12  1  0  0  0
  4 10  1  0  0  0
  5  7  1  0  0  0
  5  8  2  0  0  0
  5 11  1  0  0  0
  6 10  2  0  0  0
  6 19  1  0  0  0
  7 28  1  0  0  0
  7 29  1  0  0  0
  8 13  1  0  0  0
  9 11  1  0  0  0
  9 16  1  0  0  0
  9 13  2  0  0  0
 10 20  1  0  0  0
 12 14  1  0  0  0
 12 30  1  0  0  0
 12 31  1  0  0  0
 13 32  1  0  0  0
 14 17  2  0  0  0
 14 18  1  0  0  0
 16 21  2  0  0  0
 16 22  1  0  0  0
 18 33  1  0  0  0
 19 23  2  0  0  0
 19 34  1  0  0  0
 20 24  2  0  0  0
 20 35  1  0  0  0
 21 26  1  0  0  0
 21 36  1  0  0  0
 22 25  2  0  0  0
 22 37  1  0  0  0
 23 24  1  0  0  0
 23 38  1  0  0  0
 24 39  1  0  0  0
 25 27  1  0  0  0
 25 40  1  0  0  0
 26 27  2  0  0  0
 26 41  1  0  0  0
 27 42  1  0  0  0
M  END
> <s_m_entry_id>
6388

> <s_m_entry_name>
dock_pv.223

> <s_m_Source_Path>
/home/csk/Desktop/cluster/DUD-E-result/aldr

> <s_m_Source_File>
dock_pv.maegz

> <i_m_Source_File_Index>
223

> <chembl_id>
CHEMBL140042

> <chembl_pref_name>
None

> <i_lp_mmshare_version>
53161

> <i_f3d_flags>
0

> <r_lp_tautomer_probability>
1

> <s_lp_Force_Field>
OPLS_2005

> <r_lp_Energy>
27.639945

> <b_lp_Chiralities_Consistent>
1

> <s_lp_Variant>
CHEMBL1900_lig144-1

> <s_i_glide_gridfile>
glide-grid_2hv5

> <i_i_glide_lignum>
220

> <i_i_glide_rotatable_bonds>
6

> <r_i_docking_score>
-9.04455755545016

> <r_i_glide_ligand_efficiency>
-0.334983613164821

> <r_i_glide_ligand_efficiency_sa>
-1.00495083839041

> <r_i_glide_ligand_efficiency_ln>
-2.10542388772382

> <r_i_glide_gscore>
-9.04455755545016

> <r_i_glide_lipo>
-4.65624784699929

> <r_i_glide_hbond>
0

> <r_i_glide_metal>
0

> <r_i_glide_rewards>
-2.43248195801704

> <r_i_glide_evdw>
-49.2835426330566

> <r_i_glide_ecoul>
-1.50974571704865

> <r_i_glide_erotb>
0.734811238776308

> <r_i_glide_esite>
0

> <r_i_glide_emodel>
-72.420267821359

> <r_i_glide_energy>
-50.7932883501053

> <r_i_glide_einternal>
1.63614296913147

> <i_i_glide_confnum>
50

> <i_i_glide_posenum>
21

> <r_i_glide_eff_state_penalty>
0

> <s_user_duplicate_titles>
CHEMBL1900_lig144,235892

> <s_m_subgroup_title>
dock_pv

> <s_m_subgroupid>
dock_pv

> <b_m_subgroup_collapsed>
1

$$$$
CHEMBL1900_lig217
                    3D
 Schrodinger Suite 2021-1.
 34 35  0  0  1  0            999 V2000
   16.7867   -6.9636   17.8327 C   0  0  0  0  0  0
   17.4978   -7.7510   15.8009 N   0  0  0  0  0  0
   16.0196   -7.9962   17.4485 C   0  0  0  0  0  0
   16.4511   -8.5222   16.1664 C   0  0  0  0  0  0
   17.8224   -6.7533   16.7865 C   0  0  0  0  0  0
   16.6973   -6.1153   19.0178 C   0  0  0  0  0  0
   18.1891   -7.8390   14.5120 C   0  0  0  0  0  0
   15.9473   -6.1105   11.9311 C   0  0  0  0  0  0
   15.9667   -9.4626   15.5356 O   0  0  0  0  0  0
   16.8390   -5.2083   11.3406 C   0  0  0  0  0  0
   16.3874   -6.9171   12.9818 C   0  0  0  0  0  0
   17.6953   -6.8561   13.4514 C   0  0  0  0  0  0
   15.7450   -6.1401   19.7819 O   0  0  0  0  0  0
   14.9451   -8.6299   17.9923 O   0  0  0  0  0  0
   18.1448   -5.1214   11.8205 C   0  0  0  0  0  0
   14.3141   -6.2493   11.3812 Cl  0  0  0  0  0  0
   17.7448   -5.2938   19.2085 O   0  0  0  0  0  0
   18.5601   -5.9274   12.8831 C   0  0  0  0  0  0
   16.3605   -4.1919   10.0246 Cl  0  0  0  0  0  0
   17.8288   -4.4852   20.3806 C   0  0  0  0  0  0
   16.8228   -3.3163   20.3675 C   0  0  0  0  0  0
   17.7618   -5.7559   16.3612 H   0  0  0  0  0  0
   18.8391   -6.9151   17.1505 H   0  0  0  0  0  0
   19.2557   -7.6839   14.6779 H   0  0  0  0  0  0
   18.0930   -8.8461   14.1023 H   0  0  0  0  0  0
   15.7449   -7.6502   13.4268 H   0  0  0  0  0  0
   14.6608   -9.3284   17.3951 H   0  0  0  0  0  0
   18.8323   -4.4205   11.3729 H   0  0  0  0  0  0
   19.5746   -5.8558   13.2460 H   0  0  0  0  0  0
   18.8500   -4.1149   20.4486 H   0  0  0  0  0  0
   17.6749   -5.0967   21.2714 H   0  0  0  0  0  0
   16.9430   -2.6909   21.2492 H   0  0  0  0  0  0
   15.7901   -3.6639   20.3766 H   0  0  0  0  0  0
   16.9448   -2.6905   19.4849 H   0  0  0  0  0  0
  1  3  2  0  0  0
  1  5  1  0  0  0
  1  6  1  0  0  0
  2  5  1  0  0  0
  2  7  1  0  0  0
  2  4  1  0  0  0
  3  4  1  0  0  0
  3 14  1  0  0  0
  4  9  2  0  0  0
  5 22  1  0  0  0
  5 23  1  0  0  0
  6 13  2  0  0  0
  6 17  1  0  0  0
  7 12  1  0  0  0
  7 24  1  0  0  0
  7 25  1  0  0  0
  8 11  1  0  0  0
  8 16  1  0  0  0
  8 10  2  0  0  0
 10 15  1  0  0  0
 10 19  1  0  0  0
 11 12  2  0  0  0
 11 26  1  0  0  0
 12 18  1  0  0  0
 14 27  1  0  0  0
 15 18  2  0  0  0
 15 28  1  0  0  0
 17 20  1  0  0  0
 18 29  1  0  0  0
 20 21  1  0  0  0
 20 30  1  0  0  0
 20 31  1  0  0  0
 21 32  1  0  0  0
 21 33  1  0  0  0
 21 34  1  0  0  0
M  END
> <s_m_entry_id>
6389

> <s_m_entry_name>
dock_pv.224

> <s_m_Source_Path>
/home/csk/Desktop/cluster/DUD-E-result/aldr

> <s_m_Source_File>
dock_pv.maegz

> <i_m_Source_File_Index>
224

> <chembl_id>
CHEMBL7415

> <chembl_pref_name>
None

> <i_lp_mmshare_version>
53161

> <i_f3d_flags>
0

> <r_lp_tautomer_probability>
1

> <s_lp_Force_Field>
OPLS_2005

> <r_lp_Energy>
21.599288

> <b_lp_Chiralities_Consistent>
1

> <s_lp_Variant>
CHEMBL1900_lig217-1

> <s_i_glide_gridfile>
glide-grid_2hv5

> <i_i_glide_lignum>
293

> <i_i_glide_rotatable_bonds>
6

> <r_i_docking_score>
-9.0230267801273

> <r_i_glide_ligand_efficiency>
-0.429667941910824

> <r_i_glide_ligand_efficiency_sa>
-1.18542127155068

> <r_i_glide_ligand_efficiency_ln>
-2.2309251386441

> <r_i_glide_gscore>
-9.0230267801273

> <r_i_glide_lipo>
-3.97377749357263

> <r_i_glide_hbond>
-0.377580815106985

> <r_i_glide_metal>
0

> <r_i_glide_rewards>
-3.11864584685532

> <r_i_glide_evdw>
-35.497745513916

> <r_i_glide_ecoul>
-3.12107372283936

> <r_i_glide_erotb>
0.690025709529336

> <r_i_glide_esite>
0

> <r_i_glide_emodel>
-57.2577092350639

> <r_i_glide_energy>
-38.6188192367554

> <r_i_glide_einternal>
0.810532927513123

> <i_i_glide_confnum>
6

> <i_i_glide_posenum>
168

> <r_i_glide_eff_state_penalty>
0

> <s_user_duplicate_titles>
CHEMBL1900_lig217,2109

> <s_m_subgroup_title>
dock_pv

> <s_m_subgroupid>
dock_pv

> <b_m_subgroup_collapsed>
1

$$$$
CHEMBL1900_lig11
                    3D
 Schrodinger Suite 2021-1.
 36 38  0  0  1  0            999 V2000
   15.5660   -8.3544   18.1805 N   0  0  0  0  0  0
   17.1904   -9.0714   15.1872 C   0  0  0  0  0  0
   15.2975   -8.9089   16.9930 C   0  0  0  0  0  0
   16.1992   -8.2015   15.9966 C   0  0  1  0  0  0
   16.3830   -7.2894   18.1319 C   0  0  0  0  0  0
   16.8390   -7.2573   16.8764 N   0  0  0  0  0  0
   17.9849   -8.4835   14.1822 C   0  0  0  0  0  0
   17.8805   -6.7007   13.7945 S   0  0  2  0  0  0
   18.8705   -9.2552   13.4260 C   0  0  0  0  0  0
   17.2934  -10.4635   15.3709 C   0  0  0  0  0  0
   16.9621   -6.9255   12.1926 C   0  0  0  0  0  0
   14.5454   -9.8530   16.7671 O   0  0  0  0  0  0
   19.3088   -6.2523   13.4875 O   0  0  0  0  0  0
   16.5481   -6.4442   19.0046 O   0  0  0  0  0  0
   18.1446  -11.2357   14.5819 C   0  0  0  0  0  0
   16.8458   -5.6431   11.3847 C   0  0  0  0  0  0
   18.9405  -10.6311   13.6137 C   0  0  0  0  0  0
   16.6592   -3.3816    9.7783 C   0  0  0  0  0  0
   18.2381  -12.9399   14.8284 Cl  0  0  0  0  0  0
   16.5452   -1.9944    8.7645 Cl  0  0  0  0  0  0
   15.5930   -5.1828   10.9807 C   0  0  0  0  0  0
   17.9947   -4.9608   10.9846 C   0  0  0  0  0  0
   17.9104   -3.8305   10.1812 C   0  0  0  0  0  0
   15.5054   -4.0520   10.1774 C   0  0  0  0  0  0
   15.1646   -8.6876   19.0415 H   0  0  0  0  0  0
   15.5651   -7.6423   15.3066 H   0  0  0  0  0  0
   17.6990   -6.7951   16.6212 H   0  0  0  0  0  0
   19.4890   -8.7896   12.6732 H   0  0  0  0  0  0
   16.7054  -10.9782   16.1150 H   0  0  0  0  0  0
   15.9725   -7.3131   12.4331 H   0  0  0  0  0  0
   17.4622   -7.6746   11.5794 H   0  0  0  0  0  0
   19.6126  -11.2251   13.0114 H   0  0  0  0  0  0
   14.6896   -5.6989   11.2736 H   0  0  0  0  0  0
   18.9541   -5.3250   11.2938 H   0  0  0  0  0  0
   18.8046   -3.3108    9.8715 H   0  0  0  0  0  0
   14.5450   -3.6987    9.8515 H   0  0  0  0  0  0
  1  3  1  0  0  0
  1  5  1  0  0  0
  1 25  1  0  0  0
  2  4  1  0  0  0
  2  7  2  0  0  0
  2 10  1  0  0  0
  3  4  1  0  0  0
  3 12  2  0  0  0
  4  6  1  0  0  0
  4 26  1  0  0  0
  5  6  1  0  0  0
  5 14  2  0  0  0
  6 27  1  0  0  0
  7  8  1  0  0  0
  7  9  1  0  0  0
  8 11  1  0  0  0
  8 13  2  0  0  0
  9 17  2  0  0  0
  9 28  1  0  0  0
 10 15  2  0  0  0
 10 29  1  0  0  0
 11 16  1  0  0  0
 11 30  1  0  0  0
 11 31  1  0  0  0
 15 17  1  0  0  0
 15 19  1  0  0  0
 16 21  2  0  0  0
 16 22  1  0  0  0
 17 32  1  0  0  0
 18 23  1  0  0  0
 18 20  1  0  0  0
 18 24  2  0  0  0
 21 24  1  0  0  0
 21 33  1  0  0  0
 22 23  2  0  0  0
 22 34  1  0  0  0
 23 35  1  0  0  0
 24 36  1  0  0  0
M  END
> <s_m_entry_id>
6390

> <s_m_entry_name>
dock_pv.225

> <s_m_Source_Path>
/home/csk/Desktop/cluster/DUD-E-result/aldr

> <s_m_Source_File>
dock_pv.maegz

> <i_m_Source_File_Index>
225

> <chembl_id>
CHEMBL19781

> <chembl_pref_name>
None

> <i_lp_mmshare_version>
53161

> <i_f3d_flags>
0

> <r_lp_tautomer_probability>
0.999999999781369

> <s_lp_Force_Field>
OPLS_2005

> <r_lp_Energy>
21.959149

> <b_lp_Chiralities_Consistent>
1

> <s_lp_Variant>
CHEMBL1900_lig11-4

> <s_i_glide_gridfile>
glide-grid_2hv5

> <i_i_glide_lignum>
20

> <i_i_glide_rotatable_bonds>
4

> <r_i_docking_score>
-9.01292054345008

> <r_i_glide_ligand_efficiency>
-0.375538355977087

> <r_i_glide_ligand_efficiency_sa>
-1.08324006393628

> <r_i_glide_ligand_efficiency_ln>
-2.15720546202237

> <r_i_glide_gscore>
-9.01292054345008

> <r_i_glide_lipo>
-4.05701616940068

> <r_i_glide_hbond>
0

> <r_i_glide_metal>
0

> <r_i_glide_rewards>
-3.018872181137

> <r_i_glide_evdw>
-49.027156829834

> <r_i_glide_ecoul>
-0.0987827554345131

> <r_i_glide_erotb>
0.52914306189447

> <r_i_glide_esite>
0

> <r_i_glide_emodel>
-71.96504629483

> <r_i_glide_energy>
-49.1259395852685

> <r_i_glide_einternal>
4.11790990829468

> <i_i_glide_confnum>
17

> <i_i_glide_posenum>
121

> <r_i_glide_eff_state_penalty>
0

> <s_user_duplicate_titles>
CHEMBL1900_lig11

> <s_m_subgroup_title>
dock_pv

> <s_m_subgroupid>
dock_pv

> <b_m_subgroup_collapsed>
1

$$$$
CHEMBL1900_lig660 
                    3D
 Schrodinger Suite 2021-1.
 45 47  0  0  1  0            999 V2000
   17.8954   -7.2373   14.4942 C   0  0  0  0  0  0
   16.5456   -7.1639   14.1567 C   0  0  0  0  0  0
   15.5965   -7.0408   15.1808 C   0  0  0  0  0  0
   15.9743   -6.8840   16.5056 C   0  0  0  0  0  0
   17.3235   -6.7939   16.8300 C   0  0  0  0  0  0
   18.2701   -7.0170   15.8256 C   0  0  0  0  0  0
   17.7495   -6.3160   18.1594 C   0  0  0  0  0  0
   17.2795   -5.1906   18.7425 C   0  0  0  0  0  0
   17.7450   -4.6792   20.0058 C   0  0  0  0  0  0
   16.8281   -3.8324   20.5142 N   0  0  0  0  0  0
   15.9396   -3.3035   19.6328 C   0  0  0  0  0  0
   16.1450   -4.0340   18.0932 S   0  0  0  0  0  0
   18.8186   -4.9150   20.5431 O   0  0  0  0  0  0
   14.8194   -2.1150   19.7810 S   0  0  0  0  0  0
   16.9450   -3.3150   21.8951 C   0  0  0  0  0  0
   16.2616   -4.2212   22.9084 C   0  0  0  0  0  0
   16.5450   -5.3858   23.0639 O   0  0  0  0  0  0
   15.3450   -3.5210   23.6210 O   0  0  0  0  0  0
   18.7895   -7.4626   13.4680 O   0  0  0  0  0  0
   20.0548   -8.0120   13.7810 C   0  0  0  0  0  0
   16.2170   -7.2665   12.8203 O   0  0  0  0  0  0
   15.3450   -6.2883   12.2459 C   0  0  0  0  0  0
   16.0750   -5.3094   11.3271 C   0  0  0  0  0  0
   17.4651   -5.1517   11.3604 C   0  0  0  0  0  0
   18.0858   -4.2099   10.5431 C   0  0  0  0  0  0
   17.3196   -3.4242    9.6875 C   0  0  0  0  0  0
   15.9372   -3.5759    9.6420 C   0  0  0  0  0  0
   15.3167   -4.5150   10.4617 C   0  0  0  0  0  0
   14.5450   -7.0234   14.9810 H   0  0  0  0  0  0
   15.2146   -6.7428   17.2615 H   0  0  0  0  0  0
   19.3151   -6.9150   16.0703 H   0  0  0  0  0  0
   18.4923   -6.9150   18.6619 H   0  0  0  0  0  0
   16.5491   -2.3014   21.9761 H   0  0  0  0  0  0
   17.9915   -3.3150   22.1956 H   0  0  0  0  0  0
   15.1726   -2.6136   23.3511 H   0  0  0  0  0  0
   20.5670   -8.2701   12.8594 H   0  0  0  0  0  0
   20.6840   -7.3150   14.3356 H   0  0  0  0  0  0
   19.9238   -8.9401   14.3307 H   0  0  0  0  0  0
   14.6056   -6.8286   11.6531 H   0  0  0  0  0  0
   14.7848   -5.7150   12.9810 H   0  0  0  0  0  0
   18.0728   -5.7389   12.0259 H   0  0  0  0  0  0
   19.1555   -4.0821   10.5810 H   0  0  0  0  0  0
   17.7984   -2.6897    9.0569 H   0  0  0  0  0  0
   15.3450   -2.9607    8.9810 H   0  0  0  0  0  0
   14.2404   -4.6116   10.4306 H   0  0  0  0  0  0
  1  2  2  0  0  0
  1  6  1  0  0  0
  1 19  1  0  0  0
  2  3  1  0  0  0
  2 21  1  0  0  0
  3  4  2  0  0  0
  3 29  1  0  0  0
  4  5  1  0  0  0
  4 30  1  0  0  0
  5  6  2  0  0  0
  5  7  1  0  0  0
  6 31  1  0  0  0
  7  8  2  0  0  0
  7 32  1  0  0  0
  8  9  1  0  0  0
  8 12  1  0  0  0
  9 10  1  0  0  0
  9 13  2  0  0  0
 10 11  1  0  0  0
 10 15  1  0  0  0
 11 12  1  0  0  0
 11 14  2  0  0  0
 15 16  1  0  0  0
 15 33  1  0  0  0
 15 34  1  0  0  0
 16 17  2  0  0  0
 16 18  1  0  0  0
 18 35  1  0  0  0
 19 20  1  0  0  0
 20 36  1  0  0  0
 20 37  1  0  0  0
 20 38  1  0  0  0
 21 22  1  0  0  0
 22 23  1  0  0  0
 22 39  1  0  0  0
 22 40  1  0  0  0
 23 24  2  0  0  0
 23 28  1  0  0  0
 24 25  1  0  0  0
 24 41  1  0  0  0
 25 26  2  0  0  0
 25 42  1  0  0  0
 26 27  1  0  0  0
 26 43  1  0  0  0
 27 28  2  0  0  0
 27 44  1  0  0  0
 28 45  1  0  0  0
M  END
> <s_m_entry_id>
6391

> <s_m_entry_name>
dock_pv.226

> <s_m_Source_Path>
/home/csk/Desktop/cluster/DUD-E-result/aldr

> <s_m_Source_File>
dock_pv.maegz

> <i_m_Source_File_Index>
226

> <chembl_id>
CHEMBL4554837

> <chembl_pref_name>
None

> <i_lp_mmshare_version>
53161

> <i_f3d_flags>
0

> <r_lp_tautomer_probability>
1

> <s_lp_Force_Field>
OPLS_2005

> <r_lp_Energy>
27.356206

> <b_lp_Chiralities_Consistent>
1

> <s_lp_Variant>
CHEMBL1900_lig660 -1

> <s_i_glide_gridfile>
glide-grid_2hv5

> <i_i_glide_lignum>
786

> <i_i_glide_rotatable_bonds>
8

> <r_i_docking_score>
-9.00144557537821

> <r_i_glide_ligand_efficiency>
-0.32148019912065

> <r_i_glide_ligand_efficiency_sa>
-0.976203226241856

> <r_i_glide_ligand_efficiency_ln>
-2.07779793272367

> <r_i_glide_gscore>
-9.00144557537821

> <r_i_glide_lipo>
-3.93904406354683

> <r_i_glide_hbond>
0

> <r_i_glide_metal>
0

> <r_i_glide_rewards>
-3.16850942459559

> <r_i_glide_evdw>
-36.8101921081543

> <r_i_glide_ecoul>
-4.93155956268311

> <r_i_glide_erotb>
0.686351452574389

> <r_i_glide_esite>
0

> <r_i_glide_emodel>
-56.9906593608429

> <r_i_glide_energy>
-41.7417516708374

> <r_i_glide_einternal>
11.7727565765381

> <i_i_glide_confnum>
1

> <i_i_glide_posenum>
144

> <r_i_glide_eff_state_penalty>
0

> <s_user_duplicate_titles>
CHEMBL1900_lig660 

> <s_m_subgroup_title>
dock_pv

> <s_m_subgroupid>
dock_pv

> <b_m_subgroup_collapsed>
1

$$$$
CHEMBL1900_lig278
                    3D
 Schrodinger Suite 2021-1.
 42 45  0  0  1  0            999 V2000
   18.0207   -8.1645   14.1711 N   0  0  0  0  0  0
   17.7450   -9.5230   14.3236 N   0  0  0  0  0  0
   18.0124   -7.2123   15.1506 C   0  0  0  0  0  0
   17.1388   -9.9276   15.3806 C   0  0  0  0  0  0
   17.2517   -7.6754   16.3712 C   0  0  0  0  0  0
   17.7450   -6.5150   12.2514 C   0  0  0  0  0  0
   18.3938   -5.5283   11.7020 N   0  0  0  0  0  0
   16.7699   -8.9964   16.4639 C   0  0  0  0  0  0
   18.5053   -7.6947   12.8752 C   0  0  0  0  0  0
   16.0030   -6.3713   12.1624 S   0  0  0  0  0  0
   16.8388  -11.4298   15.4590 C   0  0  0  0  0  0
   17.5930   -4.7110   10.9811 C   0  0  0  0  0  0
   16.2145   -5.0145   11.0618 C   0  0  0  0  0  0
   17.7361  -12.1657   16.4652 C   0  0  0  0  0  0
   15.9757   -9.3472   17.5524 C   0  0  0  0  0  0
   17.0384   -6.7624   17.4070 C   0  0  0  0  0  0
   18.5450   -6.1150   15.0003 O   0  0  0  0  0  0
   17.5755  -12.1122   17.6835 O   0  0  0  0  0  0
   16.3258   -7.1464   18.5458 C   0  0  0  0  0  0
   15.7870   -8.4330   18.5810 C   0  0  0  0  0  0
   18.6945  -12.9105   15.8428 O   0  0  0  0  0  0
   16.1450   -6.3461   19.6583 O   0  0  0  0  0  0
   18.0460   -3.6510   10.1810 C   0  0  0  0  0  0
   15.2740   -4.2706   10.3414 C   0  0  0  0  0  0
   16.7745   -5.0691   19.7078 C   0  0  0  0  0  0
   17.1010   -2.9150    9.4685 C   0  0  0  0  0  0
   15.7450   -3.2218    9.5501 C   0  0  0  0  0  0
   19.5766   -7.5019   12.9810 H   0  0  0  0  0  0
   18.4386   -8.5150   12.1810 H   0  0  0  0  0  0
   15.8038  -11.5818   15.7632 H   0  0  0  0  0  0
   16.9061  -11.8961   14.4744 H   0  0  0  0  0  0
   15.5768  -10.3440   17.6685 H   0  0  0  0  0  0
   17.4459   -5.7661   17.3273 H   0  0  0  0  0  0
   15.3450   -8.7891   19.4917 H   0  0  0  0  0  0
   18.6641  -12.8234   14.8885 H   0  0  0  0  0  0
   19.0946   -3.4098   10.1195 H   0  0  0  0  0  0
   14.2166   -4.4899   10.3994 H   0  0  0  0  0  0
   16.5585   -4.5978   20.6666 H   0  0  0  0  0  0
   16.4033   -4.4069   18.9241 H   0  0  0  0  0  0
   17.8592   -5.1541   19.6212 H   0  0  0  0  0  0
   17.4201   -2.0906    8.8480 H   0  0  0  0  0  0
   15.0384   -2.6257    8.9932 H   0  0  0  0  0  0
  1  2  1  0  0  0
  1  3  1  0  0  0
  1  9  1  0  0  0
  2  4  2  0  0  0
  3  5  1  0  0  0
  3 17  2  0  0  0
  4 11  1  0  0  0
  4  8  1  0  0  0
  5  8  1  0  0  0
  5 16  2  0  0  0
  6  9  1  0  0  0
  6  7  2  0  0  0
  6 10  1  0  0  0
  7 12  1  0  0  0
  8 15  2  0  0  0
  9 28  1  0  0  0
  9 29  1  0  0  0
 10 13  1  0  0  0
 11 14  1  0  0  0
 11 30  1  0  0  0
 11 31  1  0  0  0
 12 23  1  0  0  0
 12 13  2  0  0  0
 13 24  1  0  0  0
 14 18  2  0  0  0
 14 21  1  0  0  0
 15 20  1  0  0  0
 15 32  1  0  0  0
 16 19  1  0  0  0
 16 33  1  0  0  0
 19 20  2  0  0  0
 19 22  1  0  0  0
 20 34  1  0  0  0
 21 35  1  0  0  0
 22 25  1  0  0  0
 23 26  2  0  0  0
 23 36  1  0  0  0
 24 27  2  0  0  0
 24 37  1  0  0  0
 25 38  1  0  0  0
 25 39  1  0  0  0
 25 40  1  0  0  0
 26 27  1  0  0  0
 26 41  1  0  0  0
 27 42  1  0  0  0
M  END
> <s_m_entry_id>
6392

> <s_m_entry_name>
dock_pv.227

> <s_m_Source_Path>
/home/csk/Desktop/cluster/DUD-E-result/aldr

> <s_m_Source_File>
dock_pv.maegz

> <i_m_Source_File_Index>
227

> <chembl_id>
CHEMBL19906

> <chembl_pref_name>
None

> <i_lp_mmshare_version>
53161

> <i_f3d_flags>
0

> <r_lp_tautomer_probability>
1

> <s_lp_Force_Field>
OPLS_2005

> <r_lp_Energy>
28.96819

> <b_lp_Chiralities_Consistent>
1

> <s_lp_Variant>
CHEMBL1900_lig278-1

> <s_i_glide_gridfile>
glide-grid_2hv5

> <i_i_glide_lignum>
393

> <i_i_glide_rotatable_bonds>
6

> <r_i_docking_score>
-8.97386975942661

> <r_i_glide_ligand_efficiency>
-0.33236554664543

> <r_i_glide_ligand_efficiency_sa>
-0.997096638840867

> <r_i_glide_ligand_efficiency_ln>
-2.08896893418894

> <r_i_glide_gscore>
-8.97386975942661

> <r_i_glide_lipo>
-4.82244891128599

> <r_i_glide_hbond>
-0.185361827766801

> <r_i_glide_metal>
0

> <r_i_glide_rewards>
-2.1389055813772

> <r_i_glide_evdw>
-38.9191207885742

> <r_i_glide_ecoul>
-2.76622557640076

> <r_i_glide_erotb>
0.533736436892208

> <r_i_glide_esite>
0

> <r_i_glide_emodel>
-45.9563791043401

> <r_i_glide_energy>
-41.685346364975

> <r_i_glide_einternal>
5.34653234481812

> <i_i_glide_confnum>
3

> <i_i_glide_posenum>
114

> <r_i_glide_eff_state_penalty>
0

> <s_user_duplicate_titles>
CHEMBL1900_lig278,23463

> <s_m_subgroup_title>
dock_pv

> <s_m_subgroupid>
dock_pv

> <b_m_subgroup_collapsed>
1

$$$$
CHEMBL1900_lig553
                    3D
 Schrodinger Suite 2021-1.
 31 32  0  0  1  0            999 V2000
   15.0974  -10.2860   17.5781 C   0  0  0  0  0  0
   16.0324  -11.0098   16.8437 C   0  0  0  0  0  0
   16.8158  -10.3660   15.8880 C   0  0  0  0  0  0
   16.6542   -8.9952   15.6328 C   0  0  0  0  0  0
   15.7212   -8.2681   16.4019 C   0  0  0  0  0  0
   14.9489   -8.9196   17.3627 C   0  0  0  0  0  0
   17.5193   -8.3732   14.5812 C   0  0  0  0  0  0
   16.9049   -7.4161   13.6619 C   0  0  0  0  0  0
   17.6196   -6.7051   12.7658 C   0  0  0  0  0  0
   15.5432   -6.9138   16.2584 O   0  0  0  0  0  0
   17.0787   -5.7508   11.7794 C   0  0  0  0  0  0
   15.7108   -5.6469   11.4957 C   0  0  0  0  0  0
   15.2597   -4.7003   10.5797 C   0  0  0  0  0  0
   16.1757   -3.8748    9.9321 C   0  0  0  0  0  0
   17.5356   -3.9852   10.1859 C   0  0  0  0  0  0
   17.9795   -4.9150   11.1176 C   0  0  0  0  0  0
   18.6680   -8.7732   14.3877 O   0  0  0  0  0  0
   15.7450   -2.9317    9.0471 O   0  0  0  0  0  0
   14.3302  -10.9152   18.5163 O   0  0  0  0  0  0
   16.1577  -12.0700   17.0073 H   0  0  0  0  0  0
   17.5335  -10.9536   15.3295 H   0  0  0  0  0  0
   14.2291   -8.3632   17.9430 H   0  0  0  0  0  0
   15.8328   -7.3107   13.7200 H   0  0  0  0  0  0
   18.6945   -6.8348   12.7376 H   0  0  0  0  0  0
   16.1402   -6.5397   15.6035 H   0  0  0  0  0  0
   14.9865   -6.2782   11.9850 H   0  0  0  0  0  0
   14.2019   -4.6104   10.3798 H   0  0  0  0  0  0
   18.2370   -3.3363    9.6831 H   0  0  0  0  0  0
   19.0294   -4.9760   11.3365 H   0  0  0  0  0  0
   14.7789   -2.9148    8.9808 H   0  0  0  0  0  0
   14.3628  -11.8730   18.4619 H   0  0  0  0  0  0
  1  2  2  0  0  0
  1  6  1  0  0  0
  1 19  1  0  0  0
  2  3  1  0  0  0
  2 20  1  0  0  0
  3  4  2  0  0  0
  3 21  1  0  0  0
  4  5  1  0  0  0
  4  7  1  0  0  0
  5  6  2  0  0  0
  5 10  1  0  0  0
  6 22  1  0  0  0
  7  8  1  0  0  0
  7 17  2  0  0  0
  8  9  2  0  0  0
  8 23  1  0  0  0
  9 11  1  0  0  0
  9 24  1  0  0  0
 10 25  1  0  0  0
 11 12  2  0  0  0
 11 16  1  0  0  0
 12 13  1  0  0  0
 12 26  1  0  0  0
 13 14  2  0  0  0
 13 27  1  0  0  0
 14 15  1  0  0  0
 14 18  1  0  0  0
 15 16  2  0  0  0
 15 28  1  0  0  0
 16 29  1  0  0  0
 18 30  1  0  0  0
 19 31  1  0  0  0
M  END
> <s_m_entry_id>
6393

> <s_m_entry_name>
dock_pv.228

> <s_m_Source_Path>
/home/csk/Desktop/cluster/DUD-E-result/aldr

> <s_m_Source_File>
dock_pv.maegz

> <i_m_Source_File_Index>
228

> <chembl_id>
CHEMBL129795

> <chembl_pref_name>
ISOLIQUIRITIGENIN

> <i_lp_mmshare_version>
53161

> <i_f3d_flags>
0

> <r_lp_tautomer_probability>
1

> <s_lp_Force_Field>
OPLS_2005

> <r_lp_Energy>
19.48557

> <b_lp_Chiralities_Consistent>
1

> <s_lp_Variant>
CHEMBL1900_lig553-1

> <s_i_glide_gridfile>
glide-grid_2hv5

> <i_i_glide_lignum>
676

> <i_i_glide_rotatable_bonds>
6

> <r_i_docking_score>
-8.96825962659325

> <r_i_glide_ligand_efficiency>
-0.47201366455754

> <r_i_glide_ligand_efficiency_sa>
-1.25952203948843

> <r_i_glide_ligand_efficiency_ln>
-2.27364643589656

> <r_i_glide_gscore>
-8.96825962659325

> <r_i_glide_lipo>
-3.96400173388993

> <r_i_glide_hbond>
-0.395409739190849

> <r_i_glide_metal>
0

> <r_i_glide_rewards>
-2.87653613724683

> <r_i_glide_evdw>
-35.763126373291

> <r_i_glide_ecoul>
-4.99514818191528

> <r_i_glide_erotb>
0.805116529686198

> <r_i_glide_esite>
0

> <r_i_glide_emodel>
-59.4753210807626

> <r_i_glide_energy>
-40.7582745552063

> <r_i_glide_einternal>
5.23149347305298

> <i_i_glide_confnum>
13

> <i_i_glide_posenum>
228

> <r_i_glide_eff_state_penalty>
0

> <s_user_duplicate_titles>
CHEMBL1900_lig553

> <s_m_subgroup_title>
dock_pv

> <s_m_subgroupid>
dock_pv

> <b_m_subgroup_collapsed>
1

$$$$
CHEMBL1900_lig547
                    3D
 Schrodinger Suite 2021-1.
 37 38  0  0  1  0            999 V2000
   17.0369   -7.9133   15.2355 C   0  0  0  0  0  0
   17.2999   -7.1931   13.9878 C   0  0  0  0  0  0
   17.7584   -4.2906   10.5661 C   0  0  0  0  0  0
   16.3454   -6.5178   13.3105 C   0  0  0  0  0  0
   16.5743   -3.9374    9.9088 C   0  0  0  0  0  0
   17.7200   -5.1924   11.6381 C   0  0  0  0  0  0
   17.7665   -8.8252   15.6219 O   0  0  0  0  0  0
   16.4937   -5.7163   12.0803 C   0  0  0  0  0  0
   15.3695   -4.5152   10.2971 C   0  0  0  0  0  0
   15.9324   -7.4846   15.9083 O   0  0  0  0  0  0
   18.9443   -3.7151   10.1804 O   0  0  0  0  0  0
   15.3285   -5.3946   11.3760 C   0  0  0  0  0  0
   16.5701   -2.9984    8.9085 O   0  0  0  0  0  0
   15.5544   -8.0188   17.1809 C   0  0  0  0  0  0
   16.3258   -6.0778   18.7886 C   0  0  0  0  0  0
   16.4282   -7.5507   18.3760 C   0  0  0  0  0  0
   16.1759   -5.0674   17.8383 C   0  0  0  0  0  0
   16.4374   -5.7269   20.1377 C   0  0  0  0  0  0
   16.4013   -4.3900   20.5292 C   0  0  0  0  0  0
   16.1479   -3.7272   18.2198 C   0  0  0  0  0  0
   16.2498   -3.3954   19.5672 C   0  0  0  0  0  0
   18.3173   -7.2349   13.6290 H   0  0  0  0  0  0
   15.3457   -6.5140   13.7170 H   0  0  0  0  0  0
   18.6345   -5.4243   12.1637 H   0  0  0  0  0  0
   14.4544   -4.2546    9.7908 H   0  0  0  0  0  0
   18.7671   -3.0415    9.5180 H   0  0  0  0  0  0
   14.3683   -5.7825   11.6882 H   0  0  0  0  0  0
   15.6816   -2.8168    8.5889 H   0  0  0  0  0  0
   14.5159   -7.7443   17.3728 H   0  0  0  0  0  0
   15.5739   -9.1085   17.1193 H   0  0  0  0  0  0
   16.1427   -8.1559   19.2368 H   0  0  0  0  0  0
   17.4770   -7.7790   18.1847 H   0  0  0  0  0  0
   16.0937   -5.3148   16.7977 H   0  0  0  0  0  0
   16.5449   -6.4964   20.8897 H   0  0  0  0  0  0
   16.4857   -4.1253   21.5734 H   0  0  0  0  0  0
   16.0462   -2.9566   17.4697 H   0  0  0  0  0  0
   16.2273   -2.3574   19.8666 H   0  0  0  0  0  0
  1  2  1  0  0  0
  1  7  2  0  0  0
  1 10  1  0  0  0
  2  4  2  0  0  0
  2 22  1  0  0  0
  3  6  2  0  0  0
  3  5  1  0  0  0
  3 11  1  0  0  0
  4  8  1  0  0  0
  4 23  1  0  0  0
  5 13  1  0  0  0
  5  9  2  0  0  0
  6  8  1  0  0  0
  6 24  1  0  0  0
  8 12  2  0  0  0
  9 12  1  0  0  0
  9 25  1  0  0  0
 10 14  1  0  0  0
 11 26  1  0  0  0
 12 27  1  0  0  0
 13 28  1  0  0  0
 14 16  1  0  0  0
 14 29  1  0  0  0
 14 30  1  0  0  0
 15 16  1  0  0  0
 15 17  2  0  0  0
 15 18  1  0  0  0
 16 31  1  0  0  0
 16 32  1  0  0  0
 17 20  1  0  0  0
 17 33  1  0  0  0
 18 19  2  0  0  0
 18 34  1  0  0  0
 19 21  1  0  0  0
 19 35  1  0  0  0
 20 21  2  0  0  0
 20 36  1  0  0  0
 21 37  1  0  0  0
M  END
> <s_m_entry_id>
6394

> <s_m_entry_name>
dock_pv.229

> <s_m_Source_Path>
/home/csk/Desktop/cluster/DUD-E-result/aldr

> <s_m_Source_File>
dock_pv.maegz

> <i_m_Source_File_Index>
229

> <chembl_id>
CHEMBL319244

> <chembl_pref_name>
CAFFEIC ACID PHENETHYL ESTER

> <i_lp_mmshare_version>
53161

> <i_f3d_flags>
0

> <r_lp_tautomer_probability>
1

> <s_lp_Force_Field>
OPLS_2005

> <r_lp_Energy>
12.202171

> <b_lp_Chiralities_Consistent>
1

> <s_lp_Variant>
CHEMBL1900_lig547-1

> <s_i_glide_gridfile>
glide-grid_2hv5

> <i_i_glide_lignum>
670

> <i_i_glide_rotatable_bonds>
8

> <r_i_docking_score>
-8.96800587527815

> <r_i_glide_ligand_efficiency>
-0.427047898822769

> <r_i_glide_ligand_efficiency_sa>
-1.17819277133922

> <r_i_glide_ligand_efficiency_ln>
-2.21732133110035

> <r_i_glide_gscore>
-8.96800587527815

> <r_i_glide_lipo>
-4.66401179447226

> <r_i_glide_hbond>
0

> <r_i_glide_metal>
0

> <r_i_glide_rewards>
-2.70551334627296

> <r_i_glide_evdw>
-41.3363456726074

> <r_i_glide_ecoul>
-4.35222291946411

> <r_i_glide_erotb>
1.12116998701705

> <r_i_glide_esite>
0

> <r_i_glide_emodel>
-66.10863640006

> <r_i_glide_energy>
-45.6885685920715

> <r_i_glide_einternal>
4.71517038345337

> <i_i_glide_confnum>
16

> <i_i_glide_posenum>
356

> <r_i_glide_eff_state_penalty>
0

> <s_user_duplicate_titles>
CHEMBL1900_lig547

> <s_m_subgroup_title>
dock_pv

> <s_m_subgroupid>
dock_pv

> <b_m_subgroup_collapsed>
1

$$$$
CHEMBL1900_lig72
                    3D
 Schrodinger Suite 2021-1.
 36 38  0  0  1  0            999 V2000
   17.9862   -7.6300   14.8618 N   0  0  0  0  0  0
   17.3686   -6.9150   15.8813 N   0  0  0  0  0  0
   17.9091   -8.9954   14.6573 C   0  0  0  0  0  0
   16.4756   -7.4641   16.6126 C   0  0  0  0  0  0
   16.9439   -9.6628   15.6341 C   0  0  0  0  0  0
   16.2160   -8.9120   16.5827 C   0  0  0  0  0  0
   15.6821   -6.5032   17.5037 C   0  0  0  0  0  0
   18.6291   -6.7981   13.8202 C   0  0  0  0  0  0
   17.7311   -6.1890   12.7228 C   0  0  0  0  0  0
   16.3620   -6.4380   12.5811 C   0  0  0  0  0  0
   16.3840   -6.0921   18.8072 C   0  0  0  0  0  0
   15.6253   -5.8505   11.5428 C   0  0  0  0  0  0
   18.5150   -9.5981   13.7659 O   0  0  0  0  0  0
   18.3163   -5.3148   11.8170 C   0  0  0  0  0  0
   15.7450   -5.7148   19.7810 O   0  0  0  0  0  0
   16.2626   -4.9978   10.6381 C   0  0  0  0  0  0
   15.7455   -7.2309   13.4687 F   0  0  0  0  0  0
   17.7448   -6.1150   18.7522 O   0  0  0  0  0  0
   17.6116   -4.7255   10.7802 C   0  0  0  0  0  0
   15.3450   -4.1715    9.1996 Br  0  0  0  0  0  0
   16.7638  -11.0505   15.5630 C   0  0  0  0  0  0
   15.3461   -9.5700   17.4656 C   0  0  0  0  0  0
   15.8781  -11.6890   16.4322 C   0  0  0  0  0  0
   15.1719  -10.9507   17.3809 C   0  0  0  0  0  0
   15.4768   -5.5796   16.9645 H   0  0  0  0  0  0
   14.6999   -6.9076   17.7450 H   0  0  0  0  0  0
   19.1277   -5.9694   14.3283 H   0  0  0  0  0  0
   19.4479   -7.3348   13.3349 H   0  0  0  0  0  0
   14.5683   -6.0508   11.4471 H   0  0  0  0  0  0
   19.3450   -5.0849   11.9171 H   0  0  0  0  0  0
   18.0538   -6.3567   17.8733 H   0  0  0  0  0  0
   18.1068   -4.0578   10.0906 H   0  0  0  0  0  0
   17.3008  -11.6391   14.8313 H   0  0  0  0  0  0
   14.7962   -9.0331   18.2236 H   0  0  0  0  0  0
   15.7389  -12.7586   16.3695 H   0  0  0  0  0  0
   14.4873  -11.4489   18.0530 H   0  0  0  0  0  0
  1  2  1  0  0  0
  1  3  1  0  0  0
  1  8  1  0  0  0
  2  4  2  0  0  0
  3  5  1  0  0  0
  3 13  2  0  0  0
  4  7  1  0  0  0
  4  6  1  0  0  0
  5  6  2  0  0  0
  5 21  1  0  0  0
  6 22  1  0  0  0
  7 11  1  0  0  0
  7 25  1  0  0  0
  7 26  1  0  0  0
  8  9  1  0  0  0
  8 27  1  0  0  0
  8 28  1  0  0  0
  9 10  1  0  0  0
  9 14  2  0  0  0
 10 12  2  0  0  0
 10 17  1  0  0  0
 11 15  2  0  0  0
 11 18  1  0  0  0
 12 16  1  0  0  0
 12 29  1  0  0  0
 14 19  1  0  0  0
 14 30  1  0  0  0
 16 19  2  0  0  0
 16 20  1  0  0  0
 18 31  1  0  0  0
 19 32  1  0  0  0
 21 23  2  0  0  0
 21 33  1  0  0  0
 22 24  2  0  0  0
 22 34  1  0  0  0
 23 24  1  0  0  0
 23 35  1  0  0  0
 24 36  1  0  0  0
M  END
> <s_m_entry_id>
6395

> <s_m_entry_name>
dock_pv.230

> <s_m_Source_Path>
/home/csk/Desktop/cluster/DUD-E-result/aldr

> <s_m_Source_File>
dock_pv.maegz

> <i_m_Source_File_Index>
230

> <chembl_id>
CHEMBL7679

> <chembl_pref_name>
PONALRESTAT

> <i_lp_mmshare_version>
53161

> <i_f3d_flags>
0

> <r_lp_tautomer_probability>
1

> <s_lp_Force_Field>
OPLS_2005

> <r_lp_Energy>
25.801442

> <b_lp_Chiralities_Consistent>
1

> <s_lp_Variant>
CHEMBL1900_lig72-1

> <s_i_glide_gridfile>
glide-grid_2hv5

> <i_i_glide_lignum>
110

> <i_i_glide_rotatable_bonds>
5

> <r_i_docking_score>
-8.95163442939701

> <r_i_glide_ligand_efficiency>
-0.372984767891542

> <r_i_glide_ligand_efficiency_sa>
-1.07587424130584

> <r_i_glide_ligand_efficiency_ln>
-2.14253688269295

> <r_i_glide_gscore>
-8.95163442939701

> <r_i_glide_lipo>
-4.3167972118619

> <r_i_glide_hbond>
-0.32

> <r_i_glide_metal>
0

> <r_i_glide_rewards>
-2.50053687703165

> <r_i_glide_evdw>
-40.1038703918457

> <r_i_glide_ecoul>
-2.12750625610352

> <r_i_glide_erotb>
0.510019117504354

> <r_i_glide_esite>
0

> <r_i_glide_emodel>
-59.1420977174708

> <r_i_glide_energy>
-42.2313766479492

> <r_i_glide_einternal>
6.70928049087524

> <i_i_glide_confnum>
27

> <i_i_glide_posenum>
154

> <r_i_glide_eff_state_penalty>
0

> <s_user_duplicate_titles>
CHEMBL1900_lig72,2124

> <s_m_subgroup_title>
dock_pv

> <s_m_subgroupid>
dock_pv

> <b_m_subgroup_collapsed>
1

$$$$
CHEMBL1900_lig544
                    3D
 Schrodinger Suite 2021-1.
 33 34  0  0  1  0            999 V2000
   16.6289   -7.6740   15.4871 C   0  0  0  0  0  0
   16.2576   -6.9502   14.2808 C   0  0  0  0  0  0
   17.0774   -6.7530   13.2282 C   0  0  0  0  0  0
   16.7171   -5.9524   12.0387 C   0  0  0  0  0  0
   17.7307   -5.2998   11.3287 C   0  0  0  0  0  0
   17.4121   -4.4298   10.2867 C   0  0  0  0  0  0
   16.0769   -4.2105    9.9570 C   0  0  0  0  0  0
   15.0629   -4.8828   10.6264 C   0  0  0  0  0  0
   15.3811   -5.7506   11.6628 C   0  0  0  0  0  0
   15.7451   -3.3151    8.9810 O   0  0  0  0  0  0
   17.7407   -8.1675   15.6852 O   0  0  0  0  0  0
   15.6205   -7.6400   16.3957 O   0  0  0  0  0  0
   15.8560   -7.8057   17.7972 C   0  0  0  0  0  0
   16.1331   -6.4657   18.4987 C   0  0  0  0  0  0
   16.2610   -5.2787   17.7810 C   0  0  0  0  0  0
   16.5448   -4.0731   18.4179 C   0  0  0  0  0  0
   16.6890   -4.0508   19.8013 C   0  0  0  0  0  0
   16.5451   -5.2206   20.5391 C   0  0  0  0  0  0
   16.2537   -6.4162   19.8847 C   0  0  0  0  0  0
   15.2718   -6.5151   14.2782 H   0  0  0  0  0  0
   18.0689   -7.1873   13.2336 H   0  0  0  0  0  0
   18.7654   -5.4350   11.6077 H   0  0  0  0  0  0
   18.1927   -3.9072    9.7553 H   0  0  0  0  0  0
   14.0267   -4.7176   10.3695 H   0  0  0  0  0  0
   14.5697   -6.2357   12.1802 H   0  0  0  0  0  0
   14.7863   -3.2106    8.9000 H   0  0  0  0  0  0
   14.9539   -8.2393   18.2283 H   0  0  0  0  0  0
   16.6753   -8.5005   17.9882 H   0  0  0  0  0  0
   16.1445   -5.3144   16.7145 H   0  0  0  0  0  0
   16.6608   -3.1671   17.8423 H   0  0  0  0  0  0
   16.9179   -3.1214   20.3029 H   0  0  0  0  0  0
   16.6528   -5.2030   21.6135 H   0  0  0  0  0  0
   16.1438   -7.3151   20.4665 H   0  0  0  0  0  0
  1  2  1  0  0  0
  1 11  2  0  0  0
  1 12  1  0  0  0
  2  3  2  0  0  0
  2 20  1  0  0  0
  3  4  1  0  0  0
  3 21  1  0  0  0
  4  5  1  0  0  0
  4  9  2  0  0  0
  5  6  2  0  0  0
  5 22  1  0  0  0
  6  7  1  0  0  0
  6 23  1  0  0  0
  7  8  2  0  0  0
  7 10  1  0  0  0
  8  9  1  0  0  0
  8 24  1  0  0  0
  9 25  1  0  0  0
 10 26  1  0  0  0
 12 13  1  0  0  0
 13 14  1  0  0  0
 13 27  1  0  0  0
 13 28  1  0  0  0
 14 15  1  0  0  0
 14 19  2  0  0  0
 15 16  2  0  0  0
 15 29  1  0  0  0
 16 17  1  0  0  0
 16 30  1  0  0  0
 17 18  2  0  0  0
 17 31  1  0  0  0
 18 19  1  0  0  0
 18 32  1  0  0  0
 19 33  1  0  0  0
M  END
> <s_m_entry_id>
6396

> <s_m_entry_name>
dock_pv.231

> <s_m_Source_Path>
/home/csk/Desktop/cluster/DUD-E-result/aldr

> <s_m_Source_File>
dock_pv.maegz

> <i_m_Source_File_Index>
231

> <chembl_id>
CHEMBL1095574

> <chembl_pref_name>
None

> <i_lp_mmshare_version>
53161

> <i_f3d_flags>
0

> <r_lp_tautomer_probability>
1

> <s_lp_Force_Field>
OPLS_2005

> <r_lp_Energy>
13.888058

> <b_lp_Chiralities_Consistent>
1

> <s_lp_Variant>
CHEMBL1900_lig544-1

> <s_i_glide_gridfile>
glide-grid_2hv5

> <i_i_glide_lignum>
667

> <i_i_glide_rotatable_bonds>
6

> <r_i_docking_score>
-8.9462716587991

> <r_i_glide_ligand_efficiency>
-0.47085640309469

> <r_i_glide_ligand_efficiency_sa>
-1.25643400109599

> <r_i_glide_ligand_efficiency_ln>
-2.2680720138025

> <r_i_glide_gscore>
-8.9462716587991

> <r_i_glide_lipo>
-4.27726460651542

> <r_i_glide_hbond>
-0.32

> <r_i_glide_metal>
0

> <r_i_glide_rewards>
-2.87540341117869

> <r_i_glide_evdw>
-36.5926933288574

> <r_i_glide_ecoul>
-4.87873601913452

> <r_i_glide_erotb>
1.08784142820806

> <r_i_glide_esite>
0

> <r_i_glide_emodel>
-60.08307909886

> <r_i_glide_energy>
-41.4714293479919

> <r_i_glide_einternal>
3.90475368499756

> <i_i_glide_confnum>
5

> <i_i_glide_posenum>
379

> <r_i_glide_eff_state_penalty>
0

> <s_user_duplicate_titles>
CHEMBL1900_lig544

> <s_m_subgroup_title>
dock_pv

> <s_m_subgroupid>
dock_pv

> <b_m_subgroup_collapsed>
1

$$$$
CHEMBL1900_lig594
                    3D
 Schrodinger Suite 2021-1.
 42 44  0  0  1  0            999 V2000
   16.4149   -8.2778   14.9950 C   0  0  0  0  0  0
   16.3019   -9.9504   16.5583 C   0  0  0  0  0  0
   15.8398   -8.7169   16.2649 C   0  0  0  0  0  0
   17.1976  -10.3835   15.4931 C   0  0  0  0  0  0
   17.3450   -9.3476   14.5811 C   0  0  0  0  0  0
   16.0751   -7.1330   14.3593 C   0  0  0  0  0  0
   18.0353   -3.8525    9.6610 S   0  0  2  0  0  0
   16.0254  -10.8357   17.7635 C   0  0  0  0  0  0
   18.1808   -9.5176   13.4728 C   0  0  0  0  0  0
   14.9437  -11.8880   17.5244 C   0  0  0  0  0  0
   17.8408  -11.6077   15.3001 C   0  0  0  0  0  0
   17.4021   -4.9142   11.0017 C   0  0  0  0  0  0
   19.3455   -3.2579   10.1810 O   0  0  0  0  0  0
   14.5452  -12.2487   16.4204 O   0  0  0  0  0  0
   16.5606   -6.5149   13.1196 C   0  0  0  0  0  0
   18.3039   -5.3374   11.9695 C   0  0  0  0  0  0
   16.0739   -5.3304   11.0542 C   0  0  0  0  0  0
   18.6494  -11.7878   14.1812 C   0  0  0  0  0  0
   18.8302  -10.7411   13.2807 C   0  0  0  0  0  0
   14.8653   -7.9058   17.1103 C   0  0  0  0  0  0
   14.4858  -12.3729   18.7106 O   0  0  0  0  0  0
   17.8971   -6.1404   13.0221 C   0  0  0  0  0  0
   15.6541   -6.1151   12.1258 C   0  0  0  0  0  0
   19.2713  -12.9705   13.9796 F   0  0  0  0  0  0
   16.7794   -2.4910    9.7012 C   0  0  0  0  0  0
   15.3311   -6.5230   14.8454 H   0  0  0  0  0  0
   16.9481  -11.3281   18.0675 H   0  0  0  0  0  0
   15.7012  -10.1996   18.5810 H   0  0  0  0  0  0
   18.3006   -8.7448   12.7302 H   0  0  0  0  0  0
   17.7125  -12.4263   15.9925 H   0  0  0  0  0  0
   19.3343   -5.0456   11.9058 H   0  0  0  0  0  0
   15.3643   -5.0320   10.2968 H   0  0  0  0  0  0
   19.4497  -10.9045   12.4135 H   0  0  0  0  0  0
   15.2815   -6.9208   17.3253 H   0  0  0  0  0  0
   13.9238   -7.7717   16.5776 H   0  0  0  0  0  0
   14.6322   -8.3819   18.0613 H   0  0  0  0  0  0
   13.7010  -12.9151   18.5761 H   0  0  0  0  0  0
   18.6089   -6.4191   13.7870 H   0  0  0  0  0  0
   14.6083   -6.3806   12.1811 H   0  0  0  0  0  0
   15.7563   -2.8650    9.6971 H   0  0  0  0  0  0
   16.9450   -1.8781   10.5810 H   0  0  0  0  0  0
   16.9127   -1.8509    8.8305 H   0  0  0  0  0  0
  1  3  1  0  0  0
  1  5  1  0  0  0
  1  6  2  0  0  0
  2  3  2  0  0  0
  2  8  1  0  0  0
  2  4  1  0  0  0
  3 20  1  0  0  0
  4  5  2  0  0  0
  4 11  1  0  0  0
  5  9  1  0  0  0
  6 15  1  0  0  0
  6 26  1  0  0  0
  7 12  1  0  0  0
  7 13  2  0  0  0
  7 25  1  0  0  0
  8 10  1  0  0  0
  8 27  1  0  0  0
  8 28  1  0  0  0
  9 19  2  0  0  0
  9 29  1  0  0  0
 10 14  2  0  0  0
 10 21  1  0  0  0
 11 18  2  0  0  0
 11 30  1  0  0  0
 12 17  2  0  0  0
 12 16  1  0  0  0
 15 22  1  0  0  0
 15 23  2  0  0  0
 16 22  2  0  0  0
 16 31  1  0  0  0
 17 23  1  0  0  0
 17 32  1  0  0  0
 18 19  1  0  0  0
 18 24  1  0  0  0
 19 33  1  0  0  0
 20 34  1  0  0  0
 20 35  1  0  0  0
 20 36  1  0  0  0
 21 37  1  0  0  0
 22 38  1  0  0  0
 23 39  1  0  0  0
 25 40  1  0  0  0
 25 41  1  0  0  0
 25 42  1  0  0  0
M  END
> <s_m_entry_id>
6397

> <s_m_entry_name>
dock_pv.232

> <s_m_Source_Path>
/home/csk/Desktop/cluster/DUD-E-result/aldr

> <s_m_Source_File>
dock_pv.maegz

> <i_m_Source_File_Index>
232

> <chembl_id>
CHEMBL15770

> <chembl_pref_name>
SULINDAC

> <i_lp_mmshare_version>
53161

> <i_f3d_flags>
0

> <r_lp_tautomer_probability>
1

> <s_lp_Force_Field>
OPLS_2005

> <r_lp_Energy>
36.142568

> <b_lp_Chiralities_Consistent>
1

> <s_lp_Variant>
CHEMBL1900_lig594-1

> <s_i_glide_gridfile>
glide-grid_2hv5

> <i_i_glide_lignum>
717

> <i_i_glide_rotatable_bonds>
5

> <r_i_docking_score>
-8.94242188644747

> <r_i_glide_ligand_efficiency>
-0.357696875457899

> <r_i_glide_ligand_efficiency_sa>
-1.04591200761999

> <r_i_glide_ligand_efficiency_ln>
-2.11962196984711

> <r_i_glide_gscore>
-8.94242188644747

> <r_i_glide_lipo>
-4.27362894908852

> <r_i_glide_hbond>
-0.161722013966629

> <r_i_glide_metal>
0

> <r_i_glide_rewards>
-2.5619654650343

> <r_i_glide_evdw>
-37.064380645752

> <r_i_glide_ecoul>
-3.6248025894165

> <r_i_glide_erotb>
0.451833962342058

> <r_i_glide_esite>
0

> <r_i_glide_emodel>
-51.2096079526849

> <r_i_glide_energy>
-40.6891832351685

> <r_i_glide_einternal>
7.26955842971802

> <i_i_glide_confnum>
2

> <i_i_glide_posenum>
375

> <r_i_glide_eff_state_penalty>
0

> <s_user_duplicate_titles>
CHEMBL1900_lig594

> <s_m_subgroup_title>
dock_pv

> <s_m_subgroupid>
dock_pv

> <b_m_subgroup_collapsed>
1

$$$$
CHEMBL1900_lig85
                    3D
 Schrodinger Suite 2021-1.
 37 39  0  0  1  0            999 V2000
   16.2293  -12.6111   16.2621 C   0  0  0  0  0  0
   16.9827  -11.7441   15.4720 C   0  0  0  0  0  0
   16.9848  -10.3728   15.7523 C   0  0  0  0  0  0
   16.2664   -9.8642   16.8508 C   0  0  0  0  0  0
   15.5029  -10.7534   17.6268 C   0  0  0  0  0  0
   15.4845  -12.1160   17.3316 C   0  0  0  0  0  0
   17.7850   -9.4299   14.8700 C   0  0  0  0  0  0
   17.5927   -8.1058   15.1939 N   0  0  0  0  0  0
   16.6869   -7.6062   16.1045 C   0  0  0  0  0  0
   16.3762   -8.4729   17.1201 N   0  0  0  0  0  0
   18.4078   -7.0871   14.4611 C   0  0  0  0  0  0
   17.8154   -6.3532   13.2378 C   0  0  0  0  0  0
   16.5237   -6.5150   12.7727 C   0  0  0  0  0  0
   16.0228   -5.8391   11.6598 C   0  0  0  0  0  0
   16.8463   -4.9485   10.9809 C   0  0  0  0  0  0
   18.1450   -4.7478   11.4367 C   0  0  0  0  0  0
   18.5985   -5.4399   12.5674 C   0  0  0  0  0  0
   14.5450  -13.1904   18.3013 Cl  0  0  0  0  0  0
   15.7418   -7.9421   18.3715 C   0  0  0  0  0  0
   16.3675   -6.6566   18.9810 C   0  0  0  0  0  0
   15.7450   -5.8960   19.6902 O   0  0  0  0  0  0
   17.6842   -6.5150   18.6674 O   0  0  0  0  0  0
   16.1449   -6.5087   16.0114 O   0  0  0  0  0  0
   18.5446   -9.8158   13.9772 O   0  0  0  0  0  0
   15.7450   -7.3150   13.4570 F   0  0  0  0  0  0
   16.1976   -3.9942    9.4671 Br  0  0  0  0  0  0
   16.2172  -13.6680   16.0386 H   0  0  0  0  0  0
   17.5436  -12.1417   14.6366 H   0  0  0  0  0  0
   14.9092  -10.4113   18.4606 H   0  0  0  0  0  0
   18.7223   -6.3226   15.1749 H   0  0  0  0  0  0
   19.3466   -7.5369   14.1300 H   0  0  0  0  0  0
   15.0019   -5.9928   11.3433 H   0  0  0  0  0  0
   18.7912   -4.0476   10.9296 H   0  0  0  0  0  0
   19.5930   -5.3150   12.9609 H   0  0  0  0  0  0
   14.6816   -7.7732   18.1810 H   0  0  0  0  0  0
   15.8203   -8.6741   19.1726 H   0  0  0  0  0  0
   18.0406   -5.7220   19.0705 H   0  0  0  0  0  0
  1  2  2  0  0  0
  1  6  1  0  0  0
  1 27  1  0  0  0
  2  3  1  0  0  0
  2 28  1  0  0  0
  3  4  2  0  0  0
  3  7  1  0  0  0
  4  5  1  0  0  0
  4 10  1  0  0  0
  5  6  2  0  0  0
  5 29  1  0  0  0
  6 18  1  0  0  0
  7  8  1  0  0  0
  7 24  2  0  0  0
  8  9  1  0  0  0
  8 11  1  0  0  0
  9 10  1  0  0  0
  9 23  2  0  0  0
 10 19  1  0  0  0
 11 12  1  0  0  0
 11 30  1  0  0  0
 11 31  1  0  0  0
 12 13  2  0  0  0
 12 17  1  0  0  0
 13 14  1  0  0  0
 13 25  1  0  0  0
 14 15  2  0  0  0
 14 32  1  0  0  0
 15 16  1  0  0  0
 15 26  1  0  0  0
 16 17  2  0  0  0
 16 33  1  0  0  0
 17 34  1  0  0  0
 19 20  1  0  0  0
 19 35  1  0  0  0
 19 36  1  0  0  0
 20 21  2  0  0  0
 20 22  1  0  0  0
 22 37  1  0  0  0
M  END
> <s_m_entry_id>
6398

> <s_m_entry_name>
dock_pv.233

> <s_m_Source_Path>
/home/csk/Desktop/cluster/DUD-E-result/aldr

> <s_m_Source_File>
dock_pv.maegz

> <i_m_Source_File_Index>
233

> <chembl_id>
CHEMBL10413

> <chembl_pref_name>
ZENARESTAT

> <i_lp_mmshare_version>
53161

> <i_f3d_flags>
0

> <r_lp_tautomer_probability>
1

> <s_lp_Force_Field>
OPLS_2005

> <r_lp_Energy>
28.707441

> <b_lp_Chiralities_Consistent>
1

> <s_lp_Variant>
CHEMBL1900_lig85-1

> <s_i_glide_gridfile>
glide-grid_2hv5

> <i_i_glide_lignum>
124

> <i_i_glide_rotatable_bonds>
5

> <r_i_docking_score>
-8.92766633671944

> <r_i_glide_ligand_efficiency>
-0.343371782181517

> <r_i_glide_ligand_efficiency_sa>
-1.01723755361002

> <r_i_glide_ligand_efficiency_ln>
-2.09663314511598

> <r_i_glide_gscore>
-8.92766633671944

> <r_i_glide_lipo>
-3.70599777066128

> <r_i_glide_hbond>
-0.35386998056508

> <r_i_glide_metal>
0

> <r_i_glide_rewards>
-2.84833378060893

> <r_i_glide_evdw>
-36.7354164123535

> <r_i_glide_ecoul>
-3.94922590255737

> <r_i_glide_erotb>
0.409689901117131

> <r_i_glide_esite>
0

> <r_i_glide_emodel>
-51.401669668026

> <r_i_glide_energy>
-40.6846423149109

> <r_i_glide_einternal>
10.1267728805542

> <i_i_glide_confnum>
14

> <i_i_glide_posenum>
200

> <r_i_glide_eff_state_penalty>
0

> <s_user_duplicate_titles>
CHEMBL1900_lig85,7451

> <s_m_subgroup_title>
dock_pv

> <s_m_subgroupid>
dock_pv

> <b_m_subgroup_collapsed>
1

$$$$
CHEMBL1900_lig634
                    3D
 Schrodinger Suite 2021-1.
 41 43  0  0  1  0            999 V2000
   15.7405   -4.0227    9.9378 C   0  0  0  0  0  0
   17.0921   -3.7033    9.8321 C   0  0  0  0  0  0
   18.0373   -4.3463   10.6309 C   0  0  0  0  0  0
   15.3085   -4.9150   10.9169 C   0  0  0  0  0  0
   16.2470   -5.4781   11.7805 C   0  0  0  0  0  0
   17.6051   -5.2426   11.6060 C   0  0  0  0  0  0
   18.5450   -5.8231   12.4376 O   0  0  0  0  0  0
   18.2043   -6.6627   13.4933 C   0  0  0  0  0  0
   16.7538   -6.7829   13.8334 C   0  0  0  0  0  0
   15.8712   -6.2165   12.9694 C   0  0  0  0  0  0
   19.1628   -7.1774   14.0695 O   0  0  0  0  0  0
   16.2480   -7.3414   15.0886 C   0  0  0  0  0  0
   17.1152   -8.0261   15.8581 N   0  0  0  0  0  0
   15.0861   -7.1751   15.4598 O   0  0  0  0  0  0
   16.8119   -8.5910   17.1806 C   0  0  0  0  0  0
   16.3878   -7.5445   18.2430 C   0  0  0  0  0  0
   17.4055   -6.4007   18.4158 C   0  0  0  0  0  0
   16.8263   -5.1393   19.0315 C   0  0  0  0  0  0
   16.8760   -4.9191   20.4106 C   0  0  0  0  0  0
   16.3212   -3.7586   20.9474 C   0  0  0  0  0  0
   15.7451   -2.8219   20.0942 C   0  0  0  0  0  0
   15.7450   -3.0110   18.7237 C   0  0  0  0  0  0
   16.2509   -4.1858   18.1917 C   0  0  0  0  0  0
   17.4753   -2.7120    8.9810 O   0  0  0  0  0  0
   15.1617   -1.7148   20.5810 F   0  0  0  0  0  0
   15.0148   -3.5295    9.3078 H   0  0  0  0  0  0
   19.0847   -4.1120   10.5424 H   0  0  0  0  0  0
   14.2505   -5.0969   11.0472 H   0  0  0  0  0  0
   14.8298   -6.1150   13.2380 H   0  0  0  0  0  0
   18.0620   -8.1269   15.5162 H   0  0  0  0  0  0
   17.7319   -9.0761   17.5062 H   0  0  0  0  0  0
   16.0558   -9.3731   17.0877 H   0  0  0  0  0  0
   16.2203   -8.0380   19.2010 H   0  0  0  0  0  0
   15.4153   -7.1352   17.9679 H   0  0  0  0  0  0
   17.8035   -6.1150   17.4437 H   0  0  0  0  0  0
   18.2705   -6.7363   18.9810 H   0  0  0  0  0  0
   17.3225   -5.6527   21.0629 H   0  0  0  0  0  0
   16.3252   -3.5862   22.0138 H   0  0  0  0  0  0
   15.2520   -2.2861   18.1013 H   0  0  0  0  0  0
   16.1450   -4.3705   17.1364 H   0  0  0  0  0  0
   18.4060   -2.4948    9.0460 H   0  0  0  0  0  0
  1  2  2  0  0  0
  1  4  1  0  0  0
  1 26  1  0  0  0
  2  3  1  0  0  0
  2 24  1  0  0  0
  3  6  2  0  0  0
  3 27  1  0  0  0
  4  5  2  0  0  0
  4 28  1  0  0  0
  5  6  1  0  0  0
  5 10  1  0  0  0
  6  7  1  0  0  0
  7  8  1  0  0  0
  8  9  1  0  0  0
  8 11  2  0  0  0
  9 10  2  0  0  0
  9 12  1  0  0  0
 10 29  1  0  0  0
 12 13  1  0  0  0
 12 14  2  0  0  0
 13 15  1  0  0  0
 13 30  1  0  0  0
 15 16  1  0  0  0
 15 31  1  0  0  0
 15 32  1  0  0  0
 16 17  1  0  0  0
 16 33  1  0  0  0
 16 34  1  0  0  0
 17 18  1  0  0  0
 17 35  1  0  0  0
 17 36  1  0  0  0
 18 19  2  0  0  0
 18 23  1  0  0  0
 19 20  1  0  0  0
 19 37  1  0  0  0
 20 21  2  0  0  0
 20 38  1  0  0  0
 21 22  1  0  0  0
 21 25  1  0  0  0
 22 23  2  0  0  0
 22 39  1  0  0  0
 23 40  1  0  0  0
 24 41  1  0  0  0
M  END
> <s_m_entry_id>
6399

> <s_m_entry_name>
dock_pv.234

> <s_m_Source_Path>
/home/csk/Desktop/cluster/DUD-E-result/aldr

> <s_m_Source_File>
dock_pv.maegz

> <i_m_Source_File_Index>
234

> <chembl_id>
CHEMBL4089817

> <chembl_pref_name>
None

> <i_lp_mmshare_version>
53161

> <i_f3d_flags>
0

> <r_lp_tautomer_probability>
1

> <s_lp_Force_Field>
OPLS_2005

> <r_lp_Energy>
24.118526

> <b_lp_Chiralities_Consistent>
1

> <s_lp_Variant>
CHEMBL1900_lig634-1

> <s_i_glide_gridfile>
glide-grid_2hv5

> <i_i_glide_lignum>
758

> <i_i_glide_rotatable_bonds>
7

> <r_i_docking_score>
-8.92134170685352

> <r_i_glide_ligand_efficiency>
-0.356853668274141

> <r_i_glide_ligand_efficiency_sa>
-1.04344645486034

> <r_i_glide_ligand_efficiency_ln>
-2.11462533556133

> <r_i_glide_gscore>
-8.92134170685352

> <r_i_glide_lipo>
-5.22861101418959

> <r_i_glide_hbond>
-0.0948716632660227

> <r_i_glide_metal>
0

> <r_i_glide_rewards>
-2.31233052621044

> <r_i_glide_evdw>
-42.6961784362793

> <r_i_glide_ecoul>
0.566988468170166

> <r_i_glide_erotb>
0.813188655838433

> <r_i_glide_esite>
-0.0489565074374664

> <r_i_glide_emodel>
-54.4807842461696

> <r_i_glide_energy>
-42.1291899681091

> <r_i_glide_einternal>
2.89982628822327

> <i_i_glide_confnum>
9

> <i_i_glide_posenum>
127

> <r_i_glide_eff_state_penalty>
0

> <s_user_duplicate_titles>
CHEMBL1900_lig634

> <s_m_subgroup_title>
dock_pv

> <s_m_subgroupid>
dock_pv

> <b_m_subgroup_collapsed>
1

$$$$
CHEMBL1900_lig117
                    3D
 Schrodinger Suite 2021-1.
 41 44  0  0  1  0            999 V2000
   16.1730   -8.9911   16.6265 C   0  0  2  0  0  0
   16.0764  -10.3820   17.1842 N   0  0  0  0  0  0
   16.9794   -8.9218   15.3193 C   0  0  0  0  0  0
   16.8053   -7.9740   17.5940 C   0  0  0  0  0  0
   17.0593  -11.3125   16.9810 C   0  0  0  0  0  0
   14.8902   -8.3600   16.5024 N   0  0  0  0  0  0
   15.7716   -7.3011   18.0794 N   0  0  0  0  0  0
   14.9450   -7.1539   17.0467 C   0  0  0  0  0  0
   17.7450  -11.1376   15.8338 N   0  0  0  0  0  0
   17.7450  -10.0362   14.9810 C   0  0  0  0  0  0
   16.6028   -6.1288   11.9297 C   0  0  0  0  0  0
   16.9745   -7.8150   14.4490 C   0  0  0  0  0  0
   17.7549   -6.7206   12.4126 O   0  0  0  0  0  0
   17.3522  -12.2242   17.7543 O   0  0  0  0  0  0
   17.9888   -7.7150   17.7810 O   0  0  0  0  0  0
   14.5450   -6.1150   16.5810 O   0  0  0  0  0  0
   17.7450   -7.7987   13.2833 C   0  0  0  0  0  0
   15.4611   -6.5150   12.1810 O   0  0  0  0  0  0
   16.8644   -4.9718   11.0162 C   0  0  0  0  0  0
   18.5515  -10.0229   13.8481 C   0  0  0  0  0  0
   15.0683  -10.6633   18.2224 C   0  0  0  0  0  0
   18.5728   -8.8967   13.0303 C   0  0  0  0  0  0
   15.8024   -4.3935   10.3075 C   0  0  0  0  0  0
   18.1450   -4.4248   10.8853 C   0  0  0  0  0  0
   18.3655   -3.3150   10.0753 C   0  0  0  0  0  0
   16.0227   -3.2841    9.4973 C   0  0  0  0  0  0
   17.3008   -2.7490    9.3817 C   0  0  0  0  0  0
   14.1223   -8.7190   15.9543 H   0  0  0  0  0  0
   15.8612   -6.6008   18.7966 H   0  0  0  0  0  0
   18.3925  -11.8866   15.6433 H   0  0  0  0  0  0
   16.3734   -6.9476   14.6771 H   0  0  0  0  0  0
   19.1793  -10.8683   13.6064 H   0  0  0  0  0  0
   15.1117  -11.6810   18.6145 H   0  0  0  0  0  0
   15.1792   -9.9710   19.0556 H   0  0  0  0  0  0
   14.0677  -10.5265   17.8128 H   0  0  0  0  0  0
   19.2337   -8.9150   12.1810 H   0  0  0  0  0  0
   14.7961   -4.7808   10.3957 H   0  0  0  0  0  0
   18.9683   -4.8458   11.4350 H   0  0  0  0  0  0
   19.3522   -2.8846    9.9981 H   0  0  0  0  0  0
   15.1944   -2.8272    8.9810 H   0  0  0  0  0  0
   17.4605   -1.8794    8.7626 H   0  0  0  0  0  0
  1  2  1  0  0  0
  1  3  1  0  0  0
  1  4  1  0  0  0
  1  6  1  0  0  0
  2  5  1  0  0  0
  2 21  1  0  0  0
  3 10  1  0  0  0
  3 12  2  0  0  0
  4  7  1  0  0  0
  4 15  2  0  0  0
  5 14  2  0  0  0
  5  9  1  0  0  0
  6  8  1  0  0  0
  6 28  1  0  0  0
  7  8  1  0  0  0
  7 29  1  0  0  0
  8 16  2  0  0  0
  9 10  1  0  0  0
  9 30  1  0  0  0
 10 20  2  0  0  0
 11 13  1  0  0  0
 11 18  2  0  0  0
 11 19  1  0  0  0
 12 17  1  0  0  0
 12 31  1  0  0  0
 13 17  1  0  0  0
 17 22  2  0  0  0
 19 23  2  0  0  0
 19 24  1  0  0  0
 20 22  1  0  0  0
 20 32  1  0  0  0
 21 33  1  0  0  0
 21 34  1  0  0  0
 21 35  1  0  0  0
 22 36  1  0  0  0
 23 26  1  0  0  0
 23 37  1  0  0  0
 24 25  2  0  0  0
 24 38  1  0  0  0
 25 27  1  0  0  0
 25 39  1  0  0  0
 26 27  2  0  0  0
 26 40  1  0  0  0
 27 41  1  0  0  0
M  END
> <s_m_entry_id>
6400

> <s_m_entry_name>
dock_pv.235

> <s_m_Source_Path>
/home/csk/Desktop/cluster/DUD-E-result/aldr

> <s_m_Source_File>
dock_pv.maegz

> <i_m_Source_File_Index>
235

> <chembl_id>
CHEMBL304050

> <chembl_pref_name>
None

> <i_lp_mmshare_version>
53161

> <i_f3d_flags>
0

> <r_lp_tautomer_probability>
0.99999999978137

> <s_lp_Force_Field>
OPLS_2005

> <r_lp_Energy>
46.072144

> <b_lp_Chiralities_Consistent>
1

> <s_lp_Variant>
CHEMBL1900_lig117-1

> <s_i_glide_gridfile>
glide-grid_2hv5

> <i_i_glide_lignum>
174

> <i_i_glide_rotatable_bonds>
3

> <r_i_docking_score>
-8.91363895577106

> <r_i_glide_ligand_efficiency>
-0.330134776139669

> <r_i_glide_ligand_efficiency_sa>
-0.990404327330936

> <r_i_glide_ligand_efficiency_ln>
-2.07494819608033

> <r_i_glide_gscore>
-8.91363895577106

> <r_i_glide_lipo>
-3.24501623723921

> <r_i_glide_hbond>
-0.503998720760378

> <r_i_glide_metal>
0

> <r_i_glide_rewards>
-2.46865420853214

> <r_i_glide_evdw>
-37.6797218322754

> <r_i_glide_ecoul>
-8.28159618377686

> <r_i_glide_erotb>
0.430255729940975

> <r_i_glide_esite>
0

> <r_i_glide_emodel>
-54.9789813416679

> <r_i_glide_energy>
-45.9613180160522

> <r_i_glide_einternal>
0.59279078245163

> <i_i_glide_confnum>
11

> <i_i_glide_posenum>
27

> <r_i_glide_eff_state_penalty>
0

> <s_user_duplicate_titles>
CHEMBL1900_lig117

> <s_m_subgroup_title>
dock_pv

> <s_m_subgroupid>
dock_pv

> <b_m_subgroup_collapsed>
1

$$$$
CHEMBL1900_lig213
                    3D
 Schrodinger Suite 2021-1.
 34 35  0  0  1  0            999 V2000
   16.7798   -6.9682   17.9865 C   0  0  0  0  0  0
   17.4858   -7.7986   15.9732 N   0  0  0  0  0  0
   16.0147   -8.0121   17.6270 C   0  0  0  0  0  0
   16.4429   -8.5651   16.3578 C   0  0  0  0  0  0
   17.8097   -6.7734   16.9318 C   0  0  0  0  0  0
   16.6950   -6.1020   19.1584 C   0  0  0  0  0  0
   18.1638   -7.9122   14.6804 C   0  0  0  0  0  0
   15.9556   -9.5199   15.7506 O   0  0  0  0  0  0
   15.7450   -6.1155   19.9246 O   0  0  0  0  0  0
   14.9450   -8.6441   18.1810 O   0  0  0  0  0  0
   17.6696   -6.9418   13.6105 C   0  0  0  0  0  0
   17.7450   -5.2788   19.3391 O   0  0  0  0  0  0
   16.8074   -5.3226   11.5050 C   0  0  0  0  0  0
   16.2880   -4.3440   10.1810 Cl  0  0  0  0  0  0
   18.5711   -6.1150   12.9511 C   0  0  0  0  0  0
   16.3278   -6.9150   13.2414 C   0  0  0  0  0  0
   15.8890   -6.1150   12.1870 C   0  0  0  0  0  0
   18.1450   -5.3150   11.8908 C   0  0  0  0  0  0
   17.8421   -4.4812   20.5187 C   0  0  0  0  0  0
   16.8298   -3.3153   20.5430 C   0  0  0  0  0  0
   17.7450   -5.7843   16.4850 H   0  0  0  0  0  0
   18.8292   -6.9150   17.2946 H   0  0  0  0  0  0
   19.2329   -7.7629   14.8377 H   0  0  0  0  0  0
   18.0558   -8.9238   14.2844 H   0  0  0  0  0  0
   14.6694   -9.3568   17.5968 H   0  0  0  0  0  0
   19.6132   -6.1173   13.2360 H   0  0  0  0  0  0
   15.6490   -7.5564   13.7698 H   0  0  0  0  0  0
   14.8475   -6.1141   11.8993 H   0  0  0  0  0  0
   18.8522   -4.6933   11.3640 H   0  0  0  0  0  0
   18.8651   -4.1150   20.5796 H   0  0  0  0  0  0
   17.7010   -5.1065   21.4013 H   0  0  0  0  0  0
   16.9450   -2.7243   21.4490 H   0  0  0  0  0  0
   15.7986   -3.6652   20.5415 H   0  0  0  0  0  0
   16.9450   -2.6566   19.6837 H   0  0  0  0  0  0
  1  3  2  0  0  0
  1  5  1  0  0  0
  1  6  1  0  0  0
  2  5  1  0  0  0
  2  7  1  0  0  0
  2  4  1  0  0  0
  3  4  1  0  0  0
  3 10  1  0  0  0
  4  8  2  0  0  0
  5 21  1  0  0  0
  5 22  1  0  0  0
  6  9  2  0  0  0
  6 12  1  0  0  0
  7 11  1  0  0  0
  7 23  1  0  0  0
  7 24  1  0  0  0
 10 25  1  0  0  0
 11 15  1  0  0  0
 11 16  2  0  0  0
 12 19  1  0  0  0
 13 17  2  0  0  0
 13 14  1  0  0  0
 13 18  1  0  0  0
 15 18  2  0  0  0
 15 26  1  0  0  0
 16 17  1  0  0  0
 16 27  1  0  0  0
 17 28  1  0  0  0
 18 29  1  0  0  0
 19 20  1  0  0  0
 19 30  1  0  0  0
 19 31  1  0  0  0
 20 32  1  0  0  0
 20 33  1  0  0  0
 20 34  1  0  0  0
M  END
> <s_m_entry_id>
6401

> <s_m_entry_name>
dock_pv.236

> <s_m_Source_Path>
/home/csk/Desktop/cluster/DUD-E-result/aldr

> <s_m_Source_File>
dock_pv.maegz

> <i_m_Source_File_Index>
236

> <chembl_id>
CHEMBL7183

> <chembl_pref_name>
None

> <i_lp_mmshare_version>
53161

> <i_f3d_flags>
0

> <r_lp_tautomer_probability>
1

> <s_lp_Force_Field>
OPLS_2005

> <r_lp_Energy>
22.828601

> <b_lp_Chiralities_Consistent>
1

> <s_lp_Variant>
CHEMBL1900_lig213-1

> <s_i_glide_gridfile>
glide-grid_2hv5

> <i_i_glide_lignum>
289

> <i_i_glide_rotatable_bonds>
6

> <r_i_docking_score>
-8.86975533341073

> <r_i_glide_ligand_efficiency>
-0.443487766670537

> <r_i_glide_ligand_efficiency_sa>
-1.20381100539274

> <r_i_glide_ligand_efficiency_ln>
-2.21980721584271

> <r_i_glide_gscore>
-8.86975533341073

> <r_i_glide_lipo>
-3.71531987852648

> <r_i_glide_hbond>
-0.356167769588282

> <r_i_glide_metal>
0

> <r_i_glide_rewards>
-3.3451221736014

> <r_i_glide_evdw>
-34.5691299438477

> <r_i_glide_ecoul>
-3.74764132499695

> <r_i_glide_erotb>
0.837457184247356

> <r_i_glide_esite>
0

> <r_i_glide_emodel>
-56.2952208729474

> <r_i_glide_energy>
-38.3167712688446

> <r_i_glide_einternal>
0.494844555854797

> <i_i_glide_confnum>
4

> <i_i_glide_posenum>
302

> <r_i_glide_eff_state_penalty>
0

> <s_user_duplicate_titles>
CHEMBL1900_lig213,2002

> <s_m_subgroup_title>
dock_pv

> <s_m_subgroupid>
dock_pv

> <b_m_subgroup_collapsed>
1

$$$$
CHEMBL1900_lig35
                    3D
 Schrodinger Suite 2021-1.
 42 44  0  0  1  0            999 V2000
   18.1340   -7.8187   14.1420 S   0  0  0  0  0  0
   17.0913   -6.4818   18.8597 N   0  0  0  0  0  0
   16.1569   -8.3911   16.2176 C   0  0  0  0  0  0
   17.4472   -6.9150   17.6670 C   0  0  0  0  0  0
   16.2376   -6.9598   16.7732 C   0  0  2  0  0  0
   15.8252   -6.1150   18.9121 C   0  0  0  0  0  0
   17.0222   -8.8523   15.1838 C   0  0  0  0  0  0
   15.2764   -6.5314   17.7592 N   0  0  0  0  0  0
   19.2753   -8.6657   13.7810 O   0  0  0  0  0  0
   18.3626   -6.5150   14.7663 O   0  0  0  0  0  0
   17.1261  -10.2359   14.9793 C   0  0  0  0  0  0
   15.3567   -9.3224   16.9044 C   0  0  0  0  0  0
   17.2912   -7.4755   12.6398 N   0  0  2  0  0  0
   18.5450   -7.3150   17.3810 O   0  0  0  0  0  0
   15.3450   -5.4101   19.7810 O   0  0  0  0  0  0
   15.4659  -10.6858   16.6583 C   0  0  0  0  0  0
   16.3619  -11.1444   15.7037 C   0  0  0  0  0  0
   14.5450  -11.8086   17.5879 Cl  0  0  0  0  0  0
   16.1950   -6.4863   12.5927 C   0  0  0  0  0  0
   16.5049   -4.8706   10.5855 C   0  0  0  0  0  0
   15.8087   -6.1049   11.1460 C   0  0  0  0  0  0
   15.7450   -3.9203    9.8993 C   0  0  0  0  0  0
   17.8831   -4.6855   10.7305 C   0  0  0  0  0  0
   18.4908   -3.5491   10.2015 C   0  0  0  0  0  0
   16.3495   -2.7806    9.3810 C   0  0  0  0  0  0
   17.7195   -2.6006    9.5374 C   0  0  0  0  0  0
   17.7277   -6.4196   19.6386 H   0  0  0  0  0  0
   16.2722   -6.2126   15.9815 H   0  0  0  0  0  0
   14.2863   -6.7015   17.6523 H   0  0  0  0  0  0
   17.8029  -10.6247   14.2317 H   0  0  0  0  0  0
   14.7006   -9.0103   17.7029 H   0  0  0  0  0  0
   17.3414   -8.1804   11.9005 H   0  0  0  0  0  0
   16.4649  -12.2038   15.5188 H   0  0  0  0  0  0
   16.5137   -5.5993   13.1393 H   0  0  0  0  0  0
   15.3450   -6.9150   13.1151 H   0  0  0  0  0  0
   14.7317   -5.9270   11.1390 H   0  0  0  0  0  0
   15.9772   -6.9150   10.4395 H   0  0  0  0  0  0
   14.6795   -4.0558    9.7810 H   0  0  0  0  0  0
   18.4840   -5.4151   11.2536 H   0  0  0  0  0  0
   19.5512   -3.3904   10.3184 H   0  0  0  0  0  0
   15.7539   -2.0364    8.8753 H   0  0  0  0  0  0
   18.1884   -1.7150    9.1404 H   0  0  0  0  0  0
  1  7  1  0  0  0
  1  9  2  0  0  0
  1 10  2  0  0  0
  1 13  1  0  0  0
  2  4  1  0  0  0
  2  6  1  0  0  0
  2 27  1  0  0  0
  3  7  1  0  0  0
  3  5  1  0  0  0
  3 12  2  0  0  0
  4  5  1  0  0  0
  4 14  2  0  0  0
  5  8  1  0  0  0
  5 28  1  0  0  0
  6  8  1  0  0  0
  6 15  2  0  0  0
  7 11  2  0  0  0
  8 29  1  0  0  0
 11 17  1  0  0  0
 11 30  1  0  0  0
 12 16  1  0  0  0
 12 31  1  0  0  0
 13 19  1  0  0  0
 13 32  1  0  0  0
 16 17  2  0  0  0
 16 18  1  0  0  0
 17 33  1  0  0  0
 19 21  1  0  0  0
 19 34  1  0  0  0
 19 35  1  0  0  0
 20 21  1  0  0  0
 20 22  2  0  0  0
 20 23  1  0  0  0
 21 36  1  0  0  0
 21 37  1  0  0  0
 22 25  1  0  0  0
 22 38  1  0  0  0
 23 24  2  0  0  0
 23 39  1  0  0  0
 24 26  1  0  0  0
 24 40  1  0  0  0
 25 26  2  0  0  0
 25 41  1  0  0  0
 26 42  1  0  0  0
M  END
> <s_m_entry_id>
6402

> <s_m_entry_name>
dock_pv.237

> <s_m_Source_Path>
/home/csk/Desktop/cluster/DUD-E-result/aldr

> <s_m_Source_File>
dock_pv.maegz

> <i_m_Source_File_Index>
237

> <chembl_id>
CHEMBL275868

> <chembl_pref_name>
None

> <i_lp_mmshare_version>
53161

> <i_f3d_flags>
0

> <r_lp_tautomer_probability>
0.999999999781369

> <s_lp_Force_Field>
OPLS_2005

> <r_lp_Energy>
24.423471

> <b_lp_Chiralities_Consistent>
1

> <s_lp_Variant>
CHEMBL1900_lig35-1

> <s_i_glide_gridfile>
glide-grid_2hv5

> <i_i_glide_lignum>
68

> <i_i_glide_rotatable_bonds>
6

> <r_i_docking_score>
-8.86456294543085

> <r_i_glide_ligand_efficiency>
-0.340944728670417

> <r_i_glide_ligand_efficiency_sa>
-1.01004741713339

> <r_i_glide_ligand_efficiency_ln>
-2.08181352073097

> <r_i_glide_gscore>
-8.86456294543085

> <r_i_glide_lipo>
-4.10905678273308

> <r_i_glide_hbond>
-0.32

> <r_i_glide_metal>
0

> <r_i_glide_rewards>
-2.57895308730926

> <r_i_glide_evdw>
-36.9733963012695

> <r_i_glide_ecoul>
-4.25138378143311

> <r_i_glide_erotb>
0.629824306889924

> <r_i_glide_esite>
0

> <r_i_glide_emodel>
-44.5463604609196

> <r_i_glide_energy>
-41.2247800827026

> <r_i_glide_einternal>
9.55245590209961

> <i_i_glide_confnum>
111

> <i_i_glide_posenum>
390

> <r_i_glide_eff_state_penalty>
0

> <s_user_duplicate_titles>
CHEMBL1900_lig35

> <s_m_subgroup_title>
dock_pv

> <s_m_subgroupid>
dock_pv

> <b_m_subgroup_collapsed>
1

$$$$
CHEMBL1900_lig263
                    3D
 Schrodinger Suite 2021-1.
 38 41  0  0  1  0            999 V2000
   17.8918   -8.1099   15.4569 N   0  0  0  0  0  0
   17.2713   -7.4607   16.5165 N   0  0  0  0  0  0
   17.7443   -9.4381   15.1028 C   0  0  0  0  0  0
   16.4216   -8.0683   17.2593 C   0  0  0  0  0  0
   17.9789   -6.5592   13.4745 C   0  0  0  0  0  0
   18.5453   -5.6270   12.7681 N   0  0  0  0  0  0
   18.7331   -7.2416   14.6087 C   0  0  0  0  0  0
   16.7464  -10.1588   15.9988 C   0  0  0  0  0  0
   16.3337   -6.9150   12.9952 S   0  0  0  0  0  0
   17.7473   -5.1511   11.7814 C   0  0  0  0  0  0
   16.4812   -5.7653   11.6914 C   0  0  0  0  0  0
   16.0652   -9.4824   17.0312 C   0  0  0  0  0  0
   15.7447   -7.3218   18.4263 C   0  0  0  0  0  0
   18.0875   -4.1167   10.9017 C   0  0  0  0  0  0
   15.5773   -5.4251   10.6826 C   0  0  0  0  0  0
   15.9572   -4.4335    9.7808 C   0  0  0  0  0  0
   17.1595   -3.7378    9.9391 C   0  0  0  0  0  0
   16.2468   -5.9119   18.8008 C   0  0  0  0  0  0
   18.3287   -9.9719   14.1546 O   0  0  0  0  0  0
   16.5445   -5.0347   17.9965 O   0  0  0  0  0  0
   17.5230   -2.3566    8.9809 Cl  0  0  0  0  0  0
   14.9452   -4.1325    8.4182 Cl  0  0  0  0  0  0
   16.2170   -5.7125   20.1468 O   0  0  0  0  0  0
   16.4831  -11.5143   15.7602 C   0  0  0  0  0  0
   15.0994  -10.1735   17.7803 C   0  0  0  0  0  0
   15.5356  -12.1908   16.5270 C   0  0  0  0  0  0
   14.8415  -11.5204   17.5314 C   0  0  0  0  0  0
   19.2437   -6.5150   15.2431 H   0  0  0  0  0  0
   19.5619   -7.8086   14.1783 H   0  0  0  0  0  0
   14.6881   -7.2127   18.1807 H   0  0  0  0  0  0
   15.8085   -7.9466   19.3179 H   0  0  0  0  0  0
   19.0225   -3.5904   10.9805 H   0  0  0  0  0  0
   14.6251   -5.9262   10.5908 H   0  0  0  0  0  0
   16.5464   -4.8326   20.3458 H   0  0  0  0  0  0
   16.9965  -12.0458   14.9701 H   0  0  0  0  0  0
   14.5451   -9.6883   18.5694 H   0  0  0  0  0  0
   15.3278  -13.2332   16.3340 H   0  0  0  0  0  0
   14.0967  -12.0448   18.1140 H   0  0  0  0  0  0
  1  2  1  0  0  0
  1  3  1  0  0  0
  1  7  1  0  0  0
  2  4  2  0  0  0
  3  8  1  0  0  0
  3 19  2  0  0  0
  4 13  1  0  0  0
  4 12  1  0  0  0
  5  7  1  0  0  0
  5  6  2  0  0  0
  5  9  1  0  0  0
  6 10  1  0  0  0
  7 28  1  0  0  0
  7 29  1  0  0  0
  8 12  1  0  0  0
  8 24  2  0  0  0
  9 11  1  0  0  0
 10 14  1  0  0  0
 10 11  2  0  0  0
 11 15  1  0  0  0
 12 25  2  0  0  0
 13 18  1  0  0  0
 13 30  1  0  0  0
 13 31  1  0  0  0
 14 17  2  0  0  0
 14 32  1  0  0  0
 15 16  2  0  0  0
 15 33  1  0  0  0
 16 22  1  0  0  0
 16 17  1  0  0  0
 17 21  1  0  0  0
 18 20  2  0  0  0
 18 23  1  0  0  0
 23 34  1  0  0  0
 24 26  1  0  0  0
 24 35  1  0  0  0
 25 27  1  0  0  0
 25 36  1  0  0  0
 26 27  2  0  0  0
 26 37  1  0  0  0
 27 38  1  0  0  0
M  END
> <s_m_entry_id>
6403

> <s_m_entry_name>
dock_pv.238

> <s_m_Source_Path>
/home/csk/Desktop/cluster/DUD-E-result/aldr

> <s_m_Source_File>
dock_pv.maegz

> <i_m_Source_File_Index>
238

> <chembl_id>
CHEMBL20925

> <chembl_pref_name>
None

> <i_lp_mmshare_version>
53161

> <i_f3d_flags>
0

> <r_lp_tautomer_probability>
1

> <s_lp_Force_Field>
OPLS_2005

> <r_lp_Energy>
24.927342

> <b_lp_Chiralities_Consistent>
1

> <s_lp_Variant>
CHEMBL1900_lig263-1

> <s_i_glide_gridfile>
glide-grid_2hv5

> <i_i_glide_lignum>
377

> <i_i_glide_rotatable_bonds>
5

> <r_i_docking_score>
-8.86304659840746

> <r_i_glide_ligand_efficiency>
-0.328260985126202

> <r_i_glide_ligand_efficiency_sa>
-0.984782954296713

> <r_i_glide_ligand_efficiency_ln>
-2.06317112936628

> <r_i_glide_gscore>
-8.86304659840746

> <r_i_glide_lipo>
-4.88833578303187

> <r_i_glide_hbond>
0

> <r_i_glide_metal>
0

> <r_i_glide_rewards>
-2.04562730213511

> <r_i_glide_evdw>
-45.5883636474609

> <r_i_glide_ecoul>
-0.652419865131378

> <r_i_glide_erotb>
0.44819764890227

> <r_i_glide_esite>
0

> <r_i_glide_emodel>
-66.9299984231435

> <r_i_glide_energy>
-46.2407835125923

> <r_i_glide_einternal>
2.78832387924194

> <i_i_glide_confnum>
17

> <i_i_glide_posenum>
201

> <r_i_glide_eff_state_penalty>
0

> <s_user_duplicate_titles>
CHEMBL1900_lig263,24277

> <s_m_subgroup_title>
dock_pv

> <s_m_subgroupid>
dock_pv

> <b_m_subgroup_collapsed>
1

$$$$
CHEMBL1900_lig653
                    3D
 Schrodinger Suite 2021-1.
 35 36  0  0  1  0            999 V2000
   17.0231   -3.2772    9.5395 C   0  0  0  0  0  0
   18.0498   -4.4120    9.6977 C   0  0  0  0  0  0
   17.3295   -2.1154    9.7808 O   0  0  0  0  0  0
   15.8093   -3.5980    9.0879 N   0  0  0  0  0  0
   18.5450   -4.5017   11.0386 O   0  0  0  0  0  0
   17.8941   -5.3150   11.9492 C   0  0  0  0  0  0
   16.5742   -5.7367   11.7900 C   0  0  0  0  0  0
   15.9710   -6.5146   12.7594 C   0  0  0  0  0  0
   16.6701   -6.9253   13.8984 C   0  0  0  0  0  0
   17.9998   -6.5341   14.0516 C   0  0  0  0  0  0
   18.5918   -5.7171   13.0912 C   0  0  0  0  0  0
   15.9830   -7.7537   14.9087 C   0  0  0  0  0  0
   17.7450   -9.9401   14.7967 S   0  0  0  0  0  0
   17.0578  -11.3917   15.4713 C   0  0  0  0  0  0
   15.9398  -11.0691   16.1983 N   0  0  0  0  0  0
   15.5318   -9.7697   16.2076 C   0  0  0  0  0  0
   16.3679   -8.9807   15.3302 C   0  0  0  0  0  0
   14.5456   -9.3501   16.8189 O   0  0  0  0  0  0
   17.7861  -12.8627   15.1721 S   0  0  0  0  0  0
   15.0771  -12.1139   16.8242 C   0  0  0  0  0  0
   15.5700  -12.5433   18.2178 C   0  0  0  0  0  0
   14.5294  -12.9822   18.9815 O   0  0  0  0  0  0
   16.7273  -12.5151   18.5797 O   0  0  0  0  0  0
   17.6394   -5.3700    9.3812 H   0  0  0  0  0  0
   18.8799   -4.2259    9.0164 H   0  0  0  0  0  0
   15.0982   -2.8868    8.9833 H   0  0  0  0  0  0
   15.5757   -4.5523    8.8639 H   0  0  0  0  0  0
   15.9778   -5.4525   10.9413 H   0  0  0  0  0  0
   14.9457   -6.7713   12.5801 H   0  0  0  0  0  0
   18.5658   -6.8310   14.9238 H   0  0  0  0  0  0
   19.6075   -5.3944   13.2512 H   0  0  0  0  0  0
   15.0807   -7.3153   15.3132 H   0  0  0  0  0  0
   14.0622  -11.7347   16.9266 H   0  0  0  0  0  0
   15.0089  -12.9933   16.1829 H   0  0  0  0  0  0
   13.6561  -12.9155   18.5803 H   0  0  0  0  0  0
  1  2  1  0  0  0
  1  3  2  0  0  0
  1  4  1  0  0  0
  2  5  1  0  0  0
  2 24  1  0  0  0
  2 25  1  0  0  0
  4 26  1  0  0  0
  4 27  1  0  0  0
  5  6  1  0  0  0
  6  7  1  0  0  0
  6 11  2  0  0  0
  7  8  2  0  0  0
  7 28  1  0  0  0
  8  9  1  0  0  0
  8 29  1  0  0  0
  9 10  2  0  0  0
  9 12  1  0  0  0
 10 11  1  0  0  0
 10 30  1  0  0  0
 11 31  1  0  0  0
 12 17  2  0  0  0
 12 32  1  0  0  0
 13 14  1  0  0  0
 13 17  1  0  0  0
 14 15  1  0  0  0
 14 19  2  0  0  0
 15 16  1  0  0  0
 15 20  1  0  0  0
 16 17  1  0  0  0
 16 18  2  0  0  0
 20 21  1  0  0  0
 20 33  1  0  0  0
 20 34  1  0  0  0
 21 22  1  0  0  0
 21 23  2  0  0  0
 22 35  1  0  0  0
M  END
> <s_m_entry_id>
6404

> <s_m_entry_name>
dock_pv.239

> <s_m_Source_Path>
/home/csk/Desktop/cluster/DUD-E-result/aldr

> <s_m_Source_File>
dock_pv.maegz

> <i_m_Source_File_Index>
239

> <chembl_id>
CHEMBL3262476

> <chembl_pref_name>
None

> <i_lp_mmshare_version>
53161

> <i_f3d_flags>
0

> <r_lp_tautomer_probability>
1

> <s_lp_Force_Field>
OPLS_2005

> <r_lp_Energy>
14.067479

> <b_lp_Chiralities_Consistent>
1

> <s_lp_Variant>
CHEMBL1900_lig653-1

> <s_i_glide_gridfile>
glide-grid_2hv5

> <i_i_glide_lignum>
779

> <i_i_glide_rotatable_bonds>
7

> <r_i_docking_score>
-8.8573268211911

> <r_i_glide_ligand_efficiency>
-0.385101166138744

> <r_i_glide_ligand_efficiency_sa>
-1.09517648913967

> <r_i_glide_ligand_efficiency_ln>
-2.14178193916324

> <r_i_glide_gscore>
-8.8573268211911

> <r_i_glide_lipo>
-2.82847122865578

> <r_i_glide_hbond>
-0.410021714071689

> <r_i_glide_metal>
0

> <r_i_glide_rewards>
-3.14281661313529

> <r_i_glide_evdw>
-38.45849609375

> <r_i_glide_ecoul>
-8.5986385345459

> <r_i_glide_erotb>
0.768431291574281

> <r_i_glide_esite>
-0.0317279720332463

> <r_i_glide_emodel>
-61.7396780780578

> <r_i_glide_energy>
-47.0571346282959

> <r_i_glide_einternal>
13.6025266647339

> <i_i_glide_confnum>
33

> <i_i_glide_posenum>
152

> <r_i_glide_eff_state_penalty>
0

> <s_user_duplicate_titles>
CHEMBL1900_lig653

> <s_m_subgroup_title>
dock_pv

> <s_m_subgroupid>
dock_pv

> <b_m_subgroup_collapsed>
1

$$$$
CHEMBL1900_lig208
                    3D
 Schrodinger Suite 2021-1.
 38 39  0  0  1  0            999 V2000
   16.7837   -6.9938   17.8658 C   0  0  0  0  0  0
   17.4698   -7.8652   15.8674 N   0  0  0  0  0  0
   16.0141   -8.0447   17.5401 C   0  0  0  0  0  0
   16.4278   -8.6213   16.2783 C   0  0  0  0  0  0
   17.8092   -6.8179   16.7987 C   0  0  0  0  0  0
   16.6973   -6.1143   19.0241 C   0  0  0  0  0  0
   18.1036   -7.9917   14.5559 C   0  0  0  0  0  0
   15.9333   -9.5888   15.6944 O   0  0  0  0  0  0
   15.7447   -6.1155   19.7867 O   0  0  0  0  0  0
   14.9505   -8.6637   18.1249 O   0  0  0  0  0  0
   17.6348   -6.9653   13.5277 C   0  0  0  0  0  0
   17.7449   -5.2968   19.1937 O   0  0  0  0  0  0
   16.8207   -5.2176   11.4930 C   0  0  0  0  0  0
   16.3009   -6.9154   13.1338 C   0  0  0  0  0  0
   18.5496   -6.1150   12.9278 C   0  0  0  0  0  0
   18.1450   -5.2639   11.9039 C   0  0  0  0  0  0
   15.8837   -6.0548   12.1177 C   0  0  0  0  0  0
   16.5443   -4.3079   10.4940 O   0  0  0  0  0  0
   17.8460   -4.4812   20.3596 C   0  0  0  0  0  0
   15.1969   -4.0414   10.1409 C   0  0  0  0  0  0
   16.8333   -3.3155   20.3559 C   0  0  0  0  0  0
   17.7451   -5.8453   16.3206 H   0  0  0  0  0  0
   18.8339   -6.9171   17.1593 H   0  0  0  0  0  0
   19.1835   -7.9152   14.6836 H   0  0  0  0  0  0
   17.9184   -8.9836   14.1409 H   0  0  0  0  0  0
   14.6688   -9.3923   17.5655 H   0  0  0  0  0  0
   15.6145   -7.5769   13.6224 H   0  0  0  0  0  0
   19.5869   -6.1380   13.2282 H   0  0  0  0  0  0
   18.8691   -4.6239   11.4262 H   0  0  0  0  0  0
   14.8450   -6.0443   11.8272 H   0  0  0  0  0  0
   18.8681   -4.1150   20.4123 H   0  0  0  0  0  0
   17.7057   -5.0917   21.2529 H   0  0  0  0  0  0
   15.1885   -3.2596    9.3811 H   0  0  0  0  0  0
   14.7088   -4.9133    9.7197 H   0  0  0  0  0  0
   14.6077   -3.6866   10.9831 H   0  0  0  0  0  0
   16.9449   -2.6997   21.2447 H   0  0  0  0  0  0
   15.8013   -3.6673   20.3641 H   0  0  0  0  0  0
   16.9448   -2.6819   19.4779 H   0  0  0  0  0  0
  1  3  2  0  0  0
  1  5  1  0  0  0
  1  6  1  0  0  0
  2  5  1  0  0  0
  2  7  1  0  0  0
  2  4  1  0  0  0
  3  4  1  0  0  0
  3 10  1  0  0  0
  4  8  2  0  0  0
  5 22  1  0  0  0
  5 23  1  0  0  0
  6  9  2  0  0  0
  6 12  1  0  0  0
  7 11  1  0  0  0
  7 24  1  0  0  0
  7 25  1  0  0  0
 10 26  1  0  0  0
 11 14  2  0  0  0
 11 15  1  0  0  0
 12 19  1  0  0  0
 13 16  1  0  0  0
 13 18  1  0  0  0
 13 17  2  0  0  0
 14 17  1  0  0  0
 14 27  1  0  0  0
 15 16  2  0  0  0
 15 28  1  0  0  0
 16 29  1  0  0  0
 17 30  1  0  0  0
 18 20  1  0  0  0
 19 21  1  0  0  0
 19 31  1  0  0  0
 19 32  1  0  0  0
 20 33  1  0  0  0
 20 34  1  0  0  0
 20 35  1  0  0  0
 21 36  1  0  0  0
 21 37  1  0  0  0
 21 38  1  0  0  0
M  END
> <s_m_entry_id>
6405

> <s_m_entry_name>
dock_pv.240

> <s_m_Source_Path>
/home/csk/Desktop/cluster/DUD-E-result/aldr

> <s_m_Source_File>
dock_pv.maegz

> <i_m_Source_File_Index>
240

> <chembl_id>
CHEMBL414208

> <chembl_pref_name>
None

> <i_lp_mmshare_version>
53161

> <i_f3d_flags>
0

> <r_lp_tautomer_probability>
1

> <s_lp_Force_Field>
OPLS_2005

> <r_lp_Energy>
25.180645

> <b_lp_Chiralities_Consistent>
1

> <s_lp_Variant>
CHEMBL1900_lig208-1

> <s_i_glide_gridfile>
glide-grid_2hv5

> <i_i_glide_lignum>
284

> <i_i_glide_rotatable_bonds>
7

> <r_i_docking_score>
-8.85287539932609

> <r_i_glide_ligand_efficiency>
-0.421565495206004

> <r_i_glide_ligand_efficiency_sa>
-1.1630672354716

> <r_i_glide_ligand_efficiency_ln>
-2.18885555356424

> <r_i_glide_gscore>
-8.85287539932609

> <r_i_glide_lipo>
-3.57144340436338

> <r_i_glide_hbond>
-0.380000815993664

> <r_i_glide_metal>
0

> <r_i_glide_rewards>
-3.38268824105271

> <r_i_glide_evdw>
-34.1774711608887

> <r_i_glide_ecoul>
-4.46420431137085

> <r_i_glide_erotb>
0.859761266833716

> <r_i_glide_esite>
0

> <r_i_glide_emodel>
-57.8043134278467

> <r_i_glide_energy>
-38.6416754722595

> <r_i_glide_einternal>
0.885417103767395

> <i_i_glide_confnum>
7

> <i_i_glide_posenum>
233

> <r_i_glide_eff_state_penalty>
0

> <s_user_duplicate_titles>
CHEMBL1900_lig208,2108

> <s_m_subgroup_title>
dock_pv

> <s_m_subgroupid>
dock_pv

> <b_m_subgroup_collapsed>
1

$$$$
CHEMBL1900_lig545
                    3D
 Schrodinger Suite 2021-1.
 34 35  0  0  1  0            999 V2000
   16.7221   -5.9840   12.0657 C   0  0  0  0  0  0
   15.3912   -5.7862   11.6687 C   0  0  0  0  0  0
   15.0772   -4.9131   10.6308 C   0  0  0  0  0  0
   16.0888   -4.2102    9.9802 C   0  0  0  0  0  0
   17.4246   -4.4127   10.3531 C   0  0  0  0  0  0
   17.7355   -5.3055   11.3810 C   0  0  0  0  0  0
   15.7451   -3.3154    8.9975 O   0  0  0  0  0  0
   18.4318   -3.7152    9.7419 O   0  0  0  0  0  0
   17.0747   -6.7914   13.2507 C   0  0  0  0  0  0
   16.2528   -6.9708   14.3036 C   0  0  0  0  0  0
   16.6156   -7.7013   15.5097 C   0  0  0  0  0  0
   17.7230   -8.2078   15.7055 O   0  0  0  0  0  0
   15.6089   -7.6537   16.4152 O   0  0  0  0  0  0
   15.8459   -7.8104   17.8149 C   0  0  0  0  0  0
   16.1245   -6.4657   18.5057 C   0  0  0  0  0  0
   16.2475   -6.4145   19.8905 C   0  0  0  0  0  0
   16.5439   -5.2189   20.5411 C   0  0  0  0  0  0
   16.6905   -4.0519   19.7998 C   0  0  0  0  0  0
   16.5449   -4.0763   18.4173 C   0  0  0  0  0  0
   16.2554   -5.2821   17.7810 C   0  0  0  0  0  0
   14.5820   -6.2858   12.1789 H   0  0  0  0  0  0
   14.0440   -4.7599   10.3590 H   0  0  0  0  0  0
   18.7663   -5.4257   11.6781 H   0  0  0  0  0  0
   14.7873   -3.2200    8.9026 H   0  0  0  0  0  0
   18.0584   -3.0814    9.1225 H   0  0  0  0  0  0
   18.0575   -7.2443   13.2501 H   0  0  0  0  0  0
   15.2757   -6.5152   14.3031 H   0  0  0  0  0  0
   14.9469   -8.2416   18.2532 H   0  0  0  0  0  0
   16.6650   -8.5051   18.0125 H   0  0  0  0  0  0
   16.1447   -7.3148   20.4732 H   0  0  0  0  0  0
   16.6600   -5.1950   21.6157 H   0  0  0  0  0  0
   16.9287   -3.1211   20.2983 H   0  0  0  0  0  0
   16.6673   -3.1719   17.8384 H   0  0  0  0  0  0
   16.1442   -5.3150   16.7130 H   0  0  0  0  0  0
  1  6  1  0  0  0
  1  2  2  0  0  0
  1  9  1  0  0  0
  2  3  1  0  0  0
  2 21  1  0  0  0
  3  4  2  0  0  0
  3 22  1  0  0  0
  4  7  1  0  0  0
  4  5  1  0  0  0
  5  6  2  0  0  0
  5  8  1  0  0  0
  6 23  1  0  0  0
  7 24  1  0  0  0
  8 25  1  0  0  0
  9 10  2  0  0  0
  9 26  1  0  0  0
 10 11  1  0  0  0
 10 27  1  0  0  0
 11 12  2  0  0  0
 11 13  1  0  0  0
 13 14  1  0  0  0
 14 15  1  0  0  0
 14 28  1  0  0  0
 14 29  1  0  0  0
 15 16  2  0  0  0
 15 20  1  0  0  0
 16 17  1  0  0  0
 16 30  1  0  0  0
 17 18  2  0  0  0
 17 31  1  0  0  0
 18 19  1  0  0  0
 18 32  1  0  0  0
 19 20  2  0  0  0
 19 33  1  0  0  0
 20 34  1  0  0  0
M  END
> <s_m_entry_id>
6406

> <s_m_entry_name>
dock_pv.241

> <s_m_Source_Path>
/home/csk/Desktop/cluster/DUD-E-result/aldr

> <s_m_Source_File>
dock_pv.maegz

> <i_m_Source_File_Index>
241

> <chembl_id>
CHEMBL133714

> <chembl_pref_name>
BENZYL CAFFEATE

> <i_lp_mmshare_version>
53161

> <i_f3d_flags>
0

> <r_lp_tautomer_probability>
1

> <s_lp_Force_Field>
OPLS_2005

> <r_lp_Energy>
14.208442

> <b_lp_Chiralities_Consistent>
1

> <s_lp_Variant>
CHEMBL1900_lig545-1

> <s_i_glide_gridfile>
glide-grid_2hv5

> <i_i_glide_lignum>
668

> <i_i_glide_rotatable_bonds>
7

> <r_i_docking_score>
-8.84718039955372

> <r_i_glide_ligand_efficiency>
-0.442359019977686

> <r_i_glide_ligand_efficiency_sa>
-1.20074711548805

> <r_i_glide_ligand_efficiency_ln>
-2.21415745446945

> <r_i_glide_gscore>
-8.84718039955372

> <r_i_glide_lipo>
-4.26800564902053

> <r_i_glide_hbond>
0

> <r_i_glide_metal>
0

> <r_i_glide_rewards>
-2.7617088203902

> <r_i_glide_evdw>
-39.1803894042969

> <r_i_glide_ecoul>
-5.58446931838989

> <r_i_glide_erotb>
0.979223937830329

> <r_i_glide_esite>
0

> <r_i_glide_emodel>
-63.4406886977796

> <r_i_glide_energy>
-44.7648587226868

> <r_i_glide_einternal>
5.80311393737793

> <i_i_glide_confnum>
1

> <i_i_glide_posenum>
193

> <r_i_glide_eff_state_penalty>
0

> <s_user_duplicate_titles>
CHEMBL1900_lig545

> <s_m_subgroup_title>
dock_pv

> <s_m_subgroupid>
dock_pv

> <b_m_subgroup_collapsed>
1

$$$$
CHEMBL1900_lig682
                    3D
 Schrodinger Suite 2021-1.
 41 43  0  0  1  0            999 V2000
   16.1864   -3.3130    8.7181 Cl  0  0  0  0  0  0
   17.6507  -10.1845   16.8685 O   0  0  0  0  0  0
   15.0342   -6.5155   16.1872 O   0  0  0  0  0  0
   18.5713   -7.8522   13.3810 O   0  0  0  0  0  0
   16.5609   -8.2553   16.1673 N   0  0  0  0  0  0
   14.5441   -8.6780   16.7297 N   0  0  0  0  0  0
   16.6569   -6.6352   13.5617 N   0  0  0  0  0  0
   15.1997   -9.9411   16.9138 C   0  0  0  0  0  0
   16.6439   -9.4925   16.7038 C   0  0  0  0  0  0
   15.3258   -7.7065   16.2597 C   0  0  0  0  0  0
   14.9458  -10.5617   18.3123 C   0  0  0  0  0  0
   14.8356  -10.9315   15.7807 C   0  0  0  0  0  0
   17.7306   -7.5564   15.5921 C   0  0  0  0  0  0
   17.6681   -7.3732   14.0639 C   0  0  0  0  0  0
   15.3815  -12.0315   18.4966 C   0  0  0  0  0  0
   15.2633  -12.4011   15.9974 C   0  0  0  0  0  0
   14.8332  -12.9238   17.3750 C   0  0  0  0  0  0
   16.5993   -6.0054   12.3055 C   0  0  0  0  0  0
   17.7442   -5.5047   11.6698 C   0  0  0  0  0  0
   15.3352   -5.7232   11.7811 C   0  0  0  0  0  0
   16.3519   -4.3862   10.0560 C   0  0  0  0  0  0
   17.6183   -4.6948   10.5443 C   0  0  0  0  0  0
   15.2118   -4.9153   10.6552 C   0  0  0  0  0  0
   13.5409   -8.6504   16.6243 H   0  0  0  0  0  0
   15.8924   -6.4171   14.1879 H   0  0  0  0  0  0
   15.3331   -9.8938   19.0795 H   0  0  0  0  0  0
   13.8766  -10.5095   18.5204 H   0  0  0  0  0  0
   13.7665  -10.8816   15.5897 H   0  0  0  0  0  0
   15.2091  -10.5151   14.8488 H   0  0  0  0  0  0
   18.6336   -8.1250   15.7864 H   0  0  0  0  0  0
   17.8602   -6.5843   16.0677 H   0  0  0  0  0  0
   16.4690  -12.1125   18.5029 H   0  0  0  0  0  0
   15.0400  -12.3983   19.4654 H   0  0  0  0  0  0
   16.3469  -12.4828   15.8973 H   0  0  0  0  0  0
   14.8421  -13.0420   15.2223 H   0  0  0  0  0  0
   15.1877  -13.9438   17.5115 H   0  0  0  0  0  0
   13.7437  -12.9652   17.4292 H   0  0  0  0  0  0
   18.7288   -5.6892   12.0731 H   0  0  0  0  0  0
   14.4416   -6.0882   12.2662 H   0  0  0  0  0  0
   18.4985   -4.2817   10.0739 H   0  0  0  0  0  0
   14.2342   -4.6660   10.2679 H   0  0  0  0  0  0
  1 21  1  0  0  0
  2  9  2  0  0  0
  3 10  2  0  0  0
  4 14  2  0  0  0
  5  9  1  0  0  0
  5 10  1  0  0  0
  5 13  1  0  0  0
  6  8  1  0  0  0
  6 10  1  0  0  0
  6 24  1  0  0  0
  7 14  1  0  0  0
  7 18  1  0  0  0
  7 25  1  0  0  0
  8  9  1  0  0  0
  8 11  1  0  0  0
  8 12  1  0  0  0
 11 15  1  0  0  0
 11 26  1  0  0  0
 11 27  1  0  0  0
 12 16  1  0  0  0
 12 28  1  0  0  0
 12 29  1  0  0  0
 13 14  1  0  0  0
 13 30  1  0  0  0
 13 31  1  0  0  0
 15 17  1  0  0  0
 15 32  1  0  0  0
 15 33  1  0  0  0
 16 17  1  0  0  0
 16 34  1  0  0  0
 16 35  1  0  0  0
 17 36  1  0  0  0
 17 37  1  0  0  0
 18 19  2  0  0  0
 18 20  1  0  0  0
 19 22  1  0  0  0
 19 38  1  0  0  0
 20 23  2  0  0  0
 20 39  1  0  0  0
 21 22  2  0  0  0
 21 23  1  0  0  0
 22 40  1  0  0  0
 23 41  1  0  0  0
M  END
> <s_m_entry_id>
6407

> <s_m_entry_name>
dock_pv.242

> <s_m_Source_Path>
/home/csk/Desktop/cluster/DUD-E-result/aldr

> <s_m_Source_File>
dock_pv.maegz

> <i_m_Source_File_Index>
242

> <chembl_id>
CHEMBL1866615

> <chembl_pref_name>
None

> <i_lp_mmshare_version>
53161

> <i_f3d_flags>
0

> <r_lp_tautomer_probability>
0.999999999999795

> <s_lp_Force_Field>
OPLS_2005

> <r_lp_Energy>
30.548069

> <b_lp_Chiralities_Consistent>
1

> <s_lp_Variant>
CHEMBL1900_lig682-1

> <s_i_glide_gridfile>
glide-grid_2hv5

> <i_i_glide_lignum>
816

> <i_i_glide_rotatable_bonds>
4

> <r_i_docking_score>
-8.83642449356162

> <r_i_glide_ligand_efficiency>
-0.384192369285288

> <r_i_glide_ligand_efficiency_sa>
-1.09259199177943

> <r_i_glide_ligand_efficiency_ln>
-2.1367275668106

> <r_i_glide_gscore>
-8.83642449356162

> <r_i_glide_lipo>
-2.98719025499614

> <r_i_glide_hbond>
-0.309064077482223

> <r_i_glide_metal>
0

> <r_i_glide_rewards>
-3.20089823048421

> <r_i_glide_evdw>
-38.7078323364258

> <r_i_glide_ecoul>
-4.92493009567261

> <r_i_glide_erotb>
0.334859200573136

> <r_i_glide_esite>
0

> <r_i_glide_emodel>
-56.2521766426812

> <r_i_glide_energy>
-43.6327624320984

> <r_i_glide_einternal>
7.66584587097168

> <i_i_glide_confnum>
2

> <i_i_glide_posenum>
69

> <r_i_glide_eff_state_penalty>
0

> <s_user_duplicate_titles>
CHEMBL1900_lig682

> <s_m_subgroup_title>
dock_pv

> <s_m_subgroupid>
dock_pv

> <b_m_subgroup_collapsed>
1

$$$$
CHEMBL1900_lig580
                    3D
 Schrodinger Suite 2021-1.
 29 30  0  0  1  0            999 V2000
   16.5022   -7.6438   15.4887 C   0  0  0  0  0  0
   16.4283   -8.4372   16.5925 N   0  0  0  0  0  0
   16.9136   -9.6946   16.5353 C   0  0  0  0  0  0
   17.7271   -9.9190   14.9692 S   0  0  0  0  0  0
   17.2268   -8.3201   14.4344 C   0  0  0  0  0  0
   16.8474  -10.5849   17.3810 O   0  0  0  0  0  0
   16.0180   -6.5162   15.4234 O   0  0  0  0  0  0
   17.5042   -7.8248   13.2080 C   0  0  0  0  0  0
   17.1891   -6.5527   12.5270 C   0  0  0  0  0  0
   18.2556   -5.7156   12.2275 C   0  0  0  0  0  0
   18.1037   -4.6745   11.3196 C   0  0  0  0  0  0
   16.8625   -4.4138   10.7420 C   0  0  0  0  0  0
   15.7633   -5.2016   11.1054 C   0  0  0  0  0  0
   15.9325   -6.2707   11.9855 C   0  0  0  0  0  0
   15.7443   -7.9955   17.8439 C   0  0  0  0  0  0
   16.3605   -6.7610   18.5468 C   0  0  0  0  0  0
   17.6587   -6.5307   18.2013 O   0  0  0  0  0  0
   15.7453   -6.1140   19.3651 O   0  0  0  0  0  0
   16.7323   -3.2980    9.7806 N   0  3  0  0  0  0
   15.6348   -2.7818    9.6326 O   0  0  0  0  0  0
   17.7401   -2.9153    9.1918 O   0  5  0  0  0  0
   18.0750   -8.4917   12.5811 H   0  0  0  0  0  0
   19.2219   -5.9240   12.6586 H   0  0  0  0  0  0
   18.9449   -4.0629   11.0380 H   0  0  0  0  0  0
   14.7871   -5.0079   10.6823 H   0  0  0  0  0  0
   15.0963   -6.9147   12.1771 H   0  0  0  0  0  0
   15.7416   -8.7861   18.5966 H   0  0  0  0  0  0
   14.6879   -7.8190   17.6352 H   0  0  0  0  0  0
   18.0004   -7.1495   17.5569 H   0  0  0  0  0  0
  1  2  1  0  0  0
  1  5  1  0  0  0
  1  7  2  0  0  0
  2  3  1  0  0  0
  2 15  1  0  0  0
  3  4  1  0  0  0
  3  6  2  0  0  0
  4  5  1  0  0  0
  5  8  2  0  0  0
  8  9  1  0  0  0
  8 22  1  0  0  0
  9 10  2  0  0  0
  9 14  1  0  0  0
 10 11  1  0  0  0
 10 23  1  0  0  0
 11 12  2  0  0  0
 11 24  1  0  0  0
 12 13  1  0  0  0
 12 19  1  0  0  0
 13 14  2  0  0  0
 13 25  1  0  0  0
 14 26  1  0  0  0
 15 16  1  0  0  0
 15 27  1  0  0  0
 15 28  1  0  0  0
 16 17  1  0  0  0
 16 18  2  0  0  0
 17 29  1  0  0  0
 19 20  2  0  0  0
 19 21  1  0  0  0
M  CHG  2  19   1  21  -1
M  END
> <s_m_entry_id>
6408

> <s_m_entry_name>
dock_pv.243

> <s_m_Source_Path>
/home/csk/Desktop/cluster/DUD-E-result/aldr

> <s_m_Source_File>
dock_pv.maegz

> <i_m_Source_File_Index>
243

> <chembl_id>
CHEMBL2260163

> <chembl_pref_name>
None

> <i_lp_mmshare_version>
53161

> <i_f3d_flags>
0

> <r_lp_tautomer_probability>
1

> <s_lp_Force_Field>
OPLS_2005

> <r_lp_Energy>
18.932232

> <b_lp_Chiralities_Consistent>
1

> <s_lp_Variant>
CHEMBL1900_lig580-1

> <s_i_glide_gridfile>
glide-grid_2hv5

> <i_i_glide_lignum>
703

> <i_i_glide_rotatable_bonds>
5

> <r_i_docking_score>
-8.83567494415204

> <r_i_glide_ligand_efficiency>
-0.420746425912002

> <r_i_glide_ligand_efficiency_sa>
-1.16080748539653

> <r_i_glide_ligand_efficiency_ln>
-2.18460277577925

> <r_i_glide_gscore>
-8.83567494415204

> <r_i_glide_lipo>
-2.79656226758676

> <r_i_glide_hbond>
-0.22155585242235

> <r_i_glide_metal>
0

> <r_i_glide_rewards>
-3.88565738285504

> <r_i_glide_evdw>
-37.7238922119141

> <r_i_glide_ecoul>
-4.09219694137573

> <r_i_glide_erotb>
0.584001880173831

> <r_i_glide_esite>
-0.015877169659656

> <r_i_glide_emodel>
-53.1704694055808

> <r_i_glide_energy>
-41.8160891532898

> <r_i_glide_einternal>
6.55950307846069

> <i_i_glide_confnum>
4

> <i_i_glide_posenum>
370

> <r_i_glide_eff_state_penalty>
0

> <s_user_duplicate_titles>
CHEMBL1900_lig580

> <s_m_subgroup_title>
dock_pv

> <s_m_subgroupid>
dock_pv

> <b_m_subgroup_collapsed>
1

$$$$
CHEMBL1900_lig372
                    3D
 Schrodinger Suite 2021-1.
 39 41  0  0  1  0            999 V2000
   17.1649   -8.5617   16.0314 C   0  0  1  0  0  0
   17.5949   -9.8629   15.3323 C   0  0  0  0  0  0
   17.6197   -7.5308   13.7767 C   0  0  1  0  0  0
   18.3814   -8.6562   13.3333 O   0  0  0  0  0  0
   18.1451   -9.8278   14.0305 C   0  0  0  0  0  0
   17.8152   -7.3749   15.2981 C   0  0  0  0  0  0
   15.6117   -8.4894   16.0754 C   0  0  0  0  0  0
   18.0502   -6.2526   13.0394 C   0  0  0  0  0  0
   14.9976   -7.2970   16.8228 C   0  0  0  0  0  0
   17.4322  -11.1187   15.9357 C   0  0  0  0  0  0
   19.1023   -5.7150   13.3809 O   0  0  0  0  0  0
   18.5367  -10.9992   13.3816 C   0  0  0  0  0  0
   17.1804   -5.7124   11.9467 C   0  0  0  0  0  0
   15.2272   -6.1163   16.5810 O   0  0  0  0  0  0
   17.6118   -8.5162   17.3679 O   0  0  0  0  0  0
   17.8078  -12.2921   15.2830 C   0  0  0  0  0  0
   14.1448   -7.7150   17.7809 O   0  0  0  0  0  0
   18.3613  -12.2325   14.0060 C   0  0  0  0  0  0
   17.6405  -13.4862   15.8923 F   0  0  0  0  0  0
   15.7944   -5.9276   11.9357 C   0  0  0  0  0  0
   17.7448   -4.8650   10.9835 C   0  0  0  0  0  0
   16.9430   -4.2530   10.0250 C   0  0  0  0  0  0
   14.9920   -5.3142   10.9810 C   0  0  0  0  0  0
   15.5703   -4.4803   10.0294 C   0  0  0  0  0  0
   16.5781   -7.7420   13.5630 H   0  0  0  0  0  0
   18.8882   -7.3535   15.5034 H   0  0  0  0  0  0
   17.4483   -6.4185   15.6590 H   0  0  0  0  0  0
   15.1954   -8.4828   15.0698 H   0  0  0  0  0  0
   15.2318   -9.4112   16.5196 H   0  0  0  0  0  0
   17.0077  -11.1846   16.9265 H   0  0  0  0  0  0
   18.9750  -10.9508   12.3964 H   0  0  0  0  0  0
   17.3903   -7.6573   17.7341 H   0  0  0  0  0  0
   13.6456   -6.9842   18.1569 H   0  0  0  0  0  0
   18.6559  -13.1413   13.5028 H   0  0  0  0  0  0
   15.2999   -6.5150   12.6895 H   0  0  0  0  0  0
   18.8058   -4.6596   10.9822 H   0  0  0  0  0  0
   17.3804   -3.5967    9.2877 H   0  0  0  0  0  0
   13.9220   -5.4670   10.9893 H   0  0  0  0  0  0
   14.9456   -3.9973    9.2924 H   0  0  0  0  0  0
  1  2  1  0  0  0
  1  6  1  0  0  0
  1  7  1  0  0  0
  1 15  1  0  0  0
  2  5  2  0  0  0
  2 10  1  0  0  0
  3  6  1  0  0  0
  3  4  1  0  0  0
  3  8  1  0  0  0
  3 25  1  0  0  0
  4  5  1  0  0  0
  5 12  1  0  0  0
  6 26  1  0  0  0
  6 27  1  0  0  0
  7  9  1  0  0  0
  7 28  1  0  0  0
  7 29  1  0  0  0
  8 11  2  0  0  0
  8 13  1  0  0  0
  9 14  2  0  0  0
  9 17  1  0  0  0
 10 16  2  0  0  0
 10 30  1  0  0  0
 12 18  2  0  0  0
 12 31  1  0  0  0
 13 20  1  0  0  0
 13 21  2  0  0  0
 15 32  1  0  0  0
 16 18  1  0  0  0
 16 19  1  0  0  0
 17 33  1  0  0  0
 18 34  1  0  0  0
 20 23  2  0  0  0
 20 35  1  0  0  0
 21 22  1  0  0  0
 21 36  1  0  0  0
 22 24  2  0  0  0
 22 37  1  0  0  0
 23 24  1  0  0  0
 23 38  1  0  0  0
 24 39  1  0  0  0
M  END
> <s_m_entry_id>
6409

> <s_m_entry_name>
dock_pv.244

> <s_m_Source_Path>
/home/csk/Desktop/cluster/DUD-E-result/aldr

> <s_m_Source_File>
dock_pv.maegz

> <i_m_Source_File_Index>
244

> <chembl_id>
CHEMBL1744091

> <chembl_pref_name>
None

> <i_lp_mmshare_version>
53161

> <i_f3d_flags>
0

> <r_lp_tautomer_probability>
0.99990000499975

> <s_lp_Force_Field>
OPLS_2005

> <r_lp_Energy>
24.930347

> <b_lp_Chiralities_Consistent>
1

> <s_lp_Variant>
CHEMBL1900_lig372-1

> <s_i_glide_gridfile>
glide-grid_2hv5

> <i_i_glide_lignum>
493

> <i_i_glide_rotatable_bonds>
6

> <r_i_docking_score>
-8.82479696668388

> <r_i_glide_ligand_efficiency>
-0.367699873611828

> <r_i_glide_ligand_efficiency_sa>
-1.06062996831392

> <r_i_glide_ligand_efficiency_ln>
-2.11217885767378

> <r_i_glide_gscore>
-8.82479696668388

> <r_i_glide_lipo>
-3.88749811455751

> <r_i_glide_hbond>
-0.298156412700595

> <r_i_glide_metal>
0

> <r_i_glide_rewards>
-2.843545011408

> <r_i_glide_evdw>
-37.5306282043457

> <r_i_glide_ecoul>
-4.05705785751343

> <r_i_glide_erotb>
0.689492660826528

> <r_i_glide_esite>
0

> <r_i_glide_emodel>
-60.7947190432459

> <r_i_glide_energy>
-41.5876860618591

> <r_i_glide_einternal>
4.38039970397949

> <i_i_glide_confnum>
35

> <i_i_glide_posenum>
279

> <r_i_glide_eff_state_penalty>
0

> <s_user_duplicate_titles>
CHEMBL1900_lig372

> <s_m_subgroup_title>
dock_pv

> <s_m_subgroupid>
dock_pv

> <b_m_subgroup_collapsed>
1

$$$$
CHEMBL1900_lig619
                    3D
 Schrodinger Suite 2021-1.
 31 32  0  0  1  0            999 V2000
   15.8365   -6.9193   14.8957 N   0  0  0  0  0  0
   15.7495   -7.6020   15.9534 C   0  0  0  0  0  0
   16.6669   -8.5893   16.0131 N   0  0  0  0  0  0
   17.4301   -8.5307   14.9105 C   0  0  0  0  0  0
   16.8585   -7.4286   14.1776 C   0  0  0  0  0  0
   18.3757   -9.2656   14.6119 O   0  0  0  0  0  0
   14.7363   -7.4091   17.0657 C   0  0  0  0  0  0
   17.3956   -7.1093   12.9743 C   0  0  0  0  0  0
   16.9295   -6.0802   12.0267 C   0  0  0  0  0  0
   16.8687   -9.6168   17.0539 C   0  0  0  0  0  0
   15.8646  -10.7743   16.8973 C   0  0  0  0  0  0
   16.1628  -11.7623   17.7814 O   0  0  0  0  0  0
   14.9446  -10.8074   16.1086 O   0  0  0  0  0  0
   15.5710   -5.8934   11.7452 C   0  0  0  0  0  0
   15.1709   -4.9247   10.8255 C   0  0  0  0  0  0
   16.1277   -4.1445   10.1808 C   0  0  0  0  0  0
   17.4804   -4.3252   10.4540 C   0  0  0  0  0  0
   17.8791   -5.2877   11.3784 C   0  0  0  0  0  0
   15.7450   -3.1934    9.2764 O   0  0  0  0  0  0
   14.0429   -8.2532   17.1068 H   0  0  0  0  0  0
   15.2252   -7.3263   18.0387 H   0  0  0  0  0  0
   14.1452   -6.5098   16.9136 H   0  0  0  0  0  0
   18.2483   -7.6719   12.6141 H   0  0  0  0  0  0
   16.7649   -9.1765   18.0451 H   0  0  0  0  0  0
   17.8748  -10.0281   16.9879 H   0  0  0  0  0  0
   15.5424  -12.4863   17.6667 H   0  0  0  0  0  0
   14.8276   -6.5112   12.2219 H   0  0  0  0  0  0
   14.1179   -4.7907   10.6188 H   0  0  0  0  0  0
   18.2143   -3.7145    9.9514 H   0  0  0  0  0  0
   18.9334   -5.4185   11.5803 H   0  0  0  0  0  0
   14.7875   -3.1605    9.1437 H   0  0  0  0  0  0
  1  2  2  0  0  0
  1  5  1  0  0  0
  2  3  1  0  0  0
  2  7  1  0  0  0
  3  4  1  0  0  0
  3 10  1  0  0  0
  4  5  1  0  0  0
  4  6  2  0  0  0
  5  8  2  0  0  0
  7 20  1  0  0  0
  7 21  1  0  0  0
  7 22  1  0  0  0
  8  9  1  0  0  0
  8 23  1  0  0  0
  9 14  2  0  0  0
  9 18  1  0  0  0
 10 11  1  0  0  0
 10 24  1  0  0  0
 10 25  1  0  0  0
 11 12  1  0  0  0
 11 13  2  0  0  0
 12 26  1  0  0  0
 14 15  1  0  0  0
 14 27  1  0  0  0
 15 16  2  0  0  0
 15 28  1  0  0  0
 16 17  1  0  0  0
 16 19  1  0  0  0
 17 18  2  0  0  0
 17 29  1  0  0  0
 18 30  1  0  0  0
 19 31  1  0  0  0
M  END
> <s_m_entry_id>
6410

> <s_m_entry_name>
dock_pv.245

> <s_m_Source_Path>
/home/csk/Desktop/cluster/DUD-E-result/aldr

> <s_m_Source_File>
dock_pv.maegz

> <i_m_Source_File_Index>
245

> <chembl_id>
CHEMBL3922733

> <chembl_pref_name>
None

> <i_lp_mmshare_version>
53161

> <i_f3d_flags>
0

> <r_lp_tautomer_probability>
0.5

> <s_lp_Force_Field>
OPLS_2005

> <r_lp_Energy>
25.413164

> <b_lp_Chiralities_Consistent>
1

> <s_lp_Variant>
CHEMBL1900_lig619-1

> <s_i_glide_gridfile>
glide-grid_2hv5

> <i_i_glide_lignum>
743

> <i_i_glide_rotatable_bonds>
5

> <r_i_docking_score>
-8.81836920586634

> <r_i_glide_ligand_efficiency>
-0.464124695045597

> <r_i_glide_ligand_efficiency_sa>
-1.23847110025671

> <r_i_glide_ligand_efficiency_ln>
-2.23564599489124

> <r_i_glide_gscore>
-8.81836920586634

> <r_i_glide_lipo>
-2.99482872354128

> <r_i_glide_hbond>
-0.310283850756259

> <r_i_glide_metal>
0

> <r_i_glide_rewards>
-3.74722482235269

> <r_i_glide_evdw>
-36.4740600585938

> <r_i_glide_ecoul>
-4.84206962585449

> <r_i_glide_erotb>
0.783981637591748

> <r_i_glide_esite>
0

> <r_i_glide_emodel>
-61.7097909403009

> <r_i_glide_energy>
-41.3161296844482

> <r_i_glide_einternal>
2.34442114830017

> <i_i_glide_confnum>
10

> <i_i_glide_posenum>
382

> <r_i_glide_eff_state_penalty>
0

> <s_user_duplicate_titles>
CHEMBL1900_lig619

> <s_m_subgroup_title>
dock_pv

> <s_m_subgroupid>
dock_pv

> <b_m_subgroup_collapsed>
1

$$$$
CHEMBL1900_lig154
                    3D
 Schrodinger Suite 2021-1.
 38 41  0  0  1  0            999 V2000
   17.5988   -7.3180   13.9355 N   0  0  0  0  0  0
   16.6807   -6.9146   14.9029 N   0  0  0  0  0  0
   17.0939   -5.6851   11.9978 C   0  0  0  0  0  0
   18.1356   -8.5892   13.8112 C   0  0  0  0  0  0
   16.3018   -7.7034   15.8334 C   0  0  0  0  0  0
   17.2431   -4.6620   10.9905 C   0  0  0  0  0  0
   14.9183   -5.0935   10.7110 N   0  0  0  0  0  0
   15.3997   -6.1150   11.9655 S   0  0  0  0  0  0
   18.0927   -6.2314   13.0438 C   0  0  0  0  0  0
   17.5560   -9.5585   14.8395 C   0  0  0  0  0  0
   16.6677   -9.1262   15.8471 C   0  0  0  0  0  0
   15.4939   -7.0530   16.9688 C   0  0  0  0  0  0
   15.9924   -4.3652   10.3395 C   0  0  0  0  0  0
   16.2914   -6.6507   18.2269 C   0  0  0  0  0  0
   18.3603   -3.9054   10.5938 C   0  0  0  0  0  0
   18.9877   -8.9144   12.9816 O   0  0  0  0  0  0
   15.8888   -3.3433    9.3864 C   0  0  0  0  0  0
   18.2032   -2.8186    9.7431 C   0  0  0  0  0  0
   16.9910   -2.5465    9.1329 C   0  0  0  0  0  0
   15.7468   -6.1151   19.1887 O   0  0  0  0  0  0
   17.6274   -6.9155   18.1810 O   0  0  0  0  0  0
   17.9111  -10.9117   14.7634 C   0  0  0  0  0  0
   16.1189  -10.0633   16.7347 C   0  0  0  0  0  0
   17.3708  -11.8309   15.6623 C   0  0  0  0  0  0
   16.4745  -11.4086   16.6424 C   0  0  0  0  0  0
   18.4047   -5.4128   13.6935 H   0  0  0  0  0  0
   19.0342   -6.5136   12.5806 H   0  0  0  0  0  0
   15.0004   -6.1507   16.6129 H   0  0  0  0  0  0
   14.6788   -7.7047   17.2794 H   0  0  0  0  0  0
   19.3395   -4.1125   10.9812 H   0  0  0  0  0  0
   14.9450   -3.1316    8.9140 H   0  0  0  0  0  0
   19.0457   -2.1812    9.5312 H   0  0  0  0  0  0
   16.9037   -1.7152    8.4500 H   0  0  0  0  0  0
   18.0535   -6.6535   18.9997 H   0  0  0  0  0  0
   18.5928  -11.2597   13.9990 H   0  0  0  0  0  0
   15.4175   -9.7708   17.5018 H   0  0  0  0  0  0
   17.6403  -12.8750   15.5917 H   0  0  0  0  0  0
   16.0475  -12.1281   17.3261 H   0  0  0  0  0  0
  1  2  1  0  0  0
  1  4  1  0  0  0
  1  9  1  0  0  0
  2  5  2  0  0  0
  3  9  1  0  0  0
  3  6  2  0  0  0
  3  8  1  0  0  0
  4 10  1  0  0  0
  4 16  2  0  0  0
  5 12  1  0  0  0
  5 11  1  0  0  0
  6 13  1  0  0  0
  6 15  1  0  0  0
  7  8  1  0  0  0
  7 13  2  0  0  0
  9 26  1  0  0  0
  9 27  1  0  0  0
 10 11  2  0  0  0
 10 22  1  0  0  0
 11 23  1  0  0  0
 12 14  1  0  0  0
 12 28  1  0  0  0
 12 29  1  0  0  0
 13 17  1  0  0  0
 14 20  2  0  0  0
 14 21  1  0  0  0
 15 18  2  0  0  0
 15 30  1  0  0  0
 17 19  2  0  0  0
 17 31  1  0  0  0
 18 19  1  0  0  0
 18 32  1  0  0  0
 19 33  1  0  0  0
 21 34  1  0  0  0
 22 24  2  0  0  0
 22 35  1  0  0  0
 23 25  2  0  0  0
 23 36  1  0  0  0
 24 25  1  0  0  0
 24 37  1  0  0  0
 25 38  1  0  0  0
M  END
> <s_m_entry_id>
6411

> <s_m_entry_name>
dock_pv.246

> <s_m_Source_Path>
/home/csk/Desktop/cluster/DUD-E-result/aldr

> <s_m_Source_File>
dock_pv.maegz

> <i_m_Source_File_Index>
246

> <chembl_id>
CHEMBL143569

> <chembl_pref_name>
None

> <i_lp_mmshare_version>
53161

> <i_f3d_flags>
0

> <r_lp_tautomer_probability>
1

> <s_lp_Force_Field>
OPLS_2005

> <r_lp_Energy>
33.825964

> <b_lp_Chiralities_Consistent>
1

> <s_lp_Variant>
CHEMBL1900_lig154-1

> <s_i_glide_gridfile>
glide-grid_2hv5

> <i_i_glide_lignum>
230

> <i_i_glide_rotatable_bonds>
5

> <r_i_docking_score>
-8.79825984509759

> <r_i_glide_ligand_efficiency>
-0.351930393803904

> <r_i_glide_ligand_efficiency_sa>
-1.02905071299472

> <r_i_glide_ligand_efficiency_ln>
-2.08545124585942

> <r_i_glide_gscore>
-8.79825984509759

> <r_i_glide_lipo>
-4.3006326396733

> <r_i_glide_hbond>
-0.0520567319629753

> <r_i_glide_metal>
0

> <r_i_glide_rewards>
-2.75468323373696

> <r_i_glide_evdw>
-46.4423027038574

> <r_i_glide_ecoul>
0.0889639332890511

> <r_i_glide_erotb>
0.61788330547517

> <r_i_glide_esite>
0

> <r_i_glide_emodel>
-64.2289686528961

> <r_i_glide_energy>
-46.3533387705684

> <r_i_glide_einternal>
4.08232736587524

> <i_i_glide_confnum>
17

> <i_i_glide_posenum>
290

> <r_i_glide_eff_state_penalty>
0

> <s_user_duplicate_titles>
CHEMBL1900_lig154,236181

> <s_m_subgroup_title>
dock_pv

> <s_m_subgroupid>
dock_pv

> <b_m_subgroup_collapsed>
1

$$$$
CHEMBL1900_lig518
                    3D
 Schrodinger Suite 2021-1.
 36 38  0  0  1  0            999 V2000
   17.9283  -12.7221   13.7268 C   0  0  0  0  0  0
   18.7996  -11.7828   13.1862 C   0  0  0  0  0  0
   18.7621  -10.4546   13.5960 C   0  0  0  0  0  0
   16.9749  -12.3785   14.6867 C   0  0  0  0  0  0
   16.9305  -11.0382   15.0914 C   0  0  0  0  0  0
   17.8244  -10.0630   14.5650 C   0  0  0  0  0  0
   17.5402   -8.8219   15.2170 C   0  0  0  0  0  0
   16.4908   -9.0576   16.0986 C   0  0  0  0  0  0
   16.0940  -10.3850   15.9864 N   0  0  0  0  0  0
   18.4266   -7.3124   14.9796 S   0  0  0  0  0  0
   17.6779   -6.5988   13.5395 C   0  0  0  0  0  0
   18.4433   -5.7554   12.7387 C   0  0  0  0  0  0
   17.8671   -5.1160   11.6424 C   0  0  0  0  0  0
   16.5128   -5.2974   11.3734 C   0  0  0  0  0  0
   15.7419   -6.1295   12.1782 C   0  0  0  0  0  0
   16.3309   -6.7986   13.2503 C   0  0  0  0  0  0
   14.9997  -11.0377   16.7283 C   0  0  0  0  0  0
   15.7700   -4.4535   10.0658 Cl  0  0  0  0  0  0
   15.8074   -8.1047   17.0590 C   0  0  0  0  0  0
   19.6975  -12.1678   12.2512 F   0  0  0  0  0  0
   15.4595  -11.9581   17.8656 C   0  0  0  0  0  0
   14.4172  -12.5659   18.5007 O   0  0  0  0  0  0
   16.6356  -12.1154   18.1800 O   0  0  0  0  0  0
   17.9904  -13.7459   13.3815 H   0  0  0  0  0  0
   19.4495   -9.7375   13.1755 H   0  0  0  0  0  0
   16.3049  -13.1257   15.0880 H   0  0  0  0  0  0
   19.4797   -5.5919   12.9813 H   0  0  0  0  0  0
   18.4588   -4.4600   11.0241 H   0  0  0  0  0  0
   14.6894   -6.2514   11.9727 H   0  0  0  0  0  0
   15.7451   -7.4351   13.8866 H   0  0  0  0  0  0
   14.3178  -10.2823   17.1175 H   0  0  0  0  0  0
   14.4298  -11.6304   16.0115 H   0  0  0  0  0  0
   16.2761   -7.1206   17.0587 H   0  0  0  0  0  0
   14.7588   -7.9552   16.8016 H   0  0  0  0  0  0
   15.8459   -8.4685   18.0864 H   0  0  0  0  0  0
   13.5356  -12.3518   18.1805 H   0  0  0  0  0  0
  1  2  2  0  0  0
  1  4  1  0  0  0
  1 24  1  0  0  0
  2  3  1  0  0  0
  2 20  1  0  0  0
  3  6  2  0  0  0
  3 25  1  0  0  0
  4  5  2  0  0  0
  4 26  1  0  0  0
  5  9  1  0  0  0
  5  6  1  0  0  0
  6  7  1  0  0  0
  7  8  2  0  0  0
  7 10  1  0  0  0
  8  9  1  0  0  0
  8 19  1  0  0  0
  9 17  1  0  0  0
 10 11  1  0  0  0
 11 12  2  0  0  0
 11 16  1  0  0  0
 12 13  1  0  0  0
 12 27  1  0  0  0
 13 14  2  0  0  0
 13 28  1  0  0  0
 14 15  1  0  0  0
 14 18  1  0  0  0
 15 16  2  0  0  0
 15 29  1  0  0  0
 16 30  1  0  0  0
 17 21  1  0  0  0
 17 31  1  0  0  0
 17 32  1  0  0  0
 19 33  1  0  0  0
 19 34  1  0  0  0
 19 35  1  0  0  0
 21 22  1  0  0  0
 21 23  2  0  0  0
 22 36  1  0  0  0
M  END
> <s_m_entry_id>
6412

> <s_m_entry_name>
dock_pv.247

> <s_m_Source_Path>
/home/csk/Desktop/cluster/DUD-E-result/aldr

> <s_m_Source_File>
dock_pv.maegz

> <i_m_Source_File_Index>
247

> <chembl_id>
CHEMBL1917426

> <chembl_pref_name>
None

> <i_lp_mmshare_version>
53161

> <i_f3d_flags>
0

> <r_lp_tautomer_probability>
1

> <s_lp_Force_Field>
OPLS_2005

> <r_lp_Energy>
10.823649

> <b_lp_Chiralities_Consistent>
1

> <s_lp_Variant>
CHEMBL1900_lig518-1

> <s_i_glide_gridfile>
glide-grid_2hv5

> <i_i_glide_lignum>
641

> <i_i_glide_rotatable_bonds>
5

> <r_i_docking_score>
-8.79600824139903

> <r_i_glide_ligand_efficiency>
-0.382435140930393

> <r_i_glide_ligand_efficiency_sa>
-1.08759466809011

> <r_i_glide_ligand_efficiency_ln>
-2.12695455056338

> <r_i_glide_gscore>
-8.79600824139903

> <r_i_glide_lipo>
-4.24062471331148

> <r_i_glide_hbond>
-0.30651048273898

> <r_i_glide_metal>
0

> <r_i_glide_rewards>
-2.36470542244123

> <r_i_glide_evdw>
-34.9959526062012

> <r_i_glide_ecoul>
-5.04753017425537

> <r_i_glide_erotb>
0.622830360229992

> <r_i_glide_esite>
-7.08266889722059e-05

> <r_i_glide_emodel>
-58.0060740028873

> <r_i_glide_energy>
-40.0434827804565

> <r_i_glide_einternal>
0.129195779561996

> <i_i_glide_confnum>
59

> <i_i_glide_posenum>
329

> <r_i_glide_eff_state_penalty>
0

> <s_user_duplicate_titles>
CHEMBL1900_lig518

> <s_m_subgroup_title>
dock_pv

> <s_m_subgroupid>
dock_pv

> <b_m_subgroup_collapsed>
1

$$$$
CHEMBL1900_lig540
                    3D
 Schrodinger Suite 2021-1.
 41 42  0  0  1  0            999 V2000
   15.8914   -4.4093   10.2070 C   0  0  0  0  0  0
   17.1521   -4.7893   10.6699 C   0  0  0  0  0  0
   17.2780   -5.6630   11.7592 C   0  0  0  0  0  0
   16.1337   -6.2137   12.3681 C   0  0  0  0  0  0
   14.8827   -5.7977   11.8896 C   0  0  0  0  0  0
   14.7587   -4.9150   10.8257 C   0  0  0  0  0  0
   16.1962   -7.1776   13.5065 C   0  0  0  0  0  0
   17.1934   -8.0634   13.7670 C   0  0  0  0  0  0
   17.3318   -8.8820   14.9790 C   0  0  0  0  0  0
   16.5269   -8.5067   16.0006 O   0  0  0  0  0  0
   18.1449   -9.8017   15.0485 O   0  0  0  0  0  0
   16.7092   -8.9977   17.3286 C   0  0  0  0  0  0
   15.7436   -8.3034   18.3249 C   0  0  0  0  0  0
   15.7452   -3.5236    9.1715 O   0  0  0  0  0  0
   18.5451   -5.9685   12.1810 O   0  0  0  0  0  0
   18.9451   -5.5518   13.4827 C   0  0  0  0  0  0
   16.0738   -6.8458   18.7040 C   0  0  0  0  0  0
   16.2435   -6.4889   20.0434 C   0  0  0  0  0  0
   16.5459   -5.1812   20.4245 C   0  0  0  0  0  0
   16.6266   -4.1823   19.4605 C   0  0  0  0  0  0
   16.3899   -4.5029   18.1274 C   0  0  0  0  0  0
   16.0980   -5.8213   17.7599 C   0  0  0  0  0  0
   15.7454   -6.1150   16.4816 O   0  0  0  0  0  0
   18.0376   -4.3864   10.2026 H   0  0  0  0  0  0
   13.9657   -6.1149   12.3524 H   0  0  0  0  0  0
   13.7733   -4.6150   10.4993 H   0  0  0  0  0  0
   15.3745   -7.0966   14.2017 H   0  0  0  0  0  0
   17.9973   -8.1879   13.0566 H   0  0  0  0  0  0
   16.5111  -10.0706   17.3214 H   0  0  0  0  0  0
   17.7441   -8.8600   17.6483 H   0  0  0  0  0  0
   14.7229   -8.3485   17.9416 H   0  0  0  0  0  0
   15.7374   -8.8988   19.2372 H   0  0  0  0  0  0
   14.8194   -3.3164    8.9813 H   0  0  0  0  0  0
   19.8083   -6.1428   13.7861 H   0  0  0  0  0  0
   19.2584   -4.5151   13.4795 H   0  0  0  0  0  0
   18.1900   -5.6786   14.2553 H   0  0  0  0  0  0
   16.1433   -7.2390   20.8089 H   0  0  0  0  0  0
   16.6993   -4.9414   21.4668 H   0  0  0  0  0  0
   16.8512   -3.1638   19.7451 H   0  0  0  0  0  0
   16.4074   -3.7212   17.3816 H   0  0  0  0  0  0
   15.8957   -7.0552   16.3096 H   0  0  0  0  0  0
  1  6  1  0  0  0
  1  2  2  0  0  0
  1 14  1  0  0  0
  2  3  1  0  0  0
  2 24  1  0  0  0
  3 15  1  0  0  0
  3  4  2  0  0  0
  4  7  1  0  0  0
  4  5  1  0  0  0
  5  6  2  0  0  0
  5 25  1  0  0  0
  6 26  1  0  0  0
  7  8  2  0  0  0
  7 27  1  0  0  0
  8  9  1  0  0  0
  8 28  1  0  0  0
  9 10  1  0  0  0
  9 11  2  0  0  0
 10 12  1  0  0  0
 12 13  1  0  0  0
 12 29  1  0  0  0
 12 30  1  0  0  0
 13 17  1  0  0  0
 13 31  1  0  0  0
 13 32  1  0  0  0
 14 33  1  0  0  0
 15 16  1  0  0  0
 16 34  1  0  0  0
 16 35  1  0  0  0
 16 36  1  0  0  0
 17 18  2  0  0  0
 17 22  1  0  0  0
 18 19  1  0  0  0
 18 37  1  0  0  0
 19 20  2  0  0  0
 19 38  1  0  0  0
 20 21  1  0  0  0
 20 39  1  0  0  0
 21 22  2  0  0  0
 21 40  1  0  0  0
 22 23  1  0  0  0
 23 41  1  0  0  0
M  END
> <s_m_entry_id>
6413

> <s_m_entry_name>
dock_pv.248

> <s_m_Source_Path>
/home/csk/Desktop/cluster/DUD-E-result/aldr

> <s_m_Source_File>
dock_pv.maegz

> <i_m_Source_File_Index>
248

> <chembl_id>
CHEMBL1940395

> <chembl_pref_name>
None

> <i_lp_mmshare_version>
53161

> <i_f3d_flags>
0

> <r_lp_tautomer_probability>
0.999999999997365

> <s_lp_Force_Field>
OPLS_2005

> <r_lp_Energy>
15.421147

> <b_lp_Chiralities_Consistent>
1

> <s_lp_Variant>
CHEMBL1900_lig540-1

> <s_i_glide_gridfile>
glide-grid_2hv5

> <i_i_glide_lignum>
663

> <i_i_glide_rotatable_bonds>
9

> <r_i_docking_score>
-8.78230900950219

> <r_i_glide_ligand_efficiency>
-0.381839522152269

> <r_i_glide_ligand_efficiency_sa>
-1.08590080751619

> <r_i_glide_ligand_efficiency_ln>
-2.12364195207295

> <r_i_glide_gscore>
-8.78230900950219

> <r_i_glide_lipo>
-4.28747716191425

> <r_i_glide_hbond>
-0.308952082596557

> <r_i_glide_metal>
0

> <r_i_glide_rewards>
-2.45009096472494

> <r_i_glide_evdw>
-30.9862995147705

> <r_i_glide_ecoul>
-8.7678337097168

> <r_i_glide_erotb>
1.12870123192961

> <r_i_glide_esite>
0

> <r_i_glide_emodel>
-58.4329697777952

> <r_i_glide_energy>
-39.7541332244873

> <r_i_glide_einternal>
10.0436267852783

> <i_i_glide_confnum>
30

> <i_i_glide_posenum>
164

> <r_i_glide_eff_state_penalty>
0

> <s_user_duplicate_titles>
CHEMBL1900_lig540

> <s_m_subgroup_title>
dock_pv

> <s_m_subgroupid>
dock_pv

> <b_m_subgroup_collapsed>
1

$$$$
CHEMBL1900_lig11
                    3D
 Schrodinger Suite 2021-1.
 36 38  0  0  1  0            999 V2000
   15.8140   -8.6844   18.0621 N   0  0  0  0  0  0
   17.1751   -9.3704   14.9810 C   0  0  0  0  0  0
   16.5557   -8.1105   17.1069 C   0  0  0  0  0  0
   16.0570   -8.6892   15.7972 C   0  0  2  0  0  0
   15.0336   -9.6864   17.6247 C   0  0  0  0  0  0
   15.0281   -9.5669   16.2955 N   0  0  0  0  0  0
   18.0142   -8.6299   14.1259 C   0  0  0  0  0  0
   17.8256   -6.8247   13.8914 S   0  0  2  0  0  0
   19.0050   -9.2724   13.3811 C   0  0  0  0  0  0
   17.3439  -10.7661   15.0294 C   0  0  0  0  0  0
   16.9066   -6.9748   12.2787 C   0  0  0  0  0  0
   17.4474   -7.2795   17.2554 O   0  0  0  0  0  0
   19.2261   -6.2837   13.6015 O   0  0  0  0  0  0
   14.5451  -10.5883   18.2936 O   0  0  0  0  0  0
   18.2942  -11.4068   14.2368 C   0  0  0  0  0  0
   16.8221   -5.6915   11.4612 C   0  0  0  0  0  0
   19.1274  -10.6590   13.4116 C   0  0  0  0  0  0
   16.6608   -3.4754    9.7814 C   0  0  0  0  0  0
   18.4553  -13.1229   14.3002 Cl  0  0  0  0  0  0
   16.5469   -2.1147    8.7303 Cl  0  0  0  0  0  0
   17.9813   -5.0220   11.0622 C   0  0  0  0  0  0
   15.5772   -5.2378   11.0192 C   0  0  0  0  0  0
   15.5011   -4.1302   10.1810 C   0  0  0  0  0  0
   17.9055   -3.9144   10.2221 C   0  0  0  0  0  0
   15.9484   -8.4926   19.0428 H   0  0  0  0  0  0
   15.5590   -7.9093   15.2195 H   0  0  0  0  0  0
   14.2950   -9.9360   15.7077 H   0  0  0  0  0  0
   19.6631   -8.6959   12.7487 H   0  0  0  0  0  0
   16.7215  -11.3753   15.6679 H   0  0  0  0  0  0
   15.9034   -7.3210   12.5234 H   0  0  0  0  0  0
   17.3729   -7.7369   11.6560 H   0  0  0  0  0  0
   19.8776  -11.1520   12.8112 H   0  0  0  0  0  0
   18.9448   -5.3775   11.3852 H   0  0  0  0  0  0
   14.6672   -5.7453   11.3059 H   0  0  0  0  0  0
   14.5451   -3.7801    9.8353 H   0  0  0  0  0  0
   18.8043   -3.4042    9.9112 H   0  0  0  0  0  0
  1  3  1  0  0  0
  1  5  1  0  0  0
  1 25  1  0  0  0
  2  4  1  0  0  0
  2  7  2  0  0  0
  2 10  1  0  0  0
  3  4  1  0  0  0
  3 12  2  0  0  0
  4  6  1  0  0  0
  4 26  1  0  0  0
  5  6  1  0  0  0
  5 14  2  0  0  0
  6 27  1  0  0  0
  7  8  1  0  0  0
  7  9  1  0  0  0
  8 11  1  0  0  0
  8 13  2  0  0  0
  9 17  2  0  0  0
  9 28  1  0  0  0
 10 15  2  0  0  0
 10 29  1  0  0  0
 11 16  1  0  0  0
 11 30  1  0  0  0
 11 31  1  0  0  0
 15 17  1  0  0  0
 15 19  1  0  0  0
 16 21  2  0  0  0
 16 22  1  0  0  0
 17 32  1  0  0  0
 18 23  1  0  0  0
 18 20  1  0  0  0
 18 24  2  0  0  0
 21 24  1  0  0  0
 21 33  1  0  0  0
 22 23  2  0  0  0
 22 34  1  0  0  0
 23 35  1  0  0  0
 24 36  1  0  0  0
M  END
> <s_m_entry_id>
6414

> <s_m_entry_name>
dock_pv.249

> <s_m_Source_Path>
/home/csk/Desktop/cluster/DUD-E-result/aldr

> <s_m_Source_File>
dock_pv.maegz

> <i_m_Source_File_Index>
249

> <chembl_id>
CHEMBL19781

> <chembl_pref_name>
None

> <i_lp_mmshare_version>
53161

> <i_f3d_flags>
0

> <r_lp_tautomer_probability>
0.999999999781369

> <s_lp_Force_Field>
OPLS_2005

> <r_lp_Energy>
22.458152

> <b_lp_Chiralities_Consistent>
1

> <s_lp_Variant>
CHEMBL1900_lig11-3

> <s_i_glide_gridfile>
glide-grid_2hv5

> <i_i_glide_lignum>
19

> <i_i_glide_rotatable_bonds>
4

> <r_i_docking_score>
-8.77394735935117

> <r_i_glide_ligand_efficiency>
-0.365581139972965

> <r_i_glide_ligand_efficiency_sa>
-1.0545184829599

> <r_i_glide_ligand_efficiency_ln>
-2.10000821330262

> <r_i_glide_gscore>
-8.77394735935117

> <r_i_glide_lipo>
-3.99294897640301

> <r_i_glide_hbond>
0

> <r_i_glide_metal>
0

> <r_i_glide_rewards>
-2.94030923459987

> <r_i_glide_evdw>
-47.8922691345215

> <r_i_glide_ecoul>
0.16520830988884

> <r_i_glide_erotb>
0.52914306189447

> <r_i_glide_esite>
0

> <r_i_glide_emodel>
-69.1746668945588

> <r_i_glide_energy>
-47.7270608246326

> <r_i_glide_einternal>
2.24213218688965

> <i_i_glide_confnum>
1

> <i_i_glide_posenum>
246

> <r_i_glide_eff_state_penalty>
0

> <s_user_duplicate_titles>
CHEMBL1900_lig11

> <s_m_subgroup_title>
dock_pv

> <s_m_subgroupid>
dock_pv

> <b_m_subgroup_collapsed>
1

$$$$
CHEMBL1900_lig524
                    3D
 Schrodinger Suite 2021-1.
 39 41  0  0  1  0            999 V2000
   17.9904  -12.3769   14.5400 C   0  0  0  0  0  0
   18.9360  -11.6720   13.7962 C   0  0  0  0  0  0
   18.9048  -10.2769   13.7557 C   0  0  0  0  0  0
   16.9842  -11.7332   15.2609 C   0  0  0  0  0  0
   16.9432  -10.3337   15.1996 C   0  0  0  0  0  0
   17.9066   -9.5853   14.4606 C   0  0  0  0  0  0
   17.5922   -8.1971   14.6186 C   0  0  0  0  0  0
   16.4686   -8.1365   15.4384 C   0  0  0  0  0  0
   16.0340   -9.4240   15.7232 N   0  0  0  0  0  0
   18.5159   -6.8489   13.9326 S   0  0  0  0  0  0
   17.4792   -6.1877   12.6354 C   0  0  0  0  0  0
   18.0096   -5.2254   11.7810 C   0  0  0  0  0  0
   17.2308   -4.6305   10.7896 C   0  0  0  0  0  0
   15.8957   -5.0072   10.6374 C   0  0  0  0  0  0
   15.3532   -5.9775   11.4793 C   0  0  0  0  0  0
   16.1468   -6.5613   12.4709 C   0  0  0  0  0  0
   14.7978   -9.7852   16.4343 C   0  0  0  0  0  0
   15.7121   -6.9282   15.9376 C   0  0  0  0  0  0
   20.0034  -12.4257   13.0233 C   0  0  0  0  0  0
   17.9138   -3.4126    9.7767 Cl  0  0  0  0  0  0
   14.9498   -9.9681   17.9420 C   0  0  0  0  0  0
   15.5733   -8.9150   18.5370 O   0  0  0  0  0  0
   14.5454  -10.9602   18.5416 O   0  0  0  0  0  0
   18.0332  -13.4566   14.5575 H   0  0  0  0  0  0
   19.6415   -9.7267   13.1872 H   0  0  0  0  0  0
   16.2560  -12.3050   15.8166 H   0  0  0  0  0  0
   19.0316   -4.9210   11.9041 H   0  0  0  0  0  0
   15.2805   -4.5474    9.8769 H   0  0  0  0  0  0
   14.3180   -6.2725   11.3706 H   0  0  0  0  0  0
   15.7209   -7.3150   13.1045 H   0  0  0  0  0  0
   14.0278   -9.0401   16.2361 H   0  0  0  0  0  0
   14.4163  -10.7098   16.0013 H   0  0  0  0  0  0
   16.1444   -6.0259   15.5221 H   0  0  0  0  0  0
   14.6635   -6.9383   15.6405 H   0  0  0  0  0  0
   15.7529   -6.8272   17.0218 H   0  0  0  0  0  0
   19.5993  -13.3508   12.6100 H   0  0  0  0  0  0
   20.8398  -12.6752   13.6768 H   0  0  0  0  0  0
   20.3723  -11.8414   12.1814 H   0  0  0  0  0  0
   15.7675   -9.1261   19.4551 H   0  0  0  0  0  0
  1  2  2  0  0  0
  1  4  1  0  0  0
  1 24  1  0  0  0
  2  3  1  0  0  0
  2 19  1  0  0  0
  3  6  2  0  0  0
  3 25  1  0  0  0
  4  5  2  0  0  0
  4 26  1  0  0  0
  5  9  1  0  0  0
  5  6  1  0  0  0
  6  7  1  0  0  0
  7  8  2  0  0  0
  7 10  1  0  0  0
  8 18  1  0  0  0
  8  9  1  0  0  0
  9 17  1  0  0  0
 10 11  1  0  0  0
 11 12  2  0  0  0
 11 16  1  0  0  0
 12 13  1  0  0  0
 12 27  1  0  0  0
 13 14  2  0  0  0
 13 20  1  0  0  0
 14 15  1  0  0  0
 14 28  1  0  0  0
 15 16  2  0  0  0
 15 29  1  0  0  0
 16 30  1  0  0  0
 17 21  1  0  0  0
 17 31  1  0  0  0
 17 32  1  0  0  0
 18 33  1  0  0  0
 18 34  1  0  0  0
 18 35  1  0  0  0
 19 36  1  0  0  0
 19 37  1  0  0  0
 19 38  1  0  0  0
 21 22  1  0  0  0
 21 23  2  0  0  0
 22 39  1  0  0  0
M  END
> <s_m_entry_id>
6415

> <s_m_entry_name>
dock_pv.250

> <s_m_Source_Path>
/home/csk/Desktop/cluster/DUD-E-result/aldr

> <s_m_Source_File>
dock_pv.maegz

> <i_m_Source_File_Index>
250

> <chembl_id>
CHEMBL1917441

> <chembl_pref_name>
None

> <i_lp_mmshare_version>
53161

> <i_f3d_flags>
0

> <r_lp_tautomer_probability>
1

> <s_lp_Force_Field>
OPLS_2005

> <r_lp_Energy>
11.960343

> <b_lp_Chiralities_Consistent>
1

> <s_lp_Variant>
CHEMBL1900_lig524-1

> <s_i_glide_gridfile>
glide-grid_2hv5

> <i_i_glide_lignum>
647

> <i_i_glide_rotatable_bonds>
5

> <r_i_docking_score>
-8.77068831848936

> <r_i_glide_ligand_efficiency>
-0.381334274716929

> <r_i_glide_ligand_efficiency_sa>
-1.08446395101968

> <r_i_glide_ligand_efficiency_ln>
-2.12083196361545

> <r_i_glide_gscore>
-8.77068831848936

> <r_i_glide_lipo>
-4.56665975296625

> <r_i_glide_hbond>
0

> <r_i_glide_metal>
0

> <r_i_glide_rewards>
-2.56099257570433

> <r_i_glide_evdw>
-42.0590019226074

> <r_i_glide_ecoul>
-1.17103803157806

> <r_i_glide_erotb>
0.635569811048305

> <r_i_glide_esite>
0

> <r_i_glide_emodel>
-62.8473998227888

> <r_i_glide_energy>
-43.2300399541855

> <r_i_glide_einternal>
3.53731322288513

> <i_i_glide_confnum>
23

> <i_i_glide_posenum>
60

> <r_i_glide_eff_state_penalty>
0

> <s_user_duplicate_titles>
CHEMBL1900_lig524

> <s_m_subgroup_title>
dock_pv

> <s_m_subgroupid>
dock_pv

> <b_m_subgroup_collapsed>
1

$$$$
CHEMBL1900_lig449
                    3D
 Schrodinger Suite 2021-1.
 27 29  0  0  1  0            999 V2000
   16.5318   -3.9341    9.8368 C   0  0  0  0  0  0
   15.3451   -4.6515    9.9926 C   0  0  0  0  0  0
   15.1777   -5.6209   10.9809 C   0  0  0  0  0  0
   17.6234   -4.1722   10.6716 C   0  0  0  0  0  0
   17.5035   -5.1694   11.6524 C   0  0  0  0  0  0
   16.2861   -5.8838   11.7754 C   0  0  0  0  0  0
   16.3654   -6.8607   12.7233 O   0  0  0  0  0  0
   17.6271   -6.7636   13.2168 C   0  0  0  0  0  0
   18.3326   -5.7150   12.6657 C   0  0  0  0  0  0
   18.1987   -7.9464   14.4228 S   0  0  0  0  0  0
   17.3410   -7.5153   15.9523 C   0  0  0  0  0  0
   17.7450   -9.2852   14.0321 O   0  0  0  0  0  0
   19.6161   -7.6132   14.5809 O   0  0  0  0  0  0
   15.9058   -7.3633   16.0572 C   0  0  0  0  0  0
   15.3455   -6.9725   17.2314 C   0  0  0  0  0  0
   16.1518   -6.6232   18.3964 C   0  0  0  0  0  0
   17.4660   -6.9130   18.1819 N   0  0  0  0  0  0
   18.0678   -7.3150   16.9969 N   0  0  0  0  0  0
   15.7451   -6.0907   19.4256 O   0  0  0  0  0  0
   16.6561   -2.7483    8.5891 Cl  0  0  0  0  0  0
   14.5450   -4.5079    9.2940 H   0  0  0  0  0  0
   14.2590   -6.1790   11.0882 H   0  0  0  0  0  0
   18.5368   -3.6091   10.5586 H   0  0  0  0  0  0
   19.3328   -5.4501   12.9665 H   0  0  0  0  0  0
   15.2701   -7.6310   15.2277 H   0  0  0  0  0  0
   14.2708   -6.9155   17.3277 H   0  0  0  0  0  0
   18.1060   -6.7387   18.9427 H   0  0  0  0  0  0
  1  4  1  0  0  0
  1  2  2  0  0  0
  1 20  1  0  0  0
  2  3  1  0  0  0
  2 21  1  0  0  0
  3  6  2  0  0  0
  3 22  1  0  0  0
  4  5  2  0  0  0
  4 23  1  0  0  0
  5  6  1  0  0  0
  5  9  1  0  0  0
  6  7  1  0  0  0
  7  8  1  0  0  0
  8 10  1  0  0  0
  8  9  2  0  0  0
  9 24  1  0  0  0
 10 11  1  0  0  0
 10 12  2  0  0  0
 10 13  2  0  0  0
 11 14  1  0  0  0
 11 18  2  0  0  0
 14 15  2  0  0  0
 14 25  1  0  0  0
 15 16  1  0  0  0
 15 26  1  0  0  0
 16 17  1  0  0  0
 16 19  2  0  0  0
 17 18  1  0  0  0
 17 27  1  0  0  0
M  END
> <s_m_entry_id>
6416

> <s_m_entry_name>
dock_pv.251

> <s_m_Source_Path>
/home/csk/Desktop/cluster/DUD-E-result/aldr

> <s_m_Source_File>
dock_pv.maegz

> <i_m_Source_File_Index>
251

> <chembl_id>
CHEMBL240722

> <chembl_pref_name>
None

> <i_lp_mmshare_version>
53161

> <i_f3d_flags>
0

> <r_lp_tautomer_probability>
0.998994762270461

> <s_lp_Force_Field>
OPLS_2005

> <r_lp_Energy>
21.455039

> <b_lp_Chiralities_Consistent>
1

> <s_lp_Variant>
CHEMBL1900_lig449-1

> <s_i_glide_gridfile>
glide-grid_2hv5

> <i_i_glide_lignum>
571

> <i_i_glide_rotatable_bonds>
2

> <r_i_docking_score>
-8.76965516943717

> <r_i_glide_ligand_efficiency>
-0.438482758471859

> <r_i_glide_ligand_efficiency_sa>
-1.19022532298061

> <r_i_glide_ligand_efficiency_ln>
-2.19475544632449

> <r_i_glide_gscore>
-8.76965516943717

> <r_i_glide_lipo>
-4.01183972278031

> <r_i_glide_hbond>
-0.193124343561998

> <r_i_glide_metal>
0

> <r_i_glide_rewards>
-2.57289855538613

> <r_i_glide_evdw>
-37.4579887390137

> <r_i_glide_ecoul>
-3.35241627693176

> <r_i_glide_erotb>
0.383969330781714

> <r_i_glide_esite>
0

> <r_i_glide_emodel>
-54.8849311041621

> <r_i_glide_energy>
-40.8104050159454

> <r_i_glide_einternal>
4.62578439712524

> <i_i_glide_confnum>
4

> <i_i_glide_posenum>
326

> <r_i_glide_eff_state_penalty>
0

> <s_user_duplicate_titles>
CHEMBL1900_lig449,407184

> <s_m_subgroup_title>
dock_pv

> <s_m_subgroupid>
dock_pv

> <b_m_subgroup_collapsed>
1

$$$$
CHEMBL1900_lig594
                    3D
 Schrodinger Suite 2021-1.
 42 44  0  0  1  0            999 V2000
   16.3743   -8.5740   15.0730 C   0  0  0  0  0  0
   15.8578  -10.5075   16.1990 C   0  0  0  0  0  0
   15.6000   -9.1832   16.1529 C   0  0  0  0  0  0
   16.9819  -10.7821   15.2987 C   0  0  0  0  0  0
   17.3409   -9.6083   14.6373 C   0  0  0  0  0  0
   16.0822   -7.3513   14.5608 C   0  0  0  0  0  0
   18.0017   -4.1197    9.7810 S   0  0  1  0  0  0
   15.0756  -11.6136   16.9202 C   0  0  0  0  0  0
   18.3515   -9.6397   13.6708 C   0  0  0  0  0  0
   15.8146  -12.3531   18.0346 C   0  0  0  0  0  0
   17.6297  -11.9858   15.0092 C   0  0  0  0  0  0
   17.4036   -5.0409   11.2377 C   0  0  0  0  0  0
   16.7629   -3.7146    8.9810 O   0  0  0  0  0  0
   17.0343  -12.3472   18.1810 O   0  0  0  0  0  0
   16.5763   -6.6177   13.3860 C   0  0  0  0  0  0
   18.3169   -5.5323   12.1612 C   0  0  0  0  0  0
   16.0565   -5.3361   11.3785 C   0  0  0  0  0  0
   18.6358  -12.0153   14.0483 C   0  0  0  0  0  0
   18.9920  -10.8461   13.3809 C   0  0  0  0  0  0
   14.5569   -8.4536   16.9840 C   0  0  0  0  0  0
   14.9408  -13.0253   18.8384 O   0  0  0  0  0  0
   17.9226   -6.3168   13.2338 C   0  0  0  0  0  0
   15.6505   -6.1150   12.4552 C   0  0  0  0  0  0
   19.2613  -13.1776   13.7573 F   0  0  0  0  0  0
   18.5868   -2.5633   10.5809 C   0  0  0  0  0  0
   15.3115   -6.7988   15.0736 H   0  0  0  0  0  0
   14.1500  -11.2034   17.3213 H   0  0  0  0  0  0
   14.7765  -12.3489   16.1731 H   0  0  0  0  0  0
   18.6270   -8.7712   13.0978 H   0  0  0  0  0  0
   17.3553  -12.9047   15.5048 H   0  0  0  0  0  0
   19.3450   -5.3149   12.0363 H   0  0  0  0  0  0
   15.3312   -4.9621   10.6695 H   0  0  0  0  0  0
   19.7496  -10.8906   12.6164 H   0  0  0  0  0  0
   13.7449   -8.1155   16.3450 H   0  0  0  0  0  0
   14.1451   -9.0717   17.7783 H   0  0  0  0  0  0
   15.0054   -7.5811   17.4591 H   0  0  0  0  0  0
   14.0214  -12.9151   18.5807 H   0  0  0  0  0  0
   18.6549   -6.6569   13.9525 H   0  0  0  0  0  0
   14.5899   -6.2621   12.5600 H   0  0  0  0  0  0
   18.9450   -2.7551   11.5872 H   0  0  0  0  0  0
   19.3926   -2.1223    9.9968 H   0  0  0  0  0  0
   17.7626   -1.8505   10.5811 H   0  0  0  0  0  0
  1  3  1  0  0  0
  1  5  1  0  0  0
  1  6  2  0  0  0
  2  3  2  0  0  0
  2  8  1  0  0  0
  2  4  1  0  0  0
  3 20  1  0  0  0
  4  5  2  0  0  0
  4 11  1  0  0  0
  5  9  1  0  0  0
  6 15  1  0  0  0
  6 26  1  0  0  0
  7 12  1  0  0  0
  7 13  2  0  0  0
  7 25  1  0  0  0
  8 10  1  0  0  0
  8 27  1  0  0  0
  8 28  1  0  0  0
  9 19  2  0  0  0
  9 29  1  0  0  0
 10 14  2  0  0  0
 10 21  1  0  0  0
 11 18  2  0  0  0
 11 30  1  0  0  0
 12 17  2  0  0  0
 12 16  1  0  0  0
 15 22  1  0  0  0
 15 23  2  0  0  0
 16 22  2  0  0  0
 16 31  1  0  0  0
 17 23  1  0  0  0
 17 32  1  0  0  0
 18 19  1  0  0  0
 18 24  1  0  0  0
 19 33  1  0  0  0
 20 34  1  0  0  0
 20 35  1  0  0  0
 20 36  1  0  0  0
 21 37  1  0  0  0
 22 38  1  0  0  0
 23 39  1  0  0  0
 25 40  1  0  0  0
 25 41  1  0  0  0
 25 42  1  0  0  0
M  END
> <s_m_entry_id>
6417

> <s_m_entry_name>
dock_pv.252

> <s_m_Source_Path>
/home/csk/Desktop/cluster/DUD-E-result/aldr

> <s_m_Source_File>
dock_pv.maegz

> <i_m_Source_File_Index>
252

> <chembl_id>
CHEMBL15770

> <chembl_pref_name>
SULINDAC

> <i_lp_mmshare_version>
53161

> <i_f3d_flags>
0

> <r_lp_tautomer_probability>
1

> <s_lp_Force_Field>
OPLS_2005

> <r_lp_Energy>
36.027279

> <b_lp_Chiralities_Consistent>
1

> <s_lp_Variant>
CHEMBL1900_lig594-2

> <s_i_glide_gridfile>
glide-grid_2hv5

> <i_i_glide_lignum>
718

> <i_i_glide_rotatable_bonds>
5

> <r_i_docking_score>
-8.76895069955671

> <r_i_glide_ligand_efficiency>
-0.350758027982268

> <r_i_glide_ligand_efficiency_sa>
-1.02562269454027

> <r_i_glide_ligand_efficiency_ln>
-2.07850410004202

> <r_i_glide_gscore>
-8.76895069955671

> <r_i_glide_lipo>
-4.34490353775313

> <r_i_glide_hbond>
-0.32

> <r_i_glide_metal>
0

> <r_i_glide_rewards>
-2.40005278372454

> <r_i_glide_evdw>
-33.8519401550293

> <r_i_glide_ecoul>
-2.90469551086426

> <r_i_glide_erotb>
0.451833962342058

> <r_i_glide_esite>
-0.0275270060399976

> <r_i_glide_emodel>
-45.6231856278653

> <r_i_glide_energy>
-36.7566356658936

> <r_i_glide_einternal>
4.151442527771

> <i_i_glide_confnum>
5

> <i_i_glide_posenum>
18

> <r_i_glide_eff_state_penalty>
0

> <s_user_duplicate_titles>
CHEMBL1900_lig594

> <s_m_subgroup_title>
dock_pv

> <s_m_subgroupid>
dock_pv

> <b_m_subgroup_collapsed>
1

$$$$
CHEMBL1900_lig463
                    3D
 Schrodinger Suite 2021-1.
 38 40  0  0  1  0            999 V2000
   16.0132  -12.1614   16.0966 C   0  0  0  0  0  0
   15.6205   -9.7596   17.4205 C   0  0  0  0  0  0
   16.7854  -11.0454   15.7244 C   0  0  0  0  0  0
   15.0710  -12.0807   17.1133 C   0  0  0  0  0  0
   14.8794  -10.8815   17.7806 C   0  0  0  0  0  0
   16.5881   -9.8135   16.4007 C   0  0  0  0  0  0
   17.2476   -2.9114    8.8827 F   0  0  0  0  0  0
   14.3513  -13.1729   17.4547 F   0  0  0  0  0  0
   17.3452   -8.5328   16.0699 C   0  0  0  0  0  0
   18.0118   -6.6295   13.3588 C   0  0  0  0  0  0
   14.1080   -5.7949   10.9811 F   0  0  0  0  0  0
   17.7415  -11.1308   14.7244 O   0  0  0  0  0  0
   17.1934   -7.5199   16.7553 O   0  0  0  0  0  0
   18.8306   -7.3700   14.4119 C   0  0  0  0  0  0
   17.8488  -12.3079   13.9172 C   0  0  0  0  0  0
   18.5450   -5.7147   12.5960 N   0  0  0  0  0  0
   16.3140   -6.9146   13.0455 S   0  0  0  0  0  0
   19.2354   -3.7168   10.5809 F   0  0  0  0  0  0
   16.3734   -5.7348   11.7579 C   0  0  0  0  0  0
   16.9822   -3.8356    9.8315 C   0  0  0  0  0  0
   17.6831   -5.2102   11.6745 C   0  0  0  0  0  0
   15.3643   -5.3053   10.8943 C   0  0  0  0  0  0
   15.6975   -4.3612    9.9282 C   0  0  0  0  0  0
   17.9953   -4.2474   10.6955 C   0  0  0  0  0  0
   19.0506  -12.1632   12.9808 C   0  0  0  0  0  0
   19.0394  -13.0990   11.9858 O   0  0  0  0  0  0
   19.9264  -11.3148   13.1289 O   0  0  0  0  0  0
   18.1349   -8.5335   14.9801 N   0  0  0  0  0  0
   16.1258  -13.1159   15.6109 H   0  0  0  0  0  0
   15.4350   -8.8388   17.9565 H   0  0  0  0  0  0
   14.1463  -10.8282   18.5701 H   0  0  0  0  0  0
   19.1504   -6.6872   15.2033 H   0  0  0  0  0  0
   19.7592   -7.7343   13.9645 H   0  0  0  0  0  0
   18.0226  -13.1923   14.5333 H   0  0  0  0  0  0
   16.9445  -12.4379   13.3223 H   0  0  0  0  0  0
   14.9451   -4.0336    9.2322 H   0  0  0  0  0  0
   18.2754  -13.6790   12.0089 H   0  0  0  0  0  0
   18.2779   -9.4263   14.5234 H   0  0  0  0  0  0
  1  3  2  0  0  0
  1  4  1  0  0  0
  1 29  1  0  0  0
  2  5  1  0  0  0
  2  6  2  0  0  0
  2 30  1  0  0  0
  3  6  1  0  0  0
  3 12  1  0  0  0
  4  5  2  0  0  0
  4  8  1  0  0  0
  5 31  1  0  0  0
  6  9  1  0  0  0
  7 20  1  0  0  0
  9 13  2  0  0  0
  9 28  1  0  0  0
 10 14  1  0  0  0
 10 16  2  0  0  0
 10 17  1  0  0  0
 11 22  1  0  0  0
 12 15  1  0  0  0
 14 28  1  0  0  0
 14 32  1  0  0  0
 14 33  1  0  0  0
 15 25  1  0  0  0
 15 34  1  0  0  0
 15 35  1  0  0  0
 16 21  1  0  0  0
 17 19  1  0  0  0
 18 24  1  0  0  0
 19 21  2  0  0  0
 19 22  1  0  0  0
 20 23  1  0  0  0
 20 24  2  0  0  0
 21 24  1  0  0  0
 22 23  2  0  0  0
 23 36  1  0  0  0
 25 26  1  0  0  0
 25 27  2  0  0  0
 26 37  1  0  0  0
 28 38  1  0  0  0
M  END
> <s_m_entry_id>
6418

> <s_m_entry_name>
dock_pv.253

> <s_m_Source_Path>
/home/csk/Desktop/cluster/DUD-E-result/aldr

> <s_m_Source_File>
dock_pv.maegz

> <i_m_Source_File_Index>
253

> <chembl_id>
CHEMBL399598

> <chembl_pref_name>
None

> <i_lp_mmshare_version>
53161

> <i_f3d_flags>
0

> <r_lp_tautomer_probability>
1

> <s_lp_Force_Field>
OPLS_2005

> <r_lp_Energy>
15.009221

> <b_lp_Chiralities_Consistent>
1

> <s_lp_Variant>
CHEMBL1900_lig463-1

> <s_i_glide_gridfile>
glide-grid_2hv5

> <i_i_glide_lignum>
585

> <i_i_glide_rotatable_bonds>
8

> <r_i_docking_score>
-8.76070375867855

> <r_i_glide_ligand_efficiency>
-0.312882277095663

> <r_i_glide_ligand_efficiency_sa>
-0.950094871068731

> <r_i_glide_ligand_efficiency_ln>
-2.02222765294251

> <r_i_glide_gscore>
-8.76070375867855

> <r_i_glide_lipo>
-4.04312140845008

> <r_i_glide_hbond>
0

> <r_i_glide_metal>
0

> <r_i_glide_rewards>
-2.68957244888168

> <r_i_glide_evdw>
-44.5491943359375

> <r_i_glide_ecoul>
-3.09324717521667

> <r_i_glide_erotb>
0.689803636338878

> <r_i_glide_esite>
-0.0263667446062894

> <r_i_glide_emodel>
-69.500689286412

> <r_i_glide_energy>
-47.6424415111542

> <r_i_glide_einternal>
5.05859708786011

> <i_i_glide_confnum>
3

> <i_i_glide_posenum>
35

> <r_i_glide_eff_state_penalty>
0

> <s_user_duplicate_titles>
CHEMBL1900_lig463,407185

> <s_m_subgroup_title>
dock_pv

> <s_m_subgroupid>
dock_pv

> <b_m_subgroup_collapsed>
1

$$$$
CHEMBL1900_lig35
                    3D
 Schrodinger Suite 2021-1.
 42 44  0  0  1  0            999 V2000
   18.7619   -8.0449   13.9217 S   0  0  0  0  0  0
   15.3504   -6.5154   17.9960 N   0  0  0  0  0  0
   17.2798   -8.7074   16.3237 C   0  0  0  0  0  0
   15.6863   -6.8427   16.7486 C   0  0  0  0  0  0
   17.1367   -7.2420   16.7883 C   0  0  1  0  0  0
   16.3759   -6.4751   18.8584 C   0  0  0  0  0  0
   17.8726   -9.1090   15.0975 C   0  0  0  0  0  0
   17.4153   -6.9746   18.1801 N   0  0  0  0  0  0
   19.7454   -8.9151   13.2747 O   0  0  0  0  0  0
   19.2195   -6.8216   14.5832 O   0  0  0  0  0  0
   17.8272  -10.4646   14.7347 C   0  0  0  0  0  0
   16.7164   -9.7004   17.1465 C   0  0  0  0  0  0
   17.5883   -7.5878   12.6940 N   0  0  2  0  0  0
   14.9450   -6.9150   15.7811 O   0  0  0  0  0  0
   16.3741   -5.9561   19.9692 O   0  0  0  0  0  0
   16.7065  -11.0404   16.7791 C   0  0  0  0  0  0
   17.2542  -11.4229   15.5633 C   0  0  0  0  0  0
   16.0084  -12.2170   17.8301 Cl  0  0  0  0  0  0
   16.4686   -6.7113   13.0798 C   0  0  0  0  0  0
   16.3808   -5.0418   11.0454 C   0  0  0  0  0  0
   15.6927   -6.1158   11.8881 C   0  0  0  0  0  0
   15.5922   -4.3147   10.1500 C   0  0  0  0  0  0
   17.7445   -4.7456   11.1590 C   0  0  0  0  0  0
   18.3013   -3.7191   10.3989 C   0  0  0  0  0  0
   16.1505   -3.2945    9.3875 C   0  0  0  0  0  0
   17.5015   -2.9935    9.5223 C   0  0  0  0  0  0
   14.4015   -6.3017   18.2581 H   0  0  0  0  0  0
   17.6922   -6.5130   16.2148 H   0  0  0  0  0  0
   18.2307   -7.3570   18.6386 H   0  0  0  0  0  0
   18.2556  -10.7974   13.7997 H   0  0  0  0  0  0
   16.2571   -9.4285   18.0864 H   0  0  0  0  0  0
   17.3610   -8.3344   12.0325 H   0  0  0  0  0  0
   17.2435  -12.4605   15.2623 H   0  0  0  0  0  0
   16.7952   -5.9436   13.7802 H   0  0  0  0  0  0
   15.7744   -7.3548   13.6122 H   0  0  0  0  0  0
   14.7764   -5.6778   12.2883 H   0  0  0  0  0  0
   15.3641   -6.9143   11.2266 H   0  0  0  0  0  0
   14.5357   -4.5219   10.0538 H   0  0  0  0  0  0
   18.3804   -5.2797   11.8482 H   0  0  0  0  0  0
   19.3456   -3.4719   10.5039 H   0  0  0  0  0  0
   15.5291   -2.7300    8.7120 H   0  0  0  0  0  0
   17.9307   -2.1839    8.9528 H   0  0  0  0  0  0
  1  7  1  0  0  0
  1  9  2  0  0  0
  1 10  2  0  0  0
  1 13  1  0  0  0
  2  4  1  0  0  0
  2  6  1  0  0  0
  2 27  1  0  0  0
  3  7  1  0  0  0
  3  5  1  0  0  0
  3 12  2  0  0  0
  4  5  1  0  0  0
  4 14  2  0  0  0
  5  8  1  0  0  0
  5 28  1  0  0  0
  6  8  1  0  0  0
  6 15  2  0  0  0
  7 11  2  0  0  0
  8 29  1  0  0  0
 11 17  1  0  0  0
 11 30  1  0  0  0
 12 16  1  0  0  0
 12 31  1  0  0  0
 13 19  1  0  0  0
 13 32  1  0  0  0
 16 17  2  0  0  0
 16 18  1  0  0  0
 17 33  1  0  0  0
 19 21  1  0  0  0
 19 34  1  0  0  0
 19 35  1  0  0  0
 20 21  1  0  0  0
 20 22  2  0  0  0
 20 23  1  0  0  0
 21 36  1  0  0  0
 21 37  1  0  0  0
 22 25  1  0  0  0
 22 38  1  0  0  0
 23 24  2  0  0  0
 23 39  1  0  0  0
 24 26  1  0  0  0
 24 40  1  0  0  0
 25 26  2  0  0  0
 25 41  1  0  0  0
 26 42  1  0  0  0
M  END
> <s_m_entry_id>
6419

> <s_m_entry_name>
dock_pv.254

> <s_m_Source_Path>
/home/csk/Desktop/cluster/DUD-E-result/aldr

> <s_m_Source_File>
dock_pv.maegz

> <i_m_Source_File_Index>
254

> <chembl_id>
CHEMBL275868

> <chembl_pref_name>
None

> <i_lp_mmshare_version>
53161

> <i_f3d_flags>
0

> <r_lp_tautomer_probability>
0.999999999781369

> <s_lp_Force_Field>
OPLS_2005

> <r_lp_Energy>
24.800853

> <b_lp_Chiralities_Consistent>
1

> <s_lp_Variant>
CHEMBL1900_lig35-2

> <s_i_glide_gridfile>
glide-grid_2hv5

> <i_i_glide_lignum>
69

> <i_i_glide_rotatable_bonds>
6

> <r_i_docking_score>
-8.7533528332743

> <r_i_glide_ligand_efficiency>
-0.336667416664396

> <r_i_glide_ligand_efficiency_sa>
-0.997375897145958

> <r_i_glide_ligand_efficiency_ln>
-2.05569619080115

> <r_i_glide_gscore>
-8.7533528332743

> <r_i_glide_lipo>
-3.71753139550781

> <r_i_glide_hbond>
-0.301085631344219

> <r_i_glide_metal>
0

> <r_i_glide_rewards>
-2.71242587363858

> <r_i_glide_evdw>
-48.881519317627

> <r_i_glide_ecoul>
-1.38705515861511

> <r_i_glide_erotb>
0.629824306889924

> <r_i_glide_esite>
0

> <r_i_glide_emodel>
-71.8386071968663

> <r_i_glide_energy>
-50.2685744762421

> <r_i_glide_einternal>
6.01680040359497

> <i_i_glide_confnum>
68

> <i_i_glide_posenum>
338

> <r_i_glide_eff_state_penalty>
0

> <s_user_duplicate_titles>
CHEMBL1900_lig35

> <s_m_subgroup_title>
dock_pv

> <s_m_subgroupid>
dock_pv

> <b_m_subgroup_collapsed>
1

$$$$
CHEMBL1900_lig318
                    3D
 Schrodinger Suite 2021-1.
 35 37  0  0  1  0            999 V2000
   16.2565   -7.3846   14.7136 C   0  0  0  0  0  0
   16.7663   -8.7603   15.0950 C   0  0  0  0  0  0
   16.6086   -6.6853   13.4240 C   0  0  0  0  0  0
   17.9332   -6.4766   13.0287 C   0  0  0  0  0  0
   17.9303   -9.3867   14.5872 C   0  0  0  0  0  0
   15.5717   -6.1150   12.6587 C   0  0  0  0  0  0
   17.6350   -2.9982    9.8900 C   0  0  0  0  0  0
   15.9442   -9.4742   15.9970 C   0  0  0  0  0  0
   15.3345   -6.9150   15.3810 O   0  0  0  0  0  0
   18.1728   -5.7150   11.8824 C   0  0  0  0  0  0
   19.0590   -7.1607   13.7837 C   0  0  0  0  0  0
   17.1465   -5.2136   11.0880 C   0  0  0  0  0  0
   18.7048   -2.4691   10.1810 O   0  0  0  0  0  0
   18.9520   -8.6892   13.6901 C   0  0  0  0  0  0
   18.1450  -10.7362   14.8937 C   0  0  0  0  0  0
   17.4671   -4.5109    9.7810 C   0  0  0  0  0  0
   15.8320   -5.4101   11.4885 C   0  0  0  0  0  0
   16.2273  -10.7927   16.3403 C   0  0  0  0  0  0
   16.4769   -2.3307    9.6160 O   0  0  0  0  0  0
   17.3187  -11.4312   15.7706 C   0  0  0  0  0  0
   15.4244  -11.4722   17.2175 O   0  0  0  0  0  0
   14.5450   -6.1150   12.9819 H   0  0  0  0  0  0
   15.0561   -9.0324   16.4274 H   0  0  0  0  0  0
   19.1881   -5.5610   11.5673 H   0  0  0  0  0  0
   20.0191   -6.8486   13.3810 H   0  0  0  0  0  0
   19.0894   -6.8174   14.8193 H   0  0  0  0  0  0
   18.7576   -8.9755   12.6560 H   0  0  0  0  0  0
   19.9359   -9.1046   13.9133 H   0  0  0  0  0  0
   18.9864  -11.2568   14.4624 H   0  0  0  0  0  0
   16.6955   -4.7467    9.0476 H   0  0  0  0  0  0
   18.3962   -4.9150    9.3810 H   0  0  0  0  0  0
   15.0117   -4.9984   10.9183 H   0  0  0  0  0  0
   15.7327   -2.9150    9.4536 H   0  0  0  0  0  0
   17.5275  -12.4640   16.0081 H   0  0  0  0  0  0
   14.6480  -10.9778   17.4892 H   0  0  0  0  0  0
  1  2  1  0  0  0
  1  3  1  0  0  0
  1  9  2  0  0  0
  2  5  1  0  0  0
  2  8  2  0  0  0
  3  4  2  0  0  0
  3  6  1  0  0  0
  4 10  1  0  0  0
  4 11  1  0  0  0
  5 14  1  0  0  0
  5 15  2  0  0  0
  6 17  2  0  0  0
  6 22  1  0  0  0
  7 16  1  0  0  0
  7 13  2  0  0  0
  7 19  1  0  0  0
  8 18  1  0  0  0
  8 23  1  0  0  0
 10 12  2  0  0  0
 10 24  1  0  0  0
 11 14  1  0  0  0
 11 25  1  0  0  0
 11 26  1  0  0  0
 12 17  1  0  0  0
 12 16  1  0  0  0
 14 27  1  0  0  0
 14 28  1  0  0  0
 15 20  1  0  0  0
 15 29  1  0  0  0
 16 30  1  0  0  0
 16 31  1  0  0  0
 17 32  1  0  0  0
 18 20  2  0  0  0
 18 21  1  0  0  0
 19 33  1  0  0  0
 20 34  1  0  0  0
 21 35  1  0  0  0
M  END
> <s_m_entry_id>
6420

> <s_m_entry_name>
dock_pv.255

> <s_m_Source_Path>
/home/csk/Desktop/cluster/DUD-E-result/aldr

> <s_m_Source_File>
dock_pv.maegz

> <i_m_Source_File_Index>
255

> <chembl_id>
CHEMBL538917

> <chembl_pref_name>
None

> <i_lp_mmshare_version>
53161

> <i_f3d_flags>
0

> <r_lp_tautomer_probability>
1

> <s_lp_Force_Field>
OPLS_2005

> <r_lp_Energy>
27.976644

> <b_lp_Chiralities_Consistent>
1

> <s_lp_Variant>
CHEMBL1900_lig318-1

> <s_i_glide_gridfile>
glide-grid_2hv5

> <i_i_glide_lignum>
435

> <i_i_glide_rotatable_bonds>
4

> <r_i_docking_score>
-8.74831127555587

> <r_i_glide_ligand_efficiency>
-0.416586251216946

> <r_i_glide_ligand_efficiency_sa>
-1.14932987886403

> <r_i_glide_ligand_efficiency_ln>
-2.16300228525376

> <r_i_glide_gscore>
-8.74831127555587

> <r_i_glide_lipo>
-3.66545384627491

> <r_i_glide_hbond>
-0.132773170334058

> <r_i_glide_metal>
0

> <r_i_glide_rewards>
-3.06987192643047

> <r_i_glide_evdw>
-31.4323596954346

> <r_i_glide_ecoul>
-5.08431100845337

> <r_i_glide_erotb>
0.454052303523303

> <r_i_glide_esite>
0

> <r_i_glide_emodel>
-48.5594360224039

> <r_i_glide_energy>
-36.5166707038879

> <r_i_glide_einternal>
1.46457481384277

> <i_i_glide_confnum>
11

> <i_i_glide_posenum>
246

> <r_i_glide_eff_state_penalty>
0

> <s_user_duplicate_titles>
CHEMBL1900_lig318,122258

> <s_m_subgroup_title>
dock_pv

> <s_m_subgroupid>
dock_pv

> <b_m_subgroup_collapsed>
1

$$$$
CHEMBL1900_lig253
                    3D
 Schrodinger Suite 2021-1.
 41 44  0  0  1  0            999 V2000
   18.1450   -8.4458   15.3714 N   0  0  0  0  0  0
   17.7450   -7.7150   16.4772 N   0  0  0  0  0  0
   15.6913   -5.2258   11.1431 C   0  0  0  0  0  0
   17.7450   -9.7294   15.0420 C   0  0  0  0  0  0
   16.8779   -8.1816   17.2902 C   0  0  0  0  0  0
   16.6885   -5.7258   11.9771 C   0  0  0  0  0  0
   18.2648   -6.7924   13.5031 C   0  0  0  0  0  0
   18.8533   -5.8643   12.8016 N   0  0  0  0  0  0
   18.0152   -5.2752   11.9052 C   0  0  0  0  0  0
   14.2634   -5.6684   11.2988 C   0  0  0  0  0  0
   16.5485   -6.9150   13.2435 S   0  0  0  0  0  0
   19.0289   -7.6990   14.4494 C   0  0  0  0  0  0
   16.6838  -10.2573   16.0018 C   0  0  0  0  0  0
   16.1992   -9.4679   17.0653 C   0  0  0  0  0  0
   16.7353   -7.4036   18.5993 C   0  0  0  0  0  0
   18.3505   -4.2861   10.9661 C   0  0  0  0  0  0
   16.1562   -5.9928   18.4382 C   0  0  0  0  0  0
   16.0571   -4.2585   10.2004 C   0  0  0  0  0  0
   18.1676  -10.3572   14.0667 O   0  0  0  0  0  0
   17.3613   -3.7912   10.1214 C   0  0  0  0  0  0
   15.7450   -5.5165   17.3810 O   0  0  0  0  0  0
   13.4478   -4.9150   10.5810 F   0  0  0  0  0  0
   14.1450   -6.9162   10.9810 F   0  0  0  0  0  0
   13.9069   -5.7150   12.5516 F   0  0  0  0  0  0
   17.7450   -2.5610    8.9810 Cl  0  0  0  0  0  0
   16.1450   -5.3461   19.6387 O   0  0  0  0  0  0
   16.1450  -11.5312   15.7810 C   0  0  0  0  0  0
   15.1021   -9.9199   17.8115 C   0  0  0  0  0  0
   15.0994  -11.9973   16.5782 C   0  0  0  0  0  0
   14.5706  -11.1879   17.5817 C   0  0  0  0  0  0
   19.7625   -7.1294   15.0201 H   0  0  0  0  0  0
   19.6440   -8.3778   13.8548 H   0  0  0  0  0  0
   16.1450   -7.9464   19.3347 H   0  0  0  0  0  0
   17.7288   -7.2988   19.0343 H   0  0  0  0  0  0
   19.3450   -3.8957   10.8944 H   0  0  0  0  0  0
   15.3136   -3.8356    9.5377 H   0  0  0  0  0  0
   16.5886   -5.8512   20.3224 H   0  0  0  0  0  0
   16.5158  -12.1540   14.9779 H   0  0  0  0  0  0
   14.6634   -9.3186   18.5928 H   0  0  0  0  0  0
   14.6798  -12.9771   16.4009 H   0  0  0  0  0  0
   13.7450  -11.5446   18.1810 H   0  0  0  0  0  0
  1  2  1  0  0  0
  1  4  1  0  0  0
  1 12  1  0  0  0
  2  5  2  0  0  0
  3  6  1  0  0  0
  3 10  1  0  0  0
  3 18  2  0  0  0
  4 13  1  0  0  0
  4 19  2  0  0  0
  5 15  1  0  0  0
  5 14  1  0  0  0
  6 11  1  0  0  0
  6  9  2  0  0  0
  7 12  1  0  0  0
  7  8  2  0  0  0
  7 11  1  0  0  0
  8  9  1  0  0  0
  9 16  1  0  0  0
 10 22  1  0  0  0
 10 23  1  0  0  0
 10 24  1  0  0  0
 12 31  1  0  0  0
 12 32  1  0  0  0
 13 14  1  0  0  0
 13 27  2  0  0  0
 14 28  2  0  0  0
 15 17  1  0  0  0
 15 33  1  0  0  0
 15 34  1  0  0  0
 16 20  2  0  0  0
 16 35  1  0  0  0
 17 21  2  0  0  0
 17 26  1  0  0  0
 18 20  1  0  0  0
 18 36  1  0  0  0
 20 25  1  0  0  0
 26 37  1  0  0  0
 27 29  1  0  0  0
 27 38  1  0  0  0
 28 30  1  0  0  0
 28 39  1  0  0  0
 29 30  2  0  0  0
 29 40  1  0  0  0
 30 41  1  0  0  0
M  END
> <s_m_entry_id>
6421

> <s_m_entry_name>
dock_pv.256

> <s_m_Source_Path>
/home/csk/Desktop/cluster/DUD-E-result/aldr

> <s_m_Source_File>
dock_pv.maegz

> <i_m_Source_File_Index>
256

> <chembl_id>
CHEMBL278583

> <chembl_pref_name>
None

> <i_lp_mmshare_version>
53161

> <i_f3d_flags>
0

> <r_lp_tautomer_probability>
1

> <s_lp_Force_Field>
OPLS_2005

> <r_lp_Energy>
21.728374

> <b_lp_Chiralities_Consistent>
1

> <s_lp_Variant>
CHEMBL1900_lig253-1

> <s_i_glide_gridfile>
glide-grid_2hv5

> <i_i_glide_lignum>
366

> <i_i_glide_rotatable_bonds>
6

> <r_i_docking_score>
-8.7297739288517

> <r_i_glide_ligand_efficiency>
-0.290992464295057

> <r_i_glide_ligand_efficiency_sa>
-0.904181243020118

> <r_i_glide_ligand_efficiency_ln>
-1.98349975514045

> <r_i_glide_gscore>
-8.7297739288517

> <r_i_glide_lipo>
-5.28900707947699

> <r_i_glide_hbond>
-0.0549882261048067

> <r_i_glide_metal>
0

> <r_i_glide_rewards>
-1.77693946910282

> <r_i_glide_evdw>
-31.3952732086182

> <r_i_glide_ecoul>
-2.80654692649841

> <r_i_glide_erotb>
0.389914017441837

> <r_i_glide_esite>
-0.00800747220324258

> <r_i_glide_emodel>
-44.3265493171768

> <r_i_glide_energy>
-34.2018201351166

> <r_i_glide_einternal>
4.34634733200073

> <i_i_glide_confnum>
5

> <i_i_glide_posenum>
375

> <r_i_glide_eff_state_penalty>
0

> <s_user_duplicate_titles>
CHEMBL1900_lig253,24262

> <s_m_subgroup_title>
dock_pv

> <s_m_subgroupid>
dock_pv

> <b_m_subgroup_collapsed>
1

$$$$
CHEMBL1900_lig529
                    3D
 Schrodinger Suite 2021-1.
 45 47  0  0  1  0            999 V2000
   19.5931   -6.6608   14.4998 O   0  0  0  0  0  0
   18.7429   -7.6165   13.7812 S   0  0  0  0  0  0
   19.3337   -8.6914   12.9810 O   0  0  0  0  0  0
   15.8622   -7.1152   18.4928 C   0  0  0  0  0  0
   16.6729   -6.1806   17.8685 C   0  0  0  0  0  0
   17.3449   -6.5254   16.7015 C   0  0  0  0  0  0
   15.7094   -8.4203   18.0163 C   0  0  0  0  0  0
   16.3997   -8.7583   16.8422 C   0  0  0  0  0  0
   17.2072   -7.8082   16.1673 C   0  0  0  0  0  0
   17.7232   -8.4380   15.0086 C   0  0  0  0  0  0
   17.3154   -9.7597   15.0200 C   0  0  0  0  0  0
   16.4750   -9.9402   16.1150 N   0  0  0  0  0  0
   17.6191   -6.6618   12.7398 C   0  0  0  0  0  0
   18.1460   -5.6704   11.9121 C   0  0  0  0  0  0
   17.3425   -4.9163   11.0550 C   0  0  0  0  0  0
   15.9592   -5.1579   11.0491 C   0  0  0  0  0  0
   15.4135   -6.1154   11.9012 C   0  0  0  0  0  0
   16.2367   -6.8657   12.7455 C   0  0  0  0  0  0
   15.8282  -11.1946   16.5180 C   0  0  0  0  0  0
   17.6490  -10.8763   14.0432 C   0  0  0  0  0  0
   16.8253   -4.7894   18.4614 C   0  0  0  0  0  0
   17.9811   -3.9660   10.2806 O   0  0  0  0  0  0
   17.1942   -3.0932    9.4805 C   0  0  0  0  0  0
   16.7095  -12.0987   17.3868 C   0  0  0  0  0  0
   17.9627  -12.2754   16.8732 O   0  0  0  0  0  0
   16.3110  -12.6009   18.4332 O   0  0  0  0  0  0
   15.3517   -6.8083   19.3848 H   0  0  0  0  0  0
   18.0026   -5.8256   16.2098 H   0  0  0  0  0  0
   15.0923   -9.1319   18.5458 H   0  0  0  0  0  0
   19.2099   -5.4879   11.9238 H   0  0  0  0  0  0
   15.2929   -4.5979   10.4093 H   0  0  0  0  0  0
   14.3454   -6.2748   11.9014 H   0  0  0  0  0  0
   15.7977   -7.6011   13.4030 H   0  0  0  0  0  0
   14.9230  -10.9523   17.0728 H   0  0  0  0  0  0
   15.4776  -11.7353   15.6396 H   0  0  0  0  0  0
   18.7073  -11.1433   14.0917 H   0  0  0  0  0  0
   17.0787  -11.7944   14.1713 H   0  0  0  0  0  0
   17.4672  -10.5568   13.0173 H   0  0  0  0  0  0
   15.9854   -4.5366   19.1091 H   0  0  0  0  0  0
   16.8555   -4.0269   17.6847 H   0  0  0  0  0  0
   17.7470   -4.7235   19.0385 H   0  0  0  0  0  0
   17.8512   -2.3825    8.9808 H   0  0  0  0  0  0
   16.6410   -3.6345    8.7107 H   0  0  0  0  0  0
   16.4900   -2.5197   10.0876 H   0  0  0  0  0  0
   18.0834  -11.8231   16.0376 H   0  0  0  0  0  0
  1  2  2  0  0  0
  2 13  1  0  0  0
  2  3  2  0  0  0
  2 10  1  0  0  0
  4  7  1  0  0  0
  4  5  2  0  0  0
  4 27  1  0  0  0
  5  6  1  0  0  0
  5 21  1  0  0  0
  6  9  2  0  0  0
  6 28  1  0  0  0
  7  8  2  0  0  0
  7 29  1  0  0  0
  8  9  1  0  0  0
  8 12  1  0  0  0
  9 10  1  0  0  0
 10 11  2  0  0  0
 11 20  1  0  0  0
 11 12  1  0  0  0
 12 19  1  0  0  0
 13 14  2  0  0  0
 13 18  1  0  0  0
 14 15  1  0  0  0
 14 30  1  0  0  0
 15 16  2  0  0  0
 15 22  1  0  0  0
 16 17  1  0  0  0
 16 31  1  0  0  0
 17 18  2  0  0  0
 17 32  1  0  0  0
 18 33  1  0  0  0
 19 24  1  0  0  0
 19 34  1  0  0  0
 19 35  1  0  0  0
 20 36  1  0  0  0
 20 37  1  0  0  0
 20 38  1  0  0  0
 21 39  1  0  0  0
 21 40  1  0  0  0
 21 41  1  0  0  0
 22 23  1  0  0  0
 23 42  1  0  0  0
 23 43  1  0  0  0
 23 44  1  0  0  0
 24 25  1  0  0  0
 24 26  2  0  0  0
 25 45  1  0  0  0
M  END
> <s_m_entry_id>
6422

> <s_m_entry_name>
dock_pv.257

> <s_m_Source_Path>
/home/csk/Desktop/cluster/DUD-E-result/aldr

> <s_m_Source_File>
dock_pv.maegz

> <i_m_Source_File_Index>
257

> <chembl_id>
CHEMBL1917448

> <chembl_pref_name>
None

> <i_lp_mmshare_version>
53161

> <i_f3d_flags>
0

> <r_lp_tautomer_probability>
1

> <s_lp_Force_Field>
OPLS_2005

> <r_lp_Energy>
15.868621

> <b_lp_Chiralities_Consistent>
1

> <s_lp_Variant>
CHEMBL1900_lig529-1

> <s_i_glide_gridfile>
glide-grid_2hv5

> <i_i_glide_lignum>
652

> <i_i_glide_rotatable_bonds>
6

> <r_i_docking_score>
-8.72801726324658

> <r_i_glide_ligand_efficiency>
-0.33569297166333

> <r_i_glide_ligand_efficiency_sa>
-0.994489107664555

> <r_i_glide_ligand_efficiency_ln>
-2.04974621531292

> <r_i_glide_gscore>
-8.72801726324658

> <r_i_glide_lipo>
-4.47836022343991

> <r_i_glide_hbond>
-0.32

> <r_i_glide_metal>
0

> <r_i_glide_rewards>
-2.49304247251743

> <r_i_glide_evdw>
-39.4715957641602

> <r_i_glide_ecoul>
0.00429080333560705

> <r_i_glide_erotb>
0.554337003352821

> <r_i_glide_esite>
-0.0180154029343969

> <r_i_glide_emodel>
-55.5723765453912

> <r_i_glide_energy>
-39.4673049608245

> <r_i_glide_einternal>
5.09951686859131

> <i_i_glide_confnum>
6

> <i_i_glide_posenum>
377

> <r_i_glide_eff_state_penalty>
0

> <s_user_duplicate_titles>
CHEMBL1900_lig529

> <s_m_subgroup_title>
dock_pv

> <s_m_subgroupid>
dock_pv

> <b_m_subgroup_collapsed>
1

$$$$
CHEMBL1900_lig63
                    3D
 Schrodinger Suite 2021-1.
 35 37  0  0  1  0            999 V2000
   17.9370   -7.6406   14.7987 N   0  0  0  0  0  0
   17.8735   -9.0111   14.6210 C   0  0  0  0  0  0
   17.3199   -6.9150   15.8127 N   0  0  0  0  0  0
   16.4583   -7.4614   16.5838 C   0  0  0  0  0  0
   16.9306   -9.6716   15.6238 C   0  0  0  0  0  0
   16.2211   -8.9103   16.5778 C   0  0  0  0  0  0
   15.6727   -6.5053   17.4953 C   0  0  0  0  0  0
   18.6000   -6.8214   13.7547 C   0  0  0  0  0  0
   17.7226   -6.1858   12.6537 C   0  0  0  0  0  0
   16.3637   -6.4575   12.4682 C   0  0  0  0  0  0
   16.3782   -6.0935   18.8000 C   0  0  0  0  0  0
   16.8076  -11.0242   15.5360 N   0  0  0  0  0  0
   15.6360   -5.8451   11.4412 C   0  0  0  0  0  0
   18.4858   -9.6216   13.7391 O   0  0  0  0  0  0
   18.3143   -5.2720   11.7880 C   0  0  0  0  0  0
   15.7450   -5.7150   19.7810 O   0  0  0  0  0  0
   16.2713   -4.9492   10.5810 C   0  0  0  0  0  0
   15.7450   -7.3150   13.2877 F   0  0  0  0  0  0
   17.7385   -6.1150   18.7354 O   0  0  0  0  0  0
   17.6148   -4.6585   10.7579 C   0  0  0  0  0  0
   15.3450   -4.1150    9.1510 Br  0  0  0  0  0  0
   15.3803   -9.5849   17.4751 C   0  0  0  0  0  0
   15.9704  -11.6493   16.4021 C   0  0  0  0  0  0
   15.2435  -10.9707   17.3810 C   0  0  0  0  0  0
   15.4581   -5.5789   16.9644 H   0  0  0  0  0  0
   14.6942   -6.9150   17.7432 H   0  0  0  0  0  0
   19.1138   -6.0046   14.2668 H   0  0  0  0  0  0
   19.4097   -7.3697   13.2676 H   0  0  0  0  0  0
   14.5868   -6.0679   11.3147 H   0  0  0  0  0  0
   19.3450   -5.0368   11.9109 H   0  0  0  0  0  0
   18.0460   -6.3681   17.8604 H   0  0  0  0  0  0
   18.1115   -3.9615   10.0994 H   0  0  0  0  0  0
   14.8304   -9.0609   18.2425 H   0  0  0  0  0  0
   15.8893  -12.7216   16.2979 H   0  0  0  0  0  0
   14.5868  -11.5055   18.0527 H   0  0  0  0  0  0
  1  2  1  0  0  0
  1  3  1  0  0  0
  1  8  1  0  0  0
  2  5  1  0  0  0
  2 14  2  0  0  0
  3  4  2  0  0  0
  4  6  1  0  0  0
  4  7  1  0  0  0
  5 12  2  0  0  0
  5  6  1  0  0  0
  6 22  2  0  0  0
  7 11  1  0  0  0
  7 25  1  0  0  0
  7 26  1  0  0  0
  8  9  1  0  0  0
  8 27  1  0  0  0
  8 28  1  0  0  0
  9 10  1  0  0  0
  9 15  2  0  0  0
 10 13  2  0  0  0
 10 18  1  0  0  0
 11 16  2  0  0  0
 11 19  1  0  0  0
 12 23  1  0  0  0
 13 17  1  0  0  0
 13 29  1  0  0  0
 15 20  1  0  0  0
 15 30  1  0  0  0
 17 20  2  0  0  0
 17 21  1  0  0  0
 19 31  1  0  0  0
 20 32  1  0  0  0
 22 24  1  0  0  0
 22 33  1  0  0  0
 23 24  2  0  0  0
 23 34  1  0  0  0
 24 35  1  0  0  0
M  END
> <s_m_entry_id>
6423

> <s_m_entry_name>
dock_pv.258

> <s_m_Source_Path>
/home/csk/Desktop/cluster/DUD-E-result/aldr

> <s_m_Source_File>
dock_pv.maegz

> <i_m_Source_File_Index>
258

> <chembl_id>
CHEMBL69371

> <chembl_pref_name>
None

> <i_lp_mmshare_version>
53161

> <i_f3d_flags>
0

> <r_lp_tautomer_probability>
1

> <s_lp_Force_Field>
OPLS_2005

> <r_lp_Energy>
27.655736

> <b_lp_Chiralities_Consistent>
1

> <s_lp_Variant>
CHEMBL1900_lig63-1

> <s_i_glide_gridfile>
glide-grid_2hv5

> <i_i_glide_lignum>
98

> <i_i_glide_rotatable_bonds>
5

> <r_i_docking_score>
-8.72605795832828

> <r_i_glide_ligand_efficiency>
-0.363585748263678

> <r_i_glide_ligand_efficiency_sa>
-1.04876277729537

> <r_i_glide_ligand_efficiency_ln>
-2.08854608213642

> <r_i_glide_gscore>
-8.72605795832828

> <r_i_glide_lipo>
-4.14182301505787

> <r_i_glide_hbond>
-0.32

> <r_i_glide_metal>
0

> <r_i_glide_rewards>
-2.48216419871502

> <r_i_glide_evdw>
-39.629638671875

> <r_i_glide_ecoul>
-2.055344581604

> <r_i_glide_erotb>
0.507712876278956

> <r_i_glide_esite>
0

> <r_i_glide_emodel>
-57.9165452985672

> <r_i_glide_energy>
-41.684983253479

> <r_i_glide_einternal>
5.86516809463501

> <i_i_glide_confnum>
5

> <i_i_glide_posenum>
270

> <r_i_glide_eff_state_penalty>
0

> <s_user_duplicate_titles>
CHEMBL1900_lig63,108455

> <s_m_subgroup_title>
dock_pv

> <s_m_subgroupid>
dock_pv

> <b_m_subgroup_collapsed>
1

$$$$
CHEMBL1900_lig637
                    3D
 Schrodinger Suite 2021-1.
 45 47  0  0  1  0            999 V2000
   15.7230   -4.4056   10.0383 C   0  0  0  0  0  0
   16.9860   -3.8173    9.9713 C   0  0  0  0  0  0
   17.9996   -4.2341   10.8326 C   0  0  0  0  0  0
   15.4639   -5.4152   10.9651 C   0  0  0  0  0  0
   16.4878   -5.8474   11.8048 C   0  0  0  0  0  0
   17.7402   -5.2430   11.7631 C   0  0  0  0  0  0
   18.7378   -5.5990   12.6561 O   0  0  0  0  0  0
   18.5443   -6.5144   13.6833 C   0  0  0  0  0  0
   17.2303   -7.1990   13.7359 C   0  0  0  0  0  0
   16.2959   -6.8776   12.8074 C   0  0  0  0  0  0
   19.5039   -6.6506   14.4395 O   0  0  0  0  0  0
   16.9456   -8.1887   14.7557 C   0  0  0  0  0  0
   15.7013   -8.1123   15.2648 N   0  0  0  0  0  0
   17.7692   -9.0231   15.1298 O   0  0  0  0  0  0
   15.1090   -8.9985   16.2613 C   0  0  0  0  0  0
   14.9582   -8.2779   17.6032 C   0  0  0  0  0  0
   16.3065   -7.8243   18.2006 C   0  0  0  0  0  0
   16.3088   -6.3943   18.6990 C   0  0  0  0  0  0
   16.4092   -6.1149   20.0572 C   0  0  0  0  0  0
   16.3502   -4.8044   20.5078 C   0  0  0  0  0  0
   16.1454   -3.7716   19.6014 C   0  0  0  0  0  0
   16.1450   -4.0390   18.2247 C   0  0  0  0  0  0
   16.2101   -5.3549   17.7813 C   0  0  0  0  0  0
   17.2203   -2.8201    9.0674 O   0  0  0  0  0  0
   15.8931   -2.5397   20.1446 O   0  0  0  0  0  0
   15.1318   -1.6329   19.3698 C   0  0  0  0  0  0
   14.9375   -4.0784    9.3747 H   0  0  0  0  0  0
   18.9630   -3.7557   10.7959 H   0  0  0  0  0  0
   14.4770   -5.8565   11.0123 H   0  0  0  0  0  0
   15.3451   -7.3816   12.7797 H   0  0  0  0  0  0
   15.0980   -7.3907   14.9036 H   0  0  0  0  0  0
   15.7281   -9.8905   16.3942 H   0  0  0  0  0  0
   14.1386   -9.3436   15.9012 H   0  0  0  0  0  0
   14.4749   -8.9536   18.3086 H   0  0  0  0  0  0
   14.2686   -7.4414   17.4824 H   0  0  0  0  0  0
   17.1382   -7.9242   17.5037 H   0  0  0  0  0  0
   16.5459   -8.5157   18.9891 H   0  0  0  0  0  0
   16.5032   -6.9127   20.7723 H   0  0  0  0  0  0
   16.3849   -4.5947   21.5667 H   0  0  0  0  0  0
   16.0331   -3.2501   17.4977 H   0  0  0  0  0  0
   16.1446   -5.5818   16.7278 H   0  0  0  0  0  0
   16.4249   -2.5894    8.5819 H   0  0  0  0  0  0
   14.7655   -0.8613   20.0369 H   0  0  0  0  0  0
   14.2568   -2.1068   18.9233 H   0  0  0  0  0  0
   15.7405   -1.1809   18.5860 H   0  0  0  0  0  0
  1  2  2  0  0  0
  1  4  1  0  0  0
  1 27  1  0  0  0
  2  3  1  0  0  0
  2 24  1  0  0  0
  3  6  2  0  0  0
  3 28  1  0  0  0
  4  5  2  0  0  0
  4 29  1  0  0  0
  5  6  1  0  0  0
  5 10  1  0  0  0
  6  7  1  0  0  0
  7  8  1  0  0  0
  8  9  1  0  0  0
  8 11  2  0  0  0
  9 10  2  0  0  0
  9 12  1  0  0  0
 10 30  1  0  0  0
 12 13  1  0  0  0
 12 14  2  0  0  0
 13 15  1  0  0  0
 13 31  1  0  0  0
 15 16  1  0  0  0
 15 32  1  0  0  0
 15 33  1  0  0  0
 16 17  1  0  0  0
 16 34  1  0  0  0
 16 35  1  0  0  0
 17 18  1  0  0  0
 17 36  1  0  0  0
 17 37  1  0  0  0
 18 19  2  0  0  0
 18 23  1  0  0  0
 19 20  1  0  0  0
 19 38  1  0  0  0
 20 21  2  0  0  0
 20 39  1  0  0  0
 21 22  1  0  0  0
 21 25  1  0  0  0
 22 23  2  0  0  0
 22 40  1  0  0  0
 23 41  1  0  0  0
 24 42  1  0  0  0
 25 26  1  0  0  0
 26 43  1  0  0  0
 26 44  1  0  0  0
 26 45  1  0  0  0
M  END
> <s_m_entry_id>
6424

> <s_m_entry_name>
dock_pv.259

> <s_m_Source_Path>
/home/csk/Desktop/cluster/DUD-E-result/aldr

> <s_m_Source_File>
dock_pv.maegz

> <i_m_Source_File_Index>
259

> <chembl_id>
CHEMBL4084456

> <chembl_pref_name>
None

> <i_lp_mmshare_version>
53161

> <i_f3d_flags>
0

> <r_lp_tautomer_probability>
1

> <s_lp_Force_Field>
OPLS_2005

> <r_lp_Energy>
27.212941

> <b_lp_Chiralities_Consistent>
1

> <s_lp_Variant>
CHEMBL1900_lig637-1

> <s_i_glide_gridfile>
glide-grid_2hv5

> <i_i_glide_lignum>
761

> <i_i_glide_rotatable_bonds>
8

> <r_i_docking_score>
-8.72346105645446

> <r_i_glide_ligand_efficiency>
-0.335517732940556

> <r_i_glide_ligand_efficiency_sa>
-0.993969963637868

> <r_i_glide_ligand_efficiency_ln>
-2.04867620509792

> <r_i_glide_gscore>
-8.72346105645446

> <r_i_glide_lipo>
-5.41109260355493

> <r_i_glide_hbond>
0

> <r_i_glide_metal>
0

> <r_i_glide_rewards>
-2.10487633086805

> <r_i_glide_evdw>
-46.4247169494629

> <r_i_glide_ecoul>
1.30784142017365

> <r_i_glide_erotb>
0.917567512415622

> <r_i_glide_esite>
0

> <r_i_glide_emodel>
-61.0866208413678

> <r_i_glide_energy>
-45.1168755292892

> <r_i_glide_einternal>
9.69726943969727

> <i_i_glide_confnum>
52

> <i_i_glide_posenum>
198

> <r_i_glide_eff_state_penalty>
0

> <s_user_duplicate_titles>
CHEMBL1900_lig637

> <s_m_subgroup_title>
dock_pv

> <s_m_subgroupid>
dock_pv

> <b_m_subgroup_collapsed>
1

$$$$
CHEMBL1900_lig452
                    3D
 Schrodinger Suite 2021-1.
 27 29  0  0  1  0            999 V2000
   16.8039   -3.8222    9.9987 C   0  0  0  0  0  0
   15.5564   -4.4386   10.0683 C   0  0  0  0  0  0
   15.2943   -5.4570   10.9810 C   0  0  0  0  0  0
   17.8491   -4.2247   10.8292 C   0  0  0  0  0  0
   17.6109   -5.2616   11.7451 C   0  0  0  0  0  0
   16.3403   -5.8739   11.7890 C   0  0  0  0  0  0
   16.2886   -6.8880   12.7056 O   0  0  0  0  0  0
   17.5263   -6.9156   13.2593 C   0  0  0  0  0  0
   18.3424   -5.9176   12.7622 C   0  0  0  0  0  0
   17.9522   -8.1463   14.4862 S   0  0  0  0  0  0
   17.3450   -9.4419   14.1810 O   0  0  0  0  0  0
   19.3978   -7.9906   14.5810 O   0  0  0  0  0  0
   17.1948   -7.5790   16.0194 C   0  0  0  0  0  0
   15.7668   -7.4240   16.1847 C   0  0  0  0  0  0
   15.2643   -6.9698   17.3605 C   0  0  0  0  0  0
   16.1223   -6.5531   18.4655 C   0  0  0  0  0  0
   17.4284   -6.8383   18.1991 N   0  0  0  0  0  0
   17.9735   -7.3150   17.0112 N   0  0  0  0  0  0
   15.7450   -5.9818   19.4867 O   0  0  0  0  0  0
   13.7450   -6.1640   11.1463 Cl  0  0  0  0  0  0
   17.0417   -2.5150    8.9017 Cl  0  0  0  0  0  0
   14.7834   -4.1150    9.4017 H   0  0  0  0  0  0
   18.8040   -3.7268   10.7820 H   0  0  0  0  0  0
   19.3450   -5.7356   13.1014 H   0  0  0  0  0  0
   15.0889   -7.7341   15.4021 H   0  0  0  0  0  0
   14.1946   -6.9150   17.4984 H   0  0  0  0  0  0
   18.1041   -6.6192   18.9163 H   0  0  0  0  0  0
  1  2  2  0  0  0
  1  4  1  0  0  0
  1 21  1  0  0  0
  2  3  1  0  0  0
  2 22  1  0  0  0
  3  6  2  0  0  0
  3 20  1  0  0  0
  4  5  2  0  0  0
  4 23  1  0  0  0
  5  6  1  0  0  0
  5  9  1  0  0  0
  6  7  1  0  0  0
  7  8  1  0  0  0
  8 10  1  0  0  0
  8  9  2  0  0  0
  9 24  1  0  0  0
 10 11  2  0  0  0
 10 12  2  0  0  0
 10 13  1  0  0  0
 13 14  1  0  0  0
 13 18  2  0  0  0
 14 15  2  0  0  0
 14 25  1  0  0  0
 15 16  1  0  0  0
 15 26  1  0  0  0
 16 17  1  0  0  0
 16 19  2  0  0  0
 17 18  1  0  0  0
 17 27  1  0  0  0
M  END
> <s_m_entry_id>
6425

> <s_m_entry_name>
dock_pv.260

> <s_m_Source_Path>
/home/csk/Desktop/cluster/DUD-E-result/aldr

> <s_m_Source_File>
dock_pv.maegz

> <i_m_Source_File_Index>
260

> <chembl_id>
CHEMBL239440

> <chembl_pref_name>
None

> <i_lp_mmshare_version>
53161

> <i_f3d_flags>
0

> <r_lp_tautomer_probability>
0.998994762270461

> <s_lp_Force_Field>
OPLS_2005

> <r_lp_Energy>
21.634202

> <b_lp_Chiralities_Consistent>
1

> <s_lp_Variant>
CHEMBL1900_lig452-1

> <s_i_glide_gridfile>
glide-grid_2hv5

> <i_i_glide_lignum>
574

> <i_i_glide_rotatable_bonds>
2

> <r_i_docking_score>
-8.71984952453401

> <r_i_glide_ligand_efficiency>
-0.415230929739715

> <r_i_glide_ligand_efficiency_sa>
-1.14559064967752

> <r_i_glide_ligand_efficiency_ln>
-2.15596517482599

> <r_i_glide_gscore>
-8.71984952453401

> <r_i_glide_lipo>
-4.05381762782627

> <r_i_glide_hbond>
-0.247257215689843

> <r_i_glide_metal>
0

> <r_i_glide_rewards>
-2.30761817573896

> <r_i_glide_evdw>
-36.8979873657227

> <r_i_glide_ecoul>
-3.90108895301819

> <r_i_glide_erotb>
0.318906205959928

> <r_i_glide_esite>
0

> <r_i_glide_emodel>
-55.1158879042319

> <r_i_glide_energy>
-40.7990763187408

> <r_i_glide_einternal>
4.55007314682007

> <i_i_glide_confnum>
4

> <i_i_glide_posenum>
34

> <r_i_glide_eff_state_penalty>
0

> <s_user_duplicate_titles>
CHEMBL1900_lig452,407179

> <s_m_subgroup_title>
dock_pv

> <s_m_subgroupid>
dock_pv

> <b_m_subgroup_collapsed>
1

$$$$
CHEMBL1900_lig64
                    3D
 Schrodinger Suite 2021-1.
 42 45  0  0  1  0            999 V2000
   18.0897   -7.3094   14.9946 N   0  0  0  0  0  0
   17.7057   -6.7432   16.2028 N   0  0  0  0  0  0
   17.9467   -8.6402   14.6294 C   0  0  0  0  0  0
   17.1114   -9.4138   15.6425 C   0  0  0  0  0  0
   17.0107   -7.3946   17.0619 C   0  0  0  0  0  0
   16.6255   -8.8017   16.8201 C   0  0  0  0  0  0
   16.6957   -6.7558   18.4291 C   0  0  0  0  0  0
   16.8383  -10.7510   15.3759 C   0  0  0  0  0  0
   18.6308   -6.3882   13.9775 C   0  0  0  0  0  0
   15.8440   -9.5457   17.7049 C   0  0  0  0  0  0
   17.7186   -5.9864   12.8062 C   0  0  0  0  0  0
   16.3477   -6.2136   12.7480 C   0  0  0  0  0  0
   16.7272   -5.2203   18.5463 C   0  0  0  0  0  0
   15.5941   -5.8046   11.6336 C   0  0  0  0  0  0
   16.0595  -11.5250   16.2598 C   0  0  0  0  0  0
   15.5686  -10.9109   17.4559 C   0  0  0  0  0  0
   18.4188   -9.1306   13.5982 O   0  0  0  0  0  0
   18.3069   -5.3121   11.7475 C   0  0  0  0  0  0
   16.1451   -4.4589   17.7827 O   0  0  0  0  0  0
   16.2379   -5.1418   10.5782 C   0  0  0  0  0  0
   15.7472   -6.8439   13.7897 F   0  0  0  0  0  0
   17.4065   -4.8038   19.6492 O   0  0  0  0  0  0
   17.5945   -4.8958   10.6351 C   0  0  0  0  0  0
   15.3376   -4.5037    9.0296 Br  0  0  0  0  0  0
   15.7290  -12.8755   15.9898 C   0  0  0  0  0  0
   14.8339  -11.6895   18.3753 C   0  0  0  0  0  0
   14.5455  -13.0214   18.1030 C   0  0  0  0  0  0
   14.9694  -13.6012   16.9071 C   0  0  0  0  0  0
   15.7030   -7.0287   18.7664 H   0  0  0  0  0  0
   17.3943   -7.1719   19.1499 H   0  0  0  0  0  0
   17.1941  -11.2246   14.4619 H   0  0  0  0  0  0
   19.5604   -6.8049   13.5804 H   0  0  0  0  0  0
   18.9483   -5.4699   14.4719 H   0  0  0  0  0  0
   15.4533   -9.1221   18.6157 H   0  0  0  0  0  0
   14.5300   -6.0016   11.5840 H   0  0  0  0  0  0
   19.3452   -5.1197   11.7808 H   0  0  0  0  0  0
   17.3636   -3.8441   19.6918 H   0  0  0  0  0  0
   18.0965   -4.3750    9.8408 H   0  0  0  0  0  0
   16.0736  -13.3365   15.0796 H   0  0  0  0  0  0
   14.5148  -11.2459   19.3095 H   0  0  0  0  0  0
   13.9770  -13.6050   18.8079 H   0  0  0  0  0  0
   14.7151  -14.6175   16.6894 H   0  0  0  0  0  0
  1  2  1  0  0  0
  1  3  1  0  0  0
  1  9  1  0  0  0
  2  5  2  0  0  0
  3  4  1  0  0  0
  3 17  2  0  0  0
  4  6  2  0  0  0
  4  8  1  0  0  0
  5  7  1  0  0  0
  5  6  1  0  0  0
  6 10  1  0  0  0
  7 13  1  0  0  0
  7 29  1  0  0  0
  7 30  1  0  0  0
  8 15  2  0  0  0
  8 31  1  0  0  0
  9 11  1  0  0  0
  9 32  1  0  0  0
  9 33  1  0  0  0
 10 16  2  0  0  0
 10 34  1  0  0  0
 11 12  1  0  0  0
 11 18  2  0  0  0
 12 14  2  0  0  0
 12 21  1  0  0  0
 13 19  2  0  0  0
 13 22  1  0  0  0
 14 20  1  0  0  0
 14 35  1  0  0  0
 15 16  1  0  0  0
 15 25  1  0  0  0
 16 26  1  0  0  0
 18 23  1  0  0  0
 18 36  1  0  0  0
 20 23  2  0  0  0
 20 24  1  0  0  0
 22 37  1  0  0  0
 23 38  1  0  0  0
 25 28  2  0  0  0
 25 39  1  0  0  0
 26 27  2  0  0  0
 26 40  1  0  0  0
 27 28  1  0  0  0
 27 41  1  0  0  0
 28 42  1  0  0  0
M  END
> <s_m_entry_id>
6426

> <s_m_entry_name>
dock_pv.261

> <s_m_Source_Path>
/home/csk/Desktop/cluster/DUD-E-result/aldr

> <s_m_Source_File>
dock_pv.maegz

> <i_m_Source_File_Index>
261

> <chembl_id>
CHEMBL67922

> <chembl_pref_name>
None

> <i_lp_mmshare_version>
53161

> <i_f3d_flags>
0

> <r_lp_tautomer_probability>
1

> <s_lp_Force_Field>
OPLS_2005

> <r_lp_Energy>
29.464404

> <b_lp_Chiralities_Consistent>
1

> <s_lp_Variant>
CHEMBL1900_lig64-1

> <s_i_glide_gridfile>
glide-grid_2hv5

> <i_i_glide_lignum>
99

> <i_i_glide_rotatable_bonds>
5

> <r_i_docking_score>
-8.70860360812775

> <r_i_glide_ligand_efficiency>
-0.311021557433134

> <r_i_glide_ligand_efficiency_sa>
-0.94444463026802

> <r_i_glide_ligand_efficiency_ln>
-2.01020140846849

> <r_i_glide_gscore>
-8.70860360812775

> <r_i_glide_lipo>
-4.56753230262017

> <r_i_glide_hbond>
0

> <r_i_glide_metal>
0

> <r_i_glide_rewards>
-2.177433587232

> <r_i_glide_evdw>
-42.8719367980957

> <r_i_glide_ecoul>
-1.5358715057373

> <r_i_glide_erotb>
0.410339847489793

> <r_i_glide_esite>
0

> <r_i_glide_emodel>
-52.4503391325513

> <r_i_glide_energy>
-44.407808303833

> <r_i_glide_einternal>
5.58668231964111

> <i_i_glide_confnum>
6

> <i_i_glide_posenum>
20

> <r_i_glide_eff_state_penalty>
0

> <s_user_duplicate_titles>
CHEMBL1900_lig64,108424

> <s_m_subgroup_title>
dock_pv

> <s_m_subgroupid>
dock_pv

> <b_m_subgroup_collapsed>
1

$$$$
CHEMBL1900_lig652
                    3D
 Schrodinger Suite 2021-1.
 31 32  0  0  1  0            999 V2000
   16.4318   -8.0105   16.3004 C   0  0  0  0  0  0
   17.2272   -9.0310   15.8564 N   0  0  0  0  0  0
   17.7150   -8.9664   14.5860 C   0  0  0  0  0  0
   17.1834   -7.7972   13.9161 C   0  0  0  0  0  0
   16.1445   -6.9150   15.0039 S   0  0  0  0  0  0
   15.7451   -7.6936   17.7812 S   0  0  0  0  0  0
   18.4883   -9.7882   14.0882 O   0  0  0  0  0  0
   17.4930   -7.4718   12.6437 C   0  0  0  0  0  0
   16.9882   -6.3030   11.8967 C   0  0  0  0  0  0
   17.6012  -10.1399   16.7722 C   0  0  0  0  0  0
   16.5609  -11.2755   16.8544 C   0  0  0  0  0  0
   15.6044  -11.2257   15.8862 O   0  0  0  0  0  0
   16.6140  -12.1171   17.7239 O   0  0  0  0  0  0
   17.8894   -5.3693   11.3811 C   0  0  0  0  0  0
   17.4599   -4.2691   10.6385 C   0  0  0  0  0  0
   16.0848   -4.1166   10.3936 C   0  0  0  0  0  0
   15.1720   -5.0308   10.9183 C   0  0  0  0  0  0
   15.6232   -6.1145   11.6694 C   0  0  0  0  0  0
   18.4366   -3.3886   10.2173 O   0  0  0  0  0  0
   18.0338   -2.1147    9.7314 C   0  0  0  0  0  0
   18.1451   -8.1148   12.0843 H   0  0  0  0  0  0
   17.7452   -9.7586   17.7808 H   0  0  0  0  0  0
   18.5430  -10.5928   16.4741 H   0  0  0  0  0  0
   14.9795  -11.9431   16.0086 H   0  0  0  0  0  0
   18.9447   -5.4911   11.5660 H   0  0  0  0  0  0
   15.7034   -3.2869    9.8180 H   0  0  0  0  0  0
   14.1140   -4.8989   10.7409 H   0  0  0  0  0  0
   14.9114   -6.8234   12.0584 H   0  0  0  0  0  0
   18.9155   -1.4897    9.5886 H   0  0  0  0  0  0
   17.5192   -2.1999    8.7733 H   0  0  0  0  0  0
   17.3830   -1.5963   10.4370 H   0  0  0  0  0  0
  1  5  1  0  0  0
  1  2  1  0  0  0
  1  6  2  0  0  0
  2 10  1  0  0  0
  2  3  1  0  0  0
  3  7  2  0  0  0
  3  4  1  0  0  0
  4  8  2  0  0  0
  4  5  1  0  0  0
  8  9  1  0  0  0
  8 21  1  0  0  0
  9 14  2  0  0  0
  9 18  1  0  0  0
 10 11  1  0  0  0
 10 22  1  0  0  0
 10 23  1  0  0  0
 11 12  1  0  0  0
 11 13  2  0  0  0
 12 24  1  0  0  0
 14 15  1  0  0  0
 14 25  1  0  0  0
 15 16  2  0  0  0
 15 19  1  0  0  0
 16 17  1  0  0  0
 16 26  1  0  0  0
 17 18  2  0  0  0
 17 27  1  0  0  0
 18 28  1  0  0  0
 19 20  1  0  0  0
 20 29  1  0  0  0
 20 30  1  0  0  0
 20 31  1  0  0  0
M  END
> <s_m_entry_id>
6427

> <s_m_entry_name>
dock_pv.262

> <s_m_Source_Path>
/home/csk/Desktop/cluster/DUD-E-result/aldr

> <s_m_Source_File>
dock_pv.maegz

> <i_m_Source_File_Index>
262

> <chembl_id>
CHEMBL1645388

> <chembl_pref_name>
None

> <i_lp_mmshare_version>
53161

> <i_f3d_flags>
0

> <r_lp_tautomer_probability>
1

> <s_lp_Force_Field>
OPLS_2005

> <r_lp_Energy>
16.872672

> <b_lp_Chiralities_Consistent>
1

> <s_lp_Variant>
CHEMBL1900_lig652-1

> <s_i_glide_gridfile>
glide-grid_2hv5

> <i_i_glide_lignum>
778

> <i_i_glide_rotatable_bonds>
5

> <r_i_docking_score>
-8.70494916283907

> <r_i_glide_ligand_efficiency>
-0.435247458141954

> <r_i_glide_ligand_efficiency_sa>
-1.18144336677891

> <r_i_glide_ligand_efficiency_ln>
-2.17856166701992

> <r_i_glide_gscore>
-8.70494916283907

> <r_i_glide_lipo>
-3.13694747393656

> <r_i_glide_hbond>
-0.226123548343554

> <r_i_glide_metal>
0

> <r_i_glide_rewards>
-3.64758672685704

> <r_i_glide_evdw>
-40.8555488586426

> <r_i_glide_ecoul>
-1.54594719409943

> <r_i_glide_erotb>
0.580378108345121

> <r_i_glide_esite>
0

> <r_i_glide_emodel>
-57.935291472758

> <r_i_glide_energy>
-42.401496052742

> <r_i_glide_einternal>
9.34030055999756

> <i_i_glide_confnum>
2

> <i_i_glide_posenum>
40

> <r_i_glide_eff_state_penalty>
0

> <s_user_duplicate_titles>
CHEMBL1900_lig652

> <s_m_subgroup_title>
dock_pv

> <s_m_subgroupid>
dock_pv

> <b_m_subgroup_collapsed>
1

$$$$
CHEMBL1900_lig218
                    3D
 Schrodinger Suite 2021-1.
 37 38  0  0  1  0            999 V2000
   17.5136   -7.8076   15.9743 N   0  0  0  0  0  0
   16.7841   -6.9730   17.9905 C   0  0  0  0  0  0
   16.4575   -8.5677   16.3584 C   0  0  0  0  0  0
   16.0229   -8.0163   17.6276 C   0  0  0  0  0  0
   17.8169   -6.7800   16.9406 C   0  0  0  0  0  0
   16.6963   -6.1041   19.1610 C   0  0  0  0  0  0
   18.2398   -7.8547   14.6879 C   0  0  2  0  0  0
   15.9591   -9.5190   15.7555 O   0  0  0  0  0  0
   15.7450   -6.1150   19.9246 O   0  0  0  0  0  0
   17.6807   -6.9332   13.6000 C   0  0  0  0  0  0
   14.9517   -8.6487   18.1808 O   0  0  0  0  0  0
   17.7450   -5.2788   19.3415 O   0  0  0  0  0  0
   18.5198   -9.2661   14.1330 C   0  0  0  0  0  0
   16.3211   -6.9149   13.2966 C   0  0  0  0  0  0
   18.5451   -6.1087   12.8853 C   0  0  0  0  0  0
   17.8434   -4.4824   20.5221 C   0  0  0  0  0  0
   16.8289   -3.3194   20.5490 C   0  0  0  0  0  0
   18.0681   -5.3148   11.8434 C   0  0  0  0  0  0
   15.8306   -6.1161   12.2625 C   0  0  0  0  0  0
   16.7115   -5.3250   11.5320 C   0  0  0  0  0  0
   17.7452   -5.7906   16.4937 H   0  0  0  0  0  0
   18.8334   -6.9150   17.3138 H   0  0  0  0  0  0
   19.2272   -7.4606   14.9349 H   0  0  0  0  0  0
   14.6786   -9.3618   17.5957 H   0  0  0  0  0  0
   19.2396   -9.2255   13.3148 H   0  0  0  0  0  0
   18.9366   -9.9142   14.9005 H   0  0  0  0  0  0
   17.6178   -9.7424   13.7500 H   0  0  0  0  0  0
   15.6636   -7.5440   13.8674 H   0  0  0  0  0  0
   19.5994   -6.1055   13.1208 H   0  0  0  0  0  0
   18.8652   -4.1115   20.5819 H   0  0  0  0  0  0
   17.7037   -5.1087   21.4037 H   0  0  0  0  0  0
   16.9444   -2.7308   21.4576 H   0  0  0  0  0  0
   15.7977   -3.6695   20.5457 H   0  0  0  0  0  0
   16.9450   -2.6577   19.6916 H   0  0  0  0  0  0
   18.7442   -4.6896   11.2800 H   0  0  0  0  0  0
   14.7757   -6.1093   12.0279 H   0  0  0  0  0  0
   16.3353   -4.7062   10.7312 H   0  0  0  0  0  0
  1  3  1  0  0  0
  1  5  1  0  0  0
  1  7  1  0  0  0
  2  5  1  0  0  0
  2  6  1  0  0  0
  2  4  2  0  0  0
  3  4  1  0  0  0
  3  8  2  0  0  0
  4 11  1  0  0  0
  5 21  1  0  0  0
  5 22  1  0  0  0
  6  9  2  0  0  0
  6 12  1  0  0  0
  7 10  1  0  0  0
  7 13  1  0  0  0
  7 23  1  0  0  0
 10 14  2  0  0  0
 10 15  1  0  0  0
 11 24  1  0  0  0
 12 16  1  0  0  0
 13 25  1  0  0  0
 13 26  1  0  0  0
 13 27  1  0  0  0
 14 19  1  0  0  0
 14 28  1  0  0  0
 15 18  2  0  0  0
 15 29  1  0  0  0
 16 17  1  0  0  0
 16 30  1  0  0  0
 16 31  1  0  0  0
 17 32  1  0  0  0
 17 33  1  0  0  0
 17 34  1  0  0  0
 18 20  1  0  0  0
 18 35  1  0  0  0
 19 20  2  0  0  0
 19 36  1  0  0  0
 20 37  1  0  0  0
M  END
> <s_m_entry_id>
6428

> <s_m_entry_name>
dock_pv.263

> <s_m_Source_Path>
/home/csk/Desktop/cluster/DUD-E-result/aldr

> <s_m_Source_File>
dock_pv.maegz

> <i_m_Source_File_Index>
263

> <chembl_id>
CHEMBL267651

> <chembl_pref_name>
None

> <i_lp_mmshare_version>
53161

> <i_f3d_flags>
0

> <r_lp_tautomer_probability>
1

> <s_lp_Force_Field>
OPLS_2005

> <r_lp_Energy>
28.765211

> <b_lp_Chiralities_Consistent>
1

> <s_lp_Variant>
CHEMBL1900_lig218-1

> <s_i_glide_gridfile>
glide-grid_2hv5

> <i_i_glide_lignum>
294

> <i_i_glide_rotatable_bonds>
6

> <r_i_docking_score>
-8.694635476143

> <r_i_glide_ligand_efficiency>
-0.43473177380715

> <r_i_glide_ligand_efficiency_sa>
-1.18004358413732

> <r_i_glide_ligand_efficiency_ln>
-2.17598049140805

> <r_i_glide_gscore>
-8.694635476143

> <r_i_glide_lipo>
-3.60701371894122

> <r_i_glide_hbond>
-0.35600324199508

> <r_i_glide_metal>
0

> <r_i_glide_rewards>
-3.47793994856452

> <r_i_glide_evdw>
-31.8352165222168

> <r_i_glide_ecoul>
-4.06951808929443

> <r_i_glide_erotb>
0.948509972862813

> <r_i_glide_esite>
0

> <r_i_glide_emodel>
-49.6820500729629

> <r_i_glide_energy>
-35.9047346115112

> <r_i_glide_einternal>
2.99925470352173

> <i_i_glide_confnum>
18

> <i_i_glide_posenum>
212

> <r_i_glide_eff_state_penalty>
0

> <s_user_duplicate_titles>
CHEMBL1900_lig218

> <s_m_subgroup_title>
dock_pv

> <s_m_subgroupid>
dock_pv

> <b_m_subgroup_collapsed>
1

$$$$
CHEMBL1900_lig11
                    3D
 Schrodinger Suite 2021-1.
 36 38  0  0  1  0            999 V2000
   17.3729   -6.0938   18.8395 N   0  0  0  0  0  0
   15.9268   -8.5433   16.7865 C   0  0  0  0  0  0
   17.5018   -6.8808   17.7810 C   0  0  0  0  0  0
   16.1374   -7.0726   17.1950 C   0  0  2  0  0  0
   16.1138   -5.8397   19.1688 C   0  0  0  0  0  0
   15.3688   -6.5308   18.2885 N   0  0  0  0  0  0
   16.4626   -9.1287   15.6003 C   0  0  0  0  0  0
   17.3985   -8.3058   14.2056 S   0  0  1  0  0  0
   16.2998  -10.5028   15.3878 C   0  0  0  0  0  0
   15.2311   -9.3736   17.6813 C   0  0  0  0  0  0
   16.3842   -6.7895   13.9075 C   0  0  0  0  0  0
   18.5450   -7.3150   17.3531 O   0  0  0  0  0  0
   18.7656   -7.8579   14.7160 O   0  0  0  0  0  0
   15.7450   -5.2645   20.1810 O   0  0  0  0  0  0
   15.0787  -10.7343   17.4459 C   0  0  0  0  0  0
   16.5621   -6.1365   12.5438 C   0  0  0  0  0  0
   15.6135  -11.3016   16.2972 C   0  0  0  0  0  0
   16.8437   -4.5156   10.2975 C   0  0  0  0  0  0
   14.2608  -11.7151   18.6037 Cl  0  0  0  0  0  0
   17.0139   -3.4127    8.9810 Cl  0  0  0  0  0  0
   15.4399   -5.7940   11.7810 C   0  0  0  0  0  0
   17.8309   -5.7150   12.1414 C   0  0  0  0  0  0
   17.9699   -4.9058   11.0170 C   0  0  0  0  0  0
   15.5805   -4.9783   10.6595 C   0  0  0  0  0  0
   18.1521   -5.8626   19.4344 H   0  0  0  0  0  0
   15.9405   -6.3992   16.3766 H   0  0  0  0  0  0
   14.3770   -6.3771   18.1758 H   0  0  0  0  0  0
   16.7111  -10.9664   14.5023 H   0  0  0  0  0  0
   14.8271   -8.9787   18.6003 H   0  0  0  0  0  0
   16.8145   -6.0803   14.5938 H   0  0  0  0  0  0
   15.3450   -6.9341   14.1810 H   0  0  0  0  0  0
   15.5035  -12.3604   16.1128 H   0  0  0  0  0  0
   14.4490   -6.0897   12.0935 H   0  0  0  0  0  0
   18.7017   -5.9609   12.7336 H   0  0  0  0  0  0
   18.9450   -4.5443   10.7313 H   0  0  0  0  0  0
   14.7079   -4.6675   10.1027 H   0  0  0  0  0  0
  1  3  1  0  0  0
  1  5  1  0  0  0
  1 25  1  0  0  0
  2  4  1  0  0  0
  2  7  2  0  0  0
  2 10  1  0  0  0
  3  4  1  0  0  0
  3 12  2  0  0  0
  4  6  1  0  0  0
  4 26  1  0  0  0
  5  6  1  0  0  0
  5 14  2  0  0  0
  6 27  1  0  0  0
  7  8  1  0  0  0
  7  9  1  0  0  0
  8 11  1  0  0  0
  8 13  2  0  0  0
  9 17  2  0  0  0
  9 28  1  0  0  0
 10 15  2  0  0  0
 10 29  1  0  0  0
 11 16  1  0  0  0
 11 30  1  0  0  0
 11 31  1  0  0  0
 15 17  1  0  0  0
 15 19  1  0  0  0
 16 21  2  0  0  0
 16 22  1  0  0  0
 17 32  1  0  0  0
 18 23  1  0  0  0
 18 20  1  0  0  0
 18 24  2  0  0  0
 21 24  1  0  0  0
 21 33  1  0  0  0
 22 23  2  0  0  0
 22 34  1  0  0  0
 23 35  1  0  0  0
 24 36  1  0  0  0
M  END
> <s_m_entry_id>
6429

> <s_m_entry_name>
dock_pv.264

> <s_m_Source_Path>
/home/csk/Desktop/cluster/DUD-E-result/aldr

> <s_m_Source_File>
dock_pv.maegz

> <i_m_Source_File_Index>
264

> <chembl_id>
CHEMBL19781

> <chembl_pref_name>
None

> <i_lp_mmshare_version>
53161

> <i_f3d_flags>
0

> <r_lp_tautomer_probability>
0.999999999781369

> <s_lp_Force_Field>
OPLS_2005

> <r_lp_Energy>
21.556908

> <b_lp_Chiralities_Consistent>
1

> <s_lp_Variant>
CHEMBL1900_lig11-1

> <s_i_glide_gridfile>
glide-grid_2hv5

> <i_i_glide_lignum>
17

> <i_i_glide_rotatable_bonds>
4

> <r_i_docking_score>
-8.68631684796103

> <r_i_glide_ligand_efficiency>
-0.361929868665043

> <r_i_glide_ligand_efficiency_sa>
-1.0439863940212

> <r_i_glide_ligand_efficiency_ln>
-2.07903421082481

> <r_i_glide_gscore>
-8.68631684796103

> <r_i_glide_lipo>
-4.19448767311583

> <r_i_glide_hbond>
-0.310308970255651

> <r_i_glide_metal>
0

> <r_i_glide_rewards>
-2.58022729903865

> <r_i_glide_evdw>
-35.3251457214355

> <r_i_glide_ecoul>
-2.42785787582397

> <r_i_glide_erotb>
0.52914306189447

> <r_i_glide_esite>
0

> <r_i_glide_emodel>
-52.9048585773856

> <r_i_glide_energy>
-37.7530035972595

> <r_i_glide_einternal>
4.66662549972534

> <i_i_glide_confnum>
5

> <i_i_glide_posenum>
1

> <r_i_glide_eff_state_penalty>
0

> <s_user_duplicate_titles>
CHEMBL1900_lig11

> <s_m_subgroup_title>
dock_pv

> <s_m_subgroupid>
dock_pv

> <b_m_subgroup_collapsed>
1

$$$$
CHEMBL1900_lig595
                    3D
 Schrodinger Suite 2021-1.
 31 33  0  0  1  0            999 V2000
   17.2695   -8.5969   15.0447 C   0  0  0  0  0  0
   17.9588   -8.9371   13.7673 C   0  0  0  0  0  0
   16.9954   -6.8507   12.9055 C   0  0  0  0  0  0
   17.7450   -7.9492   12.7290 C   0  0  0  0  0  0
   16.6184   -7.3585   15.1564 C   0  0  0  0  0  0
   16.4386   -6.5150   14.0871 O   0  0  0  0  0  0
   17.2448   -9.4538   16.1523 C   0  0  0  0  0  0
   16.7715   -5.8258   11.8757 C   0  0  0  0  0  0
   16.1063   -6.9150   16.3631 C   0  0  0  0  0  0
   16.6879   -9.0245   17.3487 C   0  0  0  0  0  0
   17.8585   -5.1647   11.2969 C   0  0  0  0  0  0
   17.6587   -4.1858   10.3262 C   0  0  0  0  0  0
   16.1748   -7.7410   17.4652 C   0  0  0  0  0  0
   18.6042   -9.9726   13.6138 O   0  0  0  0  0  0
   16.3610   -3.8583    9.9221 C   0  0  0  0  0  0
   15.4761   -5.5000   11.4591 C   0  0  0  0  0  0
   15.2718   -4.5188   10.4886 C   0  0  0  0  0  0
   17.7450  -10.7259   16.1010 O   0  0  0  0  0  0
   18.7356   -3.5401    9.7816 O   0  0  0  0  0  0
   16.1450   -2.8857    8.9810 O   0  0  0  0  0  0
   15.7454   -7.2791   18.6647 O   0  0  0  0  0  0
   18.1450   -8.1150   11.7559 H   0  0  0  0  0  0
   15.6874   -5.9286   16.4517 H   0  0  0  0  0  0
   16.6843   -9.7018   18.1810 H   0  0  0  0  0  0
   18.8645   -5.4044   11.6088 H   0  0  0  0  0  0
   14.6227   -5.9974   11.8981 H   0  0  0  0  0  0
   14.2642   -4.2739   10.1850 H   0  0  0  0  0  0
   18.1189  -10.8988   15.2285 H   0  0  0  0  0  0
   18.4188   -2.8441    9.1976 H   0  0  0  0  0  0
   15.2035   -2.7694    8.8079 H   0  0  0  0  0  0
   15.9462   -7.9183   19.3523 H   0  0  0  0  0  0
  1  2  1  0  0  0
  1  5  1  0  0  0
  1  7  2  0  0  0
  2  4  1  0  0  0
  2 14  2  0  0  0
  3  6  1  0  0  0
  3  8  1  0  0  0
  3  4  2  0  0  0
  4 22  1  0  0  0
  5  6  1  0  0  0
  5  9  2  0  0  0
  7 10  1  0  0  0
  7 18  1  0  0  0
  8 11  1  0  0  0
  8 16  2  0  0  0
  9 13  1  0  0  0
  9 23  1  0  0  0
 10 13  2  0  0  0
 10 24  1  0  0  0
 11 12  2  0  0  0
 11 25  1  0  0  0
 12 19  1  0  0  0
 12 15  1  0  0  0
 13 21  1  0  0  0
 15 17  2  0  0  0
 15 20  1  0  0  0
 16 17  1  0  0  0
 16 26  1  0  0  0
 17 27  1  0  0  0
 18 28  1  0  0  0
 19 29  1  0  0  0
 20 30  1  0  0  0
 21 31  1  0  0  0
M  END
> <s_m_entry_id>
6430

> <s_m_entry_name>
dock_pv.265

> <s_m_Source_Path>
/home/csk/Desktop/cluster/DUD-E-result/aldr

> <s_m_Source_File>
dock_pv.maegz

> <i_m_Source_File_Index>
265

> <chembl_id>
CHEMBL151

> <chembl_pref_name>
LUTEOLIN

> <i_lp_mmshare_version>
53161

> <i_f3d_flags>
0

> <r_lp_tautomer_probability>
0.999999999999776

> <s_lp_Force_Field>
OPLS_2005

> <r_lp_Energy>
16.661857

> <b_lp_Chiralities_Consistent>
1

> <s_lp_Variant>
CHEMBL1900_lig595-1

> <s_i_glide_gridfile>
glide-grid_2hv5

> <i_i_glide_lignum>
719

> <i_i_glide_rotatable_bonds>
5

> <r_i_docking_score>
-8.68511515702745

> <r_i_glide_ligand_efficiency>
-0.413576912239403

> <r_i_glide_ligand_efficiency_sa>
-1.14102734081238

> <r_i_glide_ligand_efficiency_ln>
-2.14737717264739

> <r_i_glide_gscore>
-8.68511515702745

> <r_i_glide_lipo>
-4.18696252800349

> <r_i_glide_hbond>
0

> <r_i_glide_metal>
0

> <r_i_glide_rewards>
-2.35747977272727

> <r_i_glide_evdw>
-36.5105438232422

> <r_i_glide_ecoul>
-3.57836747169495

> <r_i_glide_erotb>
0.22160945561966

> <r_i_glide_esite>
0

> <r_i_glide_emodel>
-55.0226448846541

> <r_i_glide_energy>
-40.0889112949371

> <r_i_glide_einternal>
6.06206941604614

> <i_i_glide_confnum>
2

> <i_i_glide_posenum>
145

> <r_i_glide_eff_state_penalty>
0

> <s_user_duplicate_titles>
CHEMBL1900_lig595

> <s_m_subgroup_title>
dock_pv

> <s_m_subgroupid>
dock_pv

> <b_m_subgroup_collapsed>
1

$$$$
CHEMBL1900_lig590
                    3D
 Schrodinger Suite 2021-1.
 37 39  0  0  1  0            999 V2000
   16.4403   -8.8911   15.5699 C   0  0  0  0  0  0
   15.9803   -9.4953   16.6949 N   0  0  0  0  0  0
   16.3987  -10.7415   16.9801 C   0  0  0  0  0  0
   17.7445  -11.1359   15.8851 S   0  0  0  0  0  0
   17.6304   -9.5635   15.1011 C   0  0  0  0  0  0
   15.9581  -11.5304   17.8143 O   0  0  0  0  0  0
   15.9317   -7.8799   15.0788 O   0  0  0  0  0  0
   18.4857   -9.0245   14.1977 C   0  0  0  0  0  0
   18.2653   -7.7854   13.4262 C   0  0  0  0  0  0
   18.8598   -6.5584   13.6986 C   0  0  0  0  0  0
   18.5449   -5.4665   12.8846 C   0  0  0  0  0  0
   17.6855   -5.5696   11.7821 C   0  0  0  0  0  0
   17.0847   -6.7968   11.5558 C   0  0  0  0  0  0
   17.3737   -7.8766   12.3733 C   0  0  0  0  0  0
   14.9864   -8.8495   17.5918 C   0  0  0  0  0  0
   15.4455   -7.4401   18.0186 C   0  0  0  0  0  0
   14.9450   -6.5160   17.1592 O   0  0  0  0  0  0
   16.1451   -7.2185   18.9809 O   0  0  0  0  0  0
   17.3961   -4.4287   10.8599 C   0  0  0  0  0  0
   18.3649   -3.4596   10.5810 C   0  0  0  0  0  0
   18.0890   -2.3596    9.7810 C   0  0  0  0  0  0
   16.8437   -2.2532    9.1780 C   0  0  0  0  0  0
   15.8901   -3.2385    9.3820 C   0  0  0  0  0  0
   16.1492   -4.3053   10.2324 C   0  0  0  0  0  0
   19.3903   -9.5629   13.9543 H   0  0  0  0  0  0
   19.5331   -6.4405   14.5353 H   0  0  0  0  0  0
   18.9452   -4.5118   13.1383 H   0  0  0  0  0  0
   16.4209   -6.9148   10.7145 H   0  0  0  0  0  0
   16.9451   -8.8391   12.1807 H   0  0  0  0  0  0
   14.8651   -9.4181   18.5164 H   0  0  0  0  0  0
   13.9952   -8.8448   17.1363 H   0  0  0  0  0  0
   14.5828   -6.9557   16.3855 H   0  0  0  0  0  0
   19.3461   -3.5454   10.9810 H   0  0  0  0  0  0
   18.8435   -1.6055    9.6131 H   0  0  0  0  0  0
   16.6126   -1.4124    8.5386 H   0  0  0  0  0  0
   14.9450   -3.1688    8.8858 H   0  0  0  0  0  0
   15.3623   -5.0247   10.4033 H   0  0  0  0  0  0
  1  2  1  0  0  0
  1  5  1  0  0  0
  1  7  2  0  0  0
  2  3  1  0  0  0
  2 15  1  0  0  0
  3  4  1  0  0  0
  3  6  2  0  0  0
  4  5  1  0  0  0
  5  8  2  0  0  0
  8  9  1  0  0  0
  8 25  1  0  0  0
  9 10  2  0  0  0
  9 14  1  0  0  0
 10 11  1  0  0  0
 10 26  1  0  0  0
 11 12  2  0  0  0
 11 27  1  0  0  0
 12 13  1  0  0  0
 12 19  1  0  0  0
 13 14  2  0  0  0
 13 28  1  0  0  0
 14 29  1  0  0  0
 15 16  1  0  0  0
 15 30  1  0  0  0
 15 31  1  0  0  0
 16 17  1  0  0  0
 16 18  2  0  0  0
 17 32  1  0  0  0
 19 20  2  0  0  0
 19 24  1  0  0  0
 20 21  1  0  0  0
 20 33  1  0  0  0
 21 22  2  0  0  0
 21 34  1  0  0  0
 22 23  1  0  0  0
 22 35  1  0  0  0
 23 24  2  0  0  0
 23 36  1  0  0  0
 24 37  1  0  0  0
M  END
> <s_m_entry_id>
6431

> <s_m_entry_name>
dock_pv.266

> <s_m_Source_Path>
/home/csk/Desktop/cluster/DUD-E-result/aldr

> <s_m_Source_File>
dock_pv.maegz

> <i_m_Source_File_Index>
266

> <chembl_id>
CHEMBL2260153

> <chembl_pref_name>
None

> <i_lp_mmshare_version>
53161

> <i_f3d_flags>
0

> <r_lp_tautomer_probability>
1

> <s_lp_Force_Field>
OPLS_2005

> <r_lp_Energy>
22.546754

> <b_lp_Chiralities_Consistent>
1

> <s_lp_Variant>
CHEMBL1900_lig590-1

> <s_i_glide_gridfile>
glide-grid_2hv5

> <i_i_glide_lignum>
713

> <i_i_glide_rotatable_bonds>
5

> <r_i_docking_score>
-8.66928051684323

> <r_i_glide_ligand_efficiency>
-0.361220021535135

> <r_i_glide_ligand_efficiency_sa>
-1.04193884058718

> <r_i_glide_ligand_efficiency_ln>
-2.07495663504203

> <r_i_glide_gscore>
-8.66928051684323

> <r_i_glide_lipo>
-4.39165782304079

> <r_i_glide_hbond>
-0.145443842470347

> <r_i_glide_metal>
0

> <r_i_glide_rewards>
-2.86702768472819

> <r_i_glide_evdw>
-32.6832618713379

> <r_i_glide_ecoul>
-1.92159152030945

> <r_i_glide_erotb>
0.657250655009408

> <r_i_glide_esite>
0

> <r_i_glide_emodel>
-39.446289333423

> <r_i_glide_energy>
-34.6048533916473

> <r_i_glide_einternal>
7.20029926300049

> <i_i_glide_confnum>
50

> <i_i_glide_posenum>
396

> <r_i_glide_eff_state_penalty>
0

> <s_user_duplicate_titles>
CHEMBL1900_lig590

> <s_m_subgroup_title>
dock_pv

> <s_m_subgroupid>
dock_pv

> <b_m_subgroup_collapsed>
1

$$$$
CHEMBL1900_lig516
                    3D
 Schrodinger Suite 2021-1.
 36 38  0  0  1  0            999 V2000
   17.6194  -12.5114   13.9607 C   0  0  0  0  0  0
   18.4014  -11.4116   13.6238 C   0  0  0  0  0  0
   18.2777  -10.2078   14.3116 C   0  0  0  0  0  0
   16.6734  -12.4530   14.9844 C   0  0  0  0  0  0
   16.5255  -11.2304   15.6576 C   0  0  0  0  0  0
   17.3447  -10.1070   15.3567 C   0  0  0  0  0  0
   16.9940   -9.0669   16.2761 C   0  0  0  0  0  0
   15.9441   -9.5374   17.0448 C   0  0  0  0  0  0
   15.6423  -10.8319   16.6525 N   0  0  0  0  0  0
   17.7447   -7.4826   16.3930 S   0  0  0  0  0  0
   17.5715   -6.9151   14.7310 C   0  0  0  0  0  0
   18.6645   -6.3256   14.1008 C   0  0  0  0  0  0
   18.5170   -5.8135   12.8162 C   0  0  0  0  0  0
   17.2915   -5.9067   12.1618 C   0  0  0  0  0  0
   16.2047   -6.5152   12.7831 C   0  0  0  0  0  0
   16.3426   -7.0117   14.0776 C   0  0  0  0  0  0
   14.6141  -11.6884   17.2549 C   0  0  0  0  0  0
   17.1128   -5.2325   10.5841 Cl  0  0  0  0  0  0
   15.1776   -8.8392   18.1515 C   0  0  0  0  0  0
   17.8041  -13.9732   13.0676 Cl  0  0  0  0  0  0
   15.1527  -12.6539   18.3129 C   0  0  0  0  0  0
   14.1450  -13.3501   18.9068 O   0  0  0  0  0  0
   16.3463  -12.7791   18.5810 O   0  0  0  0  0  0
   19.1182  -11.4947   12.8189 H   0  0  0  0  0  0
   18.9061   -9.3681   14.0531 H   0  0  0  0  0  0
   16.0651  -13.3146   15.2181 H   0  0  0  0  0  0
   19.6132   -6.2381   14.6107 H   0  0  0  0  0  0
   19.3449   -5.3275   12.3320 H   0  0  0  0  0  0
   15.2540   -6.5684   12.2735 H   0  0  0  0  0  0
   15.4965   -7.4538   14.5822 H   0  0  0  0  0  0
   13.8334  -11.0641   17.6900 H   0  0  0  0  0  0
   14.1472  -12.2647   16.4555 H   0  0  0  0  0  0
   15.6968   -7.9468   18.5016 H   0  0  0  0  0  0
   14.1897   -8.5232   17.8164 H   0  0  0  0  0  0
   15.0422   -9.4761   19.0247 H   0  0  0  0  0  0
   13.2572  -13.0738   18.6339 H   0  0  0  0  0  0
  1  2  2  0  0  0
  1 20  1  0  0  0
  1  4  1  0  0  0
  2  3  1  0  0  0
  2 24  1  0  0  0
  3  6  2  0  0  0
  3 25  1  0  0  0
  4  5  2  0  0  0
  4 26  1  0  0  0
  5  9  1  0  0  0
  5  6  1  0  0  0
  6  7  1  0  0  0
  7  8  2  0  0  0
  7 10  1  0  0  0
  8  9  1  0  0  0
  8 19  1  0  0  0
  9 17  1  0  0  0
 10 11  1  0  0  0
 11 12  2  0  0  0
 11 16  1  0  0  0
 12 13  1  0  0  0
 12 27  1  0  0  0
 13 14  2  0  0  0
 13 28  1  0  0  0
 14 15  1  0  0  0
 14 18  1  0  0  0
 15 16  2  0  0  0
 15 29  1  0  0  0
 16 30  1  0  0  0
 17 21  1  0  0  0
 17 31  1  0  0  0
 17 32  1  0  0  0
 19 33  1  0  0  0
 19 34  1  0  0  0
 19 35  1  0  0  0
 21 22  1  0  0  0
 21 23  2  0  0  0
 22 36  1  0  0  0
M  END
> <s_m_entry_id>
6432

> <s_m_entry_name>
dock_pv.267

> <s_m_Source_Path>
/home/csk/Desktop/cluster/DUD-E-result/aldr

> <s_m_Source_File>
dock_pv.maegz

> <i_m_Source_File_Index>
267

> <chembl_id>
CHEMBL1917424

> <chembl_pref_name>
None

> <i_lp_mmshare_version>
53161

> <i_f3d_flags>
0

> <r_lp_tautomer_probability>
1

> <s_lp_Force_Field>
OPLS_2005

> <r_lp_Energy>
11.970514

> <b_lp_Chiralities_Consistent>
1

> <s_lp_Variant>
CHEMBL1900_lig516-1

> <s_i_glide_gridfile>
glide-grid_2hv5

> <i_i_glide_lignum>
639

> <i_i_glide_rotatable_bonds>
5

> <r_i_docking_score>
-8.65875692619774

> <r_i_glide_ligand_efficiency>
-0.37646769244338

> <r_i_glide_ligand_efficiency_sa>
-1.07062403840166

> <r_i_glide_ligand_efficiency_ln>
-2.09376593802159

> <r_i_glide_gscore>
-8.65875692619774

> <r_i_glide_lipo>
-4.14397109797581

> <r_i_glide_hbond>
-0.304

> <r_i_glide_metal>
0

> <r_i_glide_rewards>
-2.07499442910094

> <r_i_glide_evdw>
-34.8833885192871

> <r_i_glide_ecoul>
-6.26701879501343

> <r_i_glide_erotb>
0.573857614360703

> <r_i_glide_esite>
-0.0254267682653235

> <r_i_glide_emodel>
-59.8060931976675

> <r_i_glide_energy>
-41.1504073143005

> <r_i_glide_einternal>
1.78414845466614

> <i_i_glide_confnum>
60

> <i_i_glide_posenum>
14

> <r_i_glide_eff_state_penalty>
0

> <s_user_duplicate_titles>
CHEMBL1900_lig516

> <s_m_subgroup_title>
dock_pv

> <s_m_subgroupid>
dock_pv

> <b_m_subgroup_collapsed>
1

$$$$
CHEMBL1900_lig443
                    3D
 Schrodinger Suite 2021-1.
 28 30  0  0  1  0            999 V2000
   16.5946   -3.9140    9.9422 C   0  0  0  0  0  0
   15.3449   -4.5148   10.0498 C   0  0  0  0  0  0
   15.0567   -5.5093   10.9810 C   0  0  0  0  0  0
   17.6375   -4.3021   10.7742 C   0  0  0  0  0  0
   17.4041   -5.3157   11.7131 C   0  0  0  0  0  0
   16.1106   -5.9222   11.7871 C   0  0  0  0  0  0
   16.1759   -6.9150   12.7397 N   0  0  0  0  0  0
   17.4351   -6.9383   13.2680 C   0  0  0  0  0  0
   18.2009   -5.9462   12.7079 C   0  0  0  0  0  0
   17.9247   -8.1451   14.4948 S   0  0  0  0  0  0
   17.3450   -9.4519   14.1810 O   0  0  0  0  0  0
   19.3664   -7.9477   14.5810 O   0  0  0  0  0  0
   17.1685   -7.5978   16.0401 C   0  0  0  0  0  0
   15.7407   -7.4508   16.2189 C   0  0  0  0  0  0
   15.2484   -6.9698   17.3882 C   0  0  0  0  0  0
   16.1149   -6.5281   18.4768 C   0  0  0  0  0  0
   17.4184   -6.8200   18.2061 N   0  0  0  0  0  0
   17.9541   -7.3150   17.0214 N   0  0  0  0  0  0
   15.7450   -5.9372   19.4897 O   0  0  0  0  0  0
   16.8521   -2.6682    8.7770 Cl  0  0  0  0  0  0
   14.5661   -4.2145    9.3810 H   0  0  0  0  0  0
   14.0738   -5.9542   11.0417 H   0  0  0  0  0  0
   18.6007   -3.8241   10.6996 H   0  0  0  0  0  0
   15.4535   -7.5644   13.0092 H   0  0  0  0  0  0
   19.2260   -5.7486   12.9810 H   0  0  0  0  0  0
   15.0522   -7.7926   15.4609 H   0  0  0  0  0  0
   14.1803   -6.9150   17.5373 H   0  0  0  0  0  0
   18.1002   -6.5871   18.9130 H   0  0  0  0  0  0
  1  4  1  0  0  0
  1  2  2  0  0  0
  1 20  1  0  0  0
  2  3  1  0  0  0
  2 21  1  0  0  0
  3  6  2  0  0  0
  3 22  1  0  0  0
  4  5  2  0  0  0
  4 23  1  0  0  0
  5  6  1  0  0  0
  5  9  1  0  0  0
  6  7  1  0  0  0
  7  8  1  0  0  0
  7 24  1  0  0  0
  8 10  1  0  0  0
  8  9  2  0  0  0
  9 25  1  0  0  0
 10 11  2  0  0  0
 10 12  2  0  0  0
 10 13  1  0  0  0
 13 14  1  0  0  0
 13 18  2  0  0  0
 14 15  2  0  0  0
 14 26  1  0  0  0
 15 16  1  0  0  0
 15 27  1  0  0  0
 16 17  1  0  0  0
 16 19  2  0  0  0
 17 18  1  0  0  0
 17 28  1  0  0  0
M  END
> <s_m_entry_id>
6433

> <s_m_entry_name>
dock_pv.268

> <s_m_Source_Path>
/home/csk/Desktop/cluster/DUD-E-result/aldr

> <s_m_Source_File>
dock_pv.maegz

> <i_m_Source_File_Index>
268

> <chembl_id>
CHEMBL240871

> <chembl_pref_name>
None

> <i_lp_mmshare_version>
53161

> <i_f3d_flags>
0

> <r_lp_tautomer_probability>
0.998994762270461

> <s_lp_Force_Field>
OPLS_2005

> <r_lp_Energy>
19.915703

> <b_lp_Chiralities_Consistent>
1

> <s_lp_Variant>
CHEMBL1900_lig443-1

> <s_i_glide_gridfile>
glide-grid_2hv5

> <i_i_glide_lignum>
565

> <i_i_glide_rotatable_bonds>
2

> <r_i_docking_score>
-8.65746105129888

> <r_i_glide_ligand_efficiency>
-0.432873052564944

> <r_i_glide_ligand_efficiency_sa>
-1.17499823845817

> <r_i_glide_ligand_efficiency_ln>
-2.16667695896415

> <r_i_glide_gscore>
-8.65746105129888

> <r_i_glide_lipo>
-4.01289702275159

> <r_i_glide_hbond>
-0.256256250090322

> <r_i_glide_metal>
0

> <r_i_glide_rewards>
-2.54733682761514

> <r_i_glide_evdw>
-36.110107421875

> <r_i_glide_ecoul>
-2.81054329872131

> <r_i_glide_erotb>
0.386115915060109

> <r_i_glide_esite>
0

> <r_i_glide_emodel>
-53.0003986592936

> <r_i_glide_energy>
-38.9206507205963

> <r_i_glide_einternal>
4.48238134384155

> <i_i_glide_confnum>
2

> <i_i_glide_posenum>
335

> <r_i_glide_eff_state_penalty>
0

> <s_user_duplicate_titles>
CHEMBL1900_lig443

> <s_m_subgroup_title>
dock_pv

> <s_m_subgroupid>
dock_pv

> <b_m_subgroup_collapsed>
1

$$$$
CHEMBL1900_lig539
                    3D
 Schrodinger Suite 2021-1.
 41 42  0  0  1  0            999 V2000
   16.8443   -4.4552   10.3334 C   0  0  0  0  0  0
   17.9346   -4.9330   11.0540 C   0  0  0  0  0  0
   17.7406   -5.7742   12.1524 C   0  0  0  0  0  0
   16.4364   -6.1166   12.5500 C   0  0  0  0  0  0
   15.3539   -5.6773   11.7804 C   0  0  0  0  0  0
   15.5544   -4.8521   10.6751 C   0  0  0  0  0  0
   16.1445   -6.8628   13.7878 C   0  0  0  0  0  0
   16.8916   -7.8319   14.3625 C   0  0  0  0  0  0
   16.5978   -8.4275   15.6624 C   0  0  0  0  0  0
   15.5994   -7.8035   16.3448 O   0  0  0  0  0  0
   17.2429   -9.3851   16.0940 O   0  0  0  0  0  0
   15.2888   -8.1369   17.6940 C   0  0  0  0  0  0
   16.3216   -7.5813   18.7057 C   0  0  0  0  0  0
   17.0364   -3.5837    9.2978 O   0  0  0  0  0  0
   18.8504   -6.2494   12.8077 O   0  0  0  0  0  0
   19.2193   -5.5753   13.9959 C   0  0  0  0  0  0
   16.2864   -6.0731   18.9616 C   0  0  0  0  0  0
   16.1454   -5.1507   17.9192 C   0  0  0  0  0  0
   16.1452   -3.7779   18.1809 C   0  0  0  0  0  0
   16.2638   -3.3137   19.4890 C   0  0  0  0  0  0
   16.4247   -4.2212   20.5310 C   0  0  0  0  0  0
   16.4414   -5.5903   20.2656 C   0  0  0  0  0  0
   16.5444   -3.7705   21.8170 O   0  0  0  0  0  0
   18.9364   -4.6498   10.7704 H   0  0  0  0  0  0
   14.3418   -5.9308   12.0612 H   0  0  0  0  0  0
   14.7025   -4.4964   10.1169 H   0  0  0  0  0  0
   15.2509   -6.5195   14.2873 H   0  0  0  0  0  0
   17.7780   -8.2035   13.8722 H   0  0  0  0  0  0
   14.2948   -7.7561   17.9298 H   0  0  0  0  0  0
   15.2292   -9.2244   17.7845 H   0  0  0  0  0  0
   16.1426   -8.0911   19.6514 H   0  0  0  0  0  0
   17.3347   -7.8565   18.4136 H   0  0  0  0  0  0
   16.2021   -3.3058    8.9125 H   0  0  0  0  0  0
   20.1685   -5.9704   14.3524 H   0  0  0  0  0  0
   19.3451   -4.5161   13.7939 H   0  0  0  0  0  0
   18.5013   -5.7150   14.8009 H   0  0  0  0  0  0
   16.0571   -5.4836   16.9001 H   0  0  0  0  0  0
   16.0398   -3.0740   17.3704 H   0  0  0  0  0  0
   16.2447   -2.2515   19.6886 H   0  0  0  0  0  0
   16.5455   -6.2813   21.0895 H   0  0  0  0  0  0
   16.4254   -2.8190   21.8841 H   0  0  0  0  0  0
  1  6  1  0  0  0
  1  2  2  0  0  0
  1 14  1  0  0  0
  2  3  1  0  0  0
  2 24  1  0  0  0
  3 15  1  0  0  0
  3  4  2  0  0  0
  4  7  1  0  0  0
  4  5  1  0  0  0
  5  6  2  0  0  0
  5 25  1  0  0  0
  6 26  1  0  0  0
  7  8  2  0  0  0
  7 27  1  0  0  0
  8  9  1  0  0  0
  8 28  1  0  0  0
  9 10  1  0  0  0
  9 11  2  0  0  0
 10 12  1  0  0  0
 12 13  1  0  0  0
 12 29  1  0  0  0
 12 30  1  0  0  0
 13 17  1  0  0  0
 13 31  1  0  0  0
 13 32  1  0  0  0
 14 33  1  0  0  0
 15 16  1  0  0  0
 16 34  1  0  0  0
 16 35  1  0  0  0
 16 36  1  0  0  0
 17 18  2  0  0  0
 17 22  1  0  0  0
 18 19  1  0  0  0
 18 37  1  0  0  0
 19 20  2  0  0  0
 19 38  1  0  0  0
 20 21  1  0  0  0
 20 39  1  0  0  0
 21 22  2  0  0  0
 21 23  1  0  0  0
 22 40  1  0  0  0
 23 41  1  0  0  0
M  END
> <s_m_entry_id>
6434

> <s_m_entry_name>
dock_pv.269

> <s_m_Source_Path>
/home/csk/Desktop/cluster/DUD-E-result/aldr

> <s_m_Source_File>
dock_pv.maegz

> <i_m_Source_File_Index>
269

> <chembl_id>
CHEMBL1940396

> <chembl_pref_name>
None

> <i_lp_mmshare_version>
53161

> <i_f3d_flags>
0

> <r_lp_tautomer_probability>
0.999999999997365

> <s_lp_Force_Field>
OPLS_2005

> <r_lp_Energy>
15.271501

> <b_lp_Chiralities_Consistent>
1

> <s_lp_Variant>
CHEMBL1900_lig539-1

> <s_i_glide_gridfile>
glide-grid_2hv5

> <i_i_glide_lignum>
662

> <i_i_glide_rotatable_bonds>
9

> <r_i_docking_score>
-8.65501077115905

> <r_i_glide_ligand_efficiency>
-0.37630481613735

> <r_i_glide_ligand_efficiency_sa>
-1.07016083985363

> <r_i_glide_ligand_efficiency_ln>
-2.09286008376497

> <r_i_glide_gscore>
-8.65501077115905

> <r_i_glide_lipo>
-4.70926631004671

> <r_i_glide_hbond>
0

> <r_i_glide_metal>
0

> <r_i_glide_rewards>
-2.50756035282817

> <r_i_glide_evdw>
-42.7339820861816

> <r_i_glide_ecoul>
-2.86790823936462

> <r_i_glide_erotb>
1.12870123192961

> <r_i_glide_esite>
0

> <r_i_glide_emodel>
-63.2042151659976

> <r_i_glide_energy>
-45.6018903255463

> <r_i_glide_einternal>
8.82388782501221

> <i_i_glide_confnum>
107

> <i_i_glide_posenum>
223

> <r_i_glide_eff_state_penalty>
0

> <s_user_duplicate_titles>
CHEMBL1900_lig539

> <s_m_subgroup_title>
dock_pv

> <s_m_subgroupid>
dock_pv

> <b_m_subgroup_collapsed>
1

$$$$
CHEMBL1900_lig239
                    3D
 Schrodinger Suite 2021-1.
 38 41  0  0  1  0            999 V2000
   17.8615   -8.1092   15.5379 N   0  0  0  0  0  0
   17.3291   -7.3667   16.5821 N   0  0  0  0  0  0
   17.6020   -9.4354   15.2493 C   0  0  0  0  0  0
   16.4639   -7.8739   17.3810 C   0  0  0  0  0  0
   18.0644   -6.6298   13.5157 C   0  0  0  0  0  0
   18.6925   -5.7150   12.8421 N   0  0  0  0  0  0
   18.7683   -7.3561   14.6515 C   0  0  0  0  0  0
   16.5470  -10.0214   16.1771 C   0  0  0  0  0  0
   16.4195   -6.9150   12.9810 S   0  0  0  0  0  0
   15.9654   -9.2528   17.2067 C   0  0  0  0  0  0
   16.6442   -5.7235   11.7133 C   0  0  0  0  0  0
   15.9589   -7.0416   18.5788 C   0  0  0  0  0  0
   17.9503   -5.1978   11.8314 C   0  0  0  0  0  0
   16.5450   -5.6314   18.7596 C   0  0  0  0  0  0
   15.7767   -5.2773   10.7055 C   0  0  0  0  0  0
   18.1450  -10.0666   14.3367 O   0  0  0  0  0  0
   17.2610   -5.3150   19.7038 O   0  0  0  0  0  0
   18.3837   -4.2058   10.9398 C   0  0  0  0  0  0
   16.2686   -4.3081    9.8282 C   0  0  0  0  0  0
   16.1450   -4.7730   17.7820 O   0  0  0  0  0  0
   17.5357   -3.7741    9.9435 C   0  0  0  0  0  0
   15.3450   -3.7421    8.5258 Cl  0  0  0  0  0  0
   16.1408  -11.3479   15.9800 C   0  0  0  0  0  0
   14.9500   -9.8200   17.9913 C   0  0  0  0  0  0
   15.1423  -11.9012   16.7806 C   0  0  0  0  0  0
   14.5450  -11.1376   17.7810 C   0  0  0  0  0  0
   19.3640   -6.6683   15.2549 H   0  0  0  0  0  0
   19.5245   -8.0131   14.2155 H   0  0  0  0  0  0
   14.8827   -6.9150   18.4896 H   0  0  0  0  0  0
   16.1450   -7.5946   19.5001 H   0  0  0  0  0  0
   14.7763   -5.6713   10.6011 H   0  0  0  0  0  0
   19.3452   -3.7578   10.9810 H   0  0  0  0  0  0
   16.5666   -3.9216   17.9147 H   0  0  0  0  0  0
   17.8687   -3.0195    9.2445 H   0  0  0  0  0  0
   16.5814  -11.9496   15.1964 H   0  0  0  0  0  0
   14.4819   -9.2623   18.7856 H   0  0  0  0  0  0
   14.8225  -12.9206   16.6191 H   0  0  0  0  0  0
   13.7633  -11.5678   18.3920 H   0  0  0  0  0  0
  1  2  1  0  0  0
  1  3  1  0  0  0
  1  7  1  0  0  0
  2  4  2  0  0  0
  3  8  1  0  0  0
  3 16  2  0  0  0
  4 12  1  0  0  0
  4 10  1  0  0  0
  5  7  1  0  0  0
  5  6  2  0  0  0
  5  9  1  0  0  0
  6 13  1  0  0  0
  7 27  1  0  0  0
  7 28  1  0  0  0
  8 10  1  0  0  0
  8 23  2  0  0  0
  9 11  1  0  0  0
 10 24  2  0  0  0
 11 15  1  0  0  0
 11 13  2  0  0  0
 12 14  1  0  0  0
 12 29  1  0  0  0
 12 30  1  0  0  0
 13 18  1  0  0  0
 14 17  2  0  0  0
 14 20  1  0  0  0
 15 19  2  0  0  0
 15 31  1  0  0  0
 18 21  2  0  0  0
 18 32  1  0  0  0
 19 22  1  0  0  0
 19 21  1  0  0  0
 20 33  1  0  0  0
 21 34  1  0  0  0
 23 25  1  0  0  0
 23 35  1  0  0  0
 24 26  1  0  0  0
 24 36  1  0  0  0
 25 26  2  0  0  0
 25 37  1  0  0  0
 26 38  1  0  0  0
M  END
> <s_m_entry_id>
6435

> <s_m_entry_name>
dock_pv.270

> <s_m_Source_Path>
/home/csk/Desktop/cluster/DUD-E-result/aldr

> <s_m_Source_File>
dock_pv.maegz

> <i_m_Source_File_Index>
270

> <chembl_id>
CHEMBL20581

> <chembl_pref_name>
None

> <i_lp_mmshare_version>
53161

> <i_f3d_flags>
0

> <r_lp_tautomer_probability>
1

> <s_lp_Force_Field>
OPLS_2005

> <r_lp_Energy>
25.500278

> <b_lp_Chiralities_Consistent>
1

> <s_lp_Variant>
CHEMBL1900_lig239-1

> <s_i_glide_gridfile>
glide-grid_2hv5

> <i_i_glide_lignum>
350

> <i_i_glide_rotatable_bonds>
5

> <r_i_docking_score>
-8.65159769740443

> <r_i_glide_ligand_efficiency>
-0.332753757592478

> <r_i_glide_ligand_efficiency_sa>
-0.985781697544905

> <r_i_glide_ligand_efficiency_ln>
-2.03179933102794

> <r_i_glide_gscore>
-8.65159769740443

> <r_i_glide_lipo>
-4.75986583300882

> <r_i_glide_hbond>
0

> <r_i_glide_metal>
0

> <r_i_glide_rewards>
-2.31076432244127

> <r_i_glide_evdw>
-45.8490791320801

> <r_i_glide_ecoul>
1.25774478912354

> <r_i_glide_erotb>
0.522824696281137

> <r_i_glide_esite>
0

> <r_i_glide_emodel>
-63.3820378573776

> <r_i_glide_energy>
-44.5913343429565

> <r_i_glide_einternal>
3.53541135787964

> <i_i_glide_confnum>
21

> <i_i_glide_posenum>
382

> <r_i_glide_eff_state_penalty>
0

> <s_user_duplicate_titles>
CHEMBL1900_lig239,24234

> <s_m_subgroup_title>
dock_pv

> <s_m_subgroupid>
dock_pv

> <b_m_subgroup_collapsed>
1

$$$$
CHEMBL1900_lig451
                    3D
 Schrodinger Suite 2021-1.
 31 33  0  0  1  0            999 V2000
   16.1966   -4.1002   10.1270 C   0  0  0  0  0  0
   14.9988   -4.7659   10.3702 C   0  0  0  0  0  0
   14.8631   -5.7738   11.3125 C   0  0  0  0  0  0
   17.3544   -4.4540   10.8381 C   0  0  0  0  0  0
   17.2609   -5.4769   11.7915 C   0  0  0  0  0  0
   16.0162   -6.1149   12.0043 C   0  0  0  0  0  0
   16.1060   -7.0956   12.9398 O   0  0  0  0  0  0
   17.4001   -7.1022   13.3268 C   0  0  0  0  0  0
   18.1421   -6.1128   12.7060 C   0  0  0  0  0  0
   17.9214   -8.3120   14.5258 S   0  0  0  0  0  0
   17.3450   -9.6189   14.2046 O   0  0  0  0  0  0
   19.3604   -8.1017   14.5810 O   0  0  0  0  0  0
   17.1809   -7.7619   16.0788 C   0  0  0  0  0  0
   15.7560   -7.7719   16.3303 C   0  0  0  0  0  0
   15.2670   -7.2721   17.4943 C   0  0  0  0  0  0
   16.1295   -6.6663   18.5050 C   0  0  0  0  0  0
   17.4429   -6.8164   18.1772 N   0  0  0  0  0  0
   17.9735   -7.3148   16.9912 N   0  0  0  0  0  0
   15.7451   -6.0606   19.5032 O   0  0  0  0  0  0
   16.1338   -3.1118    9.1728 O   0  0  0  0  0  0
   17.2420   -2.2566    8.9810 C   0  0  0  0  0  0
   14.1434   -4.5152    9.7823 H   0  0  0  0  0  0
   13.9217   -6.2776   11.4703 H   0  0  0  0  0  0
   18.2944   -3.9545   10.6728 H   0  0  0  0  0  0
   19.1861   -5.9225   12.8965 H   0  0  0  0  0  0
   15.0761   -8.2232   15.6208 H   0  0  0  0  0  0
   14.2058   -7.3140   17.6949 H   0  0  0  0  0  0
   18.1262   -6.4556   18.8273 H   0  0  0  0  0  0
   16.9476   -1.5283    8.2251 H   0  0  0  0  0  0
   18.1087   -2.8080    8.6142 H   0  0  0  0  0  0
   17.5062   -1.7180    9.8924 H   0  0  0  0  0  0
  1  2  2  0  0  0
  1 20  1  0  0  0
  1  4  1  0  0  0
  2  3  1  0  0  0
  2 22  1  0  0  0
  3  6  2  0  0  0
  3 23  1  0  0  0
  4  5  2  0  0  0
  4 24  1  0  0  0
  5  6  1  0  0  0
  5  9  1  0  0  0
  6  7  1  0  0  0
  7  8  1  0  0  0
  8 10  1  0  0  0
  8  9  2  0  0  0
  9 25  1  0  0  0
 10 11  2  0  0  0
 10 12  2  0  0  0
 10 13  1  0  0  0
 13 14  1  0  0  0
 13 18  2  0  0  0
 14 15  2  0  0  0
 14 26  1  0  0  0
 15 16  1  0  0  0
 15 27  1  0  0  0
 16 17  1  0  0  0
 16 19  2  0  0  0
 17 18  1  0  0  0
 17 28  1  0  0  0
 20 21  1  0  0  0
 21 29  1  0  0  0
 21 30  1  0  0  0
 21 31  1  0  0  0
M  END
> <s_m_entry_id>
6436

> <s_m_entry_name>
dock_pv.271

> <s_m_Source_Path>
/home/csk/Desktop/cluster/DUD-E-result/aldr

> <s_m_Source_File>
dock_pv.maegz

> <i_m_Source_File_Index>
271

> <chembl_id>
CHEMBL241570

> <chembl_pref_name>
None

> <i_lp_mmshare_version>
53161

> <i_f3d_flags>
0

> <r_lp_tautomer_probability>
0.998994762270461

> <s_lp_Force_Field>
OPLS_2005

> <r_lp_Energy>
25.119637

> <b_lp_Chiralities_Consistent>
1

> <s_lp_Variant>
CHEMBL1900_lig451-1

> <s_i_glide_gridfile>
glide-grid_2hv5

> <i_i_glide_lignum>
573

> <i_i_glide_rotatable_bonds>
3

> <r_i_docking_score>
-8.64075775582247

> <r_i_glide_ligand_efficiency>
-0.411464655039165

> <r_i_glide_ligand_efficiency_sa>
-1.13519978336182

> <r_i_glide_ligand_efficiency_ln>
-2.13640989483203

> <r_i_glide_gscore>
-8.64075775582247

> <r_i_glide_lipo>
-3.95854620940841

> <r_i_glide_hbond>
-0.241516678918064

> <r_i_glide_metal>
0

> <r_i_glide_rewards>
-2.55946293160483

> <r_i_glide_evdw>
-36.5094566345215

> <r_i_glide_ecoul>
-2.99669337272644

> <r_i_glide_erotb>
0.393744901743871

> <r_i_glide_esite>
0

> <r_i_glide_emodel>
-57.2082319251812

> <r_i_glide_energy>
-39.5061500072479

> <r_i_glide_einternal>
4.57676076889038

> <i_i_glide_confnum>
5

> <i_i_glide_posenum>
137

> <r_i_glide_eff_state_penalty>
0

> <s_user_duplicate_titles>
CHEMBL1900_lig451,407173

> <s_m_subgroup_title>
dock_pv

> <s_m_subgroupid>
dock_pv

> <b_m_subgroup_collapsed>
1

$$$$
CHEMBL1900_lig422
                    3D
 Schrodinger Suite 2021-1.
 30 32  0  0  1  0            999 V2000
   18.1735   -7.7122   14.0426 S   0  0  0  0  0  0
   17.3092   -7.4298   15.6289 C   0  0  0  0  0  0
   18.0439   -7.3095   16.6833 N   0  0  0  0  0  0
   17.4370   -6.6006   12.8414 C   0  0  0  0  0  0
   17.4578   -6.9493   17.8979 N   0  0  0  0  0  0
   15.8682   -7.3144   15.7793 C   0  0  0  0  0  0
   16.1469   -6.6460   18.1358 C   0  0  0  0  0  0
   15.3266   -6.9742   16.9773 C   0  0  0  0  0  0
   18.1705   -5.5841   12.2332 C   0  0  0  0  0  0
   17.8286   -9.0838   13.6540 O   0  0  0  0  0  0
   19.5718   -7.3032   14.2233 O   0  0  0  0  0  0
   17.5822   -4.7520   11.2415 C   0  0  0  0  0  0
   16.1206   -6.8011   12.4677 C   0  0  0  0  0  0
   15.7456   -6.1153   19.1706 O   0  0  0  0  0  0
   16.2067   -4.9483   10.9084 C   0  0  0  0  0  0
   15.4877   -5.9858   11.5384 C   0  0  0  0  0  0
   18.3042   -3.7220   10.5811 C   0  0  0  0  0  0
   15.5946   -4.1010    9.9577 C   0  0  0  0  0  0
   17.6667   -2.8966    9.6602 C   0  0  0  0  0  0
   16.3244   -3.0826    9.3557 C   0  0  0  0  0  0
   15.1935   -7.5762   14.9826 H   0  0  0  0  0  0
   14.2546   -6.9406   17.1003 H   0  0  0  0  0  0
   19.2017   -5.4314   12.5090 H   0  0  0  0  0  0
   15.5824   -7.6332   12.8775 H   0  0  0  0  0  0
   18.1096   -6.8012   18.6549 H   0  0  0  0  0  0
   14.4515   -6.1534   11.2807 H   0  0  0  0  0  0
   19.3442   -3.5581   10.8148 H   0  0  0  0  0  0
   14.5490   -4.2409    9.7158 H   0  0  0  0  0  0
   18.2144   -2.0987    9.1827 H   0  0  0  0  0  0
   15.8410   -2.4351    8.6404 H   0  0  0  0  0  0
  1  4  1  0  0  0
  1 10  2  0  0  0
  1 11  2  0  0  0
  1  2  1  0  0  0
  2  6  1  0  0  0
  2  3  2  0  0  0
  3  5  1  0  0  0
  4  9  2  0  0  0
  4 13  1  0  0  0
  5  7  1  0  0  0
  5 25  1  0  0  0
  6  8  2  0  0  0
  6 21  1  0  0  0
  7 14  2  0  0  0
  7  8  1  0  0  0
  8 22  1  0  0  0
  9 12  1  0  0  0
  9 23  1  0  0  0
 12 17  2  0  0  0
 12 15  1  0  0  0
 13 16  2  0  0  0
 13 24  1  0  0  0
 15 16  1  0  0  0
 15 18  2  0  0  0
 16 26  1  0  0  0
 17 19  1  0  0  0
 17 27  1  0  0  0
 18 20  1  0  0  0
 18 28  1  0  0  0
 19 20  2  0  0  0
 19 29  1  0  0  0
 20 30  1  0  0  0
M  END
> <s_m_entry_id>
6437

> <s_m_entry_name>
dock_pv.272

> <s_m_Source_Path>
/home/csk/Desktop/cluster/DUD-E-result/aldr

> <s_m_Source_File>
dock_pv.maegz

> <i_m_Source_File_Index>
272

> <chembl_id>
CHEMBL369911

> <chembl_pref_name>
None

> <i_lp_mmshare_version>
53161

> <i_f3d_flags>
0

> <r_lp_tautomer_probability>
0.998994762270461

> <s_lp_Force_Field>
OPLS_2005

> <r_lp_Energy>
25.036487

> <b_lp_Chiralities_Consistent>
1

> <s_lp_Variant>
CHEMBL1900_lig422-1

> <s_i_glide_gridfile>
glide-grid_2hv5

> <i_i_glide_lignum>
544

> <i_i_glide_rotatable_bonds>
2

> <r_i_docking_score>
-8.63910292912869

> <r_i_glide_ligand_efficiency>
-0.431955146456435

> <r_i_glide_ligand_efficiency_sa>
-1.17250665794934

> <r_i_glide_ligand_efficiency_ln>
-2.16208252647635

> <r_i_glide_gscore>
-8.63910292912869

> <r_i_glide_lipo>
-4.09988752439384

> <r_i_glide_hbond>
-0.041876278938819

> <r_i_glide_metal>
0

> <r_i_glide_rewards>
-2.77111898983373

> <r_i_glide_evdw>
-40.7556190490723

> <r_i_glide_ecoul>
-0.876453936100006

> <r_i_glide_erotb>
0.443028906906314

> <r_i_glide_esite>
0

> <r_i_glide_emodel>
-60.7366973166436

> <r_i_glide_energy>
-41.6320729851723

> <r_i_glide_einternal>
1.99421334266663

> <i_i_glide_confnum>
2

> <i_i_glide_posenum>
287

> <r_i_glide_eff_state_penalty>
0

> <s_user_duplicate_titles>
CHEMBL1900_lig422,329792

> <s_m_subgroup_title>
dock_pv

> <s_m_subgroupid>
dock_pv

> <b_m_subgroup_collapsed>
1

$$$$
CHEMBL1900_lig602
                    3D
 Schrodinger Suite 2021-1.
 49 51  0  0  1  0            999 V2000
   16.6390   -7.9814   14.9797 C   0  0  0  0  0  0
   16.3893   -8.3971   16.3612 C   0  0  0  0  0  0
   16.7648   -9.6310   16.7814 C   0  0  0  0  0  0
   17.4401  -10.5852   15.8994 C   0  0  0  0  0  0
   17.7399  -11.9013   16.2605 C   0  0  0  0  0  0
   18.3775  -12.7388   15.3422 C   0  0  0  0  0  0
   18.7161  -12.2655   14.0713 C   0  0  0  0  0  0
   18.4127  -10.9524   13.7079 C   0  0  0  0  0  0
   17.7650  -10.1252   14.6223 C   0  0  0  0  0  0
   17.4456   -8.8355   14.2377 O   0  0  0  0  0  0
   15.7729   -7.4879   17.3093 C   0  0  0  0  0  0
   14.7074   -6.9152   17.0780 O   0  0  0  0  0  0
   16.4920   -7.2829   18.4313 N   0  0  0  0  0  0
   16.1299   -6.3729   19.5171 C   0  0  0  0  0  0
   16.9812   -5.0803   19.5669 C   0  0  0  0  0  0
   16.1580   -6.9403   14.4115 N   0  0  0  0  0  0
   16.5191   -6.4887   13.1318 C   0  0  0  0  0  0
   17.8487   -6.2093   12.7806 C   0  0  0  0  0  0
   18.1423   -5.4576   11.6437 C   0  0  0  0  0  0
   17.1267   -4.9881   10.8149 C   0  0  0  0  0  0
   15.8011   -5.3132   11.1208 C   0  0  0  0  0  0
   15.5114   -6.0323   12.2738 C   0  0  0  0  0  0
   17.5026   -4.1894    9.7535 O   0  0  0  0  0  0
   19.3535  -13.0933   13.1895 O   0  0  0  0  0  0
   16.4893   -3.4858    9.0374 C   0  0  0  0  0  0
   16.6034   -4.2042   20.7733 C   0  0  0  0  0  0
   16.9027   -4.2624   18.2620 C   0  0  0  0  0  0
   16.5773   -9.9335   17.8035 H   0  0  0  0  0  0
   17.4824  -12.2786   17.2402 H   0  0  0  0  0  0
   18.6112  -13.7570   15.6143 H   0  0  0  0  0  0
   18.6659  -10.5737   12.7309 H   0  0  0  0  0  0
   17.3552   -7.7920   18.5435 H   0  0  0  0  0  0
   16.2081   -6.9145   20.4613 H   0  0  0  0  0  0
   15.0760   -6.1046   19.4353 H   0  0  0  0  0  0
   18.0223   -5.3799   19.6995 H   0  0  0  0  0  0
   18.6538   -6.4992   13.4434 H   0  0  0  0  0  0
   19.1615   -5.2003   11.4194 H   0  0  0  0  0  0
   14.9759   -4.9510   10.5265 H   0  0  0  0  0  0
   14.4729   -6.1155   12.5558 H   0  0  0  0  0  0
   19.5179  -12.6854   12.3378 H   0  0  0  0  0  0
   16.9463   -2.9066    8.2342 H   0  0  0  0  0  0
   15.7665   -4.1611    8.5811 H   0  0  0  0  0  0
   15.9574   -2.7883    9.6862 H   0  0  0  0  0  0
   15.5791   -3.8379   20.6975 H   0  0  0  0  0  0
   17.2580   -3.3349   20.8472 H   0  0  0  0  0  0
   16.6951   -4.7565   21.7106 H   0  0  0  0  0  0
   15.8821   -3.9548   18.0369 H   0  0  0  0  0  0
   17.5144   -3.3609   18.3166 H   0  0  0  0  0  0
   17.2628   -4.8490   17.4184 H   0  0  0  0  0  0
  1  2  1  0  0  0
  1 10  1  0  0  0
  1 16  2  0  0  0
  2  3  2  0  0  0
  2 11  1  0  0  0
  3  4  1  0  0  0
  3 28  1  0  0  0
  4  5  1  0  0  0
  4  9  2  0  0  0
  5  6  2  0  0  0
  5 29  1  0  0  0
  6  7  1  0  0  0
  6 30  1  0  0  0
  7  8  2  0  0  0
  7 24  1  0  0  0
  8  9  1  0  0  0
  8 31  1  0  0  0
  9 10  1  0  0  0
 11 12  2  0  0  0
 11 13  1  0  0  0
 13 14  1  0  0  0
 13 32  1  0  0  0
 14 15  1  0  0  0
 14 33  1  0  0  0
 14 34  1  0  0  0
 15 26  1  0  0  0
 15 27  1  0  0  0
 15 35  1  0  0  0
 16 17  1  0  0  0
 17 18  1  0  0  0
 17 22  2  0  0  0
 18 19  2  0  0  0
 18 36  1  0  0  0
 19 20  1  0  0  0
 19 37  1  0  0  0
 20 21  2  0  0  0
 20 23  1  0  0  0
 21 22  1  0  0  0
 21 38  1  0  0  0
 22 39  1  0  0  0
 23 25  1  0  0  0
 24 40  1  0  0  0
 25 41  1  0  0  0
 25 42  1  0  0  0
 25 43  1  0  0  0
 26 44  1  0  0  0
 26 45  1  0  0  0
 26 46  1  0  0  0
 27 47  1  0  0  0
 27 48  1  0  0  0
 27 49  1  0  0  0
M  END
> <s_m_entry_id>
6438

> <s_m_entry_name>
dock_pv.273

> <s_m_Source_Path>
/home/csk/Desktop/cluster/DUD-E-result/aldr

> <s_m_Source_File>
dock_pv.maegz

> <i_m_Source_File_Index>
273

> <chembl_id>
CHEMBL2440413

> <chembl_pref_name>
None

> <i_lp_mmshare_version>
53161

> <i_f3d_flags>
0

> <r_lp_tautomer_probability>
1

> <s_lp_Force_Field>
OPLS_2005

> <r_lp_Energy>
40.522345

> <b_lp_Chiralities_Consistent>
1

> <s_lp_Variant>
CHEMBL1900_lig602-1

> <s_i_glide_gridfile>
glide-grid_2hv5

> <i_i_glide_lignum>
726

> <i_i_glide_rotatable_bonds>
7

> <r_i_docking_score>
-8.63887622293905

> <r_i_glide_ligand_efficiency>
-0.319958378627372

> <r_i_glide_ligand_efficiency_sa>
-0.959875134827586

> <r_i_glide_ligand_efficiency_ln>
-2.01098796169471

> <r_i_glide_gscore>
-8.63887622293905

> <r_i_glide_lipo>
-4.38898569182173

> <r_i_glide_hbond>
-0.00305339531231226

> <r_i_glide_metal>
0

> <r_i_glide_rewards>
-2.22418397529023

> <r_i_glide_evdw>
-45.0713577270508

> <r_i_glide_ecoul>
-2.28352046012878

> <r_i_glide_erotb>
0.573442794857073

> <r_i_glide_esite>
0

> <r_i_glide_emodel>
-59.7957120568676

> <r_i_glide_energy>
-47.3548781871796

> <r_i_glide_einternal>
8.22136306762695

> <i_i_glide_confnum>
5

> <i_i_glide_posenum>
92

> <r_i_glide_eff_state_penalty>
0

> <s_user_duplicate_titles>
CHEMBL1900_lig602

> <s_m_subgroup_title>
dock_pv

> <s_m_subgroupid>
dock_pv

> <b_m_subgroup_collapsed>
1

$$$$
CHEMBL1900_lig469
                    3D
 Schrodinger Suite 2021-1.
 36 37  0  0  1  0            999 V2000
   15.0246   -9.1160   18.1810 C   0  0  0  0  0  0
   15.7706   -7.9697   18.4334 C   0  0  0  0  0  0
   16.5560   -7.3706   17.4366 C   0  0  0  0  0  0
   16.5451   -7.9363   16.1465 C   0  0  0  0  0  0
   15.7998   -9.1052   15.9203 C   0  0  0  0  0  0
   15.0377   -9.6893   16.9219 C   0  0  0  0  0  0
   17.3821   -7.3625   15.0301 C   0  0  0  0  0  0
   18.5468   -7.0187   15.2245 O   0  0  0  0  0  0
   16.7968   -7.3149   13.8199 N   0  0  0  0  0  0
   17.5199   -7.1458   12.5596 C   0  0  0  0  0  0
   17.1377   -5.9076   11.7604 C   0  0  0  0  0  0
   15.8186   -5.6669   11.3558 C   0  0  0  0  0  0
   15.5182   -4.5542   10.5681 C   0  0  0  0  0  0
   16.5350   -3.6832   10.1751 C   0  0  0  0  0  0
   17.8470   -3.9159   10.5758 C   0  0  0  0  0  0
   18.1403   -5.0165   11.3746 C   0  0  0  0  0  0
   14.8302   -6.5141   11.7133 F   0  0  0  0  0  0
   16.1458   -2.1463    9.1252 Br  0  0  0  0  0  0
   17.3446   -6.2542   17.6688 O   0  0  0  0  0  0
   17.5167   -5.7269   18.9889 C   0  0  0  0  0  0
   16.5448   -4.5690   19.2053 C   0  0  0  0  0  0
   16.5706   -3.6708   18.1810 O   0  0  0  0  0  0
   15.8074   -4.4919   20.1821 O   0  0  0  0  0  0
   14.4661   -9.5760   18.9804 H   0  0  0  0  0  0
   15.7454   -7.5819   19.4361 H   0  0  0  0  0  0
   15.8333   -9.6165   14.9811 H   0  0  0  0  0  0
   14.4794  -10.5940   16.7287 H   0  0  0  0  0  0
   15.7993   -7.4511   13.7562 H   0  0  0  0  0  0
   18.5989   -7.1475   12.7269 H   0  0  0  0  0  0
   17.3420   -8.0246   11.9393 H   0  0  0  0  0  0
   14.4991   -4.3679   10.2616 H   0  0  0  0  0  0
   18.6296   -3.2324   10.2820 H   0  0  0  0  0  0
   19.1531   -5.1907   11.6911 H   0  0  0  0  0  0
   17.4288   -6.4660   19.7808 H   0  0  0  0  0  0
   18.5312   -5.3497   19.0977 H   0  0  0  0  0  0
   17.1958   -3.9357   17.5015 H   0  0  0  0  0  0
  1  6  1  0  0  0
  1  2  2  0  0  0
  1 24  1  0  0  0
  2  3  1  0  0  0
  2 25  1  0  0  0
  3  4  2  0  0  0
  3 19  1  0  0  0
  4  7  1  0  0  0
  4  5  1  0  0  0
  5  6  2  0  0  0
  5 26  1  0  0  0
  6 27  1  0  0  0
  7  8  2  0  0  0
  7  9  1  0  0  0
  9 10  1  0  0  0
  9 28  1  0  0  0
 10 11  1  0  0  0
 10 29  1  0  0  0
 10 30  1  0  0  0
 11 12  2  0  0  0
 11 16  1  0  0  0
 12 13  1  0  0  0
 12 17  1  0  0  0
 13 14  2  0  0  0
 13 31  1  0  0  0
 14 15  1  0  0  0
 14 18  1  0  0  0
 15 16  2  0  0  0
 15 32  1  0  0  0
 16 33  1  0  0  0
 19 20  1  0  0  0
 20 21  1  0  0  0
 20 34  1  0  0  0
 20 35  1  0  0  0
 21 22  1  0  0  0
 21 23  2  0  0  0
 22 36  1  0  0  0
M  END
> <s_m_entry_id>
6439

> <s_m_entry_name>
dock_pv.274

> <s_m_Source_Path>
/home/csk/Desktop/cluster/DUD-E-result/aldr

> <s_m_Source_File>
dock_pv.maegz

> <i_m_Source_File_Index>
274

> <chembl_id>
CHEMBL241572

> <chembl_pref_name>
None

> <i_lp_mmshare_version>
53161

> <i_f3d_flags>
0

> <r_lp_tautomer_probability>
1

> <s_lp_Force_Field>
OPLS_2005

> <r_lp_Energy>
18.816436

> <b_lp_Chiralities_Consistent>
1

> <s_lp_Variant>
CHEMBL1900_lig469-1

> <s_i_glide_gridfile>
glide-grid_2hv5

> <i_i_glide_lignum>
591

> <i_i_glide_rotatable_bonds>
8

> <r_i_docking_score>
-8.63864201296893

> <r_i_glide_ligand_efficiency>
-0.375593130998649

> <r_i_glide_ligand_efficiency_sa>
-1.06813690198974

> <r_i_glide_ligand_efficiency_ln>
-2.08890196961091

> <r_i_glide_gscore>
-8.63864201296893

> <r_i_glide_lipo>
-4.36694545789607

> <r_i_glide_hbond>
-0.259750826063323

> <r_i_glide_metal>
0

> <r_i_glide_rewards>
-2.53902051082781

> <r_i_glide_evdw>
-43.7005653381348

> <r_i_glide_ecoul>
-0.570625603199005

> <r_i_glide_erotb>
0.797696889204865

> <r_i_glide_esite>
0

> <r_i_glide_emodel>
-64.5774857209019

> <r_i_glide_energy>
-44.2711909413338

> <r_i_glide_einternal>
4.91579151153564

> <i_i_glide_confnum>
26

> <i_i_glide_posenum>
209

> <r_i_glide_eff_state_penalty>
0

> <s_user_duplicate_titles>
CHEMBL1900_lig469,407175

> <s_m_subgroup_title>
dock_pv

> <s_m_subgroupid>
dock_pv

> <b_m_subgroup_collapsed>
1

$$$$
CHEMBL1900_lig360
                    3D
 Schrodinger Suite 2021-1.
 39 41  0  0  1  0            999 V2000
   17.0127   -8.9302   16.0174 C   0  0  1  0  0  0
   17.4499  -10.1864   15.2445 C   0  0  0  0  0  0
   17.7223   -7.7495   13.9167 C   0  0  1  0  0  0
   18.4975   -8.8576   13.4577 O   0  0  0  0  0  0
   18.1450  -10.0707   14.0197 C   0  0  0  0  0  0
   17.7594   -7.7063   15.4546 C   0  0  0  0  0  0
   15.4700   -8.7490   15.9293 C   0  0  0  0  0  0
   18.2452   -6.4385   13.3287 C   0  0  0  0  0  0
   17.4692   -5.8068   12.2146 C   0  0  0  0  0  0
   14.8848   -7.6166   16.7759 C   0  0  0  0  0  0
   18.1449   -4.9313   11.3648 C   0  0  0  0  0  0
   17.4955   -4.2614   10.3429 C   0  0  0  0  0  0
   17.1783  -11.4797   15.7156 C   0  0  0  0  0  0
   16.1373   -4.4798   10.1308 C   0  0  0  0  0  0
   16.0878   -5.9845   12.0228 C   0  0  0  0  0  0
   19.3046   -5.9768   13.7619 O   0  0  0  0  0  0
   18.5625  -11.2016   13.3185 C   0  0  0  0  0  0
   15.0710   -6.4222   16.5810 O   0  0  0  0  0  0
   17.3447   -9.0525   17.3810 O   0  0  0  0  0  0
   15.4288   -5.3295   10.9809 C   0  0  0  0  0  0
   17.5836  -12.6106   15.0102 C   0  0  0  0  0  0
   18.4048   -3.1605    9.3810 Cl  0  0  0  0  0  0
   15.3450   -3.7205    8.8072 Cl  0  0  0  0  0  0
   14.1451   -8.1150   17.7810 O   0  0  0  0  0  0
   18.2770  -12.4727   13.8112 C   0  0  0  0  0  0
   17.3058  -13.8406   15.4945 F   0  0  0  0  0  0
   16.7055   -7.9113   13.5778 H   0  0  0  0  0  0
   18.8014   -7.7150   15.7683 H   0  0  0  0  0  0
   17.3737   -6.7650   15.8426 H   0  0  0  0  0  0
   15.1615   -8.5250   14.9149 H   0  0  0  0  0  0
   14.9727   -9.6906   16.1679 H   0  0  0  0  0  0
   19.2022   -4.7806   11.4686 H   0  0  0  0  0  0
   16.6481  -11.6097   16.6472 H   0  0  0  0  0  0
   15.4883   -6.5981   12.6759 H   0  0  0  0  0  0
   19.1073  -11.0924   12.3926 H   0  0  0  0  0  0
   17.1877   -8.2098   17.8139 H   0  0  0  0  0  0
   14.3676   -5.4759   10.8374 H   0  0  0  0  0  0
   14.1303   -9.0732   17.7749 H   0  0  0  0  0  0
   18.5938  -13.3505   13.2680 H   0  0  0  0  0  0
  1  2  1  0  0  0
  1  6  1  0  0  0
  1  7  1  0  0  0
  1 19  1  0  0  0
  2  5  2  0  0  0
  2 13  1  0  0  0
  3  6  1  0  0  0
  3  4  1  0  0  0
  3  8  1  0  0  0
  3 27  1  0  0  0
  4  5  1  0  0  0
  5 17  1  0  0  0
  6 28  1  0  0  0
  6 29  1  0  0  0
  7 10  1  0  0  0
  7 30  1  0  0  0
  7 31  1  0  0  0
  8  9  1  0  0  0
  8 16  2  0  0  0
  9 11  1  0  0  0
  9 15  2  0  0  0
 10 18  2  0  0  0
 10 24  1  0  0  0
 11 12  2  0  0  0
 11 32  1  0  0  0
 12 22  1  0  0  0
 12 14  1  0  0  0
 13 21  2  0  0  0
 13 33  1  0  0  0
 14 20  2  0  0  0
 14 23  1  0  0  0
 15 20  1  0  0  0
 15 34  1  0  0  0
 17 25  2  0  0  0
 17 35  1  0  0  0
 19 36  1  0  0  0
 20 37  1  0  0  0
 21 25  1  0  0  0
 21 26  1  0  0  0
 24 38  1  0  0  0
 25 39  1  0  0  0
M  END
> <s_m_entry_id>
6440

> <s_m_entry_name>
dock_pv.275

> <s_m_Source_Path>
/home/csk/Desktop/cluster/DUD-E-result/aldr

> <s_m_Source_File>
dock_pv.maegz

> <i_m_Source_File_Index>
275

> <chembl_id>
CHEMBL308920

> <chembl_pref_name>
None

> <i_lp_mmshare_version>
53161

> <i_f3d_flags>
0

> <r_lp_tautomer_probability>
0.99990000499975

> <s_lp_Force_Field>
OPLS_2005

> <r_lp_Energy>
27.347833

> <b_lp_Chiralities_Consistent>
1

> <s_lp_Variant>
CHEMBL1900_lig360-1

> <s_i_glide_gridfile>
glide-grid_2hv5

> <i_i_glide_lignum>
481

> <i_i_glide_rotatable_bonds>
6

> <r_i_docking_score>
-8.63486731764771

> <r_i_glide_ligand_efficiency>
-0.332110281447989

> <r_i_glide_ligand_efficiency_sa>
-0.983875401998812

> <r_i_glide_ligand_efficiency_ln>
-2.02787025623893

> <r_i_glide_gscore>
-8.63486731764771

> <r_i_glide_lipo>
-4.16599292267088

> <r_i_glide_hbond>
-0.32

> <r_i_glide_metal>
0

> <r_i_glide_rewards>
-2.45973655996256

> <r_i_glide_evdw>
-38.8816184997559

> <r_i_glide_ecoul>
-1.57888793945312

> <r_i_glide_erotb>
0.491776280891493

> <r_i_glide_esite>
0

> <r_i_glide_emodel>
-56.7648728067439

> <r_i_glide_energy>
-40.460506439209

> <r_i_glide_einternal>
3.84598636627197

> <i_i_glide_confnum>
13

> <i_i_glide_posenum>
317

> <r_i_glide_eff_state_penalty>
0

> <s_user_duplicate_titles>
CHEMBL1900_lig360

> <s_m_subgroup_title>
dock_pv

> <s_m_subgroupid>
dock_pv

> <b_m_subgroup_collapsed>
1

$$$$
CHEMBL1900_lig4
                    3D
 Schrodinger Suite 2021-1.
 31 32  0  0  1  0            999 V2000
   16.4984   -6.7303   12.9299 C   0  0  0  0  0  0
   17.8457   -6.6347   12.5821 C   0  0  0  0  0  0
   18.8385   -6.7334   13.5543 C   0  0  0  0  0  0
   18.4906   -6.9098   14.8858 C   0  0  0  0  0  0
   17.1462   -7.0011   15.2344 C   0  0  0  0  0  0
   16.1501   -6.9154   14.2663 C   0  0  0  0  0  0
   16.7566   -7.1017   16.6558 C   0  0  0  0  0  0
   16.2281   -8.2219   17.2777 N   0  0  0  0  0  0
   15.9796   -7.8505   18.5811 C   0  0  0  0  0  0
   16.3207   -6.5290   18.8058 C   0  0  0  0  0  0
   16.8070   -6.0751   17.5835 C   0  0  0  0  0  0
   15.9743   -9.5155   16.7073 C   0  0  0  0  0  0
   15.0846  -10.4829   17.4918 C   0  0  0  0  0  0
   16.4334   -9.8527   15.6176 O   0  0  0  0  0  0
   16.1380   -5.8358   19.9798 O   0  0  0  0  0  0
   17.0032   -4.8478   20.3514 C   0  0  0  0  0  0
   16.5460   -4.1331   21.6130 C   0  0  0  0  0  0
   18.0476   -4.5166   19.7888 O   0  0  0  0  0  0
   15.7326   -6.6412   12.1732 H   0  0  0  0  0  0
   18.1390   -6.4790   11.5537 H   0  0  0  0  0  0
   19.8768   -6.6555   13.2880 H   0  0  0  0  0  0
   19.2591   -6.9178   15.6446 H   0  0  0  0  0  0
   15.1206   -6.9342   14.5801 H   0  0  0  0  0  0
   15.5806   -8.5660   19.2835 H   0  0  0  0  0  0
   17.1601   -5.0751   17.3836 H   0  0  0  0  0  0
   14.1454  -10.0006   17.7554 H   0  0  0  0  0  0
   14.8500  -11.3690   16.8970 H   0  0  0  0  0  0
   15.5710  -10.8042   18.4103 H   0  0  0  0  0  0
   15.6166   -3.5941   21.4260 H   0  0  0  0  0  0
   17.2988   -3.4140   21.9357 H   0  0  0  0  0  0
   16.3797   -4.8494   22.4178 H   0  0  0  0  0  0
  1  2  2  0  0  0
  1  6  1  0  0  0
  1 19  1  0  0  0
  2  3  1  0  0  0
  2 20  1  0  0  0
  3  4  2  0  0  0
  3 21  1  0  0  0
  4  5  1  0  0  0
  4 22  1  0  0  0
  5  6  2  0  0  0
  5  7  1  0  0  0
  6 23  1  0  0  0
  7  8  1  0  0  0
  7 11  2  0  0  0
  8  9  1  0  0  0
  8 12  1  0  0  0
  9 10  2  0  0  0
  9 24  1  0  0  0
 10 11  1  0  0  0
 10 15  1  0  0  0
 11 25  1  0  0  0
 12 13  1  0  0  0
 12 14  2  0  0  0
 13 26  1  0  0  0
 13 27  1  0  0  0
 13 28  1  0  0  0
 15 16  1  0  0  0
 16 17  1  0  0  0
 16 18  2  0  0  0
 17 29  1  0  0  0
 17 30  1  0  0  0
 17 31  1  0  0  0
M  END
> <s_m_entry_id>
6441

> <s_m_entry_name>
dock_pv.276

> <s_m_Source_Path>
/home/csk/Desktop/cluster/DUD-E-result/aldr

> <s_m_Source_File>
dock_pv.maegz

> <i_m_Source_File_Index>
276

> <chembl_id>
CHEMBL4075185

> <chembl_pref_name>
None

> <i_lp_mmshare_version>
53161

> <i_f3d_flags>
0

> <r_lp_tautomer_probability>
1

> <s_lp_Force_Field>
OPLS_2005

> <r_lp_Energy>
14.786057

> <b_lp_Chiralities_Consistent>
1

> <s_lp_Variant>
CHEMBL1900_lig4-1

> <s_i_glide_gridfile>
glide-grid_2hv5

> <i_i_glide_lignum>
4

> <i_i_glide_rotatable_bonds>
4

> <r_i_docking_score>
-8.62236524580616

> <r_i_glide_ligand_efficiency>
-0.479020291433676

> <r_i_glide_ligand_efficiency_sa>
-1.25538830521673

> <r_i_glide_ligand_efficiency_ln>
-2.21633452595003

> <r_i_glide_gscore>
-8.62236524580616

> <r_i_glide_lipo>
-3.30286554944651

> <r_i_glide_hbond>
-0.475575069203489

> <r_i_glide_metal>
0

> <r_i_glide_rewards>
-3.62810652006198

> <r_i_glide_evdw>
-31.8939685821533

> <r_i_glide_ecoul>
-1.38629710674286

> <r_i_glide_erotb>
0.586824888024915

> <r_i_glide_esite>
0

> <r_i_glide_emodel>
-47.818046402662

> <r_i_glide_energy>
-33.2802656888962

> <r_i_glide_einternal>
3.03396105766296

> <i_i_glide_confnum>
6

> <i_i_glide_posenum>
171

> <r_i_glide_eff_state_penalty>
0

> <s_user_duplicate_titles>
CHEMBL1900_lig4

> <s_m_subgroup_title>
dock_pv

> <s_m_subgroupid>
dock_pv

> <b_m_subgroup_collapsed>
1

$$$$
CHEMBL1900_lig266
                    3D
 Schrodinger Suite 2021-1.
 37 40  0  0  1  0            999 V2000
   16.2628   -8.5161   15.9404 C   0  0  2  0  0  0
   17.1893   -9.4704   15.2144 C   0  0  0  0  0  0
   16.6734   -8.2322   17.3810 C   0  0  0  0  0  0
   17.2523   -7.5770   13.9713 N   0  0  0  0  0  0
   15.7827   -8.8937   18.1284 N   0  0  0  0  0  0
   14.9467   -9.0418   16.1773 N   0  0  0  0  0  0
   14.8666   -9.5603   17.4097 C   0  0  0  0  0  0
   17.8504   -8.8241   14.1671 C   0  0  0  0  0  0
   16.4270   -7.2175   15.1229 C   0  0  0  0  0  0
   17.9123   -6.4174   13.3608 C   0  0  0  0  0  0
   17.3900  -10.8423   15.4187 C   0  0  0  0  0  0
   18.7604   -9.5276   13.3810 C   0  0  0  0  0  0
   17.6039   -7.5308   17.7755 O   0  0  0  0  0  0
   14.1953  -10.5150   17.7829 O   0  0  0  0  0  0
   18.2470  -11.5573   14.5828 C   0  0  0  0  0  0
   17.1725   -5.7757   12.1819 C   0  0  0  0  0  0
   18.9460  -10.8962   13.5752 C   0  0  0  0  0  0
   15.9310   -4.5123   10.0329 C   0  0  0  0  0  0
   18.4233  -12.8840   14.7704 F   0  0  0  0  0  0
   15.3456   -3.9222    8.9714 F   0  0  0  0  0  0
   17.9058   -4.9669   11.3137 C   0  0  0  0  0  0
   15.7974   -5.9286   11.9735 C   0  0  0  0  0  0
   15.1751   -5.2908   10.9061 C   0  0  0  0  0  0
   17.2948   -4.3436   10.2330 C   0  0  0  0  0  0
   15.8081   -8.9000   19.1357 H   0  0  0  0  0  0
   14.1908   -9.0144   15.5089 H   0  0  0  0  0  0
   16.9169   -6.4255   15.6927 H   0  0  0  0  0  0
   15.4602   -6.8353   14.7975 H   0  0  0  0  0  0
   18.8870   -6.7414   12.9930 H   0  0  0  0  0  0
   18.1530   -5.6609   14.1075 H   0  0  0  0  0  0
   16.8646  -11.3714   16.2001 H   0  0  0  0  0  0
   19.2805   -9.0328   12.5794 H   0  0  0  0  0  0
   19.6234  -11.4469   12.9384 H   0  0  0  0  0  0
   18.9563   -4.8243   11.4761 H   0  0  0  0  0  0
   15.1955   -6.5170   12.6405 H   0  0  0  0  0  0
   14.1112   -5.3995   10.7532 H   0  0  0  0  0  0
   17.8687   -3.7312    9.5543 H   0  0  0  0  0  0
  1  2  1  0  0  0
  1  3  1  0  0  0
  1  6  1  0  0  0
  1  9  1  0  0  0
  2  8  1  0  0  0
  2 11  2  0  0  0
  3  5  1  0  0  0
  3 13  2  0  0  0
  4  9  1  0  0  0
  4 10  1  0  0  0
  4  8  1  0  0  0
  5  7  1  0  0  0
  5 25  1  0  0  0
  6  7  1  0  0  0
  6 26  1  0  0  0
  7 14  2  0  0  0
  8 12  2  0  0  0
  9 27  1  0  0  0
  9 28  1  0  0  0
 10 16  1  0  0  0
 10 29  1  0  0  0
 10 30  1  0  0  0
 11 15  1  0  0  0
 11 31  1  0  0  0
 12 17  1  0  0  0
 12 32  1  0  0  0
 15 17  2  0  0  0
 15 19  1  0  0  0
 16 21  2  0  0  0
 16 22  1  0  0  0
 17 33  1  0  0  0
 18 23  1  0  0  0
 18 20  1  0  0  0
 18 24  2  0  0  0
 21 24  1  0  0  0
 21 34  1  0  0  0
 22 23  2  0  0  0
 22 35  1  0  0  0
 23 36  1  0  0  0
 24 37  1  0  0  0
M  END
> <s_m_entry_id>
6442

> <s_m_entry_name>
dock_pv.277

> <s_m_Source_Path>
/home/csk/Desktop/cluster/DUD-E-result/aldr

> <s_m_Source_File>
dock_pv.maegz

> <i_m_Source_File_Index>
277

> <chembl_id>
CHEMBL281620

> <chembl_pref_name>
None

> <i_lp_mmshare_version>
53161

> <i_f3d_flags>
0

> <r_lp_tautomer_probability>
0.99999999978137

> <s_lp_Force_Field>
OPLS_2005

> <r_lp_Energy>
34.212587

> <b_lp_Chiralities_Consistent>
1

> <s_lp_Variant>
CHEMBL1900_lig266-2

> <s_i_glide_gridfile>
glide-grid_2hv5

> <i_i_glide_lignum>
381

> <i_i_glide_rotatable_bonds>
2

> <r_i_docking_score>
-8.616438802188

> <r_i_glide_ligand_efficiency>
-0.3590182834245

> <r_i_glide_ligand_efficiency_sa>
-1.03558792890593

> <r_i_glide_ligand_efficiency_ln>
-2.06230918797675

> <r_i_glide_gscore>
-8.616438802188

> <r_i_glide_lipo>
-3.8910636696263

> <r_i_glide_hbond>
0

> <r_i_glide_metal>
0

> <r_i_glide_rewards>
-3.31504604002213

> <r_i_glide_evdw>
-38.1596717834473

> <r_i_glide_ecoul>
1.34339618682861

> <r_i_glide_erotb>
0.346610357176949

> <r_i_glide_esite>
-0.0504652885684487

> <r_i_glide_emodel>
-37.8594857652661

> <r_i_glide_energy>
-36.8162755966187

> <r_i_glide_einternal>
9.99902057647705

> <i_i_glide_confnum>
4

> <i_i_glide_posenum>
319

> <r_i_glide_eff_state_penalty>
0

> <s_user_duplicate_titles>
CHEMBL1900_lig266,24110

> <s_m_subgroup_title>
dock_pv

> <s_m_subgroupid>
dock_pv

> <b_m_subgroup_collapsed>
1

$$$$
CHEMBL1900_lig520
                    3D
 Schrodinger Suite 2021-1.
 37 39  0  0  1  0            999 V2000
   15.5392  -12.1750   16.6956 C   0  0  0  0  0  0
   15.2741  -10.9365   17.2688 C   0  0  0  0  0  0
   15.9107   -9.7709   16.8050 C   0  0  0  0  0  0
   16.4442  -12.3310   15.6522 C   0  0  0  0  0  0
   17.1179  -11.1867   15.2110 C   0  0  0  0  0  0
   16.8822   -9.8935   15.7812 C   0  0  0  0  0  0
   17.7801   -8.9842   15.1042 C   0  0  0  0  0  0
   18.5360   -9.7407   14.2326 C   0  0  0  0  0  0
   18.0670  -11.0388   14.2116 N   0  0  0  0  0  0
   18.0185   -7.2591   15.3810 S   0  0  0  0  0  0
   17.5801   -6.6021   13.7955 C   0  0  0  0  0  0
   16.2656   -6.7090   13.3525 C   0  0  0  0  0  0
   15.8830   -6.1151   12.1504 C   0  0  0  0  0  0
   16.8249   -5.4172   11.3960 C   0  0  0  0  0  0
   18.1442   -5.3161   11.8339 C   0  0  0  0  0  0
   18.5253   -5.9150   13.0355 C   0  0  0  0  0  0
   18.5657  -12.1115   13.3397 C   0  0  0  0  0  0
   16.3498   -4.6477    9.9262 Cl  0  0  0  0  0  0
   19.6977   -9.3025   13.3805 C   0  0  0  0  0  0
   14.1450  -10.9157   18.5808 Cl  0  0  0  0  0  0
   15.5779   -8.4597   17.3537 C   0  0  0  0  0  0
   15.3133   -7.4171   17.7809 N   0  0  0  0  0  0
   19.7452  -12.9153   13.8970 C   0  0  0  0  0  0
   19.5547  -13.3105   15.1849 O   0  0  0  0  0  0
   20.7275  -13.2138   13.2229 O   0  0  0  0  0  0
   15.0227  -13.0463   17.0728 H   0  0  0  0  0  0
   16.6286  -13.3062   15.2241 H   0  0  0  0  0  0
   15.5459   -7.2110   13.9773 H   0  0  0  0  0  0
   14.8576   -6.1774   11.8177 H   0  0  0  0  0  0
   18.8654   -4.7673   11.2495 H   0  0  0  0  0  0
   19.5413   -5.8195   13.3903 H   0  0  0  0  0  0
   17.7440  -12.7966   13.1264 H   0  0  0  0  0  0
   18.8385  -11.6800   12.3763 H   0  0  0  0  0  0
   20.1374   -8.3630   13.7182 H   0  0  0  0  0  0
   20.5086  -10.0314   13.3811 H   0  0  0  0  0  0
   19.3459   -9.1456   12.3665 H   0  0  0  0  0  0
   20.2966  -13.8456   15.4718 H   0  0  0  0  0  0
  1  2  2  0  0  0
  1  4  1  0  0  0
  1 26  1  0  0  0
  2  3  1  0  0  0
  2 20  1  0  0  0
  3  6  2  0  0  0
  3 21  1  0  0  0
  4  5  2  0  0  0
  4 27  1  0  0  0
  5  9  1  0  0  0
  5  6  1  0  0  0
  6  7  1  0  0  0
  7  8  2  0  0  0
  7 10  1  0  0  0
  8  9  1  0  0  0
  8 19  1  0  0  0
  9 17  1  0  0  0
 10 11  1  0  0  0
 11 12  2  0  0  0
 11 16  1  0  0  0
 12 13  1  0  0  0
 12 28  1  0  0  0
 13 14  2  0  0  0
 13 29  1  0  0  0
 14 15  1  0  0  0
 14 18  1  0  0  0
 15 16  2  0  0  0
 15 30  1  0  0  0
 16 31  1  0  0  0
 17 23  1  0  0  0
 17 32  1  0  0  0
 17 33  1  0  0  0
 19 34  1  0  0  0
 19 35  1  0  0  0
 19 36  1  0  0  0
 21 22  3  0  0  0
 23 24  1  0  0  0
 23 25  2  0  0  0
 24 37  1  0  0  0
M  END
> <s_m_entry_id>
6443

> <s_m_entry_name>
dock_pv.278

> <s_m_Source_Path>
/home/csk/Desktop/cluster/DUD-E-result/aldr

> <s_m_Source_File>
dock_pv.maegz

> <i_m_Source_File_Index>
278

> <chembl_id>
CHEMBL1917428

> <chembl_pref_name>
None

> <i_lp_mmshare_version>
53161

> <i_f3d_flags>
0

> <r_lp_tautomer_probability>
1

> <s_lp_Force_Field>
OPLS_2005

> <r_lp_Energy>
13.519724

> <b_lp_Chiralities_Consistent>
1

> <s_lp_Variant>
CHEMBL1900_lig520-1

> <s_i_glide_gridfile>
glide-grid_2hv5

> <i_i_glide_lignum>
643

> <i_i_glide_rotatable_bonds>
5

> <r_i_docking_score>
-8.61104585528174

> <r_i_glide_ligand_efficiency>
-0.34444183421127

> <r_i_glide_ligand_efficiency_sa>
-1.00715403193569

> <r_i_glide_ligand_efficiency_ln>
-2.04107591992252

> <r_i_glide_gscore>
-8.61104585528174

> <r_i_glide_lipo>
-4.35177609801974

> <r_i_glide_hbond>
0

> <r_i_glide_metal>
0

> <r_i_glide_rewards>
-2.38174076817402

> <r_i_glide_evdw>
-40.3908538818359

> <r_i_glide_ecoul>
-2.45211601257324

> <r_i_glide_erotb>
0.509831106889797

> <r_i_glide_esite>
0

> <r_i_glide_emodel>
-60.1047956173222

> <r_i_glide_energy>
-42.8429698944092

> <r_i_glide_einternal>
4.57580900192261

> <i_i_glide_confnum>
27

> <i_i_glide_posenum>
140

> <r_i_glide_eff_state_penalty>
0

> <s_user_duplicate_titles>
CHEMBL1900_lig520

> <s_m_subgroup_title>
dock_pv

> <s_m_subgroupid>
dock_pv

> <b_m_subgroup_collapsed>
1

$$$$
CHEMBL1900_lig54
                    3D
 Schrodinger Suite 2021-1.
 40 42  0  0  1  0            999 V2000
   17.9472   -7.6341   14.8494 N   0  0  0  0  0  0
   17.2649   -6.9150   15.8214 N   0  0  0  0  0  0
   17.9338   -9.0074   14.7143 C   0  0  0  0  0  0
   16.4288   -7.4837   16.6107 C   0  0  0  0  0  0
   17.0702   -9.6604   15.7108 C   0  0  0  0  0  0
   16.3109   -8.9332   16.5942 C   0  0  0  0  0  0
   15.6492   -6.5249   17.5135 C   0  0  0  0  0  0
   18.6113   -6.8195   13.8103 C   0  0  0  0  0  0
   17.7251   -6.2084   12.7066 C   0  0  0  0  0  0
   16.3613   -6.4747   12.5434 C   0  0  0  0  0  0
   16.3705   -6.1042   18.8018 C   0  0  0  0  0  0
   15.6294   -5.8722   11.5113 C   0  0  0  0  0  0
   18.5450   -9.6287   13.8393 O   0  0  0  0  0  0
   18.3149   -5.3150   11.8220 C   0  0  0  0  0  0
   15.7450   -5.7150   19.7810 O   0  0  0  0  0  0
   16.2657   -4.9931   10.6316 C   0  0  0  0  0  0
   15.7450   -7.3074   13.3954 F   0  0  0  0  0  0
   17.0368  -11.1955   15.6736 C   0  0  0  0  0  0
   17.7304   -6.1150   18.7208 O   0  0  0  0  0  0
   17.6124   -4.7124   10.7903 C   0  0  0  0  0  0
   15.3396   -9.6017   17.5825 C   0  0  0  0  0  0
   15.3450   -4.1497    9.2044 Br  0  0  0  0  0  0
   16.5362  -11.7832   17.0029 C   0  0  0  0  0  0
   15.2115  -11.1282   17.4034 C   0  0  0  0  0  0
   15.4201   -5.6049   16.9777 H   0  0  0  0  0  0
   14.6808   -6.9447   17.7809 H   0  0  0  0  0  0
   19.1083   -5.9919   14.3213 H   0  0  0  0  0  0
   19.4283   -7.3638   13.3306 H   0  0  0  0  0  0
   14.5762   -6.0837   11.3998 H   0  0  0  0  0  0
   19.3450   -5.0825   11.9361 H   0  0  0  0  0  0
   18.0188  -11.6125   15.4411 H   0  0  0  0  0  0
   16.3891  -11.5216   14.8591 H   0  0  0  0  0  0
   18.0334   -6.3483   17.8383 H   0  0  0  0  0  0
   18.1083   -4.0273   10.1189 H   0  0  0  0  0  0
   14.3427   -9.1630   17.5235 H   0  0  0  0  0  0
   15.6916   -9.3883   18.5921 H   0  0  0  0  0  0
   17.2833  -11.6238   17.7810 H   0  0  0  0  0  0
   16.4095  -12.8628   16.9098 H   0  0  0  0  0  0
   14.8229  -11.5785   18.3181 H   0  0  0  0  0  0
   14.4681  -11.3373   16.6323 H   0  0  0  0  0  0
  1  2  1  0  0  0
  1  3  1  0  0  0
  1  8  1  0  0  0
  2  4  2  0  0  0
  3  5  1  0  0  0
  3 13  2  0  0  0
  4  7  1  0  0  0
  4  6  1  0  0  0
  5  6  2  0  0  0
  5 18  1  0  0  0
  6 21  1  0  0  0
  7 11  1  0  0  0
  7 25  1  0  0  0
  7 26  1  0  0  0
  8  9  1  0  0  0
  8 27  1  0  0  0
  8 28  1  0  0  0
  9 10  1  0  0  0
  9 14  2  0  0  0
 10 12  2  0  0  0
 10 17  1  0  0  0
 11 15  2  0  0  0
 11 19  1  0  0  0
 12 16  1  0  0  0
 12 29  1  0  0  0
 14 20  1  0  0  0
 14 30  1  0  0  0
 16 20  2  0  0  0
 16 22  1  0  0  0
 18 23  1  0  0  0
 18 31  1  0  0  0
 18 32  1  0  0  0
 19 33  1  0  0  0
 20 34  1  0  0  0
 21 24  1  0  0  0
 21 35  1  0  0  0
 21 36  1  0  0  0
 23 24  1  0  0  0
 23 37  1  0  0  0
 23 38  1  0  0  0
 24 39  1  0  0  0
 24 40  1  0  0  0
M  END
> <s_m_entry_id>
6444

> <s_m_entry_name>
dock_pv.279

> <s_m_Source_Path>
/home/csk/Desktop/cluster/DUD-E-result/aldr

> <s_m_Source_File>
dock_pv.maegz

> <i_m_Source_File_Index>
279

> <chembl_id>
CHEMBL66006

> <chembl_pref_name>
None

> <i_lp_mmshare_version>
53161

> <i_f3d_flags>
0

> <r_lp_tautomer_probability>
1

> <s_lp_Force_Field>
OPLS_2005

> <r_lp_Energy>
25.883213

> <b_lp_Chiralities_Consistent>
1

> <s_lp_Variant>
CHEMBL1900_lig54-1

> <s_i_glide_gridfile>
glide-grid_2hv5

> <i_i_glide_lignum>
89

> <i_i_glide_rotatable_bonds>
5

> <r_i_docking_score>
-8.6086560033092

> <r_i_glide_ligand_efficiency>
-0.358694000137883

> <r_i_glide_ligand_efficiency_sa>
-1.03465253404535

> <r_i_glide_ligand_efficiency_ln>
-2.06044640707568

> <r_i_glide_gscore>
-8.6086560033092

> <r_i_glide_lipo>
-4.15496647271143

> <r_i_glide_hbond>
-0.32

> <r_i_glide_metal>
0

> <r_i_glide_rewards>
-2.45913302364662

> <r_i_glide_evdw>
-38.3685188293457

> <r_i_glide_ecoul>
-1.71224665641785

> <r_i_glide_erotb>
0.500706432978807

> <r_i_glide_esite>
0

> <r_i_glide_emodel>
-55.695817659878

> <r_i_glide_energy>
-40.0807654857635

> <r_i_glide_einternal>
5.69902801513672

> <i_i_glide_confnum>
46

> <i_i_glide_posenum>
264

> <r_i_glide_eff_state_penalty>
0

> <s_user_duplicate_titles>
CHEMBL1900_lig54,108764

> <s_m_subgroup_title>
dock_pv

> <s_m_subgroupid>
dock_pv

> <b_m_subgroup_collapsed>
1

$$$$
CHEMBL1900_lig599
                    3D
 Schrodinger Suite 2021-1.
 46 49  0  0  1  0            999 V2000
   16.8596   -7.3203   16.3887 C   0  0  0  0  0  0
   17.4199   -7.7155   15.0856 C   0  0  0  0  0  0
   17.4704   -9.0188   14.7220 C   0  0  0  0  0  0
   16.8994  -10.0802   15.5451 C   0  0  0  0  0  0
   16.9451  -11.4292   15.1873 C   0  0  0  0  0  0
   16.2835  -12.3734   15.9760 C   0  0  0  0  0  0
   15.5730  -11.9688   17.1087 C   0  0  0  0  0  0
   15.5430  -10.6219   17.4726 C   0  0  0  0  0  0
   16.2287   -9.6789   16.7032 C   0  0  0  0  0  0
   16.2299   -8.3428   17.0901 O   0  0  0  0  0  0
   17.8590   -6.7490   14.0983 C   0  0  0  0  0  0
   18.9398   -6.1641   14.1816 O   0  0  0  0  0  0
   16.9532   -6.5849   13.1047 N   0  0  0  0  0  0
   16.9904   -5.7153   12.0020 C   0  0  0  0  0  0
   16.9261   -6.1406   16.8870 N   0  0  0  0  0  0
   16.6032   -5.6797   18.1681 C   0  0  0  0  0  0
   16.5853   -6.4739   19.3183 C   0  0  0  0  0  0
   16.5447   -5.8910   20.5778 C   0  0  0  0  0  0
   16.5159   -4.5181   20.7327 C   0  0  0  0  0  0
   16.4915   -3.7051   19.5985 C   0  0  0  0  0  0
   16.5448   -4.2888   18.3343 C   0  0  0  0  0  0
   16.5242   -4.0602   22.0277 O   0  0  0  0  0  0
   15.7435   -2.9149   22.3107 C   0  0  0  0  0  0
   15.7462   -4.6500   10.2324 C   0  0  0  0  0  0
   15.7831   -5.5300   11.3168 C   0  0  0  0  0  0
   18.1343   -5.0741   11.6255 N   0  0  0  0  0  0
   18.0790   -4.2226   10.5693 C   0  0  0  0  0  0
   16.9086   -3.9818    9.8490 C   0  0  0  0  0  0
   14.8443  -10.2354   18.5809 O   0  0  0  0  0  0
   17.8764   -9.2975   13.7558 H   0  0  0  0  0  0
   17.4636  -11.7461   14.2930 H   0  0  0  0  0  0
   16.3044  -13.4170   15.6981 H   0  0  0  0  0  0
   15.0419  -12.6993   17.7017 H   0  0  0  0  0  0
   16.0833   -7.0785   13.2170 H   0  0  0  0  0  0
   16.6819   -7.5466   19.2631 H   0  0  0  0  0  0
   16.5455   -6.5141   21.4585 H   0  0  0  0  0  0
   16.4881   -2.6290   19.6866 H   0  0  0  0  0  0
   16.6017   -3.6432   17.4697 H   0  0  0  0  0  0
   15.7460   -2.7394   23.3861 H   0  0  0  0  0  0
   16.1453   -2.0245   21.8291 H   0  0  0  0  0  0
   14.7077   -3.0514   21.9959 H   0  0  0  0  0  0
   14.8217   -4.4815    9.6986 H   0  0  0  0  0  0
   14.8778   -6.0349   11.6232 H   0  0  0  0  0  0
   18.9971   -3.7187   10.3095 H   0  0  0  0  0  0
   16.8969   -3.2934    9.0166 H   0  0  0  0  0  0
   14.9420   -9.2927   18.7350 H   0  0  0  0  0  0
  1  2  1  0  0  0
  1 10  1  0  0  0
  1 15  2  0  0  0
  2  3  2  0  0  0
  2 11  1  0  0  0
  3  4  1  0  0  0
  3 30  1  0  0  0
  4  5  2  0  0  0
  4  9  1  0  0  0
  5  6  1  0  0  0
  5 31  1  0  0  0
  6  7  2  0  0  0
  6 32  1  0  0  0
  7  8  1  0  0  0
  7 33  1  0  0  0
  8  9  2  0  0  0
  8 29  1  0  0  0
  9 10  1  0  0  0
 11 12  2  0  0  0
 11 13  1  0  0  0
 13 14  1  0  0  0
 13 34  1  0  0  0
 14 25  2  0  0  0
 14 26  1  0  0  0
 15 16  1  0  0  0
 16 17  2  0  0  0
 16 21  1  0  0  0
 17 18  1  0  0  0
 17 35  1  0  0  0
 18 19  2  0  0  0
 18 36  1  0  0  0
 19 20  1  0  0  0
 19 22  1  0  0  0
 20 21  2  0  0  0
 20 37  1  0  0  0
 21 38  1  0  0  0
 22 23  1  0  0  0
 23 39  1  0  0  0
 23 40  1  0  0  0
 23 41  1  0  0  0
 24 25  1  0  0  0
 24 28  2  0  0  0
 24 42  1  0  0  0
 25 43  1  0  0  0
 26 27  2  0  0  0
 27 28  1  0  0  0
 27 44  1  0  0  0
 28 45  1  0  0  0
 29 46  1  0  0  0
M  END
> <s_m_entry_id>
6445

> <s_m_entry_name>
dock_pv.280

> <s_m_Source_Path>
/home/csk/Desktop/cluster/DUD-E-result/aldr

> <s_m_Source_File>
dock_pv.maegz

> <i_m_Source_File_Index>
280

> <chembl_id>
CHEMBL2440418

> <chembl_pref_name>
None

> <i_lp_mmshare_version>
53161

> <i_f3d_flags>
0

> <r_lp_tautomer_probability>
1

> <s_lp_Force_Field>
OPLS_2005

> <r_lp_Energy>
43.676792

> <b_lp_Chiralities_Consistent>
1

> <s_lp_Variant>
CHEMBL1900_lig599-1

> <s_i_glide_gridfile>
glide-grid_2hv5

> <i_i_glide_lignum>
723

> <i_i_glide_rotatable_bonds>
6

> <r_i_docking_score>
-8.60458960319981

> <r_i_glide_ligand_efficiency>
-0.296709986317235

> <r_i_glide_ligand_efficiency_sa>
-0.911587082288263

> <r_i_glide_ligand_efficiency_ln>
-1.97023282556668

> <r_i_glide_gscore>
-8.60458960319981

> <r_i_glide_lipo>
-4.72606581581039

> <r_i_glide_hbond>
0

> <r_i_glide_metal>
0

> <r_i_glide_rewards>
-1.83436204843356

> <r_i_glide_evdw>
-48.6443061828613

> <r_i_glide_ecoul>
-0.873275458812714

> <r_i_glide_erotb>
0.519044889009122

> <r_i_glide_esite>
0

> <r_i_glide_emodel>
-54.4548126151701

> <r_i_glide_energy>
-49.517581641674

> <r_i_glide_einternal>
8.92399883270264

> <i_i_glide_confnum>
3

> <i_i_glide_posenum>
22

> <r_i_glide_eff_state_penalty>
0

> <s_user_duplicate_titles>
CHEMBL1900_lig599

> <s_m_subgroup_title>
dock_pv

> <s_m_subgroupid>
dock_pv

> <b_m_subgroup_collapsed>
1

$$$$
CHEMBL1900_lig52
                    3D
 Schrodinger Suite 2021-1.
 34 36  0  0  1  0            999 V2000
   17.9277   -7.6239   15.3441 N   0  0  0  0  0  0
   17.3450   -6.9150   16.3279 N   0  0  0  0  0  0
   16.6959   -7.7500   17.1055 C   0  0  0  0  0  0
   16.7833   -9.0781   16.5769 C   0  0  0  0  0  0
   17.5927   -8.9641   15.4170 C   0  0  0  0  0  0
   15.9146   -7.2866   18.3352 C   0  0  0  0  0  0
   18.6039   -6.9108   14.2643 C   0  0  0  0  0  0
   17.7265   -6.3555   13.1286 C   0  0  0  0  0  0
   16.3635   -6.6038   12.9847 C   0  0  0  0  0  0
   16.4532   -6.0677   19.1016 C   0  0  0  0  0  0
   15.6428   -6.0888   11.8984 C   0  0  0  0  0  0
   18.3246   -5.5269   12.1975 C   0  0  0  0  0  0
   15.7450   -5.3369   19.7810 O   0  0  0  0  0  0
   16.2868   -5.2729   10.9677 C   0  0  0  0  0  0
   15.7450   -7.3150   13.9335 F   0  0  0  0  0  0
   17.7911   -5.9166   18.9810 O   0  0  0  0  0  0
   17.6355   -4.9829   11.1205 C   0  0  0  0  0  0
   15.3450   -4.5150    9.5031 Br  0  0  0  0  0  0
   16.2663  -10.3345   16.9295 C   0  0  0  0  0  0
   17.8868  -10.0614   14.5978 C   0  0  0  0  0  0
   16.5644  -11.4314   16.1214 C   0  0  0  0  0  0
   17.3550  -11.2938   14.9819 C   0  0  0  0  0  0
   14.8790   -7.0872   18.0581 H   0  0  0  0  0  0
   15.8729   -8.0980   19.0623 H   0  0  0  0  0  0
   19.1805   -6.0979   14.7108 H   0  0  0  0  0  0
   19.3344   -7.5941   13.8284 H   0  0  0  0  0  0
   14.5882   -6.2896   11.7821 H   0  0  0  0  0  0
   19.3450   -5.3150   12.3630 H   0  0  0  0  0  0
   18.1451   -6.5537   18.3562 H   0  0  0  0  0  0
   18.1391   -4.3382   10.4157 H   0  0  0  0  0  0
   15.6332  -10.4474   17.7966 H   0  0  0  0  0  0
   18.4908   -9.9672   13.7072 H   0  0  0  0  0  0
   16.1661  -12.4039   16.3740 H   0  0  0  0  0  0
   17.5549  -12.1651   14.3742 H   0  0  0  0  0  0
  1  2  1  0  0  0
  1  5  1  0  0  0
  1  7  1  0  0  0
  2  3  2  0  0  0
  3  6  1  0  0  0
  3  4  1  0  0  0
  4  5  2  0  0  0
  4 19  1  0  0  0
  5 20  1  0  0  0
  6 10  1  0  0  0
  6 23  1  0  0  0
  6 24  1  0  0  0
  7  8  1  0  0  0
  7 25  1  0  0  0
  7 26  1  0  0  0
  8  9  1  0  0  0
  8 12  2  0  0  0
  9 11  2  0  0  0
  9 15  1  0  0  0
 10 13  2  0  0  0
 10 16  1  0  0  0
 11 14  1  0  0  0
 11 27  1  0  0  0
 12 17  1  0  0  0
 12 28  1  0  0  0
 14 17  2  0  0  0
 14 18  1  0  0  0
 16 29  1  0  0  0
 17 30  1  0  0  0
 19 21  2  0  0  0
 19 31  1  0  0  0
 20 22  2  0  0  0
 20 32  1  0  0  0
 21 22  1  0  0  0
 21 33  1  0  0  0
 22 34  1  0  0  0
M  END
> <s_m_entry_id>
6446

> <s_m_entry_name>
dock_pv.281

> <s_m_Source_Path>
/home/csk/Desktop/cluster/DUD-E-result/aldr

> <s_m_Source_File>
dock_pv.maegz

> <i_m_Source_File_Index>
281

> <chembl_id>
CHEMBL306222

> <chembl_pref_name>
None

> <i_lp_mmshare_version>
53161

> <i_f3d_flags>
0

> <r_lp_tautomer_probability>
1

> <s_lp_Force_Field>
OPLS_2005

> <r_lp_Energy>
11.877851

> <b_lp_Chiralities_Consistent>
1

> <s_lp_Variant>
CHEMBL1900_lig52-1

> <s_i_glide_gridfile>
glide-grid_2hv5

> <i_i_glide_lignum>
87

> <i_i_glide_rotatable_bonds>
5

> <r_i_docking_score>
-8.6029626185267

> <r_i_glide_ligand_efficiency>
-0.391043755387577

> <r_i_glide_ligand_efficiency_sa>
-1.0957199814742

> <r_i_glide_ligand_efficiency_ln>
-2.10287786465393

> <r_i_glide_gscore>
-8.6029626185267

> <r_i_glide_lipo>
-3.95545939936801

> <r_i_glide_hbond>
-0.32

> <r_i_glide_metal>
0

> <r_i_glide_rewards>
-2.63559990705175

> <r_i_glide_evdw>
-33.1515846252441

> <r_i_glide_ecoul>
-4.11266231536865

> <r_i_glide_erotb>
0.582575266460567

> <r_i_glide_esite>
0

> <r_i_glide_emodel>
-51.0688961666803

> <r_i_glide_energy>
-37.2642469406128

> <r_i_glide_einternal>
8.19324398040771

> <i_i_glide_confnum>
8

> <i_i_glide_posenum>
383

> <r_i_glide_eff_state_penalty>
0

> <s_user_duplicate_titles>
CHEMBL1900_lig52

> <s_m_subgroup_title>
dock_pv

> <s_m_subgroupid>
dock_pv

> <b_m_subgroup_collapsed>
1

$$$$
CHEMBL1900_lig629
                    3D
 Schrodinger Suite 2021-1.
 37 38  0  0  1  0            999 V2000
   15.5494   -6.1150   12.2186 N   0  0  0  0  0  0
   15.2187   -5.3151   11.3134 C   0  0  0  0  0  0
   16.2701   -4.8601   10.6111 N   0  0  0  0  0  0
   17.3902   -5.2439   11.2494 C   0  0  0  0  0  0
   16.8907   -6.1083   12.2881 C   0  0  0  0  0  0
   18.5450   -4.9150   10.9810 O   0  0  0  0  0  0
   13.8066   -4.8704   11.0561 C   0  0  0  0  0  0
   17.7442   -6.7393   13.1266 C   0  0  0  0  0  0
   17.3362   -7.6078   14.2549 C   0  0  0  0  0  0
   16.2870   -4.0749    9.3660 C   0  0  0  0  0  0
   16.5310   -2.5959    9.6617 C   0  0  0  0  0  0
   15.3450   -1.9378    9.7810 O   0  0  0  0  0  0
   17.6366   -2.1150    9.7810 O   0  0  0  0  0  0
   16.1589   -7.3716   14.9810 C   0  0  0  0  0  0
   15.7732   -8.2288   16.0089 C   0  0  0  0  0  0
   16.5736   -9.3259   16.3240 C   0  0  0  0  0  0
   17.7450   -9.5621   15.6125 C   0  0  0  0  0  0
   18.1290   -8.7096   14.5810 C   0  0  0  0  0  0
   16.2891  -10.1513   17.3810 O   0  0  0  0  0  0
   15.0434  -10.8506   17.3767 C   0  0  0  0  0  0
   15.2860  -12.2357   17.9985 C   0  0  0  0  0  0
   14.1450  -12.9730   18.1264 O   0  0  0  0  0  0
   16.3972  -12.6309   18.3513 O   0  0  0  0  0  0
   13.3605   -5.3150   10.1810 H   0  0  0  0  0  0
   13.1984   -5.1488   11.9128 H   0  0  0  0  0  0
   13.7499   -3.7908   10.9583 H   0  0  0  0  0  0
   18.8115   -6.6024   13.0060 H   0  0  0  0  0  0
   15.3887   -4.2286    8.7666 H   0  0  0  0  0  0
   17.1245   -4.4079    8.7594 H   0  0  0  0  0  0
   14.5812   -2.4846    9.5633 H   0  0  0  0  0  0
   15.5385   -6.5179   14.7548 H   0  0  0  0  0  0
   14.8729   -8.0317   16.5716 H   0  0  0  0  0  0
   18.3575  -10.4107   15.8715 H   0  0  0  0  0  0
   19.0398   -8.9141   14.0356 H   0  0  0  0  0  0
   14.3226  -10.2988   17.9805 H   0  0  0  0  0  0
   14.6458  -10.9776   16.3673 H   0  0  0  0  0  0
   13.3030  -12.5150   18.0021 H   0  0  0  0  0  0
  1  2  2  0  0  0
  1  5  1  0  0  0
  2  3  1  0  0  0
  2  7  1  0  0  0
  3  4  1  0  0  0
  3 10  1  0  0  0
  4  5  1  0  0  0
  4  6  2  0  0  0
  5  8  2  0  0  0
  7 24  1  0  0  0
  7 25  1  0  0  0
  7 26  1  0  0  0
  8  9  1  0  0  0
  8 27  1  0  0  0
  9 14  2  0  0  0
  9 18  1  0  0  0
 10 11  1  0  0  0
 10 28  1  0  0  0
 10 29  1  0  0  0
 11 12  1  0  0  0
 11 13  2  0  0  0
 12 30  1  0  0  0
 14 15  1  0  0  0
 14 31  1  0  0  0
 15 16  2  0  0  0
 15 32  1  0  0  0
 16 17  1  0  0  0
 16 19  1  0  0  0
 17 18  2  0  0  0
 17 33  1  0  0  0
 18 34  1  0  0  0
 19 20  1  0  0  0
 20 21  1  0  0  0
 20 35  1  0  0  0
 20 36  1  0  0  0
 21 22  1  0  0  0
 21 23  2  0  0  0
 22 37  1  0  0  0
M  END
> <s_m_entry_id>
6448

> <s_m_entry_name>
dock_pv.283

> <s_m_Source_Path>
/home/csk/Desktop/cluster/DUD-E-result/aldr

> <s_m_Source_File>
dock_pv.maegz

> <i_m_Source_File_Index>
283

> <chembl_id>
CHEMBL3979826

> <chembl_pref_name>
None

> <i_lp_mmshare_version>
53161

> <i_f3d_flags>
0

> <r_lp_tautomer_probability>
0.5

> <s_lp_Force_Field>
OPLS_2005

> <r_lp_Energy>
29.535722

> <b_lp_Chiralities_Consistent>
1

> <s_lp_Variant>
CHEMBL1900_lig629-1

> <s_i_glide_gridfile>
glide-grid_2hv5

> <i_i_glide_lignum>
753

> <i_i_glide_rotatable_bonds>
8

> <r_i_docking_score>
-8.59851101238859

> <r_i_glide_ligand_efficiency>
-0.37384830488646

> <r_i_glide_ligand_efficiency_sa>
-1.06317484862889

> <r_i_glide_ligand_efficiency_ln>
-2.07919792978279

> <r_i_glide_gscore>
-8.59851101238859

> <r_i_glide_lipo>
-2.68443248113183

> <r_i_glide_hbond>
-0.291061127413105

> <r_i_glide_metal>
0

> <r_i_glide_rewards>
-2.82276691577109

> <r_i_glide_evdw>
-38.3357353210449

> <r_i_glide_ecoul>
-13.2219705581665

> <r_i_glide_erotb>
1.10417364750945

> <r_i_glide_esite>
-0.00434178580479115

> <r_i_glide_emodel>
-63.9955201642038

> <r_i_glide_energy>
-51.5577058792114

> <r_i_glide_einternal>
12.3380584716797

> <i_i_glide_confnum>
3

> <i_i_glide_posenum>
283

> <r_i_glide_eff_state_penalty>
0

> <s_user_duplicate_titles>
CHEMBL1900_lig629

> <s_m_subgroup_title>
dock_pv

> <s_m_subgroupid>
dock_pv

> <b_m_subgroup_collapsed>
1

$$$$
CHEMBL1900_lig13
                    3D
 Schrodinger Suite 2021-1.
 37 39  0  0  1  0            999 V2000
   17.6228   -6.9464   13.8587 S   0  0  0  0  0  0
   15.7448   -9.0177   18.1323 N   0  0  0  0  0  0
   17.1847   -9.5706   14.9827 C   0  0  0  0  0  0
   16.4898   -8.4556   17.1755 C   0  0  0  0  0  0
   16.0188   -9.0782   15.8728 C   0  0  2  0  0  0
   15.0233  -10.0769   17.7267 C   0  0  0  0  0  0
   17.9352   -8.7121   14.1344 C   0  0  0  0  0  0
   15.1295  -10.0866   16.3954 N   0  0  0  0  0  0
   16.9289   -6.9234   12.1041 C   0  0  0  0  0  0
   18.9236   -6.2671   13.8593 O   0  0  0  0  0  0
   16.5469   -6.5150   14.7493 O   0  0  0  0  0  0
   18.9875   -9.2442   13.3812 C   0  0  0  0  0  0
   17.5005  -10.9423   14.9847 C   0  0  0  0  0  0
   17.3532   -7.5947   17.3268 O   0  0  0  0  0  0
   14.5445  -10.9525   18.4368 O   0  0  0  0  0  0
   18.5126  -11.4593   14.1811 C   0  0  0  0  0  0
   16.8340   -5.5911   11.3825 C   0  0  0  0  0  0
   19.2609  -10.6081   13.3810 C   0  0  0  0  0  0
   16.6658   -3.3244    9.7813 C   0  0  0  0  0  0
   18.8606  -13.1486   14.2087 Cl  0  0  0  0  0  0
   16.5452   -1.9339    8.7718 Cl  0  0  0  0  0  0
   17.9918   -4.9150   11.0032 C   0  0  0  0  0  0
   15.5855   -5.1137   10.9811 C   0  0  0  0  0  0
   15.5064   -3.9820   10.1808 C   0  0  0  0  0  0
   17.9139   -3.7804   10.1981 C   0  0  0  0  0  0
   15.8953   -8.8160   19.1090 H   0  0  0  0  0  0
   15.3592   -8.4152   15.3168 H   0  0  0  0  0  0
   14.4659  -10.5625   15.8022 H   0  0  0  0  0  0
   15.9222   -7.3156   12.2143 H   0  0  0  0  0  0
   17.5102   -7.6215   11.5047 H   0  0  0  0  0  0
   19.5885   -8.5972   12.7602 H   0  0  0  0  0  0
   16.9554  -11.6341   15.6095 H   0  0  0  0  0  0
   20.0633  -11.0067   12.7794 H   0  0  0  0  0  0
   18.9454   -5.2973   11.3182 H   0  0  0  0  0  0
   14.6759   -5.6262   11.2594 H   0  0  0  0  0  0
   14.5450   -3.6222    9.8619 H   0  0  0  0  0  0
   18.8118   -3.2632    9.8955 H   0  0  0  0  0  0
  1  7  1  0  0  0
  1  9  1  0  0  0
  1 10  2  0  0  0
  1 11  2  0  0  0
  2  4  1  0  0  0
  2  6  1  0  0  0
  2 26  1  0  0  0
  3  7  1  0  0  0
  3  5  1  0  0  0
  3 13  2  0  0  0
  4  5  1  0  0  0
  4 14  2  0  0  0
  5  8  1  0  0  0
  5 27  1  0  0  0
  6  8  1  0  0  0
  6 15  2  0  0  0
  7 12  2  0  0  0
  8 28  1  0  0  0
  9 17  1  0  0  0
  9 29  1  0  0  0
  9 30  1  0  0  0
 12 18  1  0  0  0
 12 31  1  0  0  0
 13 16  1  0  0  0
 13 32  1  0  0  0
 16 18  2  0  0  0
 16 20  1  0  0  0
 17 22  2  0  0  0
 17 23  1  0  0  0
 18 33  1  0  0  0
 19 24  1  0  0  0
 19 21  1  0  0  0
 19 25  2  0  0  0
 22 25  1  0  0  0
 22 34  1  0  0  0
 23 24  2  0  0  0
 23 35  1  0  0  0
 24 36  1  0  0  0
 25 37  1  0  0  0
M  END
> <s_m_entry_id>
6449

> <s_m_entry_name>
dock_pv.284

> <s_m_Source_Path>
/home/csk/Desktop/cluster/DUD-E-result/aldr

> <s_m_Source_File>
dock_pv.maegz

> <i_m_Source_File_Index>
284

> <chembl_id>
CHEMBL19649

> <chembl_pref_name>
None

> <i_lp_mmshare_version>
53161

> <i_f3d_flags>
0

> <r_lp_tautomer_probability>
0.999999999781369

> <s_lp_Force_Field>
OPLS_2005

> <r_lp_Energy>
23.377273

> <b_lp_Chiralities_Consistent>
1

> <s_lp_Variant>
CHEMBL1900_lig13-1

> <s_i_glide_gridfile>
glide-grid_2hv5

> <i_i_glide_lignum>
22

> <i_i_glide_rotatable_bonds>
4

> <r_i_docking_score>
-8.59339766152457

> <r_i_glide_ligand_efficiency>
-0.343735906460983

> <r_i_glide_ligand_efficiency_sa>
-1.00508988667417

> <r_i_glide_ligand_efficiency_ln>
-2.03689276912838

> <r_i_glide_gscore>
-8.59339766152457

> <r_i_glide_lipo>
-3.87953130902639

> <r_i_glide_hbond>
0

> <r_i_glide_metal>
0

> <r_i_glide_rewards>
-2.76575702882589

> <r_i_glide_evdw>
-45.9014892578125

> <r_i_glide_ecoul>
-0.964635372161865

> <r_i_glide_erotb>
0.491660445042628

> <r_i_glide_esite>
0

> <r_i_glide_emodel>
-60.8927905431523

> <r_i_glide_energy>
-46.8661246299744

> <r_i_glide_einternal>
4.62723255157471

> <i_i_glide_confnum>
3

> <i_i_glide_posenum>
128

> <r_i_glide_eff_state_penalty>
0

> <s_user_duplicate_titles>
CHEMBL1900_lig13

> <s_m_subgroup_title>
dock_pv

> <s_m_subgroupid>
dock_pv

> <b_m_subgroup_collapsed>
1

$$$$
CHEMBL1900_lig526
                    3D
 Schrodinger Suite 2021-1.
 45 47  0  0  1  0            999 V2000
   18.5448   -3.0456   10.9810 O   0  0  0  0  0  0
   17.7481   -4.2029   10.5767 S   0  0  0  0  0  0
   18.1622   -4.9143    9.3811 O   0  0  0  0  0  0
   14.5712  -11.6099   17.3390 C   0  0  0  0  0  0
   15.1696  -12.1002   16.1814 C   0  0  0  0  0  0
   16.1866  -11.3852   15.5445 C   0  0  0  0  0  0
   14.9588  -10.4013   17.9084 C   0  0  0  0  0  0
   15.9862   -9.6918   17.2716 C   0  0  0  0  0  0
   16.5981  -10.1512   16.0702 C   0  0  0  0  0  0
   17.5565   -9.1615   15.6597 C   0  0  0  0  0  0
   17.5568   -8.1931   16.6483 C   0  0  0  0  0  0
   16.6246   -8.5168   17.6146 N   0  0  0  0  0  0
   18.5876   -9.2308   14.2297 S   0  0  0  0  0  0
   18.2244   -7.7078   13.4193 C   0  0  0  0  0  0
   17.3449   -7.7492   12.3640 C   0  0  0  0  0  0
   17.0950   -6.6417   11.5679 C   0  0  0  0  0  0
   17.7645   -5.4597   11.8423 C   0  0  0  0  0  0
   18.5905   -5.3879   12.9612 C   0  0  0  0  0  0
   18.8806   -6.5205   13.7080 C   0  0  0  0  0  0
   16.3575   -7.7161   18.8077 C   0  0  0  0  0  0
   18.3496   -6.9151   16.7866 C   0  0  0  0  0  0
   14.7186  -13.4334   15.6207 C   0  0  0  0  0  0
   15.9388   -3.7374   10.3760 C   0  0  0  0  0  0
   15.7458   -6.3558   18.5029 C   0  0  0  0  0  0
   15.7450   -5.5716   19.6189 O   0  0  0  0  0  0
   15.3449   -6.0248   17.3859 O   0  0  0  0  0  0
   13.7804  -12.1779   17.8111 H   0  0  0  0  0  0
   16.6413  -11.7650   14.6408 H   0  0  0  0  0  0
   14.4953  -10.0490   18.8154 H   0  0  0  0  0  0
   16.9450   -8.7125   12.1331 H   0  0  0  0  0  0
   16.4819   -6.7358   10.6832 H   0  0  0  0  0  0
   19.1200   -4.4999   13.2203 H   0  0  0  0  0  0
   19.6665   -6.4650   14.4381 H   0  0  0  0  0  0
   15.7447   -8.2856   19.4987 H   0  0  0  0  0  0
   17.3046   -7.5594   19.3168 H   0  0  0  0  0  0
   19.3361   -6.9150   16.3454 H   0  0  0  0  0  0
   17.7944   -6.1137   16.3112 H   0  0  0  0  0  0
   18.5388   -6.6240   17.8174 H   0  0  0  0  0  0
   13.8511  -13.3146   14.9715 H   0  0  0  0  0  0
   14.4477  -14.1059   16.4320 H   0  0  0  0  0  0
   15.5207  -13.9124   15.0612 H   0  0  0  0  0  0
   15.8742   -2.7671    9.8868 H   0  0  0  0  0  0
   15.4517   -4.4942    9.7627 H   0  0  0  0  0  0
   15.4709   -3.7150   11.3557 H   0  0  0  0  0  0
   16.2251   -5.9694   20.3482 H   0  0  0  0  0  0
  1  2  2  0  0  0
  2  3  2  0  0  0
  2 17  1  0  0  0
  2 23  1  0  0  0
  4  7  1  0  0  0
  4  5  2  0  0  0
  4 27  1  0  0  0
  5  6  1  0  0  0
  5 22  1  0  0  0
  6  9  2  0  0  0
  6 28  1  0  0  0
  7  8  2  0  0  0
  7 29  1  0  0  0
  8  9  1  0  0  0
  8 12  1  0  0  0
  9 10  1  0  0  0
 10 13  1  0  0  0
 10 11  2  0  0  0
 11 21  1  0  0  0
 11 12  1  0  0  0
 12 20  1  0  0  0
 13 14  1  0  0  0
 14 15  2  0  0  0
 14 19  1  0  0  0
 15 16  1  0  0  0
 15 30  1  0  0  0
 16 17  2  0  0  0
 16 31  1  0  0  0
 17 18  1  0  0  0
 18 19  2  0  0  0
 18 32  1  0  0  0
 19 33  1  0  0  0
 20 24  1  0  0  0
 20 34  1  0  0  0
 20 35  1  0  0  0
 21 36  1  0  0  0
 21 37  1  0  0  0
 21 38  1  0  0  0
 22 39  1  0  0  0
 22 40  1  0  0  0
 22 41  1  0  0  0
 23 42  1  0  0  0
 23 43  1  0  0  0
 23 44  1  0  0  0
 24 25  1  0  0  0
 24 26  2  0  0  0
 25 45  1  0  0  0
M  END
> <s_m_entry_id>
6450

> <s_m_entry_name>
dock_pv.285

> <s_m_Source_Path>
/home/csk/Desktop/cluster/DUD-E-result/aldr

> <s_m_Source_File>
dock_pv.maegz

> <i_m_Source_File_Index>
285

> <chembl_id>
CHEMBL1917443

> <chembl_pref_name>
None

> <i_lp_mmshare_version>
53161

> <i_f3d_flags>
0

> <r_lp_tautomer_probability>
1

> <s_lp_Force_Field>
OPLS_2005

> <r_lp_Energy>
8.711553

> <b_lp_Chiralities_Consistent>
1

> <s_lp_Variant>
CHEMBL1900_lig526-1

> <s_i_glide_gridfile>
glide-grid_2hv5

> <i_i_glide_lignum>
649

> <i_i_glide_rotatable_bonds>
6

> <r_i_docking_score>
-8.58776861048838

> <r_i_glide_ligand_efficiency>
-0.330298792711092

> <r_i_glide_ligand_efficiency_sa>
-0.978508873743618

> <r_i_glide_ligand_efficiency_ln>
-2.01680927940602

> <r_i_glide_gscore>
-8.58776861048838

> <r_i_glide_lipo>
-4.1749317521279

> <r_i_glide_hbond>
-0.109601272702973

> <r_i_glide_metal>
0

> <r_i_glide_rewards>
-2.45276980445868

> <r_i_glide_evdw>
-22.8741474151611

> <r_i_glide_ecoul>
-8.13856220245361

> <r_i_glide_erotb>
0.51402591992727

> <r_i_glide_esite>
0

> <r_i_glide_emodel>
-31.9733353957527

> <r_i_glide_energy>
-31.0127096176147

> <r_i_glide_einternal>
7.32910633087158

> <i_i_glide_confnum>
22

> <i_i_glide_posenum>
293

> <r_i_glide_eff_state_penalty>
0

> <s_user_duplicate_titles>
CHEMBL1900_lig526

> <s_m_subgroup_title>
dock_pv

> <s_m_subgroupid>
dock_pv

> <b_m_subgroup_collapsed>
1

$$$$
CHEMBL1900_lig20
                    3D
 Schrodinger Suite 2021-1.
 39 41  0  0  1  0            999 V2000
   15.7201   -7.7590   16.3604 S   0  0  0  0  0  0
   16.8743   -5.4451   11.5690 N   0  0  0  0  0  0
   17.5841   -7.9801   14.0941 C   0  0  0  0  0  0
   16.4115   -6.3860   12.3681 C   0  0  0  0  0  0
   17.3871   -6.5300   13.5299 C   0  0  2  0  0  0
   18.1450   -5.1476   11.7810 C   0  0  0  0  0  0
   16.9359   -8.5293   15.2553 C   0  0  0  0  0  0
   18.5099   -5.8556   12.8804 N   0  0  0  0  0  0
   16.5329   -7.3335   17.8655 N   0  0  3  0  0  0
   14.7340   -8.7889   16.7063 O   0  0  0  0  0  0
   15.2666   -6.5150   15.7640 O   0  0  0  0  0  0
   17.1594   -9.8643   15.6129 C   0  0  0  0  0  0
   18.4782   -8.8274   13.4140 C   0  0  0  0  0  0
   15.3450   -6.9150   12.1810 O   0  0  0  0  0  0
   18.8061   -4.4854   10.9882 O   0  0  0  0  0  0
   18.6609  -10.1622   13.7815 C   0  0  0  0  0  0
   17.3431   -6.1047   17.9723 C   0  0  0  0  0  0
   17.9865  -10.6820   14.8697 C   0  0  0  0  0  0
   19.7449  -11.2005   12.9426 Cl  0  0  0  0  0  0
   16.7547   -5.0594   18.9213 C   0  0  0  0  0  0
   16.3550   -3.8122   18.4283 C   0  0  0  0  0  0
   16.6492   -5.3151   20.2886 C   0  0  0  0  0  0
   16.1815   -4.3288   21.1547 C   0  0  0  0  0  0
   15.8208   -2.8517   19.2842 C   0  0  0  0  0  0
   15.7452   -3.1096   20.6480 C   0  0  0  0  0  0
   16.3838   -5.1649   10.7351 H   0  0  0  0  0  0
   17.0772   -5.9009   14.3504 H   0  0  0  0  0  0
   19.3287   -5.6194   13.4213 H   0  0  0  0  0  0
   16.2550   -7.8211   18.7208 H   0  0  0  0  0  0
   16.6683  -10.2990   16.4722 H   0  0  0  0  0  0
   19.0402   -8.4549   12.5810 H   0  0  0  0  0  0
   17.4058   -5.6657   16.9810 H   0  0  0  0  0  0
   18.3656   -6.3732   18.2390 H   0  0  0  0  0  0
   18.1281  -11.7134   15.1584 H   0  0  0  0  0  0
   16.4403   -3.5834   17.3810 H   0  0  0  0  0  0
   16.9450   -6.2728   20.6840 H   0  0  0  0  0  0
   16.1245   -4.5218   22.2165 H   0  0  0  0  0  0
   15.4949   -1.8948   18.9047 H   0  0  0  0  0  0
   15.3589   -2.3553   21.3194 H   0  0  0  0  0  0
  1  7  1  0  0  0
  1  9  1  0  0  0
  1 10  2  0  0  0
  1 11  2  0  0  0
  2  4  1  0  0  0
  2  6  1  0  0  0
  2 26  1  0  0  0
  3  7  1  0  0  0
  3  5  1  0  0  0
  3 13  2  0  0  0
  4  5  1  0  0  0
  4 14  2  0  0  0
  5  8  1  0  0  0
  5 27  1  0  0  0
  6  8  1  0  0  0
  6 15  2  0  0  0
  7 12  2  0  0  0
  8 28  1  0  0  0
  9 17  1  0  0  0
  9 29  1  0  0  0
 12 18  1  0  0  0
 12 30  1  0  0  0
 13 16  1  0  0  0
 13 31  1  0  0  0
 16 18  2  0  0  0
 16 19  1  0  0  0
 17 20  1  0  0  0
 17 32  1  0  0  0
 17 33  1  0  0  0
 18 34  1  0  0  0
 20 21  2  0  0  0
 20 22  1  0  0  0
 21 24  1  0  0  0
 21 35  1  0  0  0
 22 23  2  0  0  0
 22 36  1  0  0  0
 23 25  1  0  0  0
 23 37  1  0  0  0
 24 25  2  0  0  0
 24 38  1  0  0  0
 25 39  1  0  0  0
M  END
> <s_m_entry_id>
6451

> <s_m_entry_name>
dock_pv.286

> <s_m_Source_Path>
/home/csk/Desktop/cluster/DUD-E-result/aldr

> <s_m_Source_File>
dock_pv.maegz

> <i_m_Source_File_Index>
286

> <chembl_id>
CHEMBL19187

> <chembl_pref_name>
None

> <i_lp_mmshare_version>
53161

> <i_f3d_flags>
0

> <r_lp_tautomer_probability>
0.999999999781369

> <s_lp_Force_Field>
OPLS_2005

> <r_lp_Energy>
25.140543

> <b_lp_Chiralities_Consistent>
1

> <s_lp_Variant>
CHEMBL1900_lig20-1

> <s_i_glide_gridfile>
glide-grid_2hv5

> <i_i_glide_lignum>
36

> <i_i_glide_rotatable_bonds>
5

> <r_i_docking_score>
-8.56197276502005

> <r_i_glide_ligand_efficiency>
-0.342478910600802

> <r_i_glide_ligand_efficiency_sa>
-1.00141440848609

> <r_i_glide_ligand_efficiency_ln>
-2.02944412692865

> <r_i_glide_gscore>
-8.56197276502005

> <r_i_glide_lipo>
-3.38915660889911

> <r_i_glide_hbond>
0

> <r_i_glide_metal>
0

> <r_i_glide_rewards>
-2.94677271425519

> <r_i_glide_evdw>
-29.5511341094971

> <r_i_glide_ecoul>
-8.38082122802734

> <r_i_glide_erotb>
0.537740120356587

> <r_i_glide_esite>
-0.0291036725433824

> <r_i_glide_emodel>
-49.5543655308407

> <r_i_glide_energy>
-37.9319553375244

> <r_i_glide_einternal>
7.67757415771484

> <i_i_glide_confnum>
9

> <i_i_glide_posenum>
352

> <r_i_glide_eff_state_penalty>
0

> <s_user_duplicate_titles>
CHEMBL1900_lig20,22178

> <s_m_subgroup_title>
dock_pv

> <s_m_subgroupid>
dock_pv

> <b_m_subgroup_collapsed>
1

$$$$
CHEMBL1900_lig571
                    3D
 Schrodinger Suite 2021-1.
 46 49  0  0  1  0            999 V2000
   17.9645  -13.6196   16.7924 C   0  0  0  0  0  0
   17.0382  -13.2179   17.7417 C   0  0  0  0  0  0
   16.4690  -11.9425   17.7126 C   0  0  0  0  0  0
   18.3564  -12.7923   15.7583 C   0  0  0  0  0  0
   17.8812  -11.4716   15.7259 C   0  0  0  0  0  0
   16.9610  -11.0471   16.7494 C   0  0  0  0  0  0
   16.7616   -9.6890   16.5625 N   0  0  0  0  0  0
   18.1375  -10.3554   14.8778 C   0  0  0  0  0  0
   17.3909   -9.2929   15.3702 C   0  0  0  0  0  0
   17.3185   -8.0301   14.6289 C   0  0  0  0  0  0
   18.2838   -7.8222   13.6458 N   0  0  0  0  0  0
   19.4502   -8.7190   13.5062 C   0  0  0  0  0  0
   19.0116  -10.2076   13.6286 C   0  0  0  0  0  0
   16.1237   -6.9530   14.9110 S   0  0  0  0  0  0
   15.8979   -8.8914   17.5035 C   0  0  0  0  0  0
   16.4469   -7.6139   18.1812 C   0  0  0  0  0  0
   15.7481   -6.9026   18.8888 O   0  0  0  0  0  0
   17.7482   -7.3132   17.8862 O   0  0  0  0  0  0
   19.2395  -13.2467   14.8348 F   0  0  0  0  0  0
   16.6925  -14.0596   18.7446 F   0  0  0  0  0  0
   18.3247   -6.5394   12.8701 C   0  0  0  0  0  0
   17.3539   -6.5142   11.6550 C   0  0  0  0  0  0
   17.2381   -5.1701   10.9229 C   0  0  0  0  0  0
   16.0019   -4.7429   10.4321 C   0  0  0  0  0  0
   15.8908   -3.5313    9.7518 C   0  0  0  0  0  0
   17.0157   -2.7346    9.5621 C   0  0  0  0  0  0
   18.2538   -3.1397   10.0545 C   0  0  0  0  0  0
   18.3601   -4.3592   10.7208 C   0  0  0  0  0  0
   18.4109  -14.5969   16.8697 H   0  0  0  0  0  0
   15.7042  -11.7029   18.4403 H   0  0  0  0  0  0
   19.9837   -8.5143   12.5847 H   0  0  0  0  0  0
   20.1514   -8.4607   14.2953 H   0  0  0  0  0  0
   19.8947  -10.8596   13.6593 H   0  0  0  0  0  0
   18.4663  -10.5228   12.7376 H   0  0  0  0  0  0
   15.5533   -9.5304   18.3259 H   0  0  0  0  0  0
   14.9744   -8.6497   16.9758 H   0  0  0  0  0  0
   18.1113   -7.9140   17.2267 H   0  0  0  0  0  0
   19.3446   -6.3716   12.5548 H   0  0  0  0  0  0
   18.1023   -5.7112   13.5336 H   0  0  0  0  0  0
   16.3481   -6.7795   11.9887 H   0  0  0  0  0  0
   17.6353   -7.2733   10.9299 H   0  0  0  0  0  0
   15.1153   -5.3449   10.5826 H   0  0  0  0  0  0
   14.9449   -3.2004    9.3609 H   0  0  0  0  0  0
   16.9237   -1.7949    9.0252 H   0  0  0  0  0  0
   19.1208   -2.5056    9.9152 H   0  0  0  0  0  0
   19.3238   -4.6814   11.0925 H   0  0  0  0  0  0
  1  2  1  0  0  0
  1  4  2  0  0  0
  1 29  1  0  0  0
  2 20  1  0  0  0
  2  3  2  0  0  0
  3  6  1  0  0  0
  3 30  1  0  0  0
  4 19  1  0  0  0
  4  5  1  0  0  0
  5  8  1  0  0  0
  5  6  2  0  0  0
  6  7  1  0  0  0
  7 15  1  0  0  0
  7  9  1  0  0  0
  8  9  2  0  0  0
  8 13  1  0  0  0
  9 10  1  0  0  0
 10 14  2  0  0  0
 10 11  1  0  0  0
 11 21  1  0  0  0
 11 12  1  0  0  0
 12 13  1  0  0  0
 12 31  1  0  0  0
 12 32  1  0  0  0
 13 33  1  0  0  0
 13 34  1  0  0  0
 15 16  1  0  0  0
 15 35  1  0  0  0
 15 36  1  0  0  0
 16 17  2  0  0  0
 16 18  1  0  0  0
 18 37  1  0  0  0
 21 22  1  0  0  0
 21 38  1  0  0  0
 21 39  1  0  0  0
 22 23  1  0  0  0
 22 40  1  0  0  0
 22 41  1  0  0  0
 23 24  2  0  0  0
 23 28  1  0  0  0
 24 25  1  0  0  0
 24 42  1  0  0  0
 25 26  2  0  0  0
 25 43  1  0  0  0
 26 27  1  0  0  0
 26 44  1  0  0  0
 27 28  2  0  0  0
 27 45  1  0  0  0
 28 46  1  0  0  0
M  END
> <s_m_entry_id>
6452

> <s_m_entry_name>
dock_pv.287

> <s_m_Source_Path>
/home/csk/Desktop/cluster/DUD-E-result/aldr

> <s_m_Source_File>
dock_pv.maegz

> <i_m_Source_File_Index>
287

> <chembl_id>
CHEMBL1944860

> <chembl_pref_name>
None

> <i_lp_mmshare_version>
53161

> <i_f3d_flags>
0

> <r_lp_tautomer_probability>
1

> <s_lp_Force_Field>
OPLS_2005

> <r_lp_Energy>
39.97629

> <b_lp_Chiralities_Consistent>
1

> <s_lp_Variant>
CHEMBL1900_lig571-1

> <s_i_glide_gridfile>
glide-grid_2hv5

> <i_i_glide_lignum>
694

> <i_i_glide_rotatable_bonds>
6

> <r_i_docking_score>
-8.55875455464047

> <r_i_glide_ligand_efficiency>
-0.305669805522874

> <r_i_glide_ligand_efficiency_sa>
-0.92819355945516

> <r_i_glide_ligand_efficiency_ln>
-1.97561184716423

> <r_i_glide_gscore>
-8.55875455464047

> <r_i_glide_lipo>
-3.93428022176493

> <r_i_glide_hbond>
0

> <r_i_glide_metal>
0

> <r_i_glide_rewards>
-3.33232111510901

> <r_i_glide_evdw>
-34.1628723144531

> <r_i_glide_ecoul>
-1.30194294452667

> <r_i_glide_erotb>
0.611281839635131

> <r_i_glide_esite>
0

> <r_i_glide_emodel>
-32.8428281468804

> <r_i_glide_energy>
-35.4648152589798

> <r_i_glide_einternal>
6.95919132232666

> <i_i_glide_confnum>
2

> <i_i_glide_posenum>
240

> <r_i_glide_eff_state_penalty>
0

> <s_user_duplicate_titles>
CHEMBL1900_lig571

> <s_m_subgroup_title>
dock_pv

> <s_m_subgroupid>
dock_pv

> <b_m_subgroup_collapsed>
1

$$$$
CHEMBL1900_lig335
                    3D
 Schrodinger Suite 2021-1.
 43 45  0  0  1  0            999 V2000
   17.2387   -8.4050   15.9603 C   0  0  2  0  0  0
   17.7315   -9.7158   15.3297 C   0  0  0  0  0  0
   18.1447   -9.7472   13.9799 C   0  0  0  0  0  0
   15.6895   -8.4741   16.1236 C   0  0  0  0  0  0
   18.2106   -8.6230   13.1746 O   0  0  0  0  0  0
   17.7411   -7.2282   15.0934 C   0  0  0  0  0  0
   15.0117   -7.2956   16.8357 C   0  0  0  0  0  0
   17.4492   -7.4925   13.6073 C   0  0  1  0  0  0
   17.7436  -10.9255   16.0411 C   0  0  0  0  0  0
   18.5556  -10.9380   13.3808 C   0  0  0  0  0  0
   15.2165   -6.1151   16.5811 O   0  0  0  0  0  0
   17.7450   -8.2170   17.2620 O   0  0  0  0  0  0
   18.1435  -12.1187   15.4415 C   0  0  0  0  0  0
   14.1450   -7.7187   17.7795 O   0  0  0  0  0  0
   17.7597   -6.2724   12.7241 C   0  0  0  0  0  0
   18.5458  -12.1252   14.1089 C   0  0  0  0  0  0
   18.1491  -13.2649   16.1573 F   0  0  0  0  0  0
   16.9781   -6.2757   11.3929 C   0  0  0  0  0  0
   16.9992   -4.9413   10.6584 C   0  0  0  0  0  0
   18.1812   -4.2068   10.5438 C   0  0  0  0  0  0
   15.8215   -4.4473   10.0957 C   0  0  0  0  0  0
   15.8401   -3.2341    9.4175 C   0  0  0  0  0  0
   18.1943   -2.9923    9.8678 C   0  0  0  0  0  0
   17.0195   -2.5149    9.3027 C   0  0  0  0  0  0
   16.3869   -7.7143   13.4998 H   0  0  0  0  0  0
   15.2002   -8.5870   15.1580 H   0  0  0  0  0  0
   15.4369   -9.3874   16.6655 H   0  0  0  0  0  0
   18.8171   -7.0851   15.2146 H   0  0  0  0  0  0
   17.3101   -6.2843   15.4057 H   0  0  0  0  0  0
   17.4296  -10.9393   17.0740 H   0  0  0  0  0  0
   18.8849  -10.9436   12.3528 H   0  0  0  0  0  0
   17.4785   -7.3465   17.5666 H   0  0  0  0  0  0
   13.6246   -6.9918   18.1358 H   0  0  0  0  0  0
   17.4896   -5.3652   13.2633 H   0  0  0  0  0  0
   18.8352   -6.2087   12.5580 H   0  0  0  0  0  0
   18.8601  -13.0486   13.6454 H   0  0  0  0  0  0
   17.3449   -7.0608   10.7318 H   0  0  0  0  0  0
   15.9353   -6.5181   11.6040 H   0  0  0  0  0  0
   19.0925   -4.5738   10.9813 H   0  0  0  0  0  0
   14.8920   -4.9912   10.1810 H   0  0  0  0  0  0
   14.9450   -2.8362    8.9813 H   0  0  0  0  0  0
   19.1076   -2.4240    9.7831 H   0  0  0  0  0  0
   17.0113   -1.5821    8.7634 H   0  0  0  0  0  0
  1  2  1  0  0  0
  1  4  1  0  0  0
  1  6  1  0  0  0
  1 12  1  0  0  0
  2  3  2  0  0  0
  2  9  1  0  0  0
  3 10  1  0  0  0
  3  5  1  0  0  0
  4  7  1  0  0  0
  4 26  1  0  0  0
  4 27  1  0  0  0
  5  8  1  0  0  0
  6  8  1  0  0  0
  6 28  1  0  0  0
  6 29  1  0  0  0
  7 11  2  0  0  0
  7 14  1  0  0  0
  8 15  1  0  0  0
  8 25  1  0  0  0
  9 13  2  0  0  0
  9 30  1  0  0  0
 10 16  2  0  0  0
 10 31  1  0  0  0
 12 32  1  0  0  0
 13 16  1  0  0  0
 13 17  1  0  0  0
 14 33  1  0  0  0
 15 18  1  0  0  0
 15 34  1  0  0  0
 15 35  1  0  0  0
 16 36  1  0  0  0
 18 19  1  0  0  0
 18 37  1  0  0  0
 18 38  1  0  0  0
 19 20  2  0  0  0
 19 21  1  0  0  0
 20 23  1  0  0  0
 20 39  1  0  0  0
 21 22  2  0  0  0
 21 40  1  0  0  0
 22 24  1  0  0  0
 22 41  1  0  0  0
 23 24  2  0  0  0
 23 42  1  0  0  0
 24 43  1  0  0  0
M  END
> <s_m_entry_id>
6453

> <s_m_entry_name>
dock_pv.288

> <s_m_Source_Path>
/home/csk/Desktop/cluster/DUD-E-result/aldr

> <s_m_Source_File>
dock_pv.maegz

> <i_m_Source_File_Index>
288

> <chembl_id>
CHEMBL306687

> <chembl_pref_name>
None

> <i_lp_mmshare_version>
53161

> <i_f3d_flags>
0

> <r_lp_tautomer_probability>
1

> <s_lp_Force_Field>
OPLS_2005

> <r_lp_Energy>
19.194934

> <b_lp_Chiralities_Consistent>
1

> <s_lp_Variant>
CHEMBL1900_lig335-1

> <s_i_glide_gridfile>
glide-grid_2hv5

> <i_i_glide_lignum>
456

> <i_i_glide_rotatable_bonds>
7

> <r_i_docking_score>
-8.55492719094655

> <r_i_glide_ligand_efficiency>
-0.356455299622773

> <r_i_glide_ligand_efficiency_sa>
-1.02819500434027

> <r_i_glide_ligand_efficiency_ln>
-2.04758663682275

> <r_i_glide_gscore>
-8.55492719094655

> <r_i_glide_lipo>
-4.30771944892412

> <r_i_glide_hbond>
-0.299517279713701

> <r_i_glide_metal>
0

> <r_i_glide_rewards>
-2.43393057101211

> <r_i_glide_evdw>
-34.4703521728516

> <r_i_glide_ecoul>
-4.3460636138916

> <r_i_glide_erotb>
0.861667259429691

> <r_i_glide_esite>
0

> <r_i_glide_emodel>
-56.2024277460509

> <r_i_glide_energy>
-38.8164157867432

> <r_i_glide_einternal>
3.95549941062927

> <i_i_glide_confnum>
246

> <i_i_glide_posenum>
154

> <r_i_glide_eff_state_penalty>
0

> <s_user_duplicate_titles>
CHEMBL1900_lig335

> <s_m_subgroup_title>
dock_pv

> <s_m_subgroupid>
dock_pv

> <b_m_subgroup_collapsed>
1

$$$$
CHEMBL1900_lig57
                    3D
 Schrodinger Suite 2021-1.
 36 37  0  0  1  0            999 V2000
   17.9683   -7.5660   14.8324 N   0  0  0  0  0  0
   17.2821   -6.9150   15.8482 N   0  0  0  0  0  0
   17.9890   -8.9307   14.6316 C   0  0  0  0  0  0
   16.4651   -7.5402   16.6147 C   0  0  0  0  0  0
   17.1285   -9.6523   15.5885 C   0  0  0  0  0  0
   16.3701   -8.9900   16.5224 C   0  0  0  0  0  0
   15.6485   -6.6406   17.5499 C   0  0  0  0  0  0
   18.6086   -6.6836   13.8307 C   0  0  0  0  0  0
   17.7266   -6.1150   12.6987 C   0  0  0  0  0  0
   16.3617   -6.3776   12.5470 C   0  0  0  0  0  0
   16.3705   -6.1320   18.8102 C   0  0  0  0  0  0
   15.6284   -5.8073   11.4972 C   0  0  0  0  0  0
   18.6376   -9.4858   13.7387 O   0  0  0  0  0  0
   18.3161   -5.2545   11.7810 C   0  0  0  0  0  0
   15.7450   -5.7150   19.7810 O   0  0  0  0  0  0
   16.2657   -4.9603   10.5871 C   0  0  0  0  0  0
   15.7450   -7.1694   13.4348 F   0  0  0  0  0  0
   17.0598  -11.1678   15.3599 C   0  0  0  0  0  0
   17.7294   -6.1150   18.7164 O   0  0  0  0  0  0
   17.6141   -4.6829   10.7317 C   0  0  0  0  0  0
   15.4498   -9.7252   17.5006 C   0  0  0  0  0  0
   15.3450   -4.1510    9.1403 Br  0  0  0  0  0  0
   14.7288   -7.1390   17.8537 H   0  0  0  0  0  0
   15.3206   -5.7562   17.0047 H   0  0  0  0  0  0
   19.0308   -5.8300   14.3655 H   0  0  0  0  0  0
   19.4770   -7.1686   13.3782 H   0  0  0  0  0  0
   14.5731   -6.0147   11.3987 H   0  0  0  0  0  0
   19.3450   -5.0165   11.8821 H   0  0  0  0  0  0
   16.1361  -11.6143   15.7222 H   0  0  0  0  0  0
   17.0993  -11.4244   14.2994 H   0  0  0  0  0  0
   17.8975  -11.6607   15.8537 H   0  0  0  0  0  0
   18.0280   -6.3723   17.8389 H   0  0  0  0  0  0
   18.1114   -4.0216   10.0377 H   0  0  0  0  0  0
   15.6927  -10.7788   17.6222 H   0  0  0  0  0  0
   15.5200   -9.2984   18.5026 H   0  0  0  0  0  0
   14.4117   -9.6506   17.1735 H   0  0  0  0  0  0
  1  2  1  0  0  0
  1  3  1  0  0  0
  1  8  1  0  0  0
  2  4  2  0  0  0
  3  5  1  0  0  0
  3 13  2  0  0  0
  4  7  1  0  0  0
  4  6  1  0  0  0
  5  6  2  0  0  0
  5 18  1  0  0  0
  6 21  1  0  0  0
  7 11  1  0  0  0
  7 23  1  0  0  0
  7 24  1  0  0  0
  8  9  1  0  0  0
  8 25  1  0  0  0
  8 26  1  0  0  0
  9 10  1  0  0  0
  9 14  2  0  0  0
 10 12  2  0  0  0
 10 17  1  0  0  0
 11 15  2  0  0  0
 11 19  1  0  0  0
 12 16  1  0  0  0
 12 27  1  0  0  0
 14 20  1  0  0  0
 14 28  1  0  0  0
 16 20  2  0  0  0
 16 22  1  0  0  0
 18 29  1  0  0  0
 18 30  1  0  0  0
 18 31  1  0  0  0
 19 32  1  0  0  0
 20 33  1  0  0  0
 21 34  1  0  0  0
 21 35  1  0  0  0
 21 36  1  0  0  0
M  END
> <s_m_entry_id>
6454

> <s_m_entry_name>
dock_pv.289

> <s_m_Source_Path>
/home/csk/Desktop/cluster/DUD-E-result/aldr

> <s_m_Source_File>
dock_pv.maegz

> <i_m_Source_File_Index>
289

> <chembl_id>
CHEMBL68586

> <chembl_pref_name>
None

> <i_lp_mmshare_version>
53161

> <i_f3d_flags>
0

> <r_lp_tautomer_probability>
1

> <s_lp_Force_Field>
OPLS_2005

> <r_lp_Energy>
26.562261

> <b_lp_Chiralities_Consistent>
1

> <s_lp_Variant>
CHEMBL1900_lig57-1

> <s_i_glide_gridfile>
glide-grid_2hv5

> <i_i_glide_lignum>
92

> <i_i_glide_rotatable_bonds>
5

> <r_i_docking_score>
-8.5475289970083

> <r_i_glide_ligand_efficiency>
-0.388524045318559

> <r_i_glide_ligand_efficiency_sa>
-1.08865965476624

> <r_i_glide_ligand_efficiency_ln>
-2.08932786556436

> <r_i_glide_gscore>
-8.5475289970083

> <r_i_glide_lipo>
-3.99382787168871

> <r_i_glide_hbond>
-0.32

> <r_i_glide_metal>
0

> <r_i_glide_rewards>
-2.67239645439772

> <r_i_glide_evdw>
-37.207160949707

> <r_i_glide_ecoul>
-1.77808129787445

> <r_i_glide_erotb>
0.565765571244647

> <r_i_glide_esite>
0

> <r_i_glide_emodel>
-54.4761345361779

> <r_i_glide_energy>
-38.9852422475815

> <r_i_glide_einternal>
6.64362525939941

> <i_i_glide_confnum>
8

> <i_i_glide_posenum>
165

> <r_i_glide_eff_state_penalty>
0

> <s_user_duplicate_titles>
CHEMBL1900_lig57,108100

> <s_m_subgroup_title>
dock_pv

> <s_m_subgroupid>
dock_pv

> <b_m_subgroup_collapsed>
1

$$$$
CHEMBL1900_lig546
                    3D
 Schrodinger Suite 2021-1.
 36 37  0  0  1  0            999 V2000
   16.8831   -4.0551    9.9913 C   0  0  0  0  0  0
   15.6127   -4.5190   10.3146 C   0  0  0  0  0  0
   15.4553   -5.3994   11.3816 C   0  0  0  0  0  0
   16.5619   -5.7951   12.1447 C   0  0  0  0  0  0
   17.8389   -5.3595   11.7785 C   0  0  0  0  0  0
   17.9987   -4.4887   10.7001 C   0  0  0  0  0  0
   16.3381   -6.6002   13.3629 C   0  0  0  0  0  0
   17.2360   -7.3629   14.0250 C   0  0  0  0  0  0
   16.9406   -8.0793   15.2679 C   0  0  0  0  0  0
   15.8169   -7.6459   15.9125 O   0  0  0  0  0  0
   17.6701   -8.9821   15.6787 O   0  0  0  0  0  0
   15.3938   -8.1899   17.1664 C   0  0  0  0  0  0
   16.2834   -7.8295   18.3878 C   0  0  0  0  0  0
   16.3077   -6.3613   18.8241 C   0  0  0  0  0  0
   16.4638   -5.3466   17.8842 C   0  0  0  0  0  0
   16.5448   -4.0133   18.2769 C   0  0  0  0  0  0
   16.4880   -3.6946   19.6301 C   0  0  0  0  0  0
   16.3513   -4.6969   20.5842 C   0  0  0  0  0  0
   16.2477   -6.0277   20.1798 C   0  0  0  0  0  0
   17.0311   -3.1455    8.9809 O   0  0  0  0  0  0
   14.7450   -4.1875    9.7642 H   0  0  0  0  0  0
   14.4596   -5.7234   11.6511 H   0  0  0  0  0  0
   18.7073   -5.6491   12.3514 H   0  0  0  0  0  0
   18.9748   -4.1185   10.4377 H   0  0  0  0  0  0
   15.3448   -6.5147   13.7702 H   0  0  0  0  0  0
   18.2448   -7.4824   13.6561 H   0  0  0  0  0  0
   14.3740   -7.8501   17.3545 H   0  0  0  0  0  0
   15.3364   -9.2745   17.0676 H   0  0  0  0  0  0
   15.9357   -8.4332   19.2255 H   0  0  0  0  0  0
   17.3112   -8.1403   18.2010 H   0  0  0  0  0  0
   16.5437   -5.6030   16.8470 H   0  0  0  0  0  0
   16.6743   -3.2367   17.5385 H   0  0  0  0  0  0
   16.5681   -2.6623   19.9420 H   0  0  0  0  0  0
   16.3176   -4.4451   21.6348 H   0  0  0  0  0  0
   16.1442   -6.8026   20.9243 H   0  0  0  0  0  0
   16.1825   -2.8943    8.6067 H   0  0  0  0  0  0
  1  6  1  0  0  0
  1  2  2  0  0  0
  1 20  1  0  0  0
  2  3  1  0  0  0
  2 21  1  0  0  0
  3  4  2  0  0  0
  3 22  1  0  0  0
  4  7  1  0  0  0
  4  5  1  0  0  0
  5  6  2  0  0  0
  5 23  1  0  0  0
  6 24  1  0  0  0
  7  8  2  0  0  0
  7 25  1  0  0  0
  8  9  1  0  0  0
  8 26  1  0  0  0
  9 10  1  0  0  0
  9 11  2  0  0  0
 10 12  1  0  0  0
 12 13  1  0  0  0
 12 27  1  0  0  0
 12 28  1  0  0  0
 13 14  1  0  0  0
 13 29  1  0  0  0
 13 30  1  0  0  0
 14 15  2  0  0  0
 14 19  1  0  0  0
 15 16  1  0  0  0
 15 31  1  0  0  0
 16 17  2  0  0  0
 16 32  1  0  0  0
 17 18  1  0  0  0
 17 33  1  0  0  0
 18 19  2  0  0  0
 18 34  1  0  0  0
 19 35  1  0  0  0
 20 36  1  0  0  0
M  END
> <s_m_entry_id>
6455

> <s_m_entry_name>
dock_pv.290

> <s_m_Source_Path>
/home/csk/Desktop/cluster/DUD-E-result/aldr

> <s_m_Source_File>
dock_pv.maegz

> <i_m_Source_File_Index>
290

> <chembl_id>
CHEMBL1940390

> <chembl_pref_name>
None

> <i_lp_mmshare_version>
53161

> <i_f3d_flags>
0

> <r_lp_tautomer_probability>
1

> <s_lp_Force_Field>
OPLS_2005

> <r_lp_Energy>
12.001336

> <b_lp_Chiralities_Consistent>
1

> <s_lp_Variant>
CHEMBL1900_lig546-1

> <s_i_glide_gridfile>
glide-grid_2hv5

> <i_i_glide_lignum>
669

> <i_i_glide_rotatable_bonds>
7

> <r_i_docking_score>
-8.53780851034098

> <r_i_glide_ligand_efficiency>
-0.426890425517049

> <r_i_glide_ligand_efficiency_sa>
-1.15875889022206

> <r_i_glide_ligand_efficiency_ln>
-2.13673187436731

> <r_i_glide_gscore>
-8.53780851034098

> <r_i_glide_lipo>
-4.65516695376708

> <r_i_glide_hbond>
0

> <r_i_glide_metal>
0

> <r_i_glide_rewards>
-2.80369019372306

> <r_i_glide_evdw>
-38.5469741821289

> <r_i_glide_ecoul>
-2.6082489490509

> <r_i_glide_erotb>
1.23963468861325

> <r_i_glide_esite>
0

> <r_i_glide_emodel>
-59.0681701887482

> <r_i_glide_energy>
-41.1552231311798

> <r_i_glide_einternal>
2.82191038131714

> <i_i_glide_confnum>
9

> <i_i_glide_posenum>
139

> <r_i_glide_eff_state_penalty>
0

> <s_user_duplicate_titles>
CHEMBL1900_lig546

> <s_m_subgroup_title>
dock_pv

> <s_m_subgroupid>
dock_pv

> <b_m_subgroup_collapsed>
1

$$$$
CHEMBL1900_lig533
                    3D
 Schrodinger Suite 2021-1.
 43 44  0  0  1  0            999 V2000
   16.7117   -7.8912   14.4711 O   0  0  0  0  0  0
   17.3449  -10.7583   17.3811 O   0  0  0  0  0  0
   15.3451   -6.5170   16.5100 O   0  0  0  0  0  0
   16.1449   -8.1474   18.5816 O   0  0  0  0  0  0
   16.4997  -13.2564   16.8565 O   0  0  0  0  0  0
   14.4488  -12.5424   16.1542 O   0  0  0  0  0  0
   18.8546   -8.6645   14.1874 O   0  0  0  0  0  0
   18.9944   -2.5085   10.1809 O   0  0  0  0  0  0
   16.6692   -2.1186    8.6174 O   0  0  0  0  0  0
   16.0499  -10.8208   16.8199 C   0  0  2  0  0  0
   16.4400   -8.5836   15.6706 C   0  0  2  0  0  0
   16.1514  -10.0954   15.4670 C   0  0  0  0  0  0
   15.2331   -7.9296   16.3812 C   0  0  1  0  0  0
   15.0672   -8.5768   17.7703 C   0  0  1  0  0  0
   14.9763  -10.1276   17.7241 C   0  0  0  0  0  0
   15.7161  -12.3360   16.6200 C   0  0  0  0  0  0
   17.9250   -7.9239   13.8716 C   0  0  0  0  0  0
   18.0401   -6.9398   12.8193 C   0  0  0  0  0  0
   16.9611   -5.3730   11.1915 C   0  0  0  0  0  0
   16.9608   -6.4528   12.1749 C   0  0  0  0  0  0
   17.9647   -3.4105   10.1905 C   0  0  0  0  0  0
   18.0521   -4.5146   11.0327 C   0  0  0  0  0  0
   16.8046   -3.2059    9.4359 C   0  0  0  0  0  0
   15.8053   -5.1589   10.4439 C   0  0  0  0  0  0
   15.7451   -4.1025    9.5420 C   0  0  0  0  0  0
   17.5301   -9.8437   17.6136 H   0  0  0  0  0  0
   16.0758   -6.3490   17.1142 H   0  0  0  0  0  0
   16.2071   -8.7190   19.3562 H   0  0  0  0  0  0
   13.9441  -11.7367   16.0416 H   0  0  0  0  0  0
   18.7638   -1.7448    9.6446 H   0  0  0  0  0  0
   15.7863   -2.0562    8.2443 H   0  0  0  0  0  0
   17.3174   -8.4440   16.3056 H   0  0  0  0  0  0
   16.9099  -10.5521   14.8262 H   0  0  0  0  0  0
   15.1844  -10.1986   14.9810 H   0  0  0  0  0  0
   14.3353   -8.1023   15.7858 H   0  0  0  0  0  0
   14.1451   -8.1705   18.1810 H   0  0  0  0  0  0
   13.9713  -10.3609   17.3732 H   0  0  0  0  0  0
   15.0220  -10.5287   18.7381 H   0  0  0  0  0  0
   19.0407   -6.6018   12.6000 H   0  0  0  0  0  0
   15.9782   -6.8416   12.4118 H   0  0  0  0  0  0
   18.9433   -4.6448   11.6230 H   0  0  0  0  0  0
   14.9462   -5.8030   10.5702 H   0  0  0  0  0  0
   14.8643   -3.9714    8.9415 H   0  0  0  0  0  0
  1 11  1  0  0  0
  1 17  1  0  0  0
  2 10  1  0  0  0
  2 26  1  0  0  0
  3 13  1  0  0  0
  3 27  1  0  0  0
  4 14  1  0  0  0
  4 28  1  0  0  0
  5 16  2  0  0  0
  6 16  1  0  0  0
  6 29  1  0  0  0
  7 17  2  0  0  0
  8 21  1  0  0  0
  8 30  1  0  0  0
  9 23  1  0  0  0
  9 31  1  0  0  0
 10 12  1  0  0  0
 10 15  1  0  0  0
 10 16  1  0  0  0
 11 12  1  0  0  0
 11 13  1  0  0  0
 11 32  1  0  0  0
 12 33  1  0  0  0
 12 34  1  0  0  0
 13 14  1  0  0  0
 13 35  1  0  0  0
 14 15  1  0  0  0
 14 36  1  0  0  0
 15 37  1  0  0  0
 15 38  1  0  0  0
 17 18  1  0  0  0
 18 20  2  0  0  0
 18 39  1  0  0  0
 19 20  1  0  0  0
 19 22  1  0  0  0
 19 24  2  0  0  0
 20 40  1  0  0  0
 21 22  2  0  0  0
 21 23  1  0  0  0
 22 41  1  0  0  0
 23 25  2  0  0  0
 24 25  1  0  0  0
 24 42  1  0  0  0
 25 43  1  0  0  0
M  END
> <s_m_entry_id>
6456

> <s_m_entry_name>
dock_pv.291

> <s_m_Source_Path>
/home/csk/Desktop/cluster/DUD-E-result/aldr

> <s_m_Source_File>
dock_pv.maegz

> <i_m_Source_File_Index>
291

> <chembl_id>
CHEMBL284616

> <chembl_pref_name>
CHLOROGENIC ACID

> <i_lp_mmshare_version>
53161

> <i_f3d_flags>
0

> <r_lp_tautomer_probability>
1

> <s_lp_Force_Field>
OPLS_2005

> <r_lp_Energy>
30.788241

> <b_lp_Chiralities_Consistent>
1

> <s_lp_Variant>
CHEMBL1900_lig533-1

> <s_i_glide_gridfile>
glide-grid_2hv5

> <i_i_glide_lignum>
656

> <i_i_glide_rotatable_bonds>
11

> <r_i_docking_score>
-8.53356852701776

> <r_i_glide_ligand_efficiency>
-0.34134274108071

> <r_i_glide_ligand_efficiency_sa>
-0.998092228659287

> <r_i_glide_ligand_efficiency_ln>
-2.02271147131579

> <r_i_glide_gscore>
-8.53356852701776

> <r_i_glide_lipo>
-3.87553985795716

> <r_i_glide_hbond>
0

> <r_i_glide_metal>
0

> <r_i_glide_rewards>
-2.09018099921139

> <r_i_glide_evdw>
-42.5308532714844

> <r_i_glide_ecoul>
-8.01558303833008

> <r_i_glide_erotb>
0.761032449474515

> <r_i_glide_esite>
0

> <r_i_glide_emodel>
-73.27282462497

> <r_i_glide_energy>
-50.5464363098145

> <r_i_glide_einternal>
8.02438068389893

> <i_i_glide_confnum>
19

> <i_i_glide_posenum>
348

> <r_i_glide_eff_state_penalty>
0

> <s_user_duplicate_titles>
CHEMBL1900_lig533

> <s_m_subgroup_title>
dock_pv

> <s_m_subgroupid>
dock_pv

> <b_m_subgroup_collapsed>
1

$$$$
CHEMBL1900_lig250
                    3D
 Schrodinger Suite 2021-1.
 44 47  0  0  1  0            999 V2000
   18.1125   -8.7178   15.3987 N   0  0  0  0  0  0
   15.6400   -5.2345   11.3437 C   0  0  0  0  0  0
   17.5226   -8.1611   16.5245 N   0  0  0  0  0  0
   17.8625   -9.9758   14.8825 C   0  0  0  0  0  0
   16.5468   -8.7438   17.1188 C   0  0  0  0  0  0
   16.6277   -5.7646   12.1810 C   0  0  0  0  0  0
   18.2107   -6.8844   13.6807 C   0  0  0  0  0  0
   18.8219   -6.0043   12.9421 N   0  0  0  0  0  0
   17.9753   -5.3702   12.0847 C   0  0  0  0  0  0
   14.2088   -5.6771   11.3601 C   0  0  0  0  0  0
   16.4806   -6.9155   13.4770 S   0  0  0  0  0  0
   18.9699   -7.7798   14.6415 C   0  0  0  0  0  0
   16.8372  -10.7386   15.7157 C   0  0  0  0  0  0
   17.6608   -2.6392    9.4869 C   0  0  0  0  0  0
   16.1616  -10.1256   16.7918 C   0  0  0  0  0  0
   16.0135   -4.2121   10.4815 C   0  0  0  0  0  0
   17.3211   -3.7701   10.4116 C   0  0  0  0  0  0
   15.7929   -7.9958   18.2329 C   0  0  0  0  0  0
   18.3268   -4.3928   11.1457 C   0  0  0  0  0  0
   16.0359   -6.4787   18.2995 C   0  0  0  0  0  0
   18.3863  -10.4170   13.8549 O   0  0  0  0  0  0
   15.7450   -5.7148   17.3819 O   0  0  0  0  0  0
   14.1450   -6.9151   10.9810 F   0  0  0  0  0  0
   13.7450   -5.7150   12.5704 F   0  0  0  0  0  0
   13.4523   -4.9150   10.5811 F   0  0  0  0  0  0
   18.5887   -1.8288    9.9976 F   0  0  0  0  0  0
   18.1449   -3.3150    8.4728 F   0  0  0  0  0  0
   16.6074   -1.9217    9.0894 F   0  0  0  0  0  0
   16.5408   -6.0934   19.5052 O   0  0  0  0  0  0
   16.5450  -12.0668   15.3807 C   0  0  0  0  0  0
   15.2286  -10.8661   17.5341 C   0  0  0  0  0  0
   15.6022  -12.7852   16.1166 C   0  0  0  0  0  0
   14.9450  -12.1866   17.1898 C   0  0  0  0  0  0
   19.5313   -7.1651   15.3475 H   0  0  0  0  0  0
   19.7447   -8.3190   14.0918 H   0  0  0  0  0  0
   15.2718   -3.7418    9.8491 H   0  0  0  0  0  0
   14.7202   -8.1191   18.0849 H   0  0  0  0  0  0
   16.0218   -8.4613   19.1909 H   0  0  0  0  0  0
   19.3449   -4.0904   10.9810 H   0  0  0  0  0  0
   16.8082   -6.8388   20.0458 H   0  0  0  0  0  0
   17.0419  -12.5469   14.5484 H   0  0  0  0  0  0
   14.7077  -10.4355   18.3767 H   0  0  0  0  0  0
   15.3778  -13.8074   15.8501 H   0  0  0  0  0  0
   14.2127  -12.7455   17.7562 H   0  0  0  0  0  0
  1  3  1  0  0  0
  1  4  1  0  0  0
  1 12  1  0  0  0
  2  6  1  0  0  0
  2 10  1  0  0  0
  2 16  2  0  0  0
  3  5  2  0  0  0
  4 13  1  0  0  0
  4 21  2  0  0  0
  5 18  1  0  0  0
  5 15  1  0  0  0
  6 11  1  0  0  0
  6  9  2  0  0  0
  7 12  1  0  0  0
  7  8  2  0  0  0
  7 11  1  0  0  0
  8  9  1  0  0  0
  9 19  1  0  0  0
 10 23  1  0  0  0
 10 24  1  0  0  0
 10 25  1  0  0  0
 12 34  1  0  0  0
 12 35  1  0  0  0
 13 15  1  0  0  0
 13 30  2  0  0  0
 14 17  1  0  0  0
 14 26  1  0  0  0
 14 27  1  0  0  0
 14 28  1  0  0  0
 15 31  2  0  0  0
 16 17  1  0  0  0
 16 36  1  0  0  0
 17 19  2  0  0  0
 18 20  1  0  0  0
 18 37  1  0  0  0
 18 38  1  0  0  0
 19 39  1  0  0  0
 20 22  2  0  0  0
 20 29  1  0  0  0
 29 40  1  0  0  0
 30 32  1  0  0  0
 30 41  1  0  0  0
 31 33  1  0  0  0
 31 42  1  0  0  0
 32 33  2  0  0  0
 32 43  1  0  0  0
 33 44  1  0  0  0
M  END
> <s_m_entry_id>
6457

> <s_m_entry_name>
dock_pv.292

> <s_m_Source_Path>
/home/csk/Desktop/cluster/DUD-E-result/aldr

> <s_m_Source_File>
dock_pv.maegz

> <i_m_Source_File_Index>
292

> <chembl_id>
CHEMBL277708

> <chembl_pref_name>
None

> <i_lp_mmshare_version>
53161

> <i_f3d_flags>
0

> <r_lp_tautomer_probability>
1

> <s_lp_Force_Field>
OPLS_2005

> <r_lp_Energy>
25.825078

> <b_lp_Chiralities_Consistent>
1

> <s_lp_Variant>
CHEMBL1900_lig250-1

> <s_i_glide_gridfile>
glide-grid_2hv5

> <i_i_glide_lignum>
363

> <i_i_glide_rotatable_bonds>
7

> <r_i_docking_score>
-8.5328734765588

> <r_i_glide_ligand_efficiency>
-0.258571923532085

> <r_i_glide_ligand_efficiency_sa>
-0.829378320535575

> <r_i_glide_ligand_efficiency_ln>
-1.89766688033232

> <r_i_glide_gscore>
-8.5328734765588

> <r_i_glide_lipo>
-4.95462841582346

> <r_i_glide_hbond>
-0.0310390791804072

> <r_i_glide_metal>
0

> <r_i_glide_rewards>
-2.19434757689017

> <r_i_glide_evdw>
-23.4825325012207

> <r_i_glide_ecoul>
-3.41987323760986

> <r_i_glide_erotb>
0.342330539427282

> <r_i_glide_esite>
-0.00808133338953327

> <r_i_glide_emodel>
-27.6314869278384

> <r_i_glide_energy>
-26.9024057388306

> <r_i_glide_einternal>
4.90582180023193

> <i_i_glide_confnum>
21

> <i_i_glide_posenum>
288

> <r_i_glide_eff_state_penalty>
0

> <s_user_duplicate_titles>
CHEMBL1900_lig250

> <s_m_subgroup_title>
dock_pv

> <s_m_subgroupid>
dock_pv

> <b_m_subgroup_collapsed>
1

$$$$
CHEMBL1900_lig202
                    3D
 Schrodinger Suite 2021-1.
 34 35  0  0  1  0            999 V2000
   16.6518   -6.9980   17.9485 C   0  0  0  0  0  0
   17.5070   -7.8505   16.0097 N   0  0  0  0  0  0
   15.9980   -8.1242   17.6281 C   0  0  0  0  0  0
   16.5044   -8.6774   16.3843 C   0  0  0  0  0  0
   17.7446   -6.7930   16.9578 C   0  0  0  0  0  0
   16.4393   -6.0643   19.0424 C   0  0  0  0  0  0
   18.2089   -7.9166   14.7238 C   0  0  0  0  0  0
   16.0984   -9.6726   15.7809 O   0  0  0  0  0  0
   16.1450   -6.4175   20.1828 O   0  0  0  0  0  0
   14.9510   -8.8020   18.1758 O   0  0  0  0  0  0
   17.6971   -6.9470   13.6581 C   0  0  0  0  0  0
   16.5553   -4.7768   18.6481 O   0  0  0  0  0  0
   16.7981   -5.3193   11.5737 C   0  0  0  0  0  0
   16.1952   -4.2248   10.1375 Br  0  0  0  0  0  0
   18.5857   -6.1161   12.9811 C   0  0  0  0  0  0
   16.3487   -6.9193   13.3137 C   0  0  0  0  0  0
   15.8923   -6.1147   12.2700 C   0  0  0  0  0  0
   18.1434   -5.3148   11.9298 C   0  0  0  0  0  0
   16.2963   -3.7047   19.5484 C   0  0  0  0  0  0
   15.7888   -2.5030   18.7477 C   0  0  0  0  0  0
   17.6991   -5.8148   16.4855 H   0  0  0  0  0  0
   18.7402   -6.9145   17.3883 H   0  0  0  0  0  0
   19.2682   -7.7271   14.9023 H   0  0  0  0  0  0
   18.1480   -8.9248   14.3102 H   0  0  0  0  0  0
   14.7494   -9.5615   17.6218 H   0  0  0  0  0  0
   19.6328   -6.1197   13.2466 H   0  0  0  0  0  0
   15.6758   -7.5580   13.8552 H   0  0  0  0  0  0
   14.8453   -6.1090   12.0018 H   0  0  0  0  0  0
   18.8391   -4.6927   11.3879 H   0  0  0  0  0  0
   17.2088   -3.4493   20.0875 H   0  0  0  0  0  0
   15.5455   -3.9769   20.2921 H   0  0  0  0  0  0
   15.5437   -1.6722   19.4083 H   0  0  0  0  0  0
   14.8940   -2.7516   18.1809 H   0  0  0  0  0  0
   16.5456   -2.1611   18.0452 H   0  0  0  0  0  0
  1  3  2  0  0  0
  1  5  1  0  0  0
  1  6  1  0  0  0
  2  5  1  0  0  0
  2  7  1  0  0  0
  2  4  1  0  0  0
  3  4  1  0  0  0
  3 10  1  0  0  0
  4  8  2  0  0  0
  5 21  1  0  0  0
  5 22  1  0  0  0
  6  9  2  0  0  0
  6 12  1  0  0  0
  7 11  1  0  0  0
  7 23  1  0  0  0
  7 24  1  0  0  0
 10 25  1  0  0  0
 11 15  1  0  0  0
 11 16  2  0  0  0
 12 19  1  0  0  0
 13 17  2  0  0  0
 13 14  1  0  0  0
 13 18  1  0  0  0
 15 18  2  0  0  0
 15 26  1  0  0  0
 16 17  1  0  0  0
 16 27  1  0  0  0
 17 28  1  0  0  0
 18 29  1  0  0  0
 19 20  1  0  0  0
 19 30  1  0  0  0
 19 31  1  0  0  0
 20 32  1  0  0  0
 20 33  1  0  0  0
 20 34  1  0  0  0
M  END
> <s_m_entry_id>
6458

> <s_m_entry_name>
dock_pv.293

> <s_m_Source_Path>
/home/csk/Desktop/cluster/DUD-E-result/aldr

> <s_m_Source_File>
dock_pv.maegz

> <i_m_Source_File_Index>
293

> <chembl_id>
CHEMBL7603

> <chembl_pref_name>
None

> <i_lp_mmshare_version>
53161

> <i_f3d_flags>
0

> <r_lp_tautomer_probability>
1

> <s_lp_Force_Field>
OPLS_2005

> <r_lp_Energy>
22.858754

> <b_lp_Chiralities_Consistent>
1

> <s_lp_Variant>
CHEMBL1900_lig202-1

> <s_i_glide_gridfile>
glide-grid_2hv5

> <i_i_glide_lignum>
278

> <i_i_glide_rotatable_bonds>
6

> <r_i_docking_score>
-8.49973019103208

> <r_i_glide_ligand_efficiency>
-0.424986509551604

> <r_i_glide_ligand_efficiency_sa>
-1.1535908671901

> <r_i_glide_ligand_efficiency_ln>
-2.12720212695132

> <r_i_glide_gscore>
-8.49973019103208

> <r_i_glide_lipo>
-3.74407215957509

> <r_i_glide_hbond>
-0.121680055383935

> <r_i_glide_metal>
0

> <r_i_glide_rewards>
-3.05690408553932

> <r_i_glide_evdw>
-40.4954299926758

> <r_i_glide_ecoul>
-1.37869918346405

> <r_i_glide_erotb>
0.654502486619666

> <r_i_glide_esite>
0

> <r_i_glide_emodel>
-58.3756418788039

> <r_i_glide_energy>
-41.8741291761398

> <r_i_glide_einternal>
2.74267935752869

> <i_i_glide_confnum>
16

> <i_i_glide_posenum>
281

> <r_i_glide_eff_state_penalty>
0

> <s_user_duplicate_titles>
CHEMBL1900_lig202,2116

> <s_m_subgroup_title>
dock_pv

> <s_m_subgroupid>
dock_pv

> <b_m_subgroup_collapsed>
1

$$$$
CHEMBL1900_lig494
                    3D
 Schrodinger Suite 2021-1.
 46 47  0  0  1  0            999 V2000
   17.9967   -2.9586   10.1620 C   0  0  0  0  0  0
   16.8309   -2.8606    9.4054 C   0  0  0  0  0  0
   15.8367   -3.7994    9.5846 C   0  0  0  0  0  0
   15.9102   -4.7437   10.6177 C   0  0  0  0  0  0
   17.0873   -4.8601   11.3695 C   0  0  0  0  0  0
   18.1359   -4.0052   11.0612 C   0  0  0  0  0  0
   18.9460   -1.9777   10.1541 O   0  0  0  0  0  0
   16.5640   -1.8039    8.5810 O   0  0  0  0  0  0
   17.1980   -5.6960   12.5817 C   0  0  0  0  0  0
   18.3268   -6.2331   13.0826 C   0  0  0  0  0  0
   18.3624   -7.0165   14.3038 C   0  0  0  0  0  0
   17.2272   -6.9519   15.0608 O   0  0  0  0  0  0
   19.3449   -7.6916   14.5810 O   0  0  0  0  0  0
   16.9755   -7.8464   16.1536 C   0  0  2  0  0  0
   16.1757   -9.0337   15.5546 C   0  0  0  0  0  0
   16.1691   -7.0831   17.2273 C   0  0  0  0  0  0
   16.3316   -7.6195   18.4716 O   0  0  0  0  0  0
   15.4476   -6.1154   16.9809 O   0  0  0  0  0  0
   16.2127  -10.3574   16.3184 C   0  0  0  0  0  0
   17.1026  -11.4364   16.0404 C   0  0  0  0  0  0
   17.0029  -12.5899   16.8407 C   0  0  0  0  0  0
   16.0387  -12.7127   17.8323 C   0  0  0  0  0  0
   15.1265  -11.6831   18.0390 C   0  0  0  0  0  0
   15.2267  -10.5113   17.3008 C   0  0  0  0  0  0
   14.1450  -11.8129   18.9813 O   0  0  0  0  0  0
   15.9885  -13.8474   18.5973 O   0  0  0  0  0  0
   18.1120  -11.4556   14.9365 N   0  3  0  0  0  0
   18.6349  -12.5294   14.6499 O   0  0  0  0  0  0
   18.4209  -10.4295   14.3498 O   0  5  0  0  0  0
   14.6806   -5.4504   10.9810 N   0  3  0  0  0  0
   13.6519   -4.9150   10.6375 O   0  0  0  0  0  0
   14.7185   -6.5150   11.5655 O   0  5  0  0  0  0
   14.9450   -3.7105    8.9896 H   0  0  0  0  0  0
   18.9450   -3.9930   11.7426 H   0  0  0  0  0  0
   18.7057   -1.2679    9.5518 H   0  0  0  0  0  0
   15.6581   -1.8067    8.2604 H   0  0  0  0  0  0
   16.2805   -5.8270   13.1360 H   0  0  0  0  0  0
   19.2747   -6.1150   12.5808 H   0  0  0  0  0  0
   17.9172   -8.1977   16.5795 H   0  0  0  0  0  0
   15.1361   -8.7441   15.3811 H   0  0  0  0  0  0
   16.5451   -9.2109   14.5656 H   0  0  0  0  0  0
   16.9127   -8.3829   18.4969 H   0  0  0  0  0  0
   17.6711  -13.4262   16.6885 H   0  0  0  0  0  0
   14.5200   -9.7150   17.4897 H   0  0  0  0  0  0
   13.2453  -11.8492   18.6237 H   0  0  0  0  0  0
   15.2409  -13.8159   19.2023 H   0  0  0  0  0  0
  1  6  1  0  0  0
  1  2  2  0  0  0
  1  7  1  0  0  0
  2  8  1  0  0  0
  2  3  1  0  0  0
  3  4  2  0  0  0
  3 33  1  0  0  0
  4  5  1  0  0  0
  4 30  1  0  0  0
  5  9  1  0  0  0
  5  6  2  0  0  0
  6 34  1  0  0  0
  7 35  1  0  0  0
  8 36  1  0  0  0
  9 10  2  0  0  0
  9 37  1  0  0  0
 10 11  1  0  0  0
 10 38  1  0  0  0
 11 12  1  0  0  0
 11 13  2  0  0  0
 12 14  1  0  0  0
 14 16  1  0  0  0
 14 15  1  0  0  0
 14 39  1  0  0  0
 15 19  1  0  0  0
 15 40  1  0  0  0
 15 41  1  0  0  0
 16 17  1  0  0  0
 16 18  2  0  0  0
 17 42  1  0  0  0
 19 20  2  0  0  0
 19 24  1  0  0  0
 20 21  1  0  0  0
 20 27  1  0  0  0
 21 22  2  0  0  0
 21 43  1  0  0  0
 22 23  1  0  0  0
 22 26  1  0  0  0
 23 24  2  0  0  0
 23 25  1  0  0  0
 24 44  1  0  0  0
 25 45  1  0  0  0
 26 46  1  0  0  0
 27 28  2  0  0  0
 27 29  1  0  0  0
 30 31  2  0  0  0
 30 32  1  0  0  0
M  CHG  4  27   1  29  -1  30   1  32  -1
M  END
> <s_m_entry_id>
6459

> <s_m_entry_name>
dock_pv.294

> <s_m_Source_Path>
/home/csk/Desktop/cluster/DUD-E-result/aldr

> <s_m_Source_File>
dock_pv.maegz

> <i_m_Source_File_Index>
294

> <chembl_id>
CHEMBL261703

> <chembl_pref_name>
None

> <i_lp_mmshare_version>
53161

> <i_f3d_flags>
0

> <r_lp_tautomer_probability>
0.999999999999776

> <s_lp_Force_Field>
OPLS_2005

> <r_lp_Energy>
25.032332

> <b_lp_Chiralities_Consistent>
1

> <s_lp_Variant>
CHEMBL1900_lig494-1

> <s_i_glide_gridfile>
glide-grid_2hv5

> <i_i_glide_lignum>
617

> <i_i_glide_rotatable_bonds>
14

> <r_i_docking_score>
-8.49637428006533

> <r_i_glide_ligand_efficiency>
-0.265511696252041

> <r_i_glide_ligand_efficiency_sa>
-0.842947090906893

> <r_i_glide_ligand_efficiency_ln>
-1.9025698037223

> <r_i_glide_gscore>
-8.49637428006533

> <r_i_glide_lipo>
-3.43431768578656

> <r_i_glide_hbond>
-0.246973544069113

> <r_i_glide_metal>
0

> <r_i_glide_rewards>
-2.35772955786484

> <r_i_glide_evdw>
-41.31201171875

> <r_i_glide_ecoul>
-7.22543478012085

> <r_i_glide_erotb>
0.692062310610816

> <r_i_glide_esite>
0

> <r_i_glide_emodel>
-56.8358645295348

> <r_i_glide_energy>
-48.5374464988708

> <r_i_glide_einternal>
13.0294742584229

> <i_i_glide_confnum>
104

> <i_i_glide_posenum>
230

> <r_i_glide_eff_state_penalty>
0

> <s_user_duplicate_titles>
CHEMBL1900_lig494,429799

> <s_m_subgroup_title>
dock_pv

> <s_m_subgroupid>
dock_pv

> <b_m_subgroup_collapsed>
1

$$$$
CHEMBL1900_lig307
                    3D
 Schrodinger Suite 2021-1.
 38 41  0  0  1  0            999 V2000
   17.8672   -8.0372   15.4949 N   0  0  0  0  0  0
   17.3296   -7.2809   16.5261 N   0  0  0  0  0  0
   17.6122   -9.3691   15.2283 C   0  0  0  0  0  0
   16.4438   -7.7678   17.3141 C   0  0  0  0  0  0
   17.9655   -6.5861   13.4443 C   0  0  0  0  0  0
   18.5450   -5.6703   12.7282 N   0  0  0  0  0  0
   18.7270   -7.2793   14.5664 C   0  0  0  0  0  0
   16.5612   -9.9448   16.1672 C   0  0  0  0  0  0
   16.3077   -6.9150   12.9810 S   0  0  0  0  0  0
   15.9602   -9.1547   17.1690 C   0  0  0  0  0  0
   16.4632   -5.7531   11.6762 C   0  0  0  0  0  0
   15.8593   -6.8725   18.4276 C   0  0  0  0  0  0
   17.7544   -5.1873   11.7401 C   0  0  0  0  0  0
   16.5776   -5.5347   18.6850 C   0  0  0  0  0  0
   15.5615   -5.3797   10.6723 C   0  0  0  0  0  0
   18.1450  -10.0094   14.3165 O   0  0  0  0  0  0
   16.1450   -4.4510   18.3039 O   0  0  0  0  0  0
   18.1450   -4.2129   10.8110 C   0  0  0  0  0  0
   16.0049   -4.4673    9.7143 C   0  0  0  0  0  0
   17.7355   -5.7036   19.3810 O   0  0  0  0  0  0
   17.2585   -3.8709    9.7959 C   0  0  0  0  0  0
   14.9450   -4.1150    8.1810 Br  0  0  0  0  0  0
   16.1682  -11.2795   15.9998 C   0  0  0  0  0  0
   14.9450   -9.7121   17.9590 C   0  0  0  0  0  0
   15.1690  -11.8225   16.8067 C   0  0  0  0  0  0
   14.5548  -11.0388   17.7810 C   0  0  0  0  0  0
   19.3270   -6.5683   15.1379 H   0  0  0  0  0  0
   19.4823   -7.9282   14.1172 H   0  0  0  0  0  0
   14.8218   -6.6473   18.1810 H   0  0  0  0  0  0
   15.8428   -7.4199   19.3695 H   0  0  0  0  0  0
   14.5803   -5.8255   10.6026 H   0  0  0  0  0  0
   19.1192   -3.7583   10.8575 H   0  0  0  0  0  0
   17.9536   -6.6272   19.5223 H   0  0  0  0  0  0
   17.5587   -3.1607    9.0387 H   0  0  0  0  0  0
   16.6202  -11.8962   15.2346 H   0  0  0  0  0  0
   14.4526   -9.1342   18.7227 H   0  0  0  0  0  0
   14.8599  -12.8486   16.6683 H   0  0  0  0  0  0
   13.7697  -11.4597   18.3940 H   0  0  0  0  0  0
  1  2  1  0  0  0
  1  3  1  0  0  0
  1  7  1  0  0  0
  2  4  2  0  0  0
  3  8  1  0  0  0
  3 16  2  0  0  0
  4 12  1  0  0  0
  4 10  1  0  0  0
  5  7  1  0  0  0
  5  6  2  0  0  0
  5  9  1  0  0  0
  6 13  1  0  0  0
  7 27  1  0  0  0
  7 28  1  0  0  0
  8 10  1  0  0  0
  8 23  2  0  0  0
  9 11  1  0  0  0
 10 24  2  0  0  0
 11 15  1  0  0  0
 11 13  2  0  0  0
 12 14  1  0  0  0
 12 29  1  0  0  0
 12 30  1  0  0  0
 13 18  1  0  0  0
 14 17  2  0  0  0
 14 20  1  0  0  0
 15 19  2  0  0  0
 15 31  1  0  0  0
 18 21  2  0  0  0
 18 32  1  0  0  0
 19 22  1  0  0  0
 19 21  1  0  0  0
 20 33  1  0  0  0
 21 34  1  0  0  0
 23 25  1  0  0  0
 23 35  1  0  0  0
 24 26  1  0  0  0
 24 36  1  0  0  0
 25 26  2  0  0  0
 25 37  1  0  0  0
 26 38  1  0  0  0
M  END
> <s_m_entry_id>
6460

> <s_m_entry_name>
dock_pv.295

> <s_m_Source_Path>
/home/csk/Desktop/cluster/DUD-E-result/aldr

> <s_m_Source_File>
dock_pv.maegz

> <i_m_Source_File_Index>
295

> <chembl_id>
CHEMBL20004

> <chembl_pref_name>
None

> <i_lp_mmshare_version>
53161

> <i_f3d_flags>
0

> <r_lp_tautomer_probability>
1

> <s_lp_Force_Field>
OPLS_2005

> <r_lp_Energy>
25.297742

> <b_lp_Chiralities_Consistent>
1

> <s_lp_Variant>
CHEMBL1900_lig307-1

> <s_i_glide_gridfile>
glide-grid_2hv5

> <i_i_glide_lignum>
423

> <i_i_glide_rotatable_bonds>
5

> <r_i_docking_score>
-8.4871380703522

> <r_i_glide_ligand_efficiency>
-0.326428387321238

> <r_i_glide_ligand_efficiency_sa>
-0.967042813005488

> <r_i_glide_ligand_efficiency_ln>
-1.99317652725077

> <r_i_glide_gscore>
-8.4871380703522

> <r_i_glide_lipo>
-4.80178555240817

> <r_i_glide_hbond>
0

> <r_i_glide_metal>
0

> <r_i_glide_rewards>
-2.01893595812443

> <r_i_glide_evdw>
-41.0505523681641

> <r_i_glide_ecoul>
-0.289348512887955

> <r_i_glide_erotb>
0.429513335521797

> <r_i_glide_esite>
0

> <r_i_glide_emodel>
-58.3373045296622

> <r_i_glide_energy>
-41.339900881052

> <r_i_glide_einternal>
3.35017108917236

> <i_i_glide_confnum>
16

> <i_i_glide_posenum>
257

> <r_i_glide_eff_state_penalty>
0

> <s_user_duplicate_titles>
CHEMBL1900_lig307,24141

> <s_m_subgroup_title>
dock_pv

> <s_m_subgroupid>
dock_pv

> <b_m_subgroup_collapsed>
1

$$$$
CHEMBL1900_lig586
                    3D
 Schrodinger Suite 2021-1.
 28 29  0  0  1  0            999 V2000
   16.4794   -7.7139   14.9807 C   0  0  0  0  0  0
   16.5203   -8.4600   16.1168 N   0  0  0  0  0  0
   17.2581   -9.5876   16.1240 C   0  0  0  0  0  0
   18.1450   -9.6991   14.5768 S   0  0  0  0  0  0
   17.3920   -8.2250   13.9855 C   0  0  0  0  0  0
   17.3445  -10.4389   17.0090 O   0  0  0  0  0  0
   15.7449   -6.7501   14.8222 O   0  0  0  0  0  0
   17.6419   -7.6583   12.7805 C   0  0  0  0  0  0
   17.1036   -6.4568   12.0952 C   0  0  0  0  0  0
   18.0120   -5.5254   11.5862 C   0  0  0  0  0  0
   17.5935   -4.4751   10.7714 C   0  0  0  0  0  0
   16.2386   -4.3207   10.4826 C   0  0  0  0  0  0
   15.3121   -5.2146   11.0169 C   0  0  0  0  0  0
   15.7433   -6.2711   11.8206 C   0  0  0  0  0  0
   15.6853   -8.1514   17.3162 C   0  0  0  0  0  0
   15.9989   -6.7740   17.9396 C   0  0  0  0  0  0
   16.5448   -6.9152   19.1768 O   0  0  0  0  0  0
   15.7452   -5.7144   17.4138 O   0  0  0  0  0  0
   18.5147   -3.6060   10.2486 O   0  0  0  0  0  0
   18.3610   -8.1917   12.1819 H   0  0  0  0  0  0
   19.0617   -5.6446   11.7888 H   0  0  0  0  0  0
   15.8958   -3.5101    9.8560 H   0  0  0  0  0  0
   14.2597   -5.0948   10.8025 H   0  0  0  0  0  0
   15.0121   -6.9749   12.1810 H   0  0  0  0  0  0
   15.7708   -8.9207   18.0852 H   0  0  0  0  0  0
   14.6345   -8.1846   17.0251 H   0  0  0  0  0  0
   16.7044   -7.8271   19.4284 H   0  0  0  0  0  0
   18.0939   -2.9005    9.7536 H   0  0  0  0  0  0
  1  2  1  0  0  0
  1  5  1  0  0  0
  1  7  2  0  0  0
  2  3  1  0  0  0
  2 15  1  0  0  0
  3  4  1  0  0  0
  3  6  2  0  0  0
  4  5  1  0  0  0
  5  8  2  0  0  0
  8  9  1  0  0  0
  8 20  1  0  0  0
  9 10  2  0  0  0
  9 14  1  0  0  0
 10 11  1  0  0  0
 10 21  1  0  0  0
 11 12  2  0  0  0
 11 19  1  0  0  0
 12 13  1  0  0  0
 12 22  1  0  0  0
 13 14  2  0  0  0
 13 23  1  0  0  0
 14 24  1  0  0  0
 15 16  1  0  0  0
 15 25  1  0  0  0
 15 26  1  0  0  0
 16 17  1  0  0  0
 16 18  2  0  0  0
 17 27  1  0  0  0
 19 28  1  0  0  0
M  END
> <s_m_entry_id>
6461

> <s_m_entry_name>
dock_pv.296

> <s_m_Source_Path>
/home/csk/Desktop/cluster/DUD-E-result/aldr

> <s_m_Source_File>
dock_pv.maegz

> <i_m_Source_File_Index>
296

> <chembl_id>
CHEMBL2260156

> <chembl_pref_name>
None

> <i_lp_mmshare_version>
53161

> <i_f3d_flags>
0

> <r_lp_tautomer_probability>
1

> <s_lp_Force_Field>
OPLS_2005

> <r_lp_Energy>
15.202557

> <b_lp_Chiralities_Consistent>
1

> <s_lp_Variant>
CHEMBL1900_lig586-1

> <s_i_glide_gridfile>
glide-grid_2hv5

> <i_i_glide_lignum>
709

> <i_i_glide_rotatable_bonds>
5

> <r_i_docking_score>
-8.48558593388052

> <r_i_glide_ligand_efficiency>
-0.446609785993712

> <r_i_glide_ligand_efficiency_sa>
-1.19173428811131

> <r_i_glide_ligand_efficiency_ln>
-2.15127828791352

> <r_i_glide_gscore>
-8.48558593388052

> <r_i_glide_lipo>
-2.86544282076886

> <r_i_glide_hbond>
-0.03483688843082

> <r_i_glide_metal>
0

> <r_i_glide_rewards>
-3.68669526534483

> <r_i_glide_evdw>
-35.3356399536133

> <r_i_glide_ecoul>
-5.50506067276001

> <r_i_glide_erotb>
0.693930139258655

> <r_i_glide_esite>
0

> <r_i_glide_emodel>
-56.7560639447924

> <r_i_glide_energy>
-40.8407006263733

> <r_i_glide_einternal>
5.07590484619141

> <i_i_glide_confnum>
12

> <i_i_glide_posenum>
357

> <r_i_glide_eff_state_penalty>
0

> <s_user_duplicate_titles>
CHEMBL1900_lig586

> <s_m_subgroup_title>
dock_pv

> <s_m_subgroupid>
dock_pv

> <b_m_subgroup_collapsed>
1

$$$$
CHEMBL1900_lig266
                    3D
 Schrodinger Suite 2021-1.
 37 40  0  0  1  0            999 V2000
   16.8924   -7.7833   16.4069 C   0  0  1  0  0  0
   17.3486   -9.1725   15.9961 C   0  0  0  0  0  0
   15.3906   -7.7222   16.5683 C   0  0  0  0  0  0
   17.4770   -7.9507   14.1032 N   0  0  0  0  0  0
   15.1931   -6.9690   17.6530 N   0  0  0  0  0  0
   17.3229   -7.2464   17.6688 N   0  0  0  0  0  0
   16.3142   -6.6639   18.3357 C   0  0  0  0  0  0
   17.7445   -9.2059   14.6508 C   0  0  0  0  0  0
   17.3597   -6.9805   15.1809 C   0  0  0  0  0  0
   18.1074   -7.3992   12.9043 C   0  0  0  0  0  0
   17.3569  -10.3524   16.7446 C   0  0  0  0  0  0
   18.1168  -10.4140   14.0554 C   0  0  0  0  0  0
   14.5453   -8.2208   15.8347 O   0  0  0  0  0  0
   16.3655   -6.1054   19.4266 O   0  0  0  0  0  0
   17.7419  -11.5556   16.1553 C   0  0  0  0  0  0
   17.3294   -6.3071   12.1742 C   0  0  0  0  0  0
   18.1173  -11.5881   14.8115 C   0  0  0  0  0  0
   15.9879   -4.4659   10.5783 C   0  0  0  0  0  0
   17.7495  -12.6912   16.8889 F   0  0  0  0  0  0
   15.3505   -3.5763    9.7896 F   0  0  0  0  0  0
   18.0365   -5.3140   11.4981 C   0  0  0  0  0  0
   15.9382   -6.3563   12.0661 C   0  0  0  0  0  0
   15.2632   -5.4339   11.2699 C   0  0  0  0  0  0
   17.3715   -4.3989   10.6908 C   0  0  0  0  0  0
   14.2697   -6.8081   18.0213 H   0  0  0  0  0  0
   18.2760   -6.9314   17.7699 H   0  0  0  0  0  0
   18.3335   -6.5197   15.3598 H   0  0  0  0  0  0
   16.6861   -6.1669   14.9030 H   0  0  0  0  0  0
   18.1943   -8.2082   12.1786 H   0  0  0  0  0  0
   19.1309   -7.0946   13.1295 H   0  0  0  0  0  0
   17.0442  -10.3454   17.7765 H   0  0  0  0  0  0
   18.3668  -10.4603   13.0058 H   0  0  0  0  0  0
   18.3984  -12.5259   14.3550 H   0  0  0  0  0  0
   19.1074   -5.2747   11.5716 H   0  0  0  0  0  0
   15.3931   -7.1361   12.5699 H   0  0  0  0  0  0
   14.1877   -5.4751   11.1768 H   0  0  0  0  0  0
   17.9197   -3.6399   10.1540 H   0  0  0  0  0  0
  1  2  1  0  0  0
  1  3  1  0  0  0
  1  6  1  0  0  0
  1  9  1  0  0  0
  2  8  1  0  0  0
  2 11  2  0  0  0
  3  5  1  0  0  0
  3 13  2  0  0  0
  4  9  1  0  0  0
  4 10  1  0  0  0
  4  8  1  0  0  0
  5  7  1  0  0  0
  5 25  1  0  0  0
  6  7  1  0  0  0
  6 26  1  0  0  0
  7 14  2  0  0  0
  8 12  2  0  0  0
  9 27  1  0  0  0
  9 28  1  0  0  0
 10 16  1  0  0  0
 10 29  1  0  0  0
 10 30  1  0  0  0
 11 15  1  0  0  0
 11 31  1  0  0  0
 12 17  1  0  0  0
 12 32  1  0  0  0
 15 17  2  0  0  0
 15 19  1  0  0  0
 16 21  2  0  0  0
 16 22  1  0  0  0
 17 33  1  0  0  0
 18 23  1  0  0  0
 18 20  1  0  0  0
 18 24  2  0  0  0
 21 24  1  0  0  0
 21 34  1  0  0  0
 22 23  2  0  0  0
 22 35  1  0  0  0
 23 36  1  0  0  0
 24 37  1  0  0  0
M  END
> <s_m_entry_id>
6462

> <s_m_entry_name>
dock_pv.297

> <s_m_Source_Path>
/home/csk/Desktop/cluster/DUD-E-result/aldr

> <s_m_Source_File>
dock_pv.maegz

> <i_m_Source_File_Index>
297

> <chembl_id>
CHEMBL281620

> <chembl_pref_name>
None

> <i_lp_mmshare_version>
53161

> <i_f3d_flags>
0

> <r_lp_tautomer_probability>
0.99999999978137

> <s_lp_Force_Field>
OPLS_2005

> <r_lp_Energy>
34.21279

> <b_lp_Chiralities_Consistent>
1

> <s_lp_Variant>
CHEMBL1900_lig266-1

> <s_i_glide_gridfile>
glide-grid_2hv5

> <i_i_glide_lignum>
380

> <i_i_glide_rotatable_bonds>
2

> <r_i_docking_score>
-8.48302465085528

> <r_i_glide_ligand_efficiency>
-0.353459360452303

> <r_i_glide_ligand_efficiency_sa>
-1.01955322038687

> <r_i_glide_ligand_efficiency_ln>
-2.03037705958633

> <r_i_glide_gscore>
-8.48302465085528

> <r_i_glide_lipo>
-3.55308174939253

> <r_i_glide_hbond>
0

> <r_i_glide_metal>
0

> <r_i_glide_rewards>
-3.27326028453729

> <r_i_glide_evdw>
-39.8518104553223

> <r_i_glide_ecoul>
0.139196678996086

> <r_i_glide_erotb>
0.346610357176949

> <r_i_glide_esite>
-0.0315819531857112

> <r_i_glide_emodel>
-53.6449512870931

> <r_i_glide_energy>
-39.7126137763262

> <r_i_glide_einternal>
1.76162195205688

> <i_i_glide_confnum>
1

> <i_i_glide_posenum>
76

> <r_i_glide_eff_state_penalty>
0

> <s_user_duplicate_titles>
CHEMBL1900_lig266

> <s_m_subgroup_title>
dock_pv

> <s_m_subgroupid>
dock_pv

> <b_m_subgroup_collapsed>
1

$$$$
CHEMBL1900_lig370
                    3D
 Schrodinger Suite 2021-1.
 36 38  0  0  1  0            999 V2000
   16.3934   -8.5387   16.0692 C   0  0  0  0  0  0
   15.4493   -8.0938   17.1887 C   0  0  2  0  0  0
   16.5828   -9.9050   15.7868 C   0  0  0  0  0  0
   17.5486  -10.3544   14.8565 C   0  0  0  0  0  0
   16.3015   -7.6039   18.4206 C   0  0  0  0  0  0
   15.8751  -10.9198   16.3931 O   0  0  0  0  0  0
   17.1513   -7.6143   15.3583 C   0  0  0  0  0  0
   18.1496   -8.0026   14.4796 C   0  0  0  0  0  0
   18.3769   -9.3844   14.2197 C   0  0  0  0  0  0
   14.5642   -9.2875   17.6015 C   0  0  0  0  0  0
   16.2934   -6.1139   18.7791 C   0  0  0  0  0  0
   15.3347  -10.6072   17.6588 C   0  0  1  0  0  0
   15.7450   -5.6727   19.7812 O   0  0  0  0  0  0
   14.5477   -7.0875   16.7530 O   0  0  0  0  0  0
   19.1099   -6.7515   13.7809 Cl  0  0  0  0  0  0
   16.9450   -5.3584   17.8617 O   0  0  0  0  0  0
   17.7442  -11.7366   14.5723 C   0  0  0  0  0  0
   19.4158   -9.8471   13.3810 C   0  0  0  0  0  0
   14.5441  -11.8126   18.1638 C   0  0  0  0  0  0
   18.7529  -12.1465   13.7125 C   0  0  0  0  0  0
   19.5948  -11.2093   13.1371 C   0  0  0  0  0  0
   16.1510  -10.4648   18.3477 H   0  0  0  0  0  0
   17.3441   -7.9104   18.3224 H   0  0  0  0  0  0
   15.9873   -8.1150   19.3307 H   0  0  0  0  0  0
   16.9960   -6.5597   15.5247 H   0  0  0  0  0  0
   14.1450   -9.0915   18.5809 H   0  0  0  0  0  0
   13.7389   -9.4236   16.9053 H   0  0  0  0  0  0
   13.8834   -6.9593   17.4363 H   0  0  0  0  0  0
   17.4018   -5.8996   17.2174 H   0  0  0  0  0  0
   17.1127  -12.4792   15.0388 H   0  0  0  0  0  0
   20.1088   -9.1254   12.9808 H   0  0  0  0  0  0
   14.0960  -11.6146   19.1370 H   0  0  0  0  0  0
   13.7450  -12.0805   17.4731 H   0  0  0  0  0  0
   15.1882  -12.6862   18.2705 H   0  0  0  0  0  0
   18.8999  -13.1982   13.5131 H   0  0  0  0  0  0
   20.4047  -11.5465   12.5088 H   0  0  0  0  0  0
  1  2  1  0  0  0
  1  3  2  0  0  0
  1  7  1  0  0  0
  2  5  1  0  0  0
  2 10  1  0  0  0
  2 14  1  0  0  0
  3  4  1  0  0  0
  3  6  1  0  0  0
  4 17  2  0  0  0
  4  9  1  0  0  0
  5 11  1  0  0  0
  5 23  1  0  0  0
  5 24  1  0  0  0
  6 12  1  0  0  0
  7  8  2  0  0  0
  7 25  1  0  0  0
  8  9  1  0  0  0
  8 15  1  0  0  0
  9 18  2  0  0  0
 10 12  1  0  0  0
 10 26  1  0  0  0
 10 27  1  0  0  0
 11 13  2  0  0  0
 11 16  1  0  0  0
 12 19  1  0  0  0
 12 22  1  0  0  0
 14 28  1  0  0  0
 16 29  1  0  0  0
 17 20  1  0  0  0
 17 30  1  0  0  0
 18 21  1  0  0  0
 18 31  1  0  0  0
 19 32  1  0  0  0
 19 33  1  0  0  0
 19 34  1  0  0  0
 20 21  2  0  0  0
 20 35  1  0  0  0
 21 36  1  0  0  0
M  END
> <s_m_entry_id>
6463

> <s_m_entry_name>
dock_pv.298

> <s_m_Source_Path>
/home/csk/Desktop/cluster/DUD-E-result/aldr

> <s_m_Source_File>
dock_pv.maegz

> <i_m_Source_File_Index>
298

> <chembl_id>
CHEMBL421111

> <chembl_pref_name>
None

> <i_lp_mmshare_version>
53161

> <i_f3d_flags>
0

> <r_lp_tautomer_probability>
1

> <s_lp_Force_Field>
OPLS_2005

> <r_lp_Energy>
21.306812

> <b_lp_Chiralities_Consistent>
1

> <s_lp_Variant>
CHEMBL1900_lig370-1

> <s_i_glide_gridfile>
glide-grid_2hv5

> <i_i_glide_lignum>
491

> <i_i_glide_rotatable_bonds>
4

> <r_i_docking_score>
-8.48164724399297

> <r_i_glide_ligand_efficiency>
-0.403887963999665

> <r_i_glide_ligand_efficiency_sa>
-1.11429626729719

> <r_i_glide_ligand_efficiency_ln>
-2.09707014229525

> <r_i_glide_gscore>
-8.48164724399297

> <r_i_glide_lipo>
-3.49895188479459

> <r_i_glide_hbond>
-0.32

> <r_i_glide_metal>
0

> <r_i_glide_rewards>
-2.60400391307886

> <r_i_glide_evdw>
-30.8566017150879

> <r_i_glide_ecoul>
-6.05735540390015

> <r_i_glide_erotb>
0.392741950219894

> <r_i_glide_esite>
0

> <r_i_glide_emodel>
-49.9732290060055

> <r_i_glide_energy>
-36.913957118988

> <r_i_glide_einternal>
8.0834903717041

> <i_i_glide_confnum>
4

> <i_i_glide_posenum>
155

> <r_i_glide_eff_state_penalty>
0

> <s_user_duplicate_titles>
CHEMBL1900_lig370,109160

> <s_m_subgroup_title>
dock_pv

> <s_m_subgroupid>
dock_pv

> <b_m_subgroup_collapsed>
1

$$$$
CHEMBL1900_lig514
                    3D
 Schrodinger Suite 2021-1.
 39 41  0  0  1  0            999 V2000
   18.0235  -12.5192   14.0732 C   0  0  0  0  0  0
   18.9714  -11.7253   13.4339 C   0  0  0  0  0  0
   18.9448  -10.3360   13.5676 C   0  0  0  0  0  0
   17.0302  -11.9717   14.8797 C   0  0  0  0  0  0
   17.0271  -10.5783   15.0466 C   0  0  0  0  0  0
   17.9773   -9.7429   14.3926 C   0  0  0  0  0  0
   17.6836   -8.3885   14.7567 C   0  0  0  0  0  0
   16.6261   -8.4370   15.6591 C   0  0  0  0  0  0
   16.1902   -9.7505   15.7833 N   0  0  0  0  0  0
   18.5456   -6.9510   14.1822 S   0  0  0  0  0  0
   17.5103   -6.3293   12.8687 C   0  0  0  0  0  0
   18.0663   -5.4539   11.9369 C   0  0  0  0  0  0
   17.2829   -4.9156   10.9182 C   0  0  0  0  0  0
   15.9317   -5.2477   10.8408 C   0  0  0  0  0  0
   15.3636   -6.1146   11.7705 C   0  0  0  0  0  0
   16.1558   -6.6534   12.7804 C   0  0  0  0  0  0
   14.9990  -10.2058   16.5301 C   0  0  0  0  0  0
   15.9400   -7.2989   16.3914 C   0  0  0  0  0  0
   20.0347  -12.3846   12.5800 C   0  0  0  0  0  0
   15.2687  -11.1821   17.6846 C   0  0  0  0  0  0
   16.3556  -11.7153   17.8935 O   0  0  0  0  0  0
   14.1501  -11.4098   18.4285 O   0  0  0  0  0  0
   18.0577  -13.5913   13.9468 H   0  0  0  0  0  0
   19.6750   -9.7203   13.0630 H   0  0  0  0  0  0
   16.3058  -12.6103   15.3621 H   0  0  0  0  0  0
   19.1054   -5.1958   12.0060 H   0  0  0  0  0  0
   17.7171   -4.2391   10.1978 H   0  0  0  0  0  0
   15.3186   -4.8250   10.0568 H   0  0  0  0  0  0
   14.3131   -6.3601   11.7095 H   0  0  0  0  0  0
   15.7279   -7.3170   13.5030 H   0  0  0  0  0  0
   14.4547   -9.3452   16.9157 H   0  0  0  0  0  0
   14.3419  -10.6969   15.8113 H   0  0  0  0  0  0
   16.4493   -6.3487   16.2319 H   0  0  0  0  0  0
   14.9107   -7.1668   16.0576 H   0  0  0  0  0  0
   15.9195   -7.4645   17.4686 H   0  0  0  0  0  0
   19.6540  -13.2896   12.1033 H   0  0  0  0  0  0
   20.9052  -12.6428   13.1846 H   0  0  0  0  0  0
   20.3452  -11.7179   11.7810 H   0  0  0  0  0  0
   13.3392  -11.0513   18.0647 H   0  0  0  0  0  0
  1  2  2  0  0  0
  1  4  1  0  0  0
  1 23  1  0  0  0
  2  3  1  0  0  0
  2 19  1  0  0  0
  3  6  2  0  0  0
  3 24  1  0  0  0
  4  5  2  0  0  0
  4 25  1  0  0  0
  5  6  1  0  0  0
  5  9  1  0  0  0
  6  7  1  0  0  0
  7  8  2  0  0  0
  7 10  1  0  0  0
  8 18  1  0  0  0
  8  9  1  0  0  0
  9 17  1  0  0  0
 10 11  1  0  0  0
 11 12  2  0  0  0
 11 16  1  0  0  0
 12 13  1  0  0  0
 12 26  1  0  0  0
 13 14  2  0  0  0
 13 27  1  0  0  0
 14 15  1  0  0  0
 14 28  1  0  0  0
 15 16  2  0  0  0
 15 29  1  0  0  0
 16 30  1  0  0  0
 17 20  1  0  0  0
 17 31  1  0  0  0
 17 32  1  0  0  0
 18 33  1  0  0  0
 18 34  1  0  0  0
 18 35  1  0  0  0
 19 36  1  0  0  0
 19 37  1  0  0  0
 19 38  1  0  0  0
 20 21  2  0  0  0
 20 22  1  0  0  0
 22 39  1  0  0  0
M  END
> <s_m_entry_id>
6464

> <s_m_entry_name>
dock_pv.299

> <s_m_Source_Path>
/home/csk/Desktop/cluster/DUD-E-result/aldr

> <s_m_Source_File>
dock_pv.maegz

> <i_m_Source_File_Index>
299

> <chembl_id>
CHEMBL1917417

> <chembl_pref_name>
None

> <i_lp_mmshare_version>
53161

> <i_f3d_flags>
0

> <r_lp_tautomer_probability>
1

> <s_lp_Force_Field>
OPLS_2005

> <r_lp_Energy>
11.892303

> <b_lp_Chiralities_Consistent>
1

> <s_lp_Variant>
CHEMBL1900_lig514-1

> <s_i_glide_gridfile>
glide-grid_2hv5

> <i_i_glide_lignum>
637

> <i_i_glide_rotatable_bonds>
5

> <r_i_docking_score>
-8.46243466343564

> <r_i_glide_ligand_efficiency>
-0.384656121065256

> <r_i_glide_ligand_efficiency_sa>
-1.07782157889166

> <r_i_glide_ligand_efficiency_ln>
-2.06852770654796

> <r_i_glide_gscore>
-8.46243466343564

> <r_i_glide_lipo>
-4.2396193075288

> <r_i_glide_hbond>
-0.261779670653162

> <r_i_glide_metal>
0

> <r_i_glide_rewards>
-2.69136880982406

> <r_i_glide_evdw>
-35.4289321899414

> <r_i_glide_ecoul>
-1.75461387634277

> <r_i_glide_erotb>
0.764971815518875

> <r_i_glide_esite>
0

> <r_i_glide_emodel>
-54.7525660524012

> <r_i_glide_energy>
-37.1835460662842

> <r_i_glide_einternal>
1.73346292972565

> <i_i_glide_confnum>
41

> <i_i_glide_posenum>
82

> <r_i_glide_eff_state_penalty>
0

> <s_user_duplicate_titles>
CHEMBL1900_lig514

> <s_m_subgroup_title>
dock_pv

> <s_m_subgroupid>
dock_pv

> <b_m_subgroup_collapsed>
1

$$$$
CHEMBL1900_lig419
                    3D
 Schrodinger Suite 2021-1.
 27 28  0  0  1  0            999 V2000
   18.0608   -7.1367   13.6219 S   0  0  0  0  0  0
   17.0519   -7.3682   15.1189 C   0  0  0  0  0  0
   15.8158   -7.7155   14.9812 N   0  0  0  0  0  0
   17.9369   -3.4269    9.8757 C   0  0  0  0  0  0
   17.1540   -6.1362   12.4344 C   0  0  0  0  0  0
   15.0806   -8.1127   16.0986 N   0  0  0  0  0  0
   17.6067   -7.3209   16.4522 C   0  0  0  0  0  0
   15.5416   -8.2847   17.3703 C   0  0  0  0  0  0
   17.1472   -4.4033   10.7320 C   0  0  0  0  0  0
   17.8096   -5.1313   11.7280 C   0  0  0  0  0  0
   16.8712   -7.7143   17.5209 C   0  0  0  0  0  0
   18.1964   -8.4772   13.0425 O   0  0  0  0  0  0
   19.2410   -6.3757   14.0505 O   0  0  0  0  0  0
   14.9449   -8.9260   18.2259 O   0  0  0  0  0  0
   17.2128   -2.9151    8.8810 F   0  0  0  0  0  0
   18.9455   -4.1147    9.3650 F   0  0  0  0  0  0
   18.4519   -2.4265   10.5807 F   0  0  0  0  0  0
   15.8255   -6.4108   12.1271 C   0  0  0  0  0  0
   15.7900   -4.6469   10.4901 C   0  0  0  0  0  0
   15.1301   -5.6523   11.1906 C   0  0  0  0  0  0
   18.5872   -6.9149   16.6178 H   0  0  0  0  0  0
   18.8543   -4.9544   11.9182 H   0  0  0  0  0  0
   17.2772   -7.6386   18.5186 H   0  0  0  0  0  0
   14.1514   -8.4527   15.8979 H   0  0  0  0  0  0
   15.3455   -7.2476   12.5809 H   0  0  0  0  0  0
   15.2510   -4.0946    9.7336 H   0  0  0  0  0  0
   14.0922   -5.8673   10.9823 H   0  0  0  0  0  0
  1  5  1  0  0  0
  1 12  2  0  0  0
  1 13  2  0  0  0
  1  2  1  0  0  0
  2  7  1  0  0  0
  2  3  2  0  0  0
  3  6  1  0  0  0
  4  9  1  0  0  0
  4 15  1  0  0  0
  4 16  1  0  0  0
  4 17  1  0  0  0
  5 10  2  0  0  0
  5 18  1  0  0  0
  6  8  1  0  0  0
  6 24  1  0  0  0
  7 11  2  0  0  0
  7 21  1  0  0  0
  8 14  2  0  0  0
  8 11  1  0  0  0
  9 10  1  0  0  0
  9 19  2  0  0  0
 10 22  1  0  0  0
 11 23  1  0  0  0
 18 20  2  0  0  0
 18 25  1  0  0  0
 19 20  1  0  0  0
 19 26  1  0  0  0
 20 27  1  0  0  0
M  END
> <s_m_entry_id>
6465

> <s_m_entry_name>
dock_pv.300

> <s_m_Source_Path>
/home/csk/Desktop/cluster/DUD-E-result/aldr

> <s_m_Source_File>
dock_pv.maegz

> <i_m_Source_File_Index>
300

> <chembl_id>
CHEMBL194905

> <chembl_pref_name>
None

> <i_lp_mmshare_version>
53161

> <i_f3d_flags>
0

> <r_lp_tautomer_probability>
0.998994762270461

> <s_lp_Force_Field>
OPLS_2005

> <r_lp_Energy>
20.695857

> <b_lp_Chiralities_Consistent>
1

> <s_lp_Variant>
CHEMBL1900_lig419-1

> <s_i_glide_gridfile>
glide-grid_2hv5

> <i_i_glide_lignum>
541

> <i_i_glide_rotatable_bonds>
3

> <r_i_docking_score>
-8.45667710489709

> <r_i_glide_ligand_efficiency>
-0.422833855244854

> <r_i_glide_ligand_efficiency_sa>
-1.14774766442326

> <r_i_glide_ligand_efficiency_ln>
-2.11642735947755

> <r_i_glide_gscore>
-8.45667710489709

> <r_i_glide_lipo>
-3.27828984433951

> <r_i_glide_hbond>
0

> <r_i_glide_metal>
0

> <r_i_glide_rewards>
-3.496842214869

> <r_i_glide_evdw>
-37.7984466552734

> <r_i_glide_ecoul>
-1.26685428619385

> <r_i_glide_erotb>
0.398405430004173

> <r_i_glide_esite>
0

> <r_i_glide_emodel>
-54.0680617502034

> <r_i_glide_energy>
-39.0653009414673

> <r_i_glide_einternal>
3.86140298843384

> <i_i_glide_confnum>
3

> <i_i_glide_posenum>
44

> <r_i_glide_eff_state_penalty>
0

> <s_user_duplicate_titles>
CHEMBL1900_lig419,329775

> <s_m_subgroup_title>
dock_pv

> <s_m_subgroupid>
dock_pv

> <b_m_subgroup_collapsed>
1

$$$$
CHEMBL1900_lig424
                    3D
 Schrodinger Suite 2021-1.
 30 32  0  0  1  0            999 V2000
   18.4013   -7.7998   14.4079 S   0  0  0  0  0  0
   17.7283   -6.7100   13.1680 C   0  0  0  0  0  0
   17.4610   -7.4693   15.9331 C   0  0  0  0  0  0
   16.1445   -6.9143   12.5810 S   0  0  0  0  0  0
   18.1450   -7.3150   17.0124 N   0  0  0  0  0  0
   18.3814   -5.6497   12.6008 C   0  0  0  0  0  0
   17.5073   -6.9150   18.1812 N   0  0  0  0  0  0
   17.6410   -5.0165   11.5723 C   0  0  0  0  0  0
   16.0174   -7.3288   16.0041 C   0  0  0  0  0  0
   16.3433   -5.5832   11.4718 C   0  0  0  0  0  0
   16.1884   -6.6220   18.3580 C   0  0  0  0  0  0
   18.1000   -9.1834   14.0227 O   0  0  0  0  0  0
   19.7723   -7.3150   14.5810 O   0  0  0  0  0  0
   15.4200   -6.9566   17.1655 C   0  0  0  0  0  0
   17.9762   -3.9415   10.7326 C   0  0  0  0  0  0
   15.7450   -6.1062   19.3810 O   0  0  0  0  0  0
   15.3831   -5.0732   10.5983 C   0  0  0  0  0  0
   17.0031   -3.4174    9.8836 C   0  0  0  0  0  0
   15.7450   -3.9998    9.7977 C   0  0  0  0  0  0
   17.2760   -2.1541    9.1084 C   0  0  0  0  0  0
   19.3450   -5.3435   12.9457 H   0  0  0  0  0  0
   15.3890   -7.6135   15.1757 H   0  0  0  0  0  0
   14.3427   -6.9150   17.2338 H   0  0  0  0  0  0
   18.9422   -3.4691   10.8050 H   0  0  0  0  0  0
   18.1225   -6.7643   18.9674 H   0  0  0  0  0  0
   14.3804   -5.4725   10.5810 H   0  0  0  0  0  0
   15.0139   -3.5887    9.1275 H   0  0  0  0  0  0
   16.8144   -2.2087    8.1257 H   0  0  0  0  0  0
   18.3422   -1.9796    8.9810 H   0  0  0  0  0  0
   16.8336   -1.3150    9.6426 H   0  0  0  0  0  0
  1  2  1  0  0  0
  1 12  2  0  0  0
  1 13  2  0  0  0
  1  3  1  0  0  0
  2  4  1  0  0  0
  2  6  2  0  0  0
  3  9  1  0  0  0
  3  5  2  0  0  0
  4 10  1  0  0  0
  5  7  1  0  0  0
  6  8  1  0  0  0
  6 21  1  0  0  0
  7 11  1  0  0  0
  7 25  1  0  0  0
  8 15  1  0  0  0
  8 10  2  0  0  0
  9 14  2  0  0  0
  9 22  1  0  0  0
 10 17  1  0  0  0
 11 16  2  0  0  0
 11 14  1  0  0  0
 14 23  1  0  0  0
 15 18  2  0  0  0
 15 24  1  0  0  0
 17 19  2  0  0  0
 17 26  1  0  0  0
 18 20  1  0  0  0
 18 19  1  0  0  0
 19 27  1  0  0  0
 20 28  1  0  0  0
 20 29  1  0  0  0
 20 30  1  0  0  0
M  END
> <s_m_entry_id>
6466

> <s_m_entry_name>
dock_pv.301

> <s_m_Source_Path>
/home/csk/Desktop/cluster/DUD-E-result/aldr

> <s_m_Source_File>
dock_pv.maegz

> <i_m_Source_File_Index>
301

> <chembl_id>
CHEMBL197841

> <chembl_pref_name>
None

> <i_lp_mmshare_version>
53161

> <i_f3d_flags>
0

> <r_lp_tautomer_probability>
0.998994762270461

> <s_lp_Force_Field>
OPLS_2005

> <r_lp_Energy>
21.817194

> <b_lp_Chiralities_Consistent>
1

> <s_lp_Variant>
CHEMBL1900_lig424-1

> <s_i_glide_gridfile>
glide-grid_2hv5

> <i_i_glide_lignum>
546

> <i_i_glide_rotatable_bonds>
2

> <r_i_docking_score>
-8.45529353834425

> <r_i_glide_ligand_efficiency>
-0.422764676917213

> <r_i_glide_ligand_efficiency_sa>
-1.14755988555221

> <r_i_glide_ligand_efficiency_ln>
-2.11608109840245

> <r_i_glide_gscore>
-8.45529353834425

> <r_i_glide_lipo>
-4.03587094512558

> <r_i_glide_hbond>
-0.16522279469611

> <r_i_glide_metal>
0

> <r_i_glide_rewards>
-2.61031731406106

> <r_i_glide_evdw>
-34.4262542724609

> <r_i_glide_ecoul>
-2.10775470733643

> <r_i_glide_erotb>
0.393593435262009

> <r_i_glide_esite>
0

> <r_i_glide_emodel>
-49.6416137140447

> <r_i_glide_energy>
-36.5340089797974

> <r_i_glide_einternal>
4.89679050445557

> <i_i_glide_confnum>
5

> <i_i_glide_posenum>
270

> <r_i_glide_eff_state_penalty>
0

> <s_user_duplicate_titles>
CHEMBL1900_lig424,329799

> <s_m_subgroup_title>
dock_pv

> <s_m_subgroupid>
dock_pv

> <b_m_subgroup_collapsed>
1

$$$$
CHEMBL1900_lig635
                    3D
 Schrodinger Suite 2021-1.
 41 43  0  0  1  0            999 V2000
   16.8301   -3.9057   19.8731 C   0  0  0  0  0  0
   16.4992   -4.7967   20.8893 C   0  0  0  0  0  0
   16.1452   -6.1136   20.5765 C   0  0  0  0  0  0
   16.9456   -4.3626   18.5630 C   0  0  0  0  0  0
   16.7498   -5.7182   18.2885 C   0  0  0  0  0  0
   16.2804   -6.5742   19.2688 C   0  0  0  0  0  0
   15.9869   -7.8995   18.9810 O   0  0  0  0  0  0
   16.2289   -8.4816   17.7419 C   0  0  0  0  0  0
   16.9483   -7.6550   16.7346 C   0  0  0  0  0  0
   17.1258   -6.3467   17.0369 C   0  0  0  0  0  0
   15.8296   -9.6409   17.6377 O   0  0  0  0  0  0
   17.4260   -8.2135   15.4703 C   0  0  0  0  0  0
   18.3088   -7.4604   14.7736 N   0  0  0  0  0  0
   17.0316   -9.2955   15.0368 O   0  0  0  0  0  0
   18.7040   -7.6665   13.3770 C   0  0  0  0  0  0
   17.4950   -7.5984   12.4153 C   0  0  0  0  0  0
   16.5915   -6.3516   12.5599 C   0  0  0  0  0  0
   16.8287   -5.3213   11.4685 C   0  0  0  0  0  0
   15.8390   -5.1018   10.5142 C   0  0  0  0  0  0
   16.0638   -4.2107    9.4714 C   0  0  0  0  0  0
   17.2464   -3.4855    9.3975 C   0  0  0  0  0  0
   18.2328   -3.6890   10.3538 C   0  0  0  0  0  0
   18.0325   -4.6142   11.3817 C   0  0  0  0  0  0
   16.5013   -4.3724   22.1893 O   0  0  0  0  0  0
   15.1639   -4.1146    8.4831 F   0  0  0  0  0  0
   19.3864   -2.9942   10.2658 F   0  0  0  0  0  0
   17.0532   -2.8741   20.1008 H   0  0  0  0  0  0
   15.8471   -6.7918   21.3623 H   0  0  0  0  0  0
   17.2874   -3.6844   17.7929 H   0  0  0  0  0  0
   17.6951   -5.7160   16.3841 H   0  0  0  0  0  0
   18.6570   -6.6180   15.2023 H   0  0  0  0  0  0
   19.2385   -8.6132   13.2729 H   0  0  0  0  0  0
   19.4074   -6.8688   13.1377 H   0  0  0  0  0  0
   16.9434   -8.5063   12.6089 H   0  0  0  0  0  0
   17.7499   -7.7155   11.3663 H   0  0  0  0  0  0
   16.7001   -5.8664   13.5282 H   0  0  0  0  0  0
   15.5477   -6.6680   12.5296 H   0  0  0  0  0  0
   14.9094   -5.6499   10.5537 H   0  0  0  0  0  0
   17.4079   -2.7948    8.5843 H   0  0  0  0  0  0
   18.8045   -4.7811   12.1149 H   0  0  0  0  0  0
   16.6490   -3.4278   22.2711 H   0  0  0  0  0  0
  1  2  2  0  0  0
  1  4  1  0  0  0
  1 27  1  0  0  0
  2  3  1  0  0  0
  2 24  1  0  0  0
  3  6  2  0  0  0
  3 28  1  0  0  0
  4  5  2  0  0  0
  4 29  1  0  0  0
  5  6  1  0  0  0
  5 10  1  0  0  0
  6  7  1  0  0  0
  7  8  1  0  0  0
  8  9  1  0  0  0
  8 11  2  0  0  0
  9 10  2  0  0  0
  9 12  1  0  0  0
 10 30  1  0  0  0
 12 13  1  0  0  0
 12 14  2  0  0  0
 13 15  1  0  0  0
 13 31  1  0  0  0
 15 16  1  0  0  0
 15 32  1  0  0  0
 15 33  1  0  0  0
 16 17  1  0  0  0
 16 34  1  0  0  0
 16 35  1  0  0  0
 17 18  1  0  0  0
 17 36  1  0  0  0
 17 37  1  0  0  0
 18 19  2  0  0  0
 18 23  1  0  0  0
 19 20  1  0  0  0
 19 38  1  0  0  0
 20 21  2  0  0  0
 20 25  1  0  0  0
 21 22  1  0  0  0
 21 39  1  0  0  0
 22 23  2  0  0  0
 22 26  1  0  0  0
 23 40  1  0  0  0
 24 41  1  0  0  0
M  END
> <s_m_entry_id>
6467

> <s_m_entry_name>
dock_pv.302

> <s_m_Source_Path>
/home/csk/Desktop/cluster/DUD-E-result/aldr

> <s_m_Source_File>
dock_pv.maegz

> <i_m_Source_File_Index>
302

> <chembl_id>
CHEMBL4068704

> <chembl_pref_name>
None

> <i_lp_mmshare_version>
53161

> <i_f3d_flags>
0

> <r_lp_tautomer_probability>
1

> <s_lp_Force_Field>
OPLS_2005

> <r_lp_Energy>
22.943547

> <b_lp_Chiralities_Consistent>
1

> <s_lp_Variant>
CHEMBL1900_lig635-1

> <s_i_glide_gridfile>
glide-grid_2hv5

> <i_i_glide_lignum>
759

> <i_i_glide_rotatable_bonds>
7

> <r_i_docking_score>
-8.45373004357811

> <r_i_glide_ligand_efficiency>
-0.325143463214543

> <r_i_glide_ligand_efficiency_sa>
-0.963236230395334

> <r_i_glide_ligand_efficiency_ln>
-1.98533076178356

> <r_i_glide_gscore>
-8.45373004357811

> <r_i_glide_lipo>
-4.84761465634887

> <r_i_glide_hbond>
0

> <r_i_glide_metal>
0

> <r_i_glide_rewards>
-2.37661667544431

> <r_i_glide_evdw>
-32.1916847229004

> <r_i_glide_ecoul>
-2.17439079284668

> <r_i_glide_erotb>
0.742218523901549

> <r_i_glide_esite>
-0.0359743806144542

> <r_i_glide_emodel>
-45.3374369019639

> <r_i_glide_energy>
-34.3660755157471

> <r_i_glide_einternal>
8.53383636474609

> <i_i_glide_confnum>
9

> <i_i_glide_posenum>
149

> <r_i_glide_eff_state_penalty>
0

> <s_user_duplicate_titles>
CHEMBL1900_lig635

> <s_m_subgroup_title>
dock_pv

> <s_m_subgroupid>
dock_pv

> <b_m_subgroup_collapsed>
1

$$$$
CHEMBL1900_lig607
                    3D
 Schrodinger Suite 2021-1.
 50 53  0  0  1  0            999 V2000
   16.3563   -7.7988   16.1414 C   0  0  0  0  0  0
   16.0063   -8.7419   17.2021 C   0  0  0  0  0  0
   15.8857   -8.3041   18.4712 C   0  0  0  0  0  0
   16.1446   -6.9254   18.8614 C   0  0  0  0  0  0
   16.1450   -6.5100   20.1841 C   0  0  0  0  0  0
   16.3237   -5.1666   20.4970 C   0  0  0  0  0  0
   16.4831   -4.2361   19.4813 C   0  0  0  0  0  0
   16.5456   -4.6573   18.1561 C   0  0  0  0  0  0
   16.3958   -6.0135   17.8453 C   0  0  0  0  0  0
   16.4800   -6.4669   16.5372 O   0  0  0  0  0  0
   15.8392  -10.1679   16.9810 C   0  0  0  0  0  0
   14.8616  -10.7915   17.3927 O   0  0  0  0  0  0
   16.8770  -10.7630   16.3676 N   0  0  0  0  0  0
   17.0022  -12.1902   16.0754 C   0  0  0  0  0  0
   18.0233  -12.4509   14.9767 C   0  0  0  0  0  0
   16.5550   -8.1120   14.9192 N   0  0  0  0  0  0
   17.0396   -7.2021   13.9772 C   0  0  0  0  0  0
   18.2960   -6.6153   14.1315 C   0  0  0  0  0  0
   18.7733   -5.7149   13.1928 C   0  0  0  0  0  0
   18.0167   -5.3943   12.0616 C   0  0  0  0  0  0
   16.7765   -6.0134   11.8812 C   0  0  0  0  0  0
   16.3034   -6.9118   12.8272 C   0  0  0  0  0  0
   18.5437   -4.4750   11.1757 O   0  0  0  0  0  0
   16.5446   -2.9150   19.8068 O   0  0  0  0  0  0
   17.7764   -4.0696   10.0459 C   0  0  0  0  0  0
   17.8269  -11.9101   13.7026 C   0  0  0  0  0  0
   19.1592  -13.2237   15.2371 C   0  0  0  0  0  0
   20.1075  -13.4228   14.2372 C   0  0  0  0  0  0
   19.9048  -12.8748   12.9739 C   0  0  0  0  0  0
   18.7650  -12.1260   12.6984 C   0  0  0  0  0  0
   15.6235   -8.9962   19.2574 H   0  0  0  0  0  0
   15.9588   -7.2096   20.9801 H   0  0  0  0  0  0
   16.2948   -4.8414   21.5289 H   0  0  0  0  0  0
   16.6974   -3.9282   17.3812 H   0  0  0  0  0  0
   17.6496  -10.1826   16.0769 H   0  0  0  0  0  0
   16.0341  -12.6042   15.7718 H   0  0  0  0  0  0
   17.2925  -12.7129   16.9900 H   0  0  0  0  0  0
   18.8998   -6.8455   14.9962 H   0  0  0  0  0  0
   19.7413   -5.2771   13.3759 H   0  0  0  0  0  0
   16.1615   -5.8114   11.0196 H   0  0  0  0  0  0
   15.3464   -7.3718   12.6478 H   0  0  0  0  0  0
   16.8484   -2.3449   19.0953 H   0  0  0  0  0  0
   18.3392   -3.3367    9.4705 H   0  0  0  0  0  0
   17.5587   -4.9116    9.3875 H   0  0  0  0  0  0
   16.8383   -3.6029   10.3544 H   0  0  0  0  0  0
   16.9475  -11.3171   13.4965 H   0  0  0  0  0  0
   19.3229  -13.6514   16.2170 H   0  0  0  0  0  0
   21.0005  -13.9918   14.4410 H   0  0  0  0  0  0
   20.6361  -13.0355   12.1935 H   0  0  0  0  0  0
   18.6076  -11.7143   11.7126 H   0  0  0  0  0  0
  1  2  1  0  0  0
  1 10  1  0  0  0
  1 16  2  0  0  0
  2  3  2  0  0  0
  2 11  1  0  0  0
  3  4  1  0  0  0
  3 31  1  0  0  0
  4  5  2  0  0  0
  4  9  1  0  0  0
  5  6  1  0  0  0
  5 32  1  0  0  0
  6  7  2  0  0  0
  6 33  1  0  0  0
  7  8  1  0  0  0
  7 24  1  0  0  0
  8  9  2  0  0  0
  8 34  1  0  0  0
  9 10  1  0  0  0
 11 12  2  0  0  0
 11 13  1  0  0  0
 13 14  1  0  0  0
 13 35  1  0  0  0
 14 15  1  0  0  0
 14 36  1  0  0  0
 14 37  1  0  0  0
 15 26  2  0  0  0
 15 27  1  0  0  0
 16 17  1  0  0  0
 17 18  2  0  0  0
 17 22  1  0  0  0
 18 19  1  0  0  0
 18 38  1  0  0  0
 19 20  2  0  0  0
 19 39  1  0  0  0
 20 21  1  0  0  0
 20 23  1  0  0  0
 21 22  2  0  0  0
 21 40  1  0  0  0
 22 41  1  0  0  0
 23 25  1  0  0  0
 24 42  1  0  0  0
 25 43  1  0  0  0
 25 44  1  0  0  0
 25 45  1  0  0  0
 26 30  1  0  0  0
 26 46  1  0  0  0
 27 28  2  0  0  0
 27 47  1  0  0  0
 28 29  1  0  0  0
 28 48  1  0  0  0
 29 30  2  0  0  0
 29 49  1  0  0  0
 30 50  1  0  0  0
M  END
> <s_m_entry_id>
6468

> <s_m_entry_name>
dock_pv.303

> <s_m_Source_Path>
/home/csk/Desktop/cluster/DUD-E-result/aldr

> <s_m_Source_File>
dock_pv.maegz

> <i_m_Source_File_Index>
303

> <chembl_id>
CHEMBL2440417

> <chembl_pref_name>
None

> <i_lp_mmshare_version>
53161

> <i_f3d_flags>
0

> <r_lp_tautomer_probability>
1

> <s_lp_Force_Field>
OPLS_2005

> <r_lp_Energy>
44.368674

> <b_lp_Chiralities_Consistent>
1

> <s_lp_Variant>
CHEMBL1900_lig607-1

> <s_i_glide_gridfile>
glide-grid_2hv5

> <i_i_glide_lignum>
731

> <i_i_glide_rotatable_bonds>
7

> <r_i_docking_score>
-8.45203029123268

> <r_i_glide_ligand_efficiency>
-0.281734343041089

> <r_i_glide_ligand_efficiency_sa>
-0.875414107748343

> <r_i_glide_ligand_efficiency_ln>
-1.9203933744141

> <r_i_glide_gscore>
-8.45203029123268

> <r_i_glide_lipo>
-4.85333677074728

> <r_i_glide_hbond>
0

> <r_i_glide_metal>
0

> <r_i_glide_rewards>
-1.86478726854262

> <r_i_glide_evdw>
-37.1193962097168

> <r_i_glide_ecoul>
-2.44664764404297

> <r_i_glide_erotb>
0.489060705149502

> <r_i_glide_esite>
0

> <r_i_glide_emodel>
-47.9122504951904

> <r_i_glide_energy>
-39.5660438537598

> <r_i_glide_einternal>
4.78534698486328

> <i_i_glide_confnum>
5

> <i_i_glide_posenum>
74

> <r_i_glide_eff_state_penalty>
0

> <s_user_duplicate_titles>
CHEMBL1900_lig607

> <s_m_subgroup_title>
dock_pv

> <s_m_subgroupid>
dock_pv

> <b_m_subgroup_collapsed>
1

$$$$
CHEMBL1900_lig458
                    3D
 Schrodinger Suite 2021-1.
 36 38  0  0  1  0            999 V2000
   16.7298   -8.3211   15.5653 S   0  0  0  0  0  0
   16.9051   -7.3412   14.0333 C   0  0  0  0  0  0
   16.6022   -7.0401   16.8147 C   0  0  0  0  0  0
   17.9609   -6.8552   13.2828 C   0  0  0  0  0  0
   15.7450   -6.9150   13.5134 O   0  0  0  0  0  0
   17.3710   -6.0183   12.2603 C   0  0  0  0  0  0
   15.7450   -6.1150   16.5810 N   0  0  0  0  0  0
   15.9949   -6.1651   12.4182 C   0  0  0  0  0  0
   15.7450   -4.9819   17.3810 N   0  0  0  0  0  0
   17.4427   -6.9321   17.9763 C   0  0  0  0  0  0
   16.4908   -4.7285   18.4969 C   0  0  0  0  0  0
   17.9603   -9.0661   15.8447 O   0  0  0  0  0  0
   15.4189   -8.9812   15.5461 O   0  0  0  0  0  0
   17.3459   -5.8561   18.8003 C   0  0  0  0  0  0
   17.8280   -5.1647   11.2378 C   0  0  0  0  0  0
   15.0435   -5.5742   11.5789 C   0  0  0  0  0  0
   19.4200   -7.0569   13.4479 C   0  0  0  0  0  0
   16.4340   -3.6787   19.1299 O   0  0  0  0  0  0
   16.9003   -4.5204   10.4160 C   0  0  0  0  0  0
   15.5311   -4.7369   10.5748 C   0  0  0  0  0  0
   17.4590   -3.4291    9.2006 Cl  0  0  0  0  0  0
   19.8838   -8.5179   13.3523 C   0  0  0  0  0  0
   19.9654   -6.3403   14.6710 C   0  0  0  0  0  0
   18.1450   -7.7150   18.1810 H   0  0  0  0  0  0
   17.9790   -5.7503   19.6664 H   0  0  0  0  0  0
   18.8778   -4.9799   11.0966 H   0  0  0  0  0  0
   13.9839   -5.7150   11.7368 H   0  0  0  0  0  0
   19.7450   -6.5150   12.5810 H   0  0  0  0  0  0
   15.1122   -4.2514   17.0905 H   0  0  0  0  0  0
   14.8399   -4.2250    9.9220 H   0  0  0  0  0  0
   19.3450   -9.0635   12.5810 H   0  0  0  0  0  0
   20.9484   -8.5627   13.1220 H   0  0  0  0  0  0
   19.7450   -9.0668   14.2753 H   0  0  0  0  0  0
   19.7979   -5.2667   14.5810 H   0  0  0  0  0  0
   19.4743   -6.6875   15.5788 H   0  0  0  0  0  0
   21.0345   -6.5150   14.7861 H   0  0  0  0  0  0
  1  2  1  0  0  0
  1 12  2  0  0  0
  1 13  2  0  0  0
  1  3  1  0  0  0
  2  4  2  0  0  0
  2  5  1  0  0  0
  3 10  1  0  0  0
  3  7  2  0  0  0
  4  6  1  0  0  0
  4 17  1  0  0  0
  5  8  1  0  0  0
  6 15  1  0  0  0
  6  8  2  0  0  0
  7  9  1  0  0  0
  8 16  1  0  0  0
  9 11  1  0  0  0
  9 29  1  0  0  0
 10 14  2  0  0  0
 10 24  1  0  0  0
 11 18  2  0  0  0
 11 14  1  0  0  0
 14 25  1  0  0  0
 15 19  2  0  0  0
 15 26  1  0  0  0
 16 20  2  0  0  0
 16 27  1  0  0  0
 17 22  1  0  0  0
 17 23  1  0  0  0
 17 28  1  0  0  0
 19 21  1  0  0  0
 19 20  1  0  0  0
 20 30  1  0  0  0
 22 31  1  0  0  0
 22 32  1  0  0  0
 22 33  1  0  0  0
 23 34  1  0  0  0
 23 35  1  0  0  0
 23 36  1  0  0  0
M  END
> <s_m_entry_id>
6469

> <s_m_entry_name>
dock_pv.304

> <s_m_Source_Path>
/home/csk/Desktop/cluster/DUD-E-result/aldr

> <s_m_Source_File>
dock_pv.maegz

> <i_m_Source_File_Index>
304

> <chembl_id>
CHEMBL372193

> <chembl_pref_name>
None

> <i_lp_mmshare_version>
53161

> <i_f3d_flags>
0

> <r_lp_tautomer_probability>
0.998994762270461

> <s_lp_Force_Field>
OPLS_2005

> <r_lp_Energy>
22.854528

> <b_lp_Chiralities_Consistent>
1

> <s_lp_Variant>
CHEMBL1900_lig458-1

> <s_i_glide_gridfile>
glide-grid_2hv5

> <i_i_glide_lignum>
580

> <i_i_glide_rotatable_bonds>
3

> <r_i_docking_score>
-8.45001134279099

> <r_i_glide_ligand_efficiency>
-0.367391797512652

> <r_i_glide_ligand_efficiency_sa>
-1.04481340052254

> <r_i_glide_ligand_efficiency_ln>
-2.04328936315353

> <r_i_glide_gscore>
-8.45001134279099

> <r_i_glide_lipo>
-4.53962412468968

> <r_i_glide_hbond>
-0.22981855639967

> <r_i_glide_metal>
0

> <r_i_glide_rewards>
-2.24244790742729

> <r_i_glide_evdw>
-31.306661605835

> <r_i_glide_ecoul>
-1.19687509536743

> <r_i_glide_erotb>
0.306743590322513

> <r_i_glide_esite>
0

> <r_i_glide_emodel>
-40.1463817086302

> <r_i_glide_energy>
-32.5035367012024

> <r_i_glide_einternal>
1.20259511470795

> <i_i_glide_confnum>
1

> <i_i_glide_posenum>
139

> <r_i_glide_eff_state_penalty>
0

> <s_user_duplicate_titles>
CHEMBL1900_lig458,331248

> <s_m_subgroup_title>
dock_pv

> <s_m_subgroupid>
dock_pv

> <b_m_subgroup_collapsed>
1

$$$$
CHEMBL1900_lig290
                    3D
 Schrodinger Suite 2021-1.
 39 43  0  0  1  0            999 V2000
   16.3195  -10.3778   16.5655 C   0  0  2  0  0  0
   16.4950   -8.9551   17.0703 C   0  0  0  0  0  0
   14.8693  -10.6852   16.2653 C   0  0  0  0  0  0
   17.9632   -9.1748   15.3599 N   0  0  0  0  0  0
   14.5603  -11.7341   17.0422 N   0  0  0  0  0  0
   16.6324  -11.4416   17.4695 N   0  0  0  0  0  0
   15.5670  -12.1660   17.8238 C   0  0  0  0  0  0
   17.4008   -8.2685   16.2597 C   0  0  0  0  0  0
   18.0855   -7.6247   13.4059 C   0  0  0  0  0  0
   17.1503  -10.3746   15.2761 C   0  0  0  0  0  0
   16.9450   -7.5979   12.7853 N   0  0  0  0  0  0
   18.9450   -6.1150   13.3810 S   0  0  0  0  0  0
   18.6277   -8.8655   14.0914 C   0  0  0  0  0  0
   16.7420   -6.4404   12.1015 C   0  0  0  0  0  0
   17.8242   -5.5395   12.1600 C   0  0  0  0  0  0
   15.9366   -8.3005   18.1810 C   0  0  0  0  0  0
   17.7450   -6.9564   16.5557 C   0  0  0  0  0  0
   14.1495  -10.1150   15.4476 O   0  0  0  0  0  0
   15.5038  -12.9708   18.7460 O   0  0  0  0  0  0
   16.2874   -6.9723   18.4613 C   0  0  0  0  0  0
   17.1624   -6.3005   17.6286 C   0  0  0  0  0  0
   15.7450   -6.1268   19.8604 Cl  0  0  0  0  0  0
   15.6043   -6.1150   11.3436 C   0  0  0  0  0  0
   17.8549   -4.3945   11.3554 C   0  0  0  0  0  0
   16.7411   -4.1202   10.5622 C   0  0  0  0  0  0
   15.6208   -4.9467   10.5810 C   0  0  0  0  0  0
   13.6411  -12.1482   17.0674 H   0  0  0  0  0  0
   17.5818  -11.7662   17.5745 H   0  0  0  0  0  0
   16.5450  -10.3525   14.3739 H   0  0  0  0  0  0
   17.7910  -11.2541   15.1924 H   0  0  0  0  0  0
   18.5838   -9.7158   13.4080 H   0  0  0  0  0  0
   19.6907   -8.7374   14.2957 H   0  0  0  0  0  0
   15.2700   -8.8286   18.8467 H   0  0  0  0  0  0
   18.5067   -6.4489   15.9946 H   0  0  0  0  0  0
   17.4392   -5.2818   17.8534 H   0  0  0  0  0  0
   14.7444   -6.7676   11.3243 H   0  0  0  0  0  0
   18.6857   -3.7072   11.3810 H   0  0  0  0  0  0
   16.7243   -3.2276    9.9536 H   0  0  0  0  0  0
   14.7601   -4.6835    9.9816 H   0  0  0  0  0  0
  1  2  1  0  0  0
  1  3  1  0  0  0
  1  6  1  0  0  0
  1 10  1  0  0  0
  2  8  1  0  0  0
  2 16  2  0  0  0
  3  5  1  0  0  0
  3 18  2  0  0  0
  4 10  1  0  0  0
  4 13  1  0  0  0
  4  8  1  0  0  0
  5  7  1  0  0  0
  5 27  1  0  0  0
  6  7  1  0  0  0
  6 28  1  0  0  0
  7 19  2  0  0  0
  8 17  2  0  0  0
  9 13  1  0  0  0
  9 11  2  0  0  0
  9 12  1  0  0  0
 10 29  1  0  0  0
 10 30  1  0  0  0
 11 14  1  0  0  0
 12 15  1  0  0  0
 13 31  1  0  0  0
 13 32  1  0  0  0
 14 23  1  0  0  0
 14 15  2  0  0  0
 15 24  1  0  0  0
 16 20  1  0  0  0
 16 33  1  0  0  0
 17 21  1  0  0  0
 17 34  1  0  0  0
 20 21  2  0  0  0
 20 22  1  0  0  0
 21 35  1  0  0  0
 23 26  2  0  0  0
 23 36  1  0  0  0
 24 25  2  0  0  0
 24 37  1  0  0  0
 25 26  1  0  0  0
 25 38  1  0  0  0
 26 39  1  0  0  0
M  END
> <s_m_entry_id>
6470

> <s_m_entry_name>
dock_pv.305

> <s_m_Source_Path>
/home/csk/Desktop/cluster/DUD-E-result/aldr

> <s_m_Source_File>
dock_pv.maegz

> <i_m_Source_File_Index>
305

> <chembl_id>
CHEMBL20685

> <chembl_pref_name>
None

> <i_lp_mmshare_version>
53161

> <i_f3d_flags>
0

> <r_lp_tautomer_probability>
0.99999999978137

> <s_lp_Force_Field>
OPLS_2005

> <r_lp_Energy>
31.676927

> <b_lp_Chiralities_Consistent>
1

> <s_lp_Variant>
CHEMBL1900_lig290-2

> <s_i_glide_gridfile>
glide-grid_2hv5

> <i_i_glide_lignum>
406

> <i_i_glide_rotatable_bonds>
2

> <r_i_docking_score>
-8.44910728946797

> <r_i_glide_ligand_efficiency>
-0.324965664979537

> <r_i_glide_ligand_efficiency_sa>
-0.962709503823732

> <r_i_glide_ligand_efficiency_ln>
-1.98424512314928

> <r_i_glide_gscore>
-8.44910728946797

> <r_i_glide_lipo>
-4.52787930249932

> <r_i_glide_hbond>
0

> <r_i_glide_metal>
0

> <r_i_glide_rewards>
-2.1220507751229

> <r_i_glide_evdw>
-34.1193504333496

> <r_i_glide_ecoul>
-2.19524025917053

> <r_i_glide_erotb>
0.262613585119095

> <r_i_glide_esite>
-0.02653723642179

> <r_i_glide_emodel>
-38.2004417872866

> <r_i_glide_energy>
-36.3145906925201

> <r_i_glide_einternal>
3.42324686050415

> <i_i_glide_confnum>
6

> <i_i_glide_posenum>
1

> <r_i_glide_eff_state_penalty>
0

> <s_user_duplicate_titles>
CHEMBL1900_lig290

> <s_m_subgroup_title>
dock_pv

> <s_m_subgroupid>
dock_pv

> <b_m_subgroup_collapsed>
1

$$$$
CHEMBL1900_lig515
                    3D
 Schrodinger Suite 2021-1.
 36 38  0  0  1  0            999 V2000
   18.2413  -12.6944   13.5640 C   0  0  0  0  0  0
   19.0527  -11.6815   13.0743 C   0  0  0  0  0  0
   18.9107  -10.3758   13.5297 C   0  0  0  0  0  0
   17.2506  -12.4601   14.5186 C   0  0  0  0  0  0
   17.0896  -11.1340   14.9810 C   0  0  0  0  0  0
   17.9315  -10.0852   14.4942 C   0  0  0  0  0  0
   17.5688   -8.8779   15.1670 C   0  0  0  0  0  0
   16.5296   -9.1936   16.0284 C   0  0  0  0  0  0
   16.2000  -10.5367   15.8792 N   0  0  0  0  0  0
   18.3700   -7.3148   14.9808 S   0  0  0  0  0  0
   17.6378   -6.6277   13.5206 C   0  0  0  0  0  0
   18.3795   -5.7153   12.7765 C   0  0  0  0  0  0
   17.8133   -5.0856   11.6707 C   0  0  0  0  0  0
   16.4892   -5.3505   11.3336 C   0  0  0  0  0  0
   15.7440   -6.2650   12.0718 C   0  0  0  0  0  0
   16.3235   -6.9150   13.1604 C   0  0  0  0  0  0
   15.1206  -11.2222   16.6138 C   0  0  0  0  0  0
   15.7558   -4.5138   10.0162 Cl  0  0  0  0  0  0
   15.7928   -8.2956   17.0062 C   0  0  0  0  0  0
   16.2873  -13.7973   15.0384 Cl  0  0  0  0  0  0
   15.5850  -12.0162   17.8422 C   0  0  0  0  0  0
   14.5435  -12.5657   18.5314 O   0  0  0  0  0  0
   16.7627  -12.1320   18.1750 O   0  0  0  0  0  0
   18.3800  -13.6977   13.1898 H   0  0  0  0  0  0
   19.8049  -11.9103   12.3325 H   0  0  0  0  0  0
   19.5530   -9.5914   13.1551 H   0  0  0  0  0  0
   19.3839   -5.4726   13.0818 H   0  0  0  0  0  0
   18.3857   -4.3658   11.1043 H   0  0  0  0  0  0
   14.7153   -6.4595   11.8045 H   0  0  0  0  0  0
   15.7449   -7.6072   13.7483 H   0  0  0  0  0  0
   14.3723  -10.4916   16.9152 H   0  0  0  0  0  0
   14.6108  -11.8906   15.9219 H   0  0  0  0  0  0
   16.2354   -7.3002   17.0574 H   0  0  0  0  0  0
   14.7485   -8.1589   16.7271 H   0  0  0  0  0  0
   15.8131   -8.6978   18.0208 H   0  0  0  0  0  0
   13.6634  -12.4043   18.1765 H   0  0  0  0  0  0
  1  2  2  0  0  0
  1  4  1  0  0  0
  1 24  1  0  0  0
  2  3  1  0  0  0
  2 25  1  0  0  0
  3  6  2  0  0  0
  3 26  1  0  0  0
  4  5  2  0  0  0
  4 20  1  0  0  0
  5  9  1  0  0  0
  5  6  1  0  0  0
  6  7  1  0  0  0
  7  8  2  0  0  0
  7 10  1  0  0  0
  8  9  1  0  0  0
  8 19  1  0  0  0
  9 17  1  0  0  0
 10 11  1  0  0  0
 11 12  2  0  0  0
 11 16  1  0  0  0
 12 13  1  0  0  0
 12 27  1  0  0  0
 13 14  2  0  0  0
 13 28  1  0  0  0
 14 15  1  0  0  0
 14 18  1  0  0  0
 15 16  2  0  0  0
 15 29  1  0  0  0
 16 30  1  0  0  0
 17 21  1  0  0  0
 17 31  1  0  0  0
 17 32  1  0  0  0
 19 33  1  0  0  0
 19 34  1  0  0  0
 19 35  1  0  0  0
 21 22  1  0  0  0
 21 23  2  0  0  0
 22 36  1  0  0  0
M  END
> <s_m_entry_id>
6471

> <s_m_entry_name>
dock_pv.306

> <s_m_Source_Path>
/home/csk/Desktop/cluster/DUD-E-result/aldr

> <s_m_Source_File>
dock_pv.maegz

> <i_m_Source_File_Index>
306

> <chembl_id>
CHEMBL1917423

> <chembl_pref_name>
None

> <i_lp_mmshare_version>
53161

> <i_f3d_flags>
0

> <r_lp_tautomer_probability>
1

> <s_lp_Force_Field>
OPLS_2005

> <r_lp_Energy>
14.400554

> <b_lp_Chiralities_Consistent>
1

> <s_lp_Variant>
CHEMBL1900_lig515-1

> <s_i_glide_gridfile>
glide-grid_2hv5

> <i_i_glide_lignum>
638

> <i_i_glide_rotatable_bonds>
5

> <r_i_docking_score>
-8.4244213421003

> <r_i_glide_ligand_efficiency>
-0.36627918878697

> <r_i_glide_ligand_efficiency_sa>
-1.04164928930939

> <r_i_glide_ligand_efficiency_ln>
-2.03710146894923

> <r_i_glide_gscore>
-8.4244213421003

> <r_i_glide_lipo>
-4.21927084844066

> <r_i_glide_hbond>
-0.30917549909821

> <r_i_glide_metal>
0

> <r_i_glide_rewards>
-2.08347504388786

> <r_i_glide_evdw>
-34.9056701660156

> <r_i_glide_ecoul>
-4.23699426651001

> <r_i_glide_erotb>
0.573857614360703

> <r_i_glide_esite>
-0.00552491675698563

> <r_i_glide_emodel>
-56.9515691592686

> <r_i_glide_energy>
-39.1426644325256

> <r_i_glide_einternal>
0.514898240566254

> <i_i_glide_confnum>
17

> <i_i_glide_posenum>
209

> <r_i_glide_eff_state_penalty>
0

> <s_user_duplicate_titles>
CHEMBL1900_lig515

> <s_m_subgroup_title>
dock_pv

> <s_m_subgroupid>
dock_pv

> <b_m_subgroup_collapsed>
1

$$$$
CHEMBL1900_lig29
                    3D
 Schrodinger Suite 2021-1.
 27 28  0  0  1  0            999 V2000
   14.9450   -6.9304   17.7799 N   0  0  0  0  0  0
   17.2976   -8.6483   15.9653 C   0  0  0  0  0  0
   15.1019   -8.0491   17.0671 C   0  0  0  0  0  0
   17.1162  -11.4986   16.1371 S   0  0  0  0  0  0
   16.5326   -8.4857   17.2902 C   0  0  2  0  0  0
   16.0238   -6.5514   18.4896 C   0  0  0  0  0  0
   17.5599   -9.9118   15.3812 C   0  0  0  0  0  0
   16.9805   -7.4192   18.1525 N   0  0  0  0  0  0
   18.2318   -9.9698   14.1524 C   0  0  0  0  0  0
   17.7441   -7.4932   15.3001 C   0  0  0  0  0  0
   17.4858  -12.5559   15.1911 O   0  0  0  0  0  0
   17.6754  -11.5142   17.4918 O   0  0  0  0  0  0
   14.2721   -8.5863   16.3401 O   0  0  0  0  0  0
   16.0590   -5.7128   19.3838 O   0  0  0  0  0  0
   18.4251   -7.5717   14.0900 C   0  0  0  0  0  0
   18.6671   -8.8123   13.5159 C   0  0  0  0  0  0
   15.2414  -11.5111   16.2701 C   0  0  0  0  0  0
   18.8475   -6.4442   13.4754 F   0  0  0  0  0  0
   14.0455   -6.4805   17.8575 H   0  0  0  0  0  0
   16.5457   -9.3881   17.8959 H   0  0  0  0  0  0
   17.9631   -7.2360   18.2978 H   0  0  0  0  0  0
   18.4459  -10.9184   13.6816 H   0  0  0  0  0  0
   17.5622   -6.5151   15.7178 H   0  0  0  0  0  0
   19.2016   -8.8825   12.5814 H   0  0  0  0  0  0
   14.9122  -12.5459   16.3485 H   0  0  0  0  0  0
   14.9356  -10.9725   17.1632 H   0  0  0  0  0  0
   14.8179  -11.0467   15.3815 H   0  0  0  0  0  0
  1  3  1  0  0  0
  1  6  1  0  0  0
  1 19  1  0  0  0
  2  5  1  0  0  0
  2  7  1  0  0  0
  2 10  2  0  0  0
  3  5  1  0  0  0
  3 13  2  0  0  0
  4  7  1  0  0  0
  4 11  2  0  0  0
  4 12  2  0  0  0
  4 17  1  0  0  0
  5  8  1  0  0  0
  5 20  1  0  0  0
  6  8  1  0  0  0
  6 14  2  0  0  0
  7  9  2  0  0  0
  8 21  1  0  0  0
  9 16  1  0  0  0
  9 22  1  0  0  0
 10 15  1  0  0  0
 10 23  1  0  0  0
 15 16  2  0  0  0
 15 18  1  0  0  0
 16 24  1  0  0  0
 17 25  1  0  0  0
 17 26  1  0  0  0
 17 27  1  0  0  0
M  END
> <s_m_entry_id>
6472

> <s_m_entry_name>
dock_pv.307

> <s_m_Source_Path>
/home/csk/Desktop/cluster/DUD-E-result/aldr

> <s_m_Source_File>
dock_pv.maegz

> <i_m_Source_File_Index>
307

> <chembl_id>
CHEMBL19885

> <chembl_pref_name>
None

> <i_lp_mmshare_version>
53161

> <i_f3d_flags>
0

> <r_lp_tautomer_probability>
0.999999999781369

> <s_lp_Force_Field>
OPLS_2005

> <r_lp_Energy>
18.469417

> <b_lp_Chiralities_Consistent>
1

> <s_lp_Variant>
CHEMBL1900_lig29-1

> <s_i_glide_gridfile>
glide-grid_2hv5

> <i_i_glide_lignum>
54

> <i_i_glide_rotatable_bonds>
2

> <r_i_docking_score>
-8.41449850851553

> <r_i_glide_ligand_efficiency>
-0.467472139361974

> <r_i_glide_ligand_efficiency_sa>
-1.22512358508496

> <r_i_glide_ligand_efficiency_ln>
-2.16290345297641

> <r_i_glide_gscore>
-8.41449850851553

> <r_i_glide_lipo>
-1.91224709673863

> <r_i_glide_hbond>
-0.149722806572681

> <r_i_glide_metal>
0

> <r_i_glide_rewards>
-4.36773925465463

> <r_i_glide_evdw>
-31.6097602844238

> <r_i_glide_ecoul>
-3.65487289428711

> <r_i_glide_erotb>
0.169219676495379

> <r_i_glide_esite>
-0.0252900786807047

> <r_i_glide_emodel>
-52.8392265328114

> <r_i_glide_energy>
-35.2646331787109

> <r_i_glide_einternal>
0.828067600727081

> <i_i_glide_confnum>
1

> <i_i_glide_posenum>
187

> <r_i_glide_eff_state_penalty>
0

> <s_user_duplicate_titles>
CHEMBL1900_lig29,22883

> <s_m_subgroup_title>
dock_pv

> <s_m_subgroupid>
dock_pv

> <b_m_subgroup_collapsed>
1

$$$$
CHEMBL1900_lig538
                    3D
 Schrodinger Suite 2021-1.
 41 42  0  0  1  0            999 V2000
   16.5611   -2.9941    9.6625 C   0  0  0  0  0  0
   15.6291   -3.9054   10.1413 C   0  0  0  0  0  0
   16.0209   -4.9546   10.9881 C   0  0  0  0  0  0
   17.3802   -5.0853   11.3231 C   0  0  0  0  0  0
   18.3050   -4.2141   10.7403 C   0  0  0  0  0  0
   17.9065   -3.1658    9.9250 C   0  0  0  0  0  0
   17.9055   -6.0161   12.3477 C   0  0  0  0  0  0
   17.2161   -6.6604   13.3154 C   0  0  0  0  0  0
   17.8736   -7.5114   14.2889 C   0  0  0  0  0  0
   17.0466   -7.8444   15.3127 O   0  0  0  0  0  0
   19.0539   -7.8563   14.1975 O   0  0  0  0  0  0
   17.5432   -8.5092   16.4731 C   0  0  0  0  0  0
   17.7865  -10.0240   16.2604 C   0  0  0  0  0  0
   16.1449   -1.8969    8.9810 O   0  0  0  0  0  0
   15.1225   -5.8492   11.5272 O   0  0  0  0  0  0
   13.7450   -5.5396   11.4684 C   0  0  0  0  0  0
   16.5867  -10.9550   16.4405 C   0  0  0  0  0  0
   16.5333  -12.1342   15.6910 C   0  0  0  0  0  0
   15.4857  -13.0359   15.8713 C   0  0  0  0  0  0
   14.4935  -12.7693   16.8108 C   0  0  0  0  0  0
   14.5452  -11.6014   17.5704 C   0  0  0  0  0  0
   15.5841  -10.6932   17.3817 C   0  0  0  0  0  0
   13.4534  -13.6474   16.9810 O   0  0  0  0  0  0
   14.5918   -3.7589    9.8886 H   0  0  0  0  0  0
   19.3450   -4.2974   10.9809 H   0  0  0  0  0  0
   18.6276   -2.4569    9.5477 H   0  0  0  0  0  0
   18.9762   -6.1600   12.3100 H   0  0  0  0  0  0
   16.1513   -6.5520   13.4388 H   0  0  0  0  0  0
   18.4785   -8.0227   16.7551 H   0  0  0  0  0  0
   16.8724   -8.3194   17.3075 H   0  0  0  0  0  0
   18.2390  -10.1873   15.2814 H   0  0  0  0  0  0
   18.5301  -10.3585   16.9802 H   0  0  0  0  0  0
   15.1911   -1.9246    8.8579 H   0  0  0  0  0  0
   13.1786   -6.1151   12.1808 H   0  0  0  0  0  0
   13.5400   -4.5150   11.7277 H   0  0  0  0  0  0
   13.3442   -5.7151   10.4852 H   0  0  0  0  0  0
   17.3037  -12.3589   14.9670 H   0  0  0  0  0  0
   15.4450  -13.9362   15.2776 H   0  0  0  0  0  0
   13.7746  -11.3923   18.2988 H   0  0  0  0  0  0
   15.6050   -9.8071   17.9972 H   0  0  0  0  0  0
   12.7876  -13.3015   17.5935 H   0  0  0  0  0  0
  1  6  1  0  0  0
  1  2  2  0  0  0
  1 14  1  0  0  0
  2  3  1  0  0  0
  2 24  1  0  0  0
  3 15  1  0  0  0
  3  4  2  0  0  0
  4  7  1  0  0  0
  4  5  1  0  0  0
  5  6  2  0  0  0
  5 25  1  0  0  0
  6 26  1  0  0  0
  7  8  2  0  0  0
  7 27  1  0  0  0
  8  9  1  0  0  0
  8 28  1  0  0  0
  9 10  1  0  0  0
  9 11  2  0  0  0
 10 12  1  0  0  0
 12 13  1  0  0  0
 12 29  1  0  0  0
 12 30  1  0  0  0
 13 17  1  0  0  0
 13 31  1  0  0  0
 13 32  1  0  0  0
 14 33  1  0  0  0
 15 16  1  0  0  0
 16 34  1  0  0  0
 16 35  1  0  0  0
 16 36  1  0  0  0
 17 18  2  0  0  0
 17 22  1  0  0  0
 18 19  1  0  0  0
 18 37  1  0  0  0
 19 20  2  0  0  0
 19 38  1  0  0  0
 20 21  1  0  0  0
 20 23  1  0  0  0
 21 22  2  0  0  0
 21 39  1  0  0  0
 22 40  1  0  0  0
 23 41  1  0  0  0
M  END
> <s_m_entry_id>
6473

> <s_m_entry_name>
dock_pv.308

> <s_m_Source_Path>
/home/csk/Desktop/cluster/DUD-E-result/aldr

> <s_m_Source_File>
dock_pv.maegz

> <i_m_Source_File_Index>
308

> <chembl_id>
CHEMBL1940397

> <chembl_pref_name>
None

> <i_lp_mmshare_version>
53161

> <i_f3d_flags>
0

> <r_lp_tautomer_probability>
0.999999999997365

> <s_lp_Force_Field>
OPLS_2005

> <r_lp_Energy>
16.243106

> <b_lp_Chiralities_Consistent>
1

> <s_lp_Variant>
CHEMBL1900_lig538-1

> <s_i_glide_gridfile>
glide-grid_2hv5

> <i_i_glide_lignum>
661

> <i_i_glide_rotatable_bonds>
9

> <r_i_docking_score>
-8.40753817418656

> <r_i_glide_ligand_efficiency>
-0.365545138008111

> <r_i_glide_ligand_efficiency_sa>
-1.03956174654004

> <r_i_glide_ligand_efficiency_ln>
-2.03301896585958

> <r_i_glide_gscore>
-8.40753817418656

> <r_i_glide_lipo>
-3.82615521793256

> <r_i_glide_hbond>
-0.32

> <r_i_glide_metal>
0

> <r_i_glide_rewards>
-2.57139710684663

> <r_i_glide_evdw>
-35.47216796875

> <r_i_glide_ecoul>
-6.96719121932983

> <r_i_glide_erotb>
1.12870123192961

> <r_i_glide_esite>
0

> <r_i_glide_emodel>
-59.6170201415119

> <r_i_glide_energy>
-42.4393591880798

> <r_i_glide_einternal>
4.97231101989746

> <i_i_glide_confnum>
46

> <i_i_glide_posenum>
52

> <r_i_glide_eff_state_penalty>
0

> <s_user_duplicate_titles>
CHEMBL1900_lig538

> <s_m_subgroup_title>
dock_pv

> <s_m_subgroupid>
dock_pv

> <b_m_subgroup_collapsed>
1

$$$$
CHEMBL1900_lig525
                    3D
 Schrodinger Suite 2021-1.
 39 41  0  0  1  0            999 V2000
   18.3047  -11.9973   14.5366 C   0  0  0  0  0  0
   18.9450  -11.3426   13.4864 C   0  0  0  0  0  0
   18.8805   -9.9540   13.3806 C   0  0  0  0  0  0
   17.6050  -11.2967   15.5166 C   0  0  0  0  0  0
   17.5358   -9.9016   15.3806 C   0  0  0  0  0  0
   18.1446   -9.2084   14.2990 C   0  0  0  0  0  0
   17.8478   -7.8089   14.4241 C   0  0  0  0  0  0
   17.0540   -7.7084   15.5651 C   0  0  0  0  0  0
   16.9550   -8.9430   16.1819 N   0  0  0  0  0  0
   18.4809   -6.4964   13.3812 S   0  0  0  0  0  0
   17.1382   -5.9662   12.3082 C   0  0  0  0  0  0
   17.3140   -4.9643   11.3264 C   0  0  0  0  0  0
   16.2334   -4.5160   10.5666 C   0  0  0  0  0  0
   14.9708   -5.0592   10.7516 C   0  0  0  0  0  0
   14.7931   -6.0790   11.6767 C   0  0  0  0  0  0
   15.8665   -6.5149   12.4569 C   0  0  0  0  0  0
   16.3144   -9.2302   17.4667 C   0  0  0  0  0  0
   16.3677   -6.5149   16.1684 C   0  0  0  0  0  0
   19.7230  -12.1320   12.4516 C   0  0  0  0  0  0
   18.8236   -4.2153   10.9810 Cl  0  0  0  0  0  0
   14.9248   -9.8580   17.3846 C   0  0  0  0  0  0
   14.1459   -9.3147   16.4076 O   0  0  0  0  0  0
   14.5449  -10.7136   18.1771 O   0  0  0  0  0  0
   18.3660  -13.0736   14.6097 H   0  0  0  0  0  0
   19.3495   -9.4396   12.5640 H   0  0  0  0  0  0
   17.1327  -11.8185   16.3351 H   0  0  0  0  0  0
   16.3713   -3.7366    9.8321 H   0  0  0  0  0  0
   14.1346   -4.7014   10.1687 H   0  0  0  0  0  0
   13.8120   -6.5159   11.7810 H   0  0  0  0  0  0
   15.7223   -7.3042   13.1733 H   0  0  0  0  0  0
   16.9670   -9.9202   17.9941 H   0  0  0  0  0  0
   16.2811   -8.3336   18.0840 H   0  0  0  0  0  0
   16.1449   -5.8058   15.3796 H   0  0  0  0  0  0
   15.4074   -6.7564   16.6247 H   0  0  0  0  0  0
   16.9850   -6.0265   16.9233 H   0  0  0  0  0  0
   19.7138  -13.2047   12.6523 H   0  0  0  0  0  0
   20.7612  -11.7992   12.4311 H   0  0  0  0  0  0
   19.3042  -11.9629   11.4584 H   0  0  0  0  0  0
   13.2713   -9.7117   16.4210 H   0  0  0  0  0  0
  1  2  2  0  0  0
  1  4  1  0  0  0
  1 24  1  0  0  0
  2  3  1  0  0  0
  2 19  1  0  0  0
  3  6  2  0  0  0
  3 25  1  0  0  0
  4  5  2  0  0  0
  4 26  1  0  0  0
  5  9  1  0  0  0
  5  6  1  0  0  0
  6  7  1  0  0  0
  7  8  2  0  0  0
  7 10  1  0  0  0
  8 18  1  0  0  0
  8  9  1  0  0  0
  9 17  1  0  0  0
 10 11  1  0  0  0
 11 12  2  0  0  0
 11 16  1  0  0  0
 12 13  1  0  0  0
 12 20  1  0  0  0
 13 14  2  0  0  0
 13 27  1  0  0  0
 14 15  1  0  0  0
 14 28  1  0  0  0
 15 16  2  0  0  0
 15 29  1  0  0  0
 16 30  1  0  0  0
 17 21  1  0  0  0
 17 31  1  0  0  0
 17 32  1  0  0  0
 18 33  1  0  0  0
 18 34  1  0  0  0
 18 35  1  0  0  0
 19 36  1  0  0  0
 19 37  1  0  0  0
 19 38  1  0  0  0
 21 22  1  0  0  0
 21 23  2  0  0  0
 22 39  1  0  0  0
M  END
> <s_m_entry_id>
6474

> <s_m_entry_name>
dock_pv.309

> <s_m_Source_Path>
/home/csk/Desktop/cluster/DUD-E-result/aldr

> <s_m_Source_File>
dock_pv.maegz

> <i_m_Source_File_Index>
309

> <chembl_id>
CHEMBL1917442

> <chembl_pref_name>
None

> <i_lp_mmshare_version>
53161

> <i_f3d_flags>
0

> <r_lp_tautomer_probability>
1

> <s_lp_Force_Field>
OPLS_2005

> <r_lp_Energy>
12.729769

> <b_lp_Chiralities_Consistent>
1

> <s_lp_Variant>
CHEMBL1900_lig525-1

> <s_i_glide_gridfile>
glide-grid_2hv5

> <i_i_glide_lignum>
648

> <i_i_glide_rotatable_bonds>
5

> <r_i_docking_score>
-8.40559374234063

> <r_i_glide_ligand_efficiency>
-0.365460597493071

> <r_i_glide_ligand_efficiency_sa>
-1.03932132456111

> <r_i_glide_ligand_efficiency_ln>
-2.0325487846081

> <r_i_glide_gscore>
-8.40559374234063

> <r_i_glide_lipo>
-4.41225159356693

> <r_i_glide_hbond>
0

> <r_i_glide_metal>
0

> <r_i_glide_rewards>
-2.7102159735511

> <r_i_glide_evdw>
-36.9096488952637

> <r_i_glide_ecoul>
-0.48809027671814

> <r_i_glide_erotb>
0.635569811048305

> <r_i_glide_esite>
0

> <r_i_glide_emodel>
-48.9076977925001

> <r_i_glide_energy>
-37.3977391719818

> <r_i_glide_einternal>
5.90288162231445

> <i_i_glide_confnum>
3

> <i_i_glide_posenum>
130

> <r_i_glide_eff_state_penalty>
0

> <s_user_duplicate_titles>
CHEMBL1900_lig525

> <s_m_subgroup_title>
dock_pv

> <s_m_subgroupid>
dock_pv

> <b_m_subgroup_collapsed>
1

$$$$
CHEMBL1900_lig563
                    3D
 Schrodinger Suite 2021-1.
 43 46  0  0  1  0            999 V2000
   16.1650  -13.6953   17.1918 C   0  0  0  0  0  0
   15.4146  -13.0524   18.1705 C   0  0  0  0  0  0
   15.3421  -11.6684   18.2285 C   0  0  0  0  0  0
   16.8556  -12.9798   16.2178 C   0  0  0  0  0  0
   16.8010  -11.5804   16.2389 C   0  0  0  0  0  0
   16.0679  -10.9315   17.2771 C   0  0  0  0  0  0
   16.2422   -9.5626   17.1265 N   0  0  0  0  0  0
   17.3098  -10.5614   15.3823 C   0  0  0  0  0  0
   16.8469   -9.3487   15.8703 C   0  0  0  0  0  0
   16.9468   -8.1422   15.0736 C   0  0  0  0  0  0
   17.8879   -8.1335   14.0500 N   0  0  0  0  0  0
   18.7653   -9.2984   13.7772 C   0  0  0  0  0  0
   18.0634  -10.6562   14.0650 C   0  0  0  0  0  0
   15.8710   -6.9150   15.3165 S   0  0  0  0  0  0
   18.3503   -6.8692   13.3953 C   0  0  0  0  0  0
   17.5308   -6.1943   12.2791 C   0  0  0  0  0  0
   16.2017   -6.5154   11.9973 C   0  0  0  0  0  0
   15.4745   -5.7918   11.0550 C   0  0  0  0  0  0
   16.0953   -4.7697   10.3471 C   0  0  0  0  0  0
   17.4353   -4.4684   10.5750 C   0  0  0  0  0  0
   18.1416   -5.1763   11.5456 C   0  0  0  0  0  0
   15.6815   -8.5761   18.1076 C   0  0  0  0  0  0
   16.5438   -7.3743   18.5794 C   0  0  0  0  0  0
   16.1396   -6.5395   19.3828 O   0  0  0  0  0  0
   17.7768   -7.3150   18.0144 O   0  0  0  0  0  0
   14.5604  -13.9808   19.3453 Cl  0  0  0  0  0  0
   16.2015  -14.7683   17.1757 H   0  0  0  0  0  0
   14.7529  -11.1915   18.9981 H   0  0  0  0  0  0
   17.4112  -13.4972   15.4508 H   0  0  0  0  0  0
   19.6625   -9.1940   14.3915 H   0  0  0  0  0  0
   19.0965   -9.2816   12.7386 H   0  0  0  0  0  0
   18.8083  -11.4516   14.0823 H   0  0  0  0  0  0
   17.3814  -10.9115   13.2533 H   0  0  0  0  0  0
   19.3450   -7.0408   12.9834 H   0  0  0  0  0  0
   18.5108   -6.1216   14.1756 H   0  0  0  0  0  0
   15.7136   -7.3176   12.5231 H   0  0  0  0  0  0
   14.4335   -6.0287   10.8836 H   0  0  0  0  0  0
   15.5307   -4.2207    9.6067 H   0  0  0  0  0  0
   17.9121   -3.6769   10.0151 H   0  0  0  0  0  0
   19.1644   -4.9202   11.7438 H   0  0  0  0  0  0
   15.4219   -9.1000   19.0247 H   0  0  0  0  0  0
   14.7370   -8.2086   17.7084 H   0  0  0  0  0  0
   18.2574   -6.5482   18.3320 H   0  0  0  0  0  0
  1  2  1  0  0  0
  1  4  2  0  0  0
  1 27  1  0  0  0
  2  3  2  0  0  0
  2 26  1  0  0  0
  3  6  1  0  0  0
  3 28  1  0  0  0
  4  5  1  0  0  0
  4 29  1  0  0  0
  5  8  1  0  0  0
  5  6  2  0  0  0
  6  7  1  0  0  0
  7  9  1  0  0  0
  7 22  1  0  0  0
  8  9  2  0  0  0
  8 13  1  0  0  0
  9 10  1  0  0  0
 10 11  1  0  0  0
 10 14  2  0  0  0
 11 12  1  0  0  0
 11 15  1  0  0  0
 12 13  1  0  0  0
 12 30  1  0  0  0
 12 31  1  0  0  0
 13 32  1  0  0  0
 13 33  1  0  0  0
 15 16  1  0  0  0
 15 34  1  0  0  0
 15 35  1  0  0  0
 16 17  2  0  0  0
 16 21  1  0  0  0
 17 18  1  0  0  0
 17 36  1  0  0  0
 18 19  2  0  0  0
 18 37  1  0  0  0
 19 20  1  0  0  0
 19 38  1  0  0  0
 20 21  2  0  0  0
 20 39  1  0  0  0
 21 40  1  0  0  0
 22 23  1  0  0  0
 22 41  1  0  0  0
 22 42  1  0  0  0
 23 24  2  0  0  0
 23 25  1  0  0  0
 25 43  1  0  0  0
M  END
> <s_m_entry_id>
6475

> <s_m_entry_name>
dock_pv.310

> <s_m_Source_Path>
/home/csk/Desktop/cluster/DUD-E-result/aldr

> <s_m_Source_File>
dock_pv.maegz

> <i_m_Source_File_Index>
310

> <chembl_id>
CHEMBL1946966

> <chembl_pref_name>
None

> <i_lp_mmshare_version>
53161

> <i_f3d_flags>
0

> <r_lp_tautomer_probability>
1

> <s_lp_Force_Field>
OPLS_2005

> <r_lp_Energy>
37.088761

> <b_lp_Chiralities_Consistent>
1

> <s_lp_Variant>
CHEMBL1900_lig563-1

> <s_i_glide_gridfile>
glide-grid_2hv5

> <i_i_glide_lignum>
686

> <i_i_glide_rotatable_bonds>
5

> <r_i_docking_score>
-8.3873583696125

> <r_i_glide_ligand_efficiency>
-0.322590706523558

> <r_i_glide_ligand_efficiency_sa>
-0.955673698742903

> <r_i_glide_ligand_efficiency_ln>
-1.96974359193596

> <r_i_glide_gscore>
-8.3873583696125

> <r_i_glide_lipo>
-3.554608766353

> <r_i_glide_hbond>
0

> <r_i_glide_metal>
0

> <r_i_glide_rewards>
-3.21572834550669

> <r_i_glide_evdw>
-33.3184471130371

> <r_i_glide_ecoul>
-3.1748583316803

> <r_i_glide_erotb>
0.52512984765109

> <r_i_glide_esite>
0

> <r_i_glide_emodel>
-34.0639633368842

> <r_i_glide_energy>
-36.4933054447174

> <r_i_glide_einternal>
11.8862066268921

> <i_i_glide_confnum>
25

> <i_i_glide_posenum>
290

> <r_i_glide_eff_state_penalty>
0

> <s_user_duplicate_titles>
CHEMBL1900_lig563

> <s_m_subgroup_title>
dock_pv

> <s_m_subgroupid>
dock_pv

> <b_m_subgroup_collapsed>
1

$$$$
CHEMBL1900_lig247
                    3D
 Schrodinger Suite 2021-1.
 45 48  0  0  1  0            999 V2000
   17.8169   -8.9677   15.7488 N   0  0  0  0  0  0
   17.2593   -8.3952   16.8621 N   0  0  0  0  0  0
   17.5689  -10.2307   15.2475 C   0  0  0  0  0  0
   16.2219   -8.9023   17.3963 C   0  0  0  0  0  0
   17.4952   -4.3980   10.4632 C   0  0  0  0  0  0
   17.8927   -7.2113   13.9959 C   0  0  0  0  0  0
   18.5830   -6.4650   13.2132 N   0  0  0  0  0  0
   18.1778   -3.4183    9.5310 C   0  0  0  0  0  0
   18.6498   -8.0335   14.9923 C   0  0  0  0  0  0
   16.4831  -10.9383   16.0496 C   0  0  0  0  0  0
   16.1516   -7.0603   13.8125 S   0  0  0  0  0  0
   17.7977   -5.8489   12.3219 C   0  0  0  0  0  0
   16.4204   -6.1154   12.3608 C   0  0  0  0  0  0
   15.7949  -10.2771   17.0896 C   0  0  0  0  0  0
   18.3118   -4.9850   11.3939 C   0  0  0  0  0  0
   15.4554   -8.0527   18.4103 C   0  0  0  0  0  0
   16.1370   -4.7152   10.4340 C   0  0  0  0  0  0
   15.5642   -5.5794   11.3815 C   0  0  0  0  0  0
   15.8111   -6.5447   18.4528 C   0  0  0  0  0  0
   18.1269  -10.7059   14.2538 O   0  0  0  0  0  0
   15.7450   -5.8045   17.4723 O   0  0  0  0  0  0
   17.4097   -2.9150    8.5810 F   0  0  0  0  0  0
   18.7157   -2.4047   10.2094 F   0  0  0  0  0  0
   19.1533   -4.1150    8.9810 F   0  0  0  0  0  0
   15.3444   -4.0470    9.5576 O   0  0  0  0  0  0
   16.1450   -6.1358   19.7108 O   0  0  0  0  0  0
   16.1625  -12.2644   15.7366 C   0  0  0  0  0  0
   14.8458  -10.9796   17.8427 C   0  0  0  0  0  0
   15.0877   -2.7486   10.0638 C   0  0  0  0  0  0
   15.1917  -12.9407   16.4735 C   0  0  0  0  0  0
   14.5450  -12.3045   17.5307 C   0  0  0  0  0  0
   19.1337   -7.3150   15.6641 H   0  0  0  0  0  0
   19.4719   -8.5600   14.5020 H   0  0  0  0  0  0
   19.3450   -4.7685   11.3811 H   0  0  0  0  0  0
   14.3913   -8.1139   18.1811 H   0  0  0  0  0  0
   15.6078   -8.5149   19.3847 H   0  0  0  0  0  0
   14.4980   -5.7543   11.3999 H   0  0  0  0  0  0
   16.2817   -6.8743   20.3076 H   0  0  0  0  0  0
   16.6659  -12.7773   14.9279 H   0  0  0  0  0  0
   14.3261  -10.5140   18.6663 H   0  0  0  0  0  0
   14.5450   -2.1150    9.3811 H   0  0  0  0  0  0
   14.5450   -2.9149   10.9809 H   0  0  0  0  0  0
   15.9848   -2.1722   10.2762 H   0  0  0  0  0  0
   14.9436  -13.9613   16.2277 H   0  0  0  0  0  0
   13.7966  -12.8353   18.1029 H   0  0  0  0  0  0
  1  2  1  0  0  0
  1  3  1  0  0  0
  1  9  1  0  0  0
  2  4  2  0  0  0
  3 10  1  0  0  0
  3 20  2  0  0  0
  4 16  1  0  0  0
  4 14  1  0  0  0
  5 15  2  0  0  0
  5  8  1  0  0  0
  5 17  1  0  0  0
  6  9  1  0  0  0
  6  7  2  0  0  0
  6 11  1  0  0  0
  7 12  1  0  0  0
  8 22  1  0  0  0
  8 23  1  0  0  0
  8 24  1  0  0  0
  9 32  1  0  0  0
  9 33  1  0  0  0
 10 14  1  0  0  0
 10 27  2  0  0  0
 11 13  1  0  0  0
 12 15  1  0  0  0
 12 13  2  0  0  0
 13 18  1  0  0  0
 14 28  2  0  0  0
 15 34  1  0  0  0
 16 19  1  0  0  0
 16 35  1  0  0  0
 16 36  1  0  0  0
 17 18  2  0  0  0
 17 25  1  0  0  0
 18 37  1  0  0  0
 19 21  2  0  0  0
 19 26  1  0  0  0
 25 29  1  0  0  0
 26 38  1  0  0  0
 27 30  1  0  0  0
 27 39  1  0  0  0
 28 31  1  0  0  0
 28 40  1  0  0  0
 29 41  1  0  0  0
 29 42  1  0  0  0
 29 43  1  0  0  0
 30 31  2  0  0  0
 30 44  1  0  0  0
 31 45  1  0  0  0
M  END
> <s_m_entry_id>
6476

> <s_m_entry_name>
dock_pv.311

> <s_m_Source_Path>
/home/csk/Desktop/cluster/DUD-E-result/aldr

> <s_m_Source_File>
dock_pv.maegz

> <i_m_Source_File_Index>
311

> <chembl_id>
CHEMBL280361

> <chembl_pref_name>
None

> <i_lp_mmshare_version>
53161

> <i_f3d_flags>
0

> <r_lp_tautomer_probability>
1

> <s_lp_Force_Field>
OPLS_2005

> <r_lp_Energy>
28.229861

> <b_lp_Chiralities_Consistent>
1

> <s_lp_Variant>
CHEMBL1900_lig247-1

> <s_i_glide_gridfile>
glide-grid_2hv5

> <i_i_glide_lignum>
360

> <i_i_glide_rotatable_bonds>
7

> <r_i_docking_score>
-8.38496215253728

> <r_i_glide_ligand_efficiency>
-0.270482650081848

> <r_i_glide_ligand_efficiency_sa>
-0.849688962802061

> <r_i_glide_ligand_efficiency_ln>
-1.89106593362641

> <r_i_glide_gscore>
-8.38496215253728

> <r_i_glide_lipo>
-4.38360569426395

> <r_i_glide_hbond>
0

> <r_i_glide_metal>
0

> <r_i_glide_rewards>
-2.26322729861451

> <r_i_glide_evdw>
-33.0626182556152

> <r_i_glide_ecoul>
-3.20103931427002

> <r_i_glide_erotb>
0.396914718494108

> <r_i_glide_esite>
-0.00175706823166692

> <r_i_glide_emodel>
-53.5952583268761

> <r_i_glide_energy>
-36.2636575698853

> <r_i_glide_einternal>
12.1675081253052

> <i_i_glide_confnum>
7

> <i_i_glide_posenum>
23

> <r_i_glide_eff_state_penalty>
0

> <s_user_duplicate_titles>
CHEMBL1900_lig247

> <s_m_subgroup_title>
dock_pv

> <s_m_subgroupid>
dock_pv

> <b_m_subgroup_collapsed>
1

$$$$
CHEMBL1900_lig659 
                    3D
 Schrodinger Suite 2021-1.
 44 46  0  0  1  0            999 V2000
   17.4098   -7.7436   15.3392 C   0  0  0  0  0  0
   16.9336   -9.0487   15.2370 C   0  0  0  0  0  0
   16.2803   -9.6407   16.3146 C   0  0  0  0  0  0
   16.1477   -8.9397   17.5116 C   0  0  0  0  0  0
   16.6865   -7.6548   17.6539 C   0  0  0  0  0  0
   17.3054   -7.0594   16.5497 C   0  0  0  0  0  0
   16.6199   -7.0191   18.9825 C   0  0  0  0  0  0
   16.6377   -5.7128   19.3380 C   0  0  0  0  0  0
   16.5449   -5.3314   20.7285 C   0  0  0  0  0  0
   16.2152   -4.0273   20.8792 N   0  0  0  0  0  0
   15.8934   -3.4117   19.7073 C   0  0  0  0  0  0
   16.5451   -4.2773   18.3530 S   0  0  0  0  0  0
   16.5450   -6.1150   21.6640 O   0  0  0  0  0  0
   14.9449   -2.1150   19.3950 S   0  0  0  0  0  0
   15.7524   -3.4458   22.1959 C   0  0  0  0  0  0
   16.5454   -3.8970   23.4492 C   0  0  0  0  0  0
   17.7399   -4.1151   23.4404 O   0  0  0  0  0  0
   15.7450   -4.0341   24.5456 O   0  0  0  0  0  0
   18.0153   -7.1484   14.2675 O   0  0  0  0  0  0
   17.1201   -6.5547   13.3320 C   0  0  0  0  0  0
   17.9730   -6.1192   12.1353 C   0  0  0  0  0  0
   17.3810   -5.0818   11.1904 C   0  0  0  0  0  0
   16.0493   -5.1560   10.7815 C   0  0  0  0  0  0
   15.5604   -4.2241    9.8719 C   0  0  0  0  0  0
   16.3838   -3.2159    9.3810 C   0  0  0  0  0  0
   17.7123   -3.1382    9.7799 C   0  0  0  0  0  0
   18.2084   -4.0798   10.6747 C   0  0  0  0  0  0
   17.0545   -9.5938   14.3136 H   0  0  0  0  0  0
   15.8878  -10.6433   16.2256 H   0  0  0  0  0  0
   15.6555   -9.4208   18.3453 H   0  0  0  0  0  0
   17.7450   -6.0799   16.6222 H   0  0  0  0  0  0
   16.5450   -7.7406   19.7808 H   0  0  0  0  0  0
   14.6996   -3.6858   22.3338 H   0  0  0  0  0  0
   15.8317   -2.3590   22.1682 H   0  0  0  0  0  0
   14.8124   -3.7814   24.4631 H   0  0  0  0  0  0
   16.3564   -7.2657   13.0086 H   0  0  0  0  0  0
   16.6016   -5.7150   13.7810 H   0  0  0  0  0  0
   18.9424   -5.7666   12.4941 H   0  0  0  0  0  0
   18.1450   -7.0132   11.5521 H   0  0  0  0  0  0
   15.3979   -5.9361   11.1473 H   0  0  0  0  0  0
   14.5449   -4.2892    9.5329 H   0  0  0  0  0  0
   15.9890   -2.4963    8.6797 H   0  0  0  0  0  0
   18.3517   -2.3585    9.3932 H   0  0  0  0  0  0
   19.2422   -4.0226   10.9700 H   0  0  0  0  0  0
  1  2  2  0  0  0
  1  6  1  0  0  0
  1 19  1  0  0  0
  2  3  1  0  0  0
  2 28  1  0  0  0
  3  4  2  0  0  0
  3 29  1  0  0  0
  4  5  1  0  0  0
  4 30  1  0  0  0
  5  6  2  0  0  0
  5  7  1  0  0  0
  6 31  1  0  0  0
  7  8  2  0  0  0
  7 32  1  0  0  0
  8  9  1  0  0  0
  8 12  1  0  0  0
  9 10  1  0  0  0
  9 13  2  0  0  0
 10 11  1  0  0  0
 10 15  1  0  0  0
 11 12  1  0  0  0
 11 14  2  0  0  0
 15 16  1  0  0  0
 15 33  1  0  0  0
 15 34  1  0  0  0
 16 17  2  0  0  0
 16 18  1  0  0  0
 18 35  1  0  0  0
 19 20  1  0  0  0
 20 21  1  0  0  0
 20 36  1  0  0  0
 20 37  1  0  0  0
 21 22  1  0  0  0
 21 38  1  0  0  0
 21 39  1  0  0  0
 22 23  2  0  0  0
 22 27  1  0  0  0
 23 24  1  0  0  0
 23 40  1  0  0  0
 24 25  2  0  0  0
 24 41  1  0  0  0
 25 26  1  0  0  0
 25 42  1  0  0  0
 26 27  2  0  0  0
 26 43  1  0  0  0
 27 44  1  0  0  0
M  END
> <s_m_entry_id>
6477

> <s_m_entry_name>
dock_pv.312

> <s_m_Source_Path>
/home/csk/Desktop/cluster/DUD-E-result/aldr

> <s_m_Source_File>
dock_pv.maegz

> <i_m_Source_File_Index>
312

> <chembl_id>
CHEMBL4459307

> <chembl_pref_name>
None

> <i_lp_mmshare_version>
53161

> <i_f3d_flags>
0

> <r_lp_tautomer_probability>
1

> <s_lp_Force_Field>
OPLS_2005

> <r_lp_Energy>
21.158336

> <b_lp_Chiralities_Consistent>
1

> <s_lp_Variant>
CHEMBL1900_lig659 -1

> <s_i_glide_gridfile>
glide-grid_2hv5

> <i_i_glide_lignum>
785

> <i_i_glide_rotatable_bonds>
8

> <r_i_docking_score>
-8.38033429323966

> <r_i_glide_ligand_efficiency>
-0.310382751601469

> <r_i_glide_ligand_efficiency_sa>
-0.931148253781436

> <r_i_glide_ligand_efficiency_ln>
-1.95080366285753

> <r_i_glide_gscore>
-8.38033429323966

> <r_i_glide_lipo>
-4.86820550284576

> <r_i_glide_hbond>
0

> <r_i_glide_metal>
0

> <r_i_glide_rewards>
-0.96735739343851

> <r_i_glide_evdw>
-44.5342483520508

> <r_i_glide_ecoul>
-7.03176259994507

> <r_i_glide_erotb>
0.736705410638916

> <r_i_glide_esite>
0

> <r_i_glide_emodel>
-43.5357361292195

> <r_i_glide_energy>
-51.5660109519958

> <r_i_glide_einternal>
17.0380020141602

> <i_i_glide_confnum>
14

> <i_i_glide_posenum>
56

> <r_i_glide_eff_state_penalty>
0

> <s_user_duplicate_titles>
CHEMBL1900_lig659 

> <s_m_subgroup_title>
dock_pv

> <s_m_subgroupid>
dock_pv

> <b_m_subgroup_collapsed>
1

$$$$
CHEMBL1900_lig623
                    3D
 Schrodinger Suite 2021-1.
 30 31  0  0  1  0            999 V2000
   15.3451   -7.2158   14.9810 N   0  0  0  0  0  0
   15.2756   -7.5840   16.1851 C   0  0  0  0  0  0
   16.4275   -7.4228   16.8399 N   0  0  0  0  0  0
   17.3567   -7.1292   15.9313 C   0  0  0  0  0  0
   16.6284   -6.9194   14.7169 C   0  0  0  0  0  0
   18.5450   -7.0000   16.1316 O   0  0  0  0  0  0
   14.0643   -8.1105   16.8952 C   0  0  0  0  0  0
   17.3174   -6.4337   13.6511 C   0  0  0  0  0  0
   16.8422   -5.9120   12.3498 C   0  0  0  0  0  0
   16.7171   -7.4943   18.2874 C   0  0  0  0  0  0
   16.4259   -6.1557   19.0046 C   0  0  0  0  0  0
   16.5448   -5.0594   18.2004 O   0  0  0  0  0  0
   16.1464   -6.1045   20.1808 O   0  0  0  0  0  0
   17.8093   -5.3903   11.4842 C   0  0  0  0  0  0
   17.4389   -4.6951   10.3407 C   0  0  0  0  0  0
   16.0918   -4.5166   10.0575 C   0  0  0  0  0  0
   15.1136   -5.0653   10.8812 C   0  0  0  0  0  0
   15.4889   -5.7674   12.0233 C   0  0  0  0  0  0
   15.7407   -3.7843    8.9811 F   0  0  0  0  0  0
   13.5935   -7.3139   17.4720 H   0  0  0  0  0  0
   13.3454   -8.5097   16.1794 H   0  0  0  0  0  0
   14.3157   -8.9260   17.5726 H   0  0  0  0  0  0
   18.3910   -6.3373   13.7626 H   0  0  0  0  0  0
   17.7706   -7.7157   18.4541 H   0  0  0  0  0  0
   16.1529   -8.2970   18.7619 H   0  0  0  0  0  0
   16.4412   -4.2532   18.7095 H   0  0  0  0  0  0
   18.8608   -5.4780   11.7165 H   0  0  0  0  0  0
   18.1883   -4.2692    9.6910 H   0  0  0  0  0  0
   14.0683   -4.9116   10.6541 H   0  0  0  0  0  0
   14.7151   -6.1142   12.6872 H   0  0  0  0  0  0
  1  2  2  0  0  0
  1  5  1  0  0  0
  2  3  1  0  0  0
  2  7  1  0  0  0
  3  4  1  0  0  0
  3 10  1  0  0  0
  4  5  1  0  0  0
  4  6  2  0  0  0
  5  8  2  0  0  0
  7 20  1  0  0  0
  7 21  1  0  0  0
  7 22  1  0  0  0
  8  9  1  0  0  0
  8 23  1  0  0  0
  9 14  2  0  0  0
  9 18  1  0  0  0
 10 11  1  0  0  0
 10 24  1  0  0  0
 10 25  1  0  0  0
 11 12  1  0  0  0
 11 13  2  0  0  0
 12 26  1  0  0  0
 14 15  1  0  0  0
 14 27  1  0  0  0
 15 16  2  0  0  0
 15 28  1  0  0  0
 16 17  1  0  0  0
 16 19  1  0  0  0
 17 18  2  0  0  0
 17 29  1  0  0  0
 18 30  1  0  0  0
M  END
> <s_m_entry_id>
6478

> <s_m_entry_name>
dock_pv.313

> <s_m_Source_Path>
/home/csk/Desktop/cluster/DUD-E-result/aldr

> <s_m_Source_File>
dock_pv.maegz

> <i_m_Source_File_Index>
313

> <chembl_id>
CHEMBL3908530

> <chembl_pref_name>
None

> <i_lp_mmshare_version>
53161

> <i_f3d_flags>
0

> <r_lp_tautomer_probability>
0.5

> <s_lp_Force_Field>
OPLS_2005

> <r_lp_Energy>
24.482744

> <b_lp_Chiralities_Consistent>
1

> <s_lp_Variant>
CHEMBL1900_lig623-1

> <s_i_glide_gridfile>
glide-grid_2hv5

> <i_i_glide_lignum>
747

> <i_i_glide_rotatable_bonds>
4

> <r_i_docking_score>
-8.37766492838284

> <r_i_glide_ligand_efficiency>
-0.440929733072781

> <r_i_glide_ligand_efficiency_sa>
-1.17657762554715

> <r_i_glide_ligand_efficiency_ln>
-2.12391799508919

> <r_i_glide_gscore>
-8.37766492838284

> <r_i_glide_lipo>
-2.9692480647408

> <r_i_glide_hbond>
-0.199059955813666

> <r_i_glide_metal>
0

> <r_i_glide_rewards>
-3.98847941580076

> <r_i_glide_evdw>
-27.7773380279541

> <r_i_glide_ecoul>
-2.15914678573608

> <r_i_glide_erotb>
0.515835104255041

> <r_i_glide_esite>
-0.0239736770245374

> <r_i_glide_emodel>
-27.170277527153

> <r_i_glide_energy>
-29.9364848136902

> <r_i_glide_einternal>
6.64206552505493

> <i_i_glide_confnum>
3

> <i_i_glide_posenum>
2

> <r_i_glide_eff_state_penalty>
0

> <s_user_duplicate_titles>
CHEMBL1900_lig623

> <s_m_subgroup_title>
dock_pv

> <s_m_subgroupid>
dock_pv

> <b_m_subgroup_collapsed>
1

$$$$
CHEMBL1900_lig448
                    3D
 Schrodinger Suite 2021-1.
 28 30  0  0  1  0            999 V2000
   18.2082   -7.9488   14.4120 S   0  0  0  0  0  0
   17.6704   -6.7613   13.1929 C   0  0  0  0  0  0
   17.3451   -7.5202   15.9479 C   0  0  0  0  0  0
   16.4339   -6.8107   12.6212 N   0  0  0  0  0  0
   18.0722   -7.3174   16.9928 N   0  0  0  0  0  0
   16.3410   -5.8009   11.6863 C   0  0  0  0  0  0
   18.3766   -5.7149   12.6718 C   0  0  0  0  0  0
   17.5996   -5.1376   11.6333 C   0  0  0  0  0  0
   17.4718   -6.9130   18.1803 N   0  0  0  0  0  0
   15.9087   -7.3766   16.0593 C   0  0  0  0  0  0
   15.2847   -5.4098   10.8820 C   0  0  0  0  0  0
   16.1560   -6.6339   18.3978 C   0  0  0  0  0  0
   17.7450   -9.2799   14.0092 O   0  0  0  0  0  0
   19.6275   -7.6315   14.5778 O   0  0  0  0  0  0
   15.5290   -4.4063    9.9509 C   0  0  0  0  0  0
   15.3491   -6.9843   17.2337 C   0  0  0  0  0  0
   17.8061   -4.1150   10.6930 C   0  0  0  0  0  0
   16.7548   -3.7639    9.8517 C   0  0  0  0  0  0
   15.7438   -6.1126   19.4310 O   0  0  0  0  0  0
   13.7438   -6.1432   11.0529 Cl  0  0  0  0  0  0
   16.9451   -2.4982    8.6980 Cl  0  0  0  0  0  0
   15.7391   -7.5023   12.8584 H   0  0  0  0  0  0
   19.3489   -5.4391   13.0185 H   0  0  0  0  0  0
   15.2682   -7.6547   15.2390 H   0  0  0  0  0  0
   14.7505   -4.1184    9.2795 H   0  0  0  0  0  0
   14.2747   -6.9290   17.3335 H   0  0  0  0  0  0
   18.7470   -3.5910   10.6349 H   0  0  0  0  0  0
   18.1131   -6.7393   18.9406 H   0  0  0  0  0  0
  1  2  1  0  0  0
  1 13  2  0  0  0
  1 14  2  0  0  0
  1  3  1  0  0  0
  2  4  1  0  0  0
  2  7  2  0  0  0
  3 10  1  0  0  0
  3  5  2  0  0  0
  4  6  1  0  0  0
  4 22  1  0  0  0
  5  9  1  0  0  0
  6 11  1  0  0  0
  6  8  2  0  0  0
  7  8  1  0  0  0
  7 23  1  0  0  0
  8 17  1  0  0  0
  9 12  1  0  0  0
  9 28  1  0  0  0
 10 16  2  0  0  0
 10 24  1  0  0  0
 11 15  2  0  0  0
 11 20  1  0  0  0
 12 19  2  0  0  0
 12 16  1  0  0  0
 15 18  1  0  0  0
 15 25  1  0  0  0
 16 26  1  0  0  0
 17 18  2  0  0  0
 17 27  1  0  0  0
 18 21  1  0  0  0
M  END
> <s_m_entry_id>
6479

> <s_m_entry_name>
dock_pv.314

> <s_m_Source_Path>
/home/csk/Desktop/cluster/DUD-E-result/aldr

> <s_m_Source_File>
dock_pv.maegz

> <i_m_Source_File_Index>
314

> <chembl_id>
CHEMBL370444

> <chembl_pref_name>
None

> <i_lp_mmshare_version>
53161

> <i_f3d_flags>
0

> <r_lp_tautomer_probability>
0.998994762270461

> <s_lp_Force_Field>
OPLS_2005

> <r_lp_Energy>
19.763725

> <b_lp_Chiralities_Consistent>
1

> <s_lp_Variant>
CHEMBL1900_lig448-1

> <s_i_glide_gridfile>
glide-grid_2hv5

> <i_i_glide_lignum>
570

> <i_i_glide_rotatable_bonds>
2

> <r_i_docking_score>
-8.36174632784287

> <r_i_glide_ligand_efficiency>
-0.398178396563946

> <r_i_glide_ligand_efficiency_sa>
-1.09854400367809

> <r_i_glide_ligand_efficiency_ln>
-2.06742488305975

> <r_i_glide_gscore>
-8.36174632784287

> <r_i_glide_lipo>
-3.98505055941454

> <r_i_glide_hbond>
-0.192189246506704

> <r_i_glide_metal>
0

> <r_i_glide_rewards>
-2.3457803718268

> <r_i_glide_evdw>
-37.5224647521973

> <r_i_glide_ecoul>
-1.88753759860992

> <r_i_glide_erotb>
0.320527727306522

> <r_i_glide_esite>
0

> <r_i_glide_emodel>
-52.9843363957257

> <r_i_glide_energy>
-39.4100023508072

> <r_i_glide_einternal>
4.68706512451172

> <i_i_glide_confnum>
6

> <i_i_glide_posenum>
293

> <r_i_glide_eff_state_penalty>
0

> <s_user_duplicate_titles>
CHEMBL1900_lig448,331210

> <s_m_subgroup_title>
dock_pv

> <s_m_subgroupid>
dock_pv

> <b_m_subgroup_collapsed>
1

$$$$
CHEMBL1900_lig352
                    3D
 Schrodinger Suite 2021-1.
 33 34  0  0  1  0            999 V2000
   15.5161   -8.0444   17.0477 C   0  0  2  0  0  0
   16.5073   -8.2790   15.8976 C   0  0  0  0  0  0
   16.9440   -9.5853   15.5817 C   0  0  0  0  0  0
   16.2614   -7.6376   18.3740 C   0  0  0  0  0  0
   16.4298  -10.7274   16.1697 O   0  0  0  0  0  0
   17.8718   -9.8106   14.5519 C   0  0  0  0  0  0
   14.7119   -9.3402   17.2733 C   0  0  0  0  0  0
   16.2864   -6.1523   18.7684 C   0  0  0  0  0  0
   17.0055   -7.2246   15.1202 C   0  0  0  0  0  0
   15.6163  -10.5809   17.3322 C   0  0  1  0  0  0
   18.3737   -8.7293   13.8268 C   0  0  0  0  0  0
   17.9295   -7.4410   14.1013 C   0  0  0  0  0  0
   15.7451   -5.7152   19.7813 O   0  0  0  0  0  0
   14.5450   -7.0675   16.7153 O   0  0  0  0  0  0
   18.5086   -6.1150   13.1656 Cl  0  0  0  0  0  0
   16.9444   -5.3961   17.8557 O   0  0  0  0  0  0
   18.3291  -11.2179   14.1938 C   0  0  0  0  0  0
   14.8223  -11.8758   17.5495 C   0  0  0  0  0  0
   16.2880  -10.4650   18.1809 H   0  0  0  0  0  0
   17.2880   -8.0040   18.3646 H   0  0  0  0  0  0
   15.8134   -8.1480   19.2266 H   0  0  0  0  0  0
   14.1450   -9.2683   18.1993 H   0  0  0  0  0  0
   13.9731   -9.4880   16.4820 H   0  0  0  0  0  0
   16.6510   -6.2199   15.2925 H   0  0  0  0  0  0
   19.0866   -8.8876   13.0301 H   0  0  0  0  0  0
   13.8651   -7.0694   17.3956 H   0  0  0  0  0  0
   17.3608   -5.9402   17.1861 H   0  0  0  0  0  0
   19.2413  -11.2114   13.5966 H   0  0  0  0  0  0
   18.5450  -11.7914   15.0953 H   0  0  0  0  0  0
   17.5466  -11.7420   13.6445 H   0  0  0  0  0  0
   14.1685  -11.8046   18.4202 H   0  0  0  0  0  0
   14.1982  -12.1024   16.6849 H   0  0  0  0  0  0
   15.4894  -12.7240   17.7032 H   0  0  0  0  0  0
  1  2  1  0  0  0
  1  4  1  0  0  0
  1  7  1  0  0  0
  1 14  1  0  0  0
  2  3  2  0  0  0
  2  9  1  0  0  0
  3  6  1  0  0  0
  3  5  1  0  0  0
  4  8  1  0  0  0
  4 20  1  0  0  0
  4 21  1  0  0  0
  5 10  1  0  0  0
  6 17  1  0  0  0
  6 11  2  0  0  0
  7 10  1  0  0  0
  7 22  1  0  0  0
  7 23  1  0  0  0
  8 13  2  0  0  0
  8 16  1  0  0  0
  9 12  2  0  0  0
  9 24  1  0  0  0
 10 18  1  0  0  0
 10 19  1  0  0  0
 11 12  1  0  0  0
 11 25  1  0  0  0
 12 15  1  0  0  0
 14 26  1  0  0  0
 16 27  1  0  0  0
 17 28  1  0  0  0
 17 29  1  0  0  0
 17 30  1  0  0  0
 18 31  1  0  0  0
 18 32  1  0  0  0
 18 33  1  0  0  0
M  END
> <s_m_entry_id>
6480

> <s_m_entry_name>
dock_pv.315

> <s_m_Source_Path>
/home/csk/Desktop/cluster/DUD-E-result/aldr

> <s_m_Source_File>
dock_pv.maegz

> <i_m_Source_File_Index>
315

> <chembl_id>
CHEMBL66326

> <chembl_pref_name>
None

> <i_lp_mmshare_version>
53161

> <i_f3d_flags>
0

> <r_lp_tautomer_probability>
1

> <s_lp_Force_Field>
OPLS_2005

> <r_lp_Energy>
14.769069

> <b_lp_Chiralities_Consistent>
1

> <s_lp_Variant>
CHEMBL1900_lig352-1

> <s_i_glide_gridfile>
glide-grid_2hv5

> <i_i_glide_lignum>
473

> <i_i_glide_rotatable_bonds>
4

> <r_i_docking_score>
-8.35292357413708

> <r_i_glide_ligand_efficiency>
-0.464051309674282

> <r_i_glide_ligand_efficiency_sa>
-1.21615847512853

> <r_i_glide_ligand_efficiency_ln>
-2.14707593360028

> <r_i_glide_gscore>
-8.35292357413708

> <r_i_glide_lipo>
-3.25520852701

> <r_i_glide_hbond>
-0.32

> <r_i_glide_metal>
0

> <r_i_glide_rewards>
-2.84972119372022

> <r_i_glide_evdw>
-29.6964931488037

> <r_i_glide_ecoul>
-6.20960664749146

> <r_i_glide_erotb>
0.488271801157044

> <r_i_glide_esite>
0

> <r_i_glide_emodel>
-48.701820476419

> <r_i_glide_energy>
-35.9060997962952

> <r_i_glide_einternal>
8.68994808197021

> <i_i_glide_confnum>
4

> <i_i_glide_posenum>
150

> <r_i_glide_eff_state_penalty>
0

> <s_user_duplicate_titles>
CHEMBL1900_lig352

> <s_m_subgroup_title>
dock_pv

> <s_m_subgroupid>
dock_pv

> <b_m_subgroup_collapsed>
1

$$$$
CHEMBL1900_lig621
                    3D
 Schrodinger Suite 2021-1.
 30 31  0  0  1  0            999 V2000
   16.1007   -6.9343   14.1503 N   0  0  0  0  0  0
   16.1256   -7.4269   15.3081 C   0  0  0  0  0  0
   17.3424   -7.3165   15.8784 N   0  0  0  0  0  0
   18.2148   -6.9586   14.9154 C   0  0  0  0  0  0
   17.3554   -6.5814   13.8237 C   0  0  0  0  0  0
   19.4425   -6.9149   14.9809 O   0  0  0  0  0  0
   14.9456   -8.0346   16.0554 C   0  0  0  0  0  0
   17.8909   -5.9359   12.7575 C   0  0  0  0  0  0
   17.1831   -5.3157   11.6097 C   0  0  0  0  0  0
   17.7387   -7.5508   17.2851 C   0  0  0  0  0  0
   16.9283   -6.6210   18.2175 C   0  0  0  0  0  0
   16.1455   -7.3457   19.0657 O   0  0  0  0  0  0
   16.9443   -5.4111   18.1509 O   0  0  0  0  0  0
   15.8083   -5.4680   11.3824 C   0  0  0  0  0  0
   15.1747   -4.7336   10.3865 C   0  0  0  0  0  0
   15.9106   -3.8652    9.5885 C   0  0  0  0  0  0
   17.2814   -3.7254    9.7781 C   0  0  0  0  0  0
   17.9111   -4.4521   10.7838 C   0  0  0  0  0  0
   15.2653   -8.8306   16.7267 H   0  0  0  0  0  0
   14.4258   -7.2813   16.6479 H   0  0  0  0  0  0
   14.2212   -8.4845   15.3809 H   0  0  0  0  0  0
   18.9645   -5.8040   12.7344 H   0  0  0  0  0  0
   18.7915   -7.3143   17.4367 H   0  0  0  0  0  0
   17.6044   -8.6008   17.5437 H   0  0  0  0  0  0
   16.2910   -8.2928   19.0178 H   0  0  0  0  0  0
   15.1999   -6.1159   11.9923 H   0  0  0  0  0  0
   14.1090   -4.8313   10.2362 H   0  0  0  0  0  0
   15.4067   -3.2985    8.8193 H   0  0  0  0  0  0
   17.8481   -3.0465    9.1585 H   0  0  0  0  0  0
   18.9656   -4.3031   10.9457 H   0  0  0  0  0  0
  1  2  2  0  0  0
  1  5  1  0  0  0
  2  3  1  0  0  0
  2  7  1  0  0  0
  3  4  1  0  0  0
  3 10  1  0  0  0
  4  5  1  0  0  0
  4  6  2  0  0  0
  5  8  2  0  0  0
  7 19  1  0  0  0
  7 20  1  0  0  0
  7 21  1  0  0  0
  8  9  1  0  0  0
  8 22  1  0  0  0
  9 14  2  0  0  0
  9 18  1  0  0  0
 10 11  1  0  0  0
 10 23  1  0  0  0
 10 24  1  0  0  0
 11 12  1  0  0  0
 11 13  2  0  0  0
 12 25  1  0  0  0
 14 15  1  0  0  0
 14 26  1  0  0  0
 15 16  2  0  0  0
 15 27  1  0  0  0
 16 17  1  0  0  0
 16 28  1  0  0  0
 17 18  2  0  0  0
 17 29  1  0  0  0
 18 30  1  0  0  0
M  END
> <s_m_entry_id>
6481

> <s_m_entry_name>
dock_pv.316

> <s_m_Source_Path>
/home/csk/Desktop/cluster/DUD-E-result/aldr

> <s_m_Source_File>
dock_pv.maegz

> <i_m_Source_File_Index>
316

> <chembl_id>
CHEMBL3917477

> <chembl_pref_name>
None

> <i_lp_mmshare_version>
53161

> <i_f3d_flags>
0

> <r_lp_tautomer_probability>
0.5

> <s_lp_Force_Field>
OPLS_2005

> <r_lp_Energy>
24.903044

> <b_lp_Chiralities_Consistent>
1

> <s_lp_Variant>
CHEMBL1900_lig621-1

> <s_i_glide_gridfile>
glide-grid_2hv5

> <i_i_glide_lignum>
745

> <i_i_glide_rotatable_bonds>
4

> <r_i_docking_score>
-8.35115021407425

> <r_i_glide_ligand_efficiency>
-0.463952789670792

> <r_i_glide_ligand_efficiency_sa>
-1.21590027967747

> <r_i_glide_ligand_efficiency_ln>
-2.14662010054031

> <r_i_glide_gscore>
-8.35115021407425

> <r_i_glide_lipo>
-2.90448467263903

> <r_i_glide_hbond>
0

> <r_i_glide_metal>
0

> <r_i_glide_rewards>
-4.16053413884898

> <r_i_glide_evdw>
-35.6919403076172

> <r_i_glide_ecoul>
-0.562052428722382

> <r_i_glide_erotb>
0.582773477102967

> <r_i_glide_esite>
0

> <r_i_glide_emodel>
-41.2768900710545

> <r_i_glide_energy>
-36.2539927363396

> <r_i_glide_einternal>
7.94455051422119

> <i_i_glide_confnum>
1

> <i_i_glide_posenum>
1

> <r_i_glide_eff_state_penalty>
0

> <s_user_duplicate_titles>
CHEMBL1900_lig621

> <s_m_subgroup_title>
dock_pv

> <s_m_subgroupid>
dock_pv

> <b_m_subgroup_collapsed>
1

$$$$
CHEMBL1900_lig570
                    3D
 Schrodinger Suite 2021-1.
 43 46  0  0  1  0            999 V2000
   15.4810  -13.6458   17.5471 C   0  0  0  0  0  0
   14.8706  -12.9094   18.5470 C   0  0  0  0  0  0
   14.9588  -11.5197   18.5788 C   0  0  0  0  0  0
   16.2201  -13.0417   16.5374 C   0  0  0  0  0  0
   16.3496  -11.6468   16.5408 C   0  0  0  0  0  0
   15.7286  -10.8935   17.5792 C   0  0  0  0  0  0
   16.0539   -9.5535   17.3787 N   0  0  0  0  0  0
   16.9807  -10.7199   15.6637 C   0  0  0  0  0  0
   16.6724   -9.4462   16.1152 C   0  0  0  0  0  0
   16.9116   -8.2907   15.2725 C   0  0  0  0  0  0
   17.8271   -8.4354   14.2358 N   0  0  0  0  0  0
   18.5516   -9.7052   13.9969 C   0  0  0  0  0  0
   17.7096  -10.9577   14.3538 C   0  0  0  0  0  0
   16.0207   -6.9150   15.4744 S   0  0  0  0  0  0
   18.4131   -7.2637   13.5098 C   0  0  0  0  0  0
   17.5725   -6.4745   12.4912 C   0  0  0  0  0  0
   18.1446   -5.3554   11.8850 C   0  0  0  0  0  0
   17.4251   -4.5809   10.9798 C   0  0  0  0  0  0
   16.1073   -4.9217   10.6857 C   0  0  0  0  0  0
   15.5154   -6.0267   11.2884 C   0  0  0  0  0  0
   16.2529   -6.8032   12.1803 C   0  0  0  0  0  0
   15.5886   -8.4870   18.3202 C   0  0  0  0  0  0
   16.5125   -7.3148   18.7458 C   0  0  0  0  0  0
   16.1447   -6.4494   19.5340 O   0  0  0  0  0  0
   17.7462   -7.3161   18.1795 O   0  0  0  0  0  0
   16.7900  -13.7952   15.5706 F   0  0  0  0  0  0
   14.1807  -13.5619   19.5110 F   0  0  0  0  0  0
   15.3605  -14.7090   17.5467 H   0  0  0  0  0  0
   14.4819  -10.9700   19.3724 H   0  0  0  0  0  0
   19.4702   -9.6940   14.5812 H   0  0  0  0  0  0
   18.8552   -9.7692   12.9524 H   0  0  0  0  0  0
   18.3586  -11.8327   14.4072 H   0  0  0  0  0  0
   16.9956  -11.1721   13.5599 H   0  0  0  0  0  0
   19.3139   -7.5822   12.9825 H   0  0  0  0  0  0
   18.7672   -6.5508   14.2581 H   0  0  0  0  0  0
   19.1537   -5.0908   12.1314 H   0  0  0  0  0  0
   17.8797   -3.7156   10.5198 H   0  0  0  0  0  0
   15.5423   -4.3202    9.9903 H   0  0  0  0  0  0
   14.4894   -6.2775   11.0630 H   0  0  0  0  0  0
   15.7859   -7.6639   12.6269 H   0  0  0  0  0  0
   15.3462   -8.9559   19.2715 H   0  0  0  0  0  0
   14.6561   -8.0856   17.9236 H   0  0  0  0  0  0
   18.2455   -6.5535   18.4769 H   0  0  0  0  0  0
  1  2  1  0  0  0
  1  4  2  0  0  0
  1 28  1  0  0  0
  2  3  2  0  0  0
  2 27  1  0  0  0
  3  6  1  0  0  0
  3 29  1  0  0  0
  4  5  1  0  0  0
  4 26  1  0  0  0
  5  8  1  0  0  0
  5  6  2  0  0  0
  6  7  1  0  0  0
  7  9  1  0  0  0
  7 22  1  0  0  0
  8  9  2  0  0  0
  8 13  1  0  0  0
  9 10  1  0  0  0
 10 14  2  0  0  0
 10 11  1  0  0  0
 11 12  1  0  0  0
 11 15  1  0  0  0
 12 13  1  0  0  0
 12 30  1  0  0  0
 12 31  1  0  0  0
 13 32  1  0  0  0
 13 33  1  0  0  0
 15 16  1  0  0  0
 15 34  1  0  0  0
 15 35  1  0  0  0
 16 17  2  0  0  0
 16 21  1  0  0  0
 17 18  1  0  0  0
 17 36  1  0  0  0
 18 19  2  0  0  0
 18 37  1  0  0  0
 19 20  1  0  0  0
 19 38  1  0  0  0
 20 21  2  0  0  0
 20 39  1  0  0  0
 21 40  1  0  0  0
 22 23  1  0  0  0
 22 41  1  0  0  0
 22 42  1  0  0  0
 23 24  2  0  0  0
 23 25  1  0  0  0
 25 43  1  0  0  0
M  END
> <s_m_entry_id>
6482

> <s_m_entry_name>
dock_pv.317

> <s_m_Source_Path>
/home/csk/Desktop/cluster/DUD-E-result/aldr

> <s_m_Source_File>
dock_pv.maegz

> <i_m_Source_File_Index>
317

> <chembl_id>
CHEMBL1944858

> <chembl_pref_name>
None

> <i_lp_mmshare_version>
53161

> <i_f3d_flags>
0

> <r_lp_tautomer_probability>
1

> <s_lp_Force_Field>
OPLS_2005

> <r_lp_Energy>
37.409966

> <b_lp_Chiralities_Consistent>
1

> <s_lp_Variant>
CHEMBL1900_lig570-1

> <s_i_glide_gridfile>
glide-grid_2hv5

> <i_i_glide_lignum>
693

> <i_i_glide_rotatable_bonds>
5

> <r_i_docking_score>
-8.3448711634915

> <r_i_glide_ligand_efficiency>
-0.309069302351537

> <r_i_glide_ligand_efficiency_sa>
-0.927207906035969

> <r_i_glide_ligand_efficiency_ln>
-1.94254843090755

> <r_i_glide_gscore>
-8.3448711634915

> <r_i_glide_lipo>
-3.54228773612199

> <r_i_glide_hbond>
0

> <r_i_glide_metal>
0

> <r_i_glide_rewards>
-3.34464368077756

> <r_i_glide_evdw>
-32.6086044311523

> <r_i_glide_ecoul>
-2.32599949836731

> <r_i_glide_erotb>
0.521390399720761

> <r_i_glide_esite>
0

> <r_i_glide_emodel>
-32.8052697676833

> <r_i_glide_energy>
-34.9346039295197

> <r_i_glide_einternal>
10.1247711181641

> <i_i_glide_confnum>
6

> <i_i_glide_posenum>
342

> <r_i_glide_eff_state_penalty>
0

> <s_user_duplicate_titles>
CHEMBL1900_lig570

> <s_m_subgroup_title>
dock_pv

> <s_m_subgroupid>
dock_pv

> <b_m_subgroup_collapsed>
1

$$$$
CHEMBL1900_lig207
                    3D
 Schrodinger Suite 2021-1.
 31 32  0  0  1  0            999 V2000
   16.7739   -6.9810   18.0049 C   0  0  0  0  0  0
   17.5078   -7.8173   16.0024 N   0  0  0  0  0  0
   16.0179   -8.0298   17.6399 C   0  0  0  0  0  0
   16.4650   -8.5877   16.3788 C   0  0  0  0  0  0
   17.8136   -6.7864   16.9584 C   0  0  0  0  0  0
   16.6879   -6.1059   19.1722 C   0  0  0  0  0  0
   18.1917   -7.9172   14.7117 C   0  0  0  0  0  0
   15.9901   -9.5480   15.7702 O   0  0  0  0  0  0
   15.7450   -6.1150   19.9493 O   0  0  0  0  0  0
   14.9450   -8.6655   18.1810 O   0  0  0  0  0  0
   17.7457   -5.2956   19.3254 O   0  0  0  0  0  0
   17.6891   -6.9441   13.6487 C   0  0  0  0  0  0
   17.8555   -4.4353   20.4514 C   0  0  0  0  0  0
   18.5842   -6.1150   12.9810 C   0  0  0  0  0  0
   16.3420   -6.9150   13.2983 C   0  0  0  0  0  0
   15.8915   -6.1150   12.2504 C   0  0  0  0  0  0
   18.1450   -5.3150   11.9261 C   0  0  0  0  0  0
   16.8019   -5.3214   11.5601 C   0  0  0  0  0  0
   17.7450   -5.8006   16.5043 H   0  0  0  0  0  0
   18.8308   -6.9150   17.3321 H   0  0  0  0  0  0
   19.2587   -7.7572   14.8724 H   0  0  0  0  0  0
   18.0938   -8.9271   14.3091 H   0  0  0  0  0  0
   14.6812   -9.3813   17.5951 H   0  0  0  0  0  0
   18.8909   -4.1150   20.5596 H   0  0  0  0  0  0
   17.5706   -4.9341   21.3791 H   0  0  0  0  0  0
   17.2292   -3.5511   20.3262 H   0  0  0  0  0  0
   19.6295   -6.1185   13.2540 H   0  0  0  0  0  0
   15.6659   -7.5529   13.8362 H   0  0  0  0  0  0
   14.8461   -6.1086   11.9771 H   0  0  0  0  0  0
   18.8430   -4.6911   11.3892 H   0  0  0  0  0  0
   16.4609   -4.6983   10.7462 H   0  0  0  0  0  0
  1  3  2  0  0  0
  1  5  1  0  0  0
  1  6  1  0  0  0
  2  5  1  0  0  0
  2  7  1  0  0  0
  2  4  1  0  0  0
  3  4  1  0  0  0
  3 10  1  0  0  0
  4  8  2  0  0  0
  5 19  1  0  0  0
  5 20  1  0  0  0
  6  9  2  0  0  0
  6 11  1  0  0  0
  7 12  1  0  0  0
  7 21  1  0  0  0
  7 22  1  0  0  0
 10 23  1  0  0  0
 11 13  1  0  0  0
 12 14  2  0  0  0
 12 15  1  0  0  0
 13 24  1  0  0  0
 13 25  1  0  0  0
 13 26  1  0  0  0
 14 17  1  0  0  0
 14 27  1  0  0  0
 15 16  2  0  0  0
 15 28  1  0  0  0
 16 18  1  0  0  0
 16 29  1  0  0  0
 17 18  2  0  0  0
 17 30  1  0  0  0
 18 31  1  0  0  0
M  END
> <s_m_entry_id>
6483

> <s_m_entry_name>
dock_pv.318

> <s_m_Source_Path>
/home/csk/Desktop/cluster/DUD-E-result/aldr

> <s_m_Source_File>
dock_pv.maegz

> <i_m_Source_File_Index>
318

> <chembl_id>
CHEMBL7541

> <chembl_pref_name>
None

> <i_lp_mmshare_version>
53161

> <i_f3d_flags>
0

> <r_lp_tautomer_probability>
1

> <s_lp_Force_Field>
OPLS_2005

> <r_lp_Energy>
23.60518

> <b_lp_Chiralities_Consistent>
1

> <s_lp_Variant>
CHEMBL1900_lig207-1

> <s_i_glide_gridfile>
glide-grid_2hv5

> <i_i_glide_lignum>
283

> <i_i_glide_rotatable_bonds>
5

> <r_i_docking_score>
-8.33316262078562

> <r_i_glide_ligand_efficiency>
-0.462953478932534

> <r_i_glide_ligand_efficiency_sa>
-1.21328134466256

> <r_i_glide_ligand_efficiency_ln>
-2.14199648243694

> <r_i_glide_gscore>
-8.33316262078562

> <r_i_glide_lipo>
-3.15440644208472

> <r_i_glide_hbond>
-0.350594069682001

> <r_i_glide_metal>
0

> <r_i_glide_rewards>
-3.6711026733912

> <r_i_glide_evdw>
-29.1104278564453

> <r_i_glide_ecoul>
-3.71751403808594

> <r_i_glide_erotb>
0.856089062907459

> <r_i_glide_esite>
0

> <r_i_glide_emodel>
-48.1671442369624

> <r_i_glide_energy>
-32.8279418945312

> <r_i_glide_einternal>
0.80671089887619

> <i_i_glide_confnum>
4

> <i_i_glide_posenum>
12

> <r_i_glide_eff_state_penalty>
0

> <s_user_duplicate_titles>
CHEMBL1900_lig207

> <s_m_subgroup_title>
dock_pv

> <s_m_subgroupid>
dock_pv

> <b_m_subgroup_collapsed>
1

$$$$
CHEMBL1900_lig209
                    3D
 Schrodinger Suite 2021-1.
 40 42  0  0  1  0            999 V2000
   18.1417   -9.5972   14.1160 C   0  0  0  0  0  0
   18.1442   -7.3607   13.6105 N   0  0  0  0  0  0
   17.7700   -8.8914   15.1922 C   0  0  0  0  0  0
   17.7718   -7.4687   14.9066 C   0  0  0  0  0  0
   18.3707   -8.6401   12.9934 C   0  0  0  0  0  0
   18.3173  -11.0387   13.9642 C   0  0  0  0  0  0
   18.1994   -6.1061   12.8468 C   0  0  0  0  0  0
   16.9693   -5.7543   11.9942 C   0  0  0  0  0  0
   17.0409   -4.7078   11.0185 C   0  0  0  0  0  0
   17.4846   -6.5575   15.6809 O   0  0  0  0  0  0
   18.0633  -11.8399   14.8647 O   0  0  0  0  0  0
   17.4382   -9.2270   16.4710 O   0  0  0  0  0  0
   15.8409   -4.2818   10.3635 C   0  0  0  0  0  0
   18.8165  -11.3778   12.7538 O   0  0  0  0  0  0
   15.7449   -6.3852   12.2136 C   0  0  0  0  0  0
   14.5912   -5.9742   11.5593 C   0  0  0  0  0  0
   18.2389   -4.0280   10.6948 C   0  0  0  0  0  0
   14.6211   -4.9151   10.6647 C   0  0  0  0  0  0
   15.8817   -3.2093    9.4485 C   0  0  0  0  0  0
   19.2459  -12.7031   12.4643 C   0  0  0  0  0  0
   20.6673  -12.9367   12.9963 C   0  0  0  0  0  0
   18.2392   -2.9387    9.8324 C   0  0  0  0  0  0
   17.0712   -2.5436    9.1996 C   0  0  0  0  0  0
   19.3776   -8.7012   12.5821 H   0  0  0  0  0  0
   17.6580   -8.7655   12.1812 H   0  0  0  0  0  0
   18.3980   -5.2707   13.5190 H   0  0  0  0  0  0
   19.0629   -6.1659   12.1879 H   0  0  0  0  0  0
   17.2370   -8.4246   16.9614 H   0  0  0  0  0  0
   15.6818   -7.1831   12.9342 H   0  0  0  0  0  0
   13.6502   -6.4549   11.7800 H   0  0  0  0  0  0
   19.1616   -4.3332   11.1474 H   0  0  0  0  0  0
   13.7092   -4.5886   10.1844 H   0  0  0  0  0  0
   14.9694   -2.8817    8.9813 H   0  0  0  0  0  0
   19.2407  -12.8275   11.3805 H   0  0  0  0  0  0
   18.5467  -13.4398   12.8649 H   0  0  0  0  0  0
   21.0488  -13.9018   12.6700 H   0  0  0  0  0  0
   20.6922  -12.9271   14.0855 H   0  0  0  0  0  0
   21.3545  -12.1729   12.6343 H   0  0  0  0  0  0
   19.1546   -2.3912    9.6766 H   0  0  0  0  0  0
   17.0771   -1.7144    8.5134 H   0  0  0  0  0  0
  1  3  2  0  0  0
  1  5  1  0  0  0
  1  6  1  0  0  0
  2  5  1  0  0  0
  2  7  1  0  0  0
  2  4  1  0  0  0
  3  4  1  0  0  0
  3 12  1  0  0  0
  4 10  2  0  0  0
  5 24  1  0  0  0
  5 25  1  0  0  0
  6 11  2  0  0  0
  6 14  1  0  0  0
  7  8  1  0  0  0
  7 26  1  0  0  0
  7 27  1  0  0  0
  8  9  2  0  0  0
  8 15  1  0  0  0
  9 13  1  0  0  0
  9 17  1  0  0  0
 12 28  1  0  0  0
 13 19  1  0  0  0
 13 18  2  0  0  0
 14 20  1  0  0  0
 15 16  2  0  0  0
 15 29  1  0  0  0
 16 18  1  0  0  0
 16 30  1  0  0  0
 17 22  2  0  0  0
 17 31  1  0  0  0
 18 32  1  0  0  0
 19 23  2  0  0  0
 19 33  1  0  0  0
 20 21  1  0  0  0
 20 34  1  0  0  0
 20 35  1  0  0  0
 21 36  1  0  0  0
 21 37  1  0  0  0
 21 38  1  0  0  0
 22 23  1  0  0  0
 22 39  1  0  0  0
 23 40  1  0  0  0
M  END
> <s_m_entry_id>
6484

> <s_m_entry_name>
dock_pv.319

> <s_m_Source_Path>
/home/csk/Desktop/cluster/DUD-E-result/aldr

> <s_m_Source_File>
dock_pv.maegz

> <i_m_Source_File_Index>
319

> <chembl_id>
CHEMBL7658

> <chembl_pref_name>
None

> <i_lp_mmshare_version>
53161

> <i_f3d_flags>
0

> <r_lp_tautomer_probability>
1

> <s_lp_Force_Field>
OPLS_2005

> <r_lp_Energy>
29.727894

> <b_lp_Chiralities_Consistent>
1

> <s_lp_Variant>
CHEMBL1900_lig209-1

> <s_i_glide_gridfile>
glide-grid_2hv5

> <i_i_glide_lignum>
285

> <i_i_glide_rotatable_bonds>
6

> <r_i_docking_score>
-8.32890809559262

> <r_i_glide_ligand_efficiency>
-0.362126438938809

> <r_i_glide_ligand_efficiency_sa>
-1.02983942115296

> <r_i_glide_ligand_efficiency_ln>
-2.01400549987743

> <r_i_glide_gscore>
-8.32890809559262

> <r_i_glide_lipo>
-3.975552903537

> <r_i_glide_hbond>
0

> <r_i_glide_metal>
0

> <r_i_glide_rewards>
-3.23141634137696

> <r_i_glide_evdw>
-34.6732025146484

> <r_i_glide_ecoul>
-1.02360439300537

> <r_i_glide_erotb>
0.765261934004576

> <r_i_glide_esite>
0

> <r_i_glide_emodel>
-51.5409258893552

> <r_i_glide_energy>
-35.6968069076538

> <r_i_glide_einternal>
3.39718699455261

> <i_i_glide_confnum>
12

> <i_i_glide_posenum>
343

> <r_i_glide_eff_state_penalty>
0

> <s_user_duplicate_titles>
CHEMBL1900_lig209

> <s_m_subgroup_title>
dock_pv

> <s_m_subgroupid>
dock_pv

> <b_m_subgroup_collapsed>
1

$$$$
CHEMBL1900_lig200
                    3D
 Schrodinger Suite 2021-1.
 42 45  0  0  1  0            999 V2000
   17.9746   -7.1772   14.0783 N   0  0  0  0  0  0
   17.5922   -6.6400   15.3023 N   0  0  0  0  0  0
   18.3155   -8.5026   13.8770 C   0  0  0  0  0  0
   16.7790   -6.0135   12.1168 C   0  0  0  0  0  0
   17.3181   -7.4038   16.2933 C   0  0  0  0  0  0
   17.7319   -9.4031   14.9563 C   0  0  0  0  0  0
   16.5109   -5.2318   10.9486 C   0  0  0  0  0  0
   17.2144   -8.8633   16.1482 C   0  0  0  0  0  0
   18.0670   -6.2065   12.9506 C   0  0  0  0  0  0
   17.2626   -6.7354   17.6678 C   0  0  0  0  0  0
   15.3451   -5.3622   10.3722 N   0  0  0  0  0  0
   14.2917   -6.1150   11.3822 S   0  0  0  0  0  0
   15.5638   -6.5150   12.4897 C   0  0  0  0  0  0
   15.8719   -6.5156   18.2722 C   0  0  0  0  0  0
   19.0414   -8.9147   12.9810 O   0  0  0  0  0  0
   17.2769   -4.1277   10.3406 C   0  0  0  0  0  0
   15.7450   -6.0111   19.3836 O   0  0  0  0  0  0
   14.8219   -6.9160   17.4943 O   0  0  0  0  0  0
   17.7448  -10.7908   14.7660 C   0  0  0  0  0  0
   16.5840   -9.7095   17.0692 C   0  0  0  0  0  0
   16.6724   -3.2141    9.4646 C   0  0  0  0  0  0
   18.5503   -3.8843   10.7945 C   0  0  0  0  0  0
   17.1505  -11.6281   15.7099 C   0  0  0  0  0  0
   16.5539  -11.0870   16.8482 C   0  0  0  0  0  0
   19.1748   -2.6803   10.5405 C   0  0  0  0  0  0
   17.2991   -2.0291    9.1919 C   0  0  0  0  0  0
   18.5268   -1.7347    9.7810 C   0  0  0  0  0  0
   18.4211   -5.2615   13.3624 H   0  0  0  0  0  0
   18.8698   -6.5147   12.2874 H   0  0  0  0  0  0
   17.8423   -7.3196   18.3816 H   0  0  0  0  0  0
   17.7446   -5.7591   17.6430 H   0  0  0  0  0  0
   15.3650   -7.0355   13.4102 H   0  0  0  0  0  0
   13.9789   -6.7792   17.9353 H   0  0  0  0  0  0
   18.1749  -11.2210   13.8715 H   0  0  0  0  0  0
   16.1351   -9.3188   17.9708 H   0  0  0  0  0  0
   15.6796   -3.3562    9.0596 H   0  0  0  0  0  0
   19.0691   -4.6048   11.3830 H   0  0  0  0  0  0
   17.1348  -12.6962   15.5478 H   0  0  0  0  0  0
   16.0724  -11.7386   17.5628 H   0  0  0  0  0  0
   20.1450   -2.4672   10.9481 H   0  0  0  0  0  0
   16.8010   -1.3152    8.5534 H   0  0  0  0  0  0
   19.0317   -0.8002    9.6153 H   0  0  0  0  0  0
  1  2  1  0  0  0
  1  3  1  0  0  0
  1  9  1  0  0  0
  2  5  2  0  0  0
  3  6  1  0  0  0
  3 15  2  0  0  0
  4  9  1  0  0  0
  4  7  1  0  0  0
  4 13  2  0  0  0
  5 10  1  0  0  0
  5  8  1  0  0  0
  6  8  2  0  0  0
  6 19  1  0  0  0
  7 11  2  0  0  0
  7 16  1  0  0  0
  8 20  1  0  0  0
  9 28  1  0  0  0
  9 29  1  0  0  0
 10 14  1  0  0  0
 10 30  1  0  0  0
 10 31  1  0  0  0
 11 12  1  0  0  0
 12 13  1  0  0  0
 13 32  1  0  0  0
 14 17  2  0  0  0
 14 18  1  0  0  0
 16 21  2  0  0  0
 16 22  1  0  0  0
 18 33  1  0  0  0
 19 23  2  0  0  0
 19 34  1  0  0  0
 20 24  2  0  0  0
 20 35  1  0  0  0
 21 26  1  0  0  0
 21 36  1  0  0  0
 22 25  2  0  0  0
 22 37  1  0  0  0
 23 24  1  0  0  0
 23 38  1  0  0  0
 24 39  1  0  0  0
 25 27  1  0  0  0
 25 40  1  0  0  0
 26 27  2  0  0  0
 26 41  1  0  0  0
 27 42  1  0  0  0
M  END
> <s_m_entry_id>
6485

> <s_m_entry_name>
dock_pv.320

> <s_m_Source_Path>
/home/csk/Desktop/cluster/DUD-E-result/aldr

> <s_m_Source_File>
dock_pv.maegz

> <i_m_Source_File_Index>
320

> <chembl_id>
CHEMBL140375

> <chembl_pref_name>
None

> <i_lp_mmshare_version>
53161

> <i_f3d_flags>
0

> <r_lp_tautomer_probability>
1

> <s_lp_Force_Field>
OPLS_2005

> <r_lp_Energy>
31.149029

> <b_lp_Chiralities_Consistent>
1

> <s_lp_Variant>
CHEMBL1900_lig200-1

> <s_i_glide_gridfile>
glide-grid_2hv5

> <i_i_glide_lignum>
276

> <i_i_glide_rotatable_bonds>
6

> <r_i_docking_score>
-8.32295635294557

> <r_i_glide_ligand_efficiency>
-0.308257642701688

> <r_i_glide_ligand_efficiency_sa>
-0.924772927089096

> <r_i_glide_ligand_efficiency_ln>
-1.93744702430634

> <r_i_glide_gscore>
-8.32295635294557

> <r_i_glide_lipo>
-4.86103939304112

> <r_i_glide_hbond>
-0.184951833585338

> <r_i_glide_metal>
0

> <r_i_glide_rewards>
-2.48831813282958

> <r_i_glide_evdw>
-26.9259567260742

> <r_i_glide_ecoul>
-0.81469053030014

> <r_i_glide_erotb>
0.679854422359206

> <r_i_glide_esite>
0

> <r_i_glide_emodel>
-24.3989313088895

> <r_i_glide_energy>
-27.7406472563744

> <r_i_glide_einternal>
7.89047479629517

> <i_i_glide_confnum>
165

> <i_i_glide_posenum>
350

> <r_i_glide_eff_state_penalty>
0

> <s_user_duplicate_titles>
CHEMBL1900_lig200

> <s_m_subgroup_title>
dock_pv

> <s_m_subgroupid>
dock_pv

> <b_m_subgroup_collapsed>
1

$$$$
CHEMBL1900_lig25
                    3D
 Schrodinger Suite 2021-1.
 30 31  0  0  1  0            999 V2000
   14.9453   -6.9216   17.7810 N   0  0  0  0  0  0
   17.2879   -8.6439   15.9803 C   0  0  0  0  0  0
   15.0966   -8.0450   17.0747 C   0  0  0  0  0  0
   17.1205  -11.4976   16.1270 S   0  0  0  0  0  0
   16.5232   -8.4927   17.3055 C   0  0  2  0  0  0
   16.0212   -6.5529   18.5005 C   0  0  0  0  0  0
   17.5486   -9.9004   15.3810 C   0  0  0  0  0  0
   16.9707   -7.4337   18.1774 N   0  0  0  0  0  0
   18.2196   -9.9407   14.1502 C   0  0  0  0  0  0
   17.7337   -7.4807   15.3301 C   0  0  0  0  0  0
   17.4749  -12.5387   15.1554 O   0  0  0  0  0  0
   17.7231  -11.5263   17.4634 O   0  0  0  0  0  0
   14.2640   -8.5798   16.3492 O   0  0  0  0  0  0
   16.0499   -5.7120   19.3929 O   0  0  0  0  0  0
   18.4088   -7.5414   14.1163 C   0  0  0  0  0  0
   15.2376  -11.5184   16.3194 C   0  0  0  0  0  0
   18.6473   -8.7747   13.5230 C   0  0  0  0  0  0
   18.9443   -6.0880   13.3578 Cl  0  0  0  0  0  0
   14.7297  -12.9514   16.5344 C   0  0  0  0  0  0
   14.0470   -6.4692   17.8565 H   0  0  0  0  0  0
   16.5383   -9.3991   17.9059 H   0  0  0  0  0  0
   17.9541   -7.2625   18.3318 H   0  0  0  0  0  0
   18.4358  -10.8833   13.6684 H   0  0  0  0  0  0
   17.5526   -6.5106   15.7661 H   0  0  0  0  0  0
   14.9768  -10.9037   17.1757 H   0  0  0  0  0  0
   14.8094  -11.0669   15.4255 H   0  0  0  0  0  0
   19.1728   -8.8349   12.5814 H   0  0  0  0  0  0
   13.6496  -12.9633   16.6942 H   0  0  0  0  0  0
   14.9466  -13.5842   15.6735 H   0  0  0  0  0  0
   15.1956  -13.4080   17.4085 H   0  0  0  0  0  0
  1  3  1  0  0  0
  1  6  1  0  0  0
  1 20  1  0  0  0
  2  5  1  0  0  0
  2  7  1  0  0  0
  2 10  2  0  0  0
  3  5  1  0  0  0
  3 13  2  0  0  0
  4  7  1  0  0  0
  4 11  2  0  0  0
  4 12  2  0  0  0
  4 16  1  0  0  0
  5  8  1  0  0  0
  5 21  1  0  0  0
  6  8  1  0  0  0
  6 14  2  0  0  0
  7  9  2  0  0  0
  8 22  1  0  0  0
  9 17  1  0  0  0
  9 23  1  0  0  0
 10 15  1  0  0  0
 10 24  1  0  0  0
 15 17  2  0  0  0
 15 18  1  0  0  0
 16 19  1  0  0  0
 16 25  1  0  0  0
 16 26  1  0  0  0
 17 27  1  0  0  0
 19 28  1  0  0  0
 19 29  1  0  0  0
 19 30  1  0  0  0
M  END
> <s_m_entry_id>
6486

> <s_m_entry_name>
dock_pv.321

> <s_m_Source_Path>
/home/csk/Desktop/cluster/DUD-E-result/aldr

> <s_m_Source_File>
dock_pv.maegz

> <i_m_Source_File_Index>
321

> <chembl_id>
CHEMBL19495

> <chembl_pref_name>
None

> <i_lp_mmshare_version>
53161

> <i_f3d_flags>
0

> <r_lp_tautomer_probability>
0.999999999781369

> <s_lp_Force_Field>
OPLS_2005

> <r_lp_Energy>
17.45405

> <b_lp_Chiralities_Consistent>
1

> <s_lp_Variant>
CHEMBL1900_lig25-1

> <s_i_glide_gridfile>
glide-grid_2hv5

> <i_i_glide_lignum>
46

> <i_i_glide_rotatable_bonds>
3

> <r_i_docking_score>
-8.32245885388943

> <r_i_glide_ligand_efficiency>
-0.438024150204707

> <r_i_glide_ligand_efficiency_sa>
-1.16882436343909

> <r_i_glide_ligand_efficiency_ln>
-2.10992206948735

> <r_i_glide_gscore>
-8.32245885388943

> <r_i_glide_lipo>
-2.38792703059166

> <r_i_glide_hbond>
-0.162094159217362

> <r_i_glide_metal>
0

> <r_i_glide_rewards>
-3.70923152513897

> <r_i_glide_evdw>
-34.8300094604492

> <r_i_glide_ecoul>
-3.86509919166565

> <r_i_glide_erotb>
0.281327874911972

> <r_i_glide_esite>
-0.0232686620811025

> <r_i_glide_emodel>
-57.6894799202245

> <r_i_glide_energy>
-38.6951086521149

> <r_i_glide_einternal>
0.865453362464905

> <i_i_glide_confnum>
1

> <i_i_glide_posenum>
38

> <r_i_glide_eff_state_penalty>
0

> <s_user_duplicate_titles>
CHEMBL1900_lig25,22993

> <s_m_subgroup_title>
dock_pv

> <s_m_subgroupid>
dock_pv

> <b_m_subgroup_collapsed>
1

$$$$
CHEMBL1900_lig527
                    3D
 Schrodinger Suite 2021-1.
 43 45  0  0  1  0            999 V2000
   18.0873  -12.5598   13.9533 C   0  0  0  0  0  0
   18.9932  -11.6938   13.3452 C   0  0  0  0  0  0
   18.9431  -10.3228   13.5968 C   0  0  0  0  0  0
   17.0960  -12.1040   14.8207 C   0  0  0  0  0  0
   17.0466  -10.7250   15.0753 C   0  0  0  0  0  0
   17.9680   -9.8201   14.4738 C   0  0  0  0  0  0
   17.6517   -8.5072   14.9434 C   0  0  0  0  0  0
   16.5856   -8.6427   15.8255 C   0  0  0  0  0  0
   16.1881   -9.9737   15.8670 N   0  0  0  0  0  0
   18.5107   -7.0224   14.5037 S   0  0  0  0  0  0
   17.5878   -6.4047   13.1101 C   0  0  0  0  0  0
   18.2180   -5.5488   12.2150 C   0  0  0  0  0  0
   17.5121   -4.9678   11.1650 C   0  0  0  0  0  0
   16.1476   -5.2494   11.0029 C   0  0  0  0  0  0
   15.5221   -6.1150   11.8960 C   0  0  0  0  0  0
   16.2370   -6.6896   12.9428 C   0  0  0  0  0  0
   15.0248  -10.5157   16.5989 C   0  0  0  0  0  0
   15.8683   -7.5744   16.6303 C   0  0  0  0  0  0
   20.0600  -12.2444   12.4206 C   0  0  0  0  0  0
   15.3454   -4.7270   10.0118 O   0  0  0  0  0  0
   15.8802   -3.7864    9.0910 C   0  0  0  0  0  0
   15.3525  -11.4722   17.7572 C   0  0  0  0  0  0
   14.2597  -11.7661   18.5156 O   0  0  0  0  0  0
   16.4732  -11.9320   17.9669 O   0  0  0  0  0  0
   18.1453  -13.6198   13.7462 H   0  0  0  0  0  0
   19.6489   -9.6509   13.1278 H   0  0  0  0  0  0
   16.4049  -12.7980   15.2752 H   0  0  0  0  0  0
   19.2599   -5.3172   12.3583 H   0  0  0  0  0  0
   18.0331   -4.2961   10.5026 H   0  0  0  0  0  0
   14.4690   -6.3299   11.7805 H   0  0  0  0  0  0
   15.7448   -7.3278   13.6469 H   0  0  0  0  0  0
   14.4104   -9.6956   16.9707 H   0  0  0  0  0  0
   14.4135  -11.0546   15.8749 H   0  0  0  0  0  0
   16.3602   -6.6051   16.5443 H   0  0  0  0  0  0
   14.8428   -7.4345   16.2913 H   0  0  0  0  0  0
   15.8362   -7.8162   17.6921 H   0  0  0  0  0  0
   20.2549  -13.2991   12.6153 H   0  0  0  0  0  0
   21.0020  -11.7161   12.5755 H   0  0  0  0  0  0
   19.7558  -12.1196   11.3819 H   0  0  0  0  0  0
   15.2000   -3.7153    8.2450 H   0  0  0  0  0  0
   15.9710   -2.8008    9.5484 H   0  0  0  0  0  0
   16.8466   -4.0830    8.6875 H   0  0  0  0  0  0
   13.4177  -11.4581   18.1729 H   0  0  0  0  0  0
  1  2  2  0  0  0
  1  4  1  0  0  0
  1 25  1  0  0  0
  2  3  1  0  0  0
  2 19  1  0  0  0
  3  6  2  0  0  0
  3 26  1  0  0  0
  4  5  2  0  0  0
  4 27  1  0  0  0
  5  9  1  0  0  0
  5  6  1  0  0  0
  6  7  1  0  0  0
  7  8  2  0  0  0
  7 10  1  0  0  0
  8 18  1  0  0  0
  8  9  1  0  0  0
  9 17  1  0  0  0
 10 11  1  0  0  0
 11 12  2  0  0  0
 11 16  1  0  0  0
 12 13  1  0  0  0
 12 28  1  0  0  0
 13 14  2  0  0  0
 13 29  1  0  0  0
 14 15  1  0  0  0
 14 20  1  0  0  0
 15 16  2  0  0  0
 15 30  1  0  0  0
 16 31  1  0  0  0
 17 22  1  0  0  0
 17 32  1  0  0  0
 17 33  1  0  0  0
 18 34  1  0  0  0
 18 35  1  0  0  0
 18 36  1  0  0  0
 19 37  1  0  0  0
 19 38  1  0  0  0
 19 39  1  0  0  0
 20 21  1  0  0  0
 21 40  1  0  0  0
 21 41  1  0  0  0
 21 42  1  0  0  0
 22 23  1  0  0  0
 22 24  2  0  0  0
 23 43  1  0  0  0
M  END
> <s_m_entry_id>
6487

> <s_m_entry_name>
dock_pv.322

> <s_m_Source_Path>
/home/csk/Desktop/cluster/DUD-E-result/aldr

> <s_m_Source_File>
dock_pv.maegz

> <i_m_Source_File_Index>
322

> <chembl_id>
CHEMBL1917444

> <chembl_pref_name>
None

> <i_lp_mmshare_version>
53161

> <i_f3d_flags>
0

> <r_lp_tautomer_probability>
1

> <s_lp_Force_Field>
OPLS_2005

> <r_lp_Energy>
15.469138

> <b_lp_Chiralities_Consistent>
1

> <s_lp_Variant>
CHEMBL1900_lig527-1

> <s_i_glide_gridfile>
glide-grid_2hv5

> <i_i_glide_lignum>
650

> <i_i_glide_rotatable_bonds>
6

> <r_i_docking_score>
-8.32136407058644

> <r_i_glide_ligand_efficiency>
-0.346723502941102

> <r_i_glide_ligand_efficiency_sa>
-1.00012364520508

> <r_i_glide_ligand_efficiency_ln>
-1.99168426460734

> <r_i_glide_gscore>
-8.32136407058644

> <r_i_glide_lipo>
-4.20721889806033

> <r_i_glide_hbond>
-0.307904480696142

> <r_i_glide_metal>
0

> <r_i_glide_rewards>
-2.1958806952509

> <r_i_glide_evdw>
-38.4100914001465

> <r_i_glide_ecoul>
-2.26730298995972

> <r_i_glide_erotb>
0.650240021922209

> <r_i_glide_esite>
0

> <r_i_glide_emodel>
-59.072597895722

> <r_i_glide_energy>
-40.6773943901062

> <r_i_glide_einternal>
2.5541136264801

> <i_i_glide_confnum>
14

> <i_i_glide_posenum>
94

> <r_i_glide_eff_state_penalty>
0

> <s_user_duplicate_titles>
CHEMBL1900_lig527

> <s_m_subgroup_title>
dock_pv

> <s_m_subgroupid>
dock_pv

> <b_m_subgroup_collapsed>
1

$$$$
CHEMBL1900_lig483
                    3D
 Schrodinger Suite 2021-1.
 33 34  0  0  1  0            999 V2000
   16.9874  -10.9677   15.8281 C   0  0  0  0  0  0
   16.1492  -10.9310   16.9450 C   0  0  0  0  0  0
   15.6867   -9.7050   17.4281 C   0  0  0  0  0  0
   16.0393   -8.5117   16.7937 C   0  0  0  0  0  0
   16.9146   -8.5370   15.6959 C   0  0  0  0  0  0
   17.3856   -9.7736   15.2112 C   0  0  0  0  0  0
   17.4215   -7.2194   15.1135 C   0  0  0  0  0  0
   16.4782   -6.5950   14.2350 O   0  0  0  0  0  0
   16.4915   -7.0360   12.8776 C   0  0  0  0  0  0
   16.4554   -5.8670   11.8856 C   0  0  0  0  0  0
   17.5890   -5.0819   11.7184 C   0  0  0  0  0  0
   17.6616   -4.0970   10.7242 C   0  0  0  0  0  0
   16.5377   -3.8407    9.9344 C   0  0  0  0  0  0
   15.3742   -4.5712   10.1458 C   0  0  0  0  0  0
   15.3367   -5.5772   11.1089 C   0  0  0  0  0  0
   18.5971   -9.8589   13.7314 Br  0  0  0  0  0  0
   17.6094  -12.6536   15.1730 Br  0  0  0  0  0  0
   15.3454   -6.8574   17.4664 Br  0  0  0  0  0  0
   18.9547   -5.3150   12.9896 Br  0  0  0  0  0  0
   13.7265   -6.5150   11.3810 Br  0  0  0  0  0  0
   18.7877   -3.3315   10.5486 O   0  0  0  0  0  0
   16.5455   -2.8526    8.9809 O   0  0  0  0  0  0
   14.9449   -9.6729   18.5805 O   0  0  0  0  0  0
   15.7739  -12.0962   17.5720 O   0  0  0  0  0  0
   17.6033   -6.5271   15.9353 H   0  0  0  0  0  0
   18.4053   -7.3435   14.6661 H   0  0  0  0  0  0
   17.3724   -7.6296   12.6350 H   0  0  0  0  0  0
   15.6681   -7.7149   12.7262 H   0  0  0  0  0  0
   14.5003   -4.3766    9.5496 H   0  0  0  0  0  0
   18.5935   -2.6293    9.9206 H   0  0  0  0  0  0
   15.6776   -2.7307    8.5832 H   0  0  0  0  0  0
   15.5067   -9.7139   19.3641 H   0  0  0  0  0  0
   14.9433  -11.9996   18.0474 H   0  0  0  0  0  0
  1  6  1  0  0  0
  1  2  2  0  0  0
  1 17  1  0  0  0
  2  3  1  0  0  0
  2 24  1  0  0  0
  3  4  2  0  0  0
  3 23  1  0  0  0
  4 18  1  0  0  0
  4  5  1  0  0  0
  5  7  1  0  0  0
  5  6  2  0  0  0
  6 16  1  0  0  0
  7  8  1  0  0  0
  7 25  1  0  0  0
  7 26  1  0  0  0
  8  9  1  0  0  0
  9 10  1  0  0  0
  9 27  1  0  0  0
  9 28  1  0  0  0
 10 15  1  0  0  0
 10 11  2  0  0  0
 11 12  1  0  0  0
 11 19  1  0  0  0
 12 13  2  0  0  0
 12 21  1  0  0  0
 13 14  1  0  0  0
 13 22  1  0  0  0
 14 15  2  0  0  0
 14 29  1  0  0  0
 15 20  1  0  0  0
 21 30  1  0  0  0
 22 31  1  0  0  0
 23 32  1  0  0  0
 24 33  1  0  0  0
M  END
> <s_m_entry_id>
6488

> <s_m_entry_name>
dock_pv.323

> <s_m_Source_Path>
/home/csk/Desktop/cluster/DUD-E-result/aldr

> <s_m_Source_File>
dock_pv.maegz

> <i_m_Source_File_Index>
323

> <chembl_id>
CHEMBL463334

> <chembl_pref_name>
None

> <i_lp_mmshare_version>
53161

> <i_f3d_flags>
0

> <r_lp_tautomer_probability>
0.999999999999552

> <s_lp_Force_Field>
OPLS_2005

> <r_lp_Energy>
16.680867

> <b_lp_Chiralities_Consistent>
1

> <s_lp_Variant>
CHEMBL1900_lig483-1

> <s_i_glide_gridfile>
glide-grid_2hv5

> <i_i_glide_lignum>
606

> <i_i_glide_rotatable_bonds>
8

> <r_i_docking_score>
-8.31312010718624

> <r_i_glide_ligand_efficiency>
-0.346380004466093

> <r_i_glide_ligand_efficiency_sa>
-0.99913282415017

> <r_i_glide_ligand_efficiency_ln>
-1.98971110587484

> <r_i_glide_gscore>
-8.31312010718624

> <r_i_glide_lipo>
-4.61031367862434

> <r_i_glide_hbond>
0

> <r_i_glide_metal>
0

> <r_i_glide_rewards>
-0.9

> <r_i_glide_evdw>
-41.226879119873

> <r_i_glide_ecoul>
-5.22744464874268

> <r_i_glide_erotb>
0.0426542247431577

> <r_i_glide_esite>
0

> <r_i_glide_emodel>
-62.800751162725

> <r_i_glide_energy>
-46.4543237686157

> <r_i_glide_einternal>
5.24279069900513

> <i_i_glide_confnum>
21

> <i_i_glide_posenum>
386

> <r_i_glide_eff_state_penalty>
0

> <s_user_duplicate_titles>
CHEMBL1900_lig483

> <s_m_subgroup_title>
dock_pv

> <s_m_subgroupid>
dock_pv

> <b_m_subgroup_collapsed>
1

$$$$
CHEMBL1900_lig317
                    3D
 Schrodinger Suite 2021-1.
 39 42  0  0  1  0            999 V2000
   15.2756   -9.2125   16.7846 S   0  0  0  0  0  0
   16.4945   -8.0699   16.1927 N   0  0  0  0  0  0
   17.3868   -8.4586   15.1454 C   0  0  0  0  0  0
   17.7208   -9.7587   14.9324 C   0  0  0  0  0  0
   16.9661   -6.1983   12.3175 C   0  0  0  0  0  0
   17.8481   -7.4035   14.2620 C   0  0  0  0  0  0
   16.2146  -10.7255   16.7194 C   0  0  0  0  0  0
   17.2576  -10.8933   15.7885 C   0  0  0  0  0  0
   16.9393   -7.1689   13.2962 N   0  0  0  0  0  0
   17.9390   -5.3754   12.0324 N   0  0  0  0  0  0
   15.5015   -6.0461   11.3825 S   0  0  0  0  0  0
   14.1911   -9.3119   15.7997 O   0  0  0  0  0  0
   14.9442   -8.9180   18.1810 O   0  0  0  0  0  0
   17.5665   -4.5183   11.0458 C   0  0  0  0  0  0
   16.2615   -4.7245   10.5253 C   0  0  0  0  0  0
   18.9280   -6.8333   14.4045 O   0  0  0  0  0  0
   18.5430  -10.1457   13.9087 O   0  0  0  0  0  0
   16.2411   -6.6522   16.5808 C   0  0  0  0  0  0
   17.8979  -12.1453   15.7436 C   0  0  0  0  0  0
   15.8303  -11.7678   17.5666 C   0  0  0  0  0  0
   18.3511   -3.4623   10.5642 C   0  0  0  0  0  0
   15.7459   -3.9211    9.5044 C   0  0  0  0  0  0
   17.5265  -13.1790   16.6014 C   0  0  0  0  0  0
   16.4936  -12.9907   17.5153 C   0  0  0  0  0  0
   17.8078   -2.6312    9.5862 C   0  0  0  0  0  0
   16.5439   -2.8689    9.0509 C   0  0  0  0  0  0
   16.0964   -7.7195   13.3266 H   0  0  0  0  0  0
   18.9346   -9.3714   13.4946 H   0  0  0  0  0  0
   17.1858   -6.1179   16.7078 H   0  0  0  0  0  0
   15.6666   -6.1653   15.7963 H   0  0  0  0  0  0
   15.6735   -6.5984   17.5120 H   0  0  0  0  0  0
   18.7094  -12.3239   15.0536 H   0  0  0  0  0  0
   15.0102  -11.6329   18.2571 H   0  0  0  0  0  0
   19.3260   -3.2595   10.9762 H   0  0  0  0  0  0
   14.7667   -4.1149    9.0966 H   0  0  0  0  0  0
   18.0494  -14.1191   16.5530 H   0  0  0  0  0  0
   16.2001  -13.7937   18.1738 H   0  0  0  0  0  0
   18.3785   -1.7842    9.2332 H   0  0  0  0  0  0
   16.1649   -2.2115    8.2848 H   0  0  0  0  0  0
  1  2  1  0  0  0
  1  7  1  0  0  0
  1 12  2  0  0  0
  1 13  2  0  0  0
  2  3  1  0  0  0
  2 18  1  0  0  0
  3  6  1  0  0  0
  3  4  2  0  0  0
  4  8  1  0  0  0
  4 17  1  0  0  0
  5  9  1  0  0  0
  5 10  2  0  0  0
  5 11  1  0  0  0
  6  9  1  0  0  0
  6 16  2  0  0  0
  7  8  1  0  0  0
  7 20  2  0  0  0
  8 19  2  0  0  0
  9 27  1  0  0  0
 10 14  1  0  0  0
 11 15  1  0  0  0
 14 21  1  0  0  0
 14 15  2  0  0  0
 15 22  1  0  0  0
 17 28  1  0  0  0
 18 29  1  0  0  0
 18 30  1  0  0  0
 18 31  1  0  0  0
 19 23  1  0  0  0
 19 32  1  0  0  0
 20 24  1  0  0  0
 20 33  1  0  0  0
 21 25  2  0  0  0
 21 34  1  0  0  0
 22 26  2  0  0  0
 22 35  1  0  0  0
 23 24  2  0  0  0
 23 36  1  0  0  0
 24 37  1  0  0  0
 25 26  1  0  0  0
 25 38  1  0  0  0
 26 39  1  0  0  0
M  END
> <s_m_entry_id>
6489

> <s_m_entry_name>
dock_pv.324

> <s_m_Source_Path>
/home/csk/Desktop/cluster/DUD-E-result/aldr

> <s_m_Source_File>
dock_pv.maegz

> <i_m_Source_File_Index>
324

> <chembl_id>
CHEMBL262701

> <chembl_pref_name>
None

> <i_lp_mmshare_version>
53161

> <i_f3d_flags>
0

> <r_lp_tautomer_probability>
1

> <s_lp_Force_Field>
OPLS_2005

> <r_lp_Energy>
30.060076

> <b_lp_Chiralities_Consistent>
1

> <s_lp_Variant>
CHEMBL1900_lig317-1

> <s_i_glide_gridfile>
glide-grid_2hv5

> <i_i_glide_lignum>
434

> <i_i_glide_rotatable_bonds>
4

> <r_i_docking_score>
-8.31059735170786

> <r_i_glide_ligand_efficiency>
-0.319638359681071

> <r_i_glide_ligand_efficiency_sa>
-0.946927382838961

> <r_i_glide_ligand_efficiency_ln>
-1.9517165187545

> <r_i_glide_gscore>
-8.31059735170786

> <r_i_glide_lipo>
-3.37573513131575

> <r_i_glide_hbond>
0

> <r_i_glide_metal>
0

> <r_i_glide_rewards>
-2.84777337479516

> <r_i_glide_evdw>
-50.0018615722656

> <r_i_glide_ecoul>
0.15869902074337

> <r_i_glide_erotb>
0.389199379904832

> <r_i_glide_esite>
0

> <r_i_glide_emodel>
-66.3325327626533

> <r_i_glide_energy>
-49.8431625515223

> <r_i_glide_einternal>
5.2262396812439

> <i_i_glide_confnum>
6

> <i_i_glide_posenum>
185

> <r_i_glide_eff_state_penalty>
0

> <s_user_duplicate_titles>
CHEMBL1900_lig317

> <s_m_subgroup_title>
dock_pv

> <s_m_subgroupid>
dock_pv

> <b_m_subgroup_collapsed>
1

$$$$
CHEMBL1900_lig166
                    3D
 Schrodinger Suite 2021-1.
 44 48  0  0  1  0            999 V2000
   17.1237   -9.1162   16.5251 N   0  0  0  0  0  0
   17.9032   -9.9649   15.7535 N   0  0  0  0  0  0
   16.0055   -9.4667   17.2580 C   0  0  0  0  0  0
   17.5161  -11.1550   15.4881 C   0  0  0  0  0  0
   17.2620   -7.2555   14.9348 C   0  0  0  0  0  0
   16.1372   -7.2976   14.2722 N   0  0  0  0  0  0
   17.4696   -7.6977   16.3675 C   0  0  0  0  0  0
   15.6949  -10.9545   17.1214 C   0  0  0  0  0  0
   16.3933   -6.5900   13.1451 C   0  0  0  0  0  0
   18.3297   -6.7406   14.2440 O   0  0  0  0  0  0
   16.4135  -11.7740   16.2329 C   0  0  0  0  0  0
   17.7427   -6.2775   13.1077 C   0  0  0  0  0  0
   18.2958  -11.9844   14.4493 C   0  0  0  0  0  0
   19.0189  -11.2310   13.3107 C   0  0  0  0  0  0
   15.5574   -6.1159   12.1226 C   0  0  0  0  0  0
   18.3011   -5.5072   12.1051 C   0  0  0  0  0  0
   15.3235   -8.6781   17.9177 O   0  0  0  0  0  0
   16.0703   -5.2322   11.1320 C   0  0  0  0  0  0
   17.4612   -4.9278   11.1218 C   0  0  0  0  0  0
   18.9411  -10.0400   13.0660 O   0  0  0  0  0  0
   19.7409  -12.1120   12.5637 O   0  0  0  0  0  0
   14.6731  -11.5051   17.9075 C   0  0  0  0  0  0
   16.1238  -13.1462   16.1673 C   0  0  0  0  0  0
   17.9690   -3.9934   10.1788 C   0  0  0  0  0  0
   15.2174   -4.5966   10.1842 C   0  0  0  0  0  0
   14.4029  -12.8693   17.8314 C   0  0  0  0  0  0
   15.1104  -13.6764   16.9561 C   0  0  0  0  0  0
   15.7450   -3.6696    9.2949 C   0  0  0  0  0  0
   17.0964   -3.3464    9.3094 C   0  0  0  0  0  0
   16.8913   -7.0423   17.0205 H   0  0  0  0  0  0
   18.5027   -7.5443   16.6914 H   0  0  0  0  0  0
   19.0493  -12.5799   14.9671 H   0  0  0  0  0  0
   17.6251  -12.6854   13.9378 H   0  0  0  0  0  0
   14.4959   -6.3243   12.1205 H   0  0  0  0  0  0
   19.3451   -5.3111   12.1128 H   0  0  0  0  0  0
   20.1630  -11.6346   11.8394 H   0  0  0  0  0  0
   14.0983  -10.8931   18.5937 H   0  0  0  0  0  0
   16.6630  -13.8115   15.5211 H   0  0  0  0  0  0
   19.0179   -3.7438   10.1842 H   0  0  0  0  0  0
   14.1577   -4.8041   10.1806 H   0  0  0  0  0  0
   13.6367  -13.3112   18.4559 H   0  0  0  0  0  0
   14.8760  -14.7206   16.8867 H   0  0  0  0  0  0
   15.0983   -3.2010    8.5816 H   0  0  0  0  0  0
   17.4776   -2.6074    8.6126 H   0  0  0  0  0  0
  1  2  1  0  0  0
  1  3  1  0  0  0
  1  7  1  0  0  0
  2  4  2  0  0  0
  3  8  1  0  0  0
  3 17  2  0  0  0
  4 13  1  0  0  0
  4 11  1  0  0  0
  5  7  1  0  0  0
  5  6  2  0  0  0
  5 10  1  0  0  0
  6  9  1  0  0  0
  7 30  1  0  0  0
  7 31  1  0  0  0
  8 11  2  0  0  0
  8 22  1  0  0  0
  9 15  1  0  0  0
  9 12  2  0  0  0
 10 12  1  0  0  0
 11 23  1  0  0  0
 12 16  1  0  0  0
 13 14  1  0  0  0
 13 32  1  0  0  0
 13 33  1  0  0  0
 14 20  2  0  0  0
 14 21  1  0  0  0
 15 18  2  0  0  0
 15 34  1  0  0  0
 16 19  2  0  0  0
 16 35  1  0  0  0
 18 25  1  0  0  0
 18 19  1  0  0  0
 19 24  1  0  0  0
 21 36  1  0  0  0
 22 26  2  0  0  0
 22 37  1  0  0  0
 23 27  2  0  0  0
 23 38  1  0  0  0
 24 29  2  0  0  0
 24 39  1  0  0  0
 25 28  2  0  0  0
 25 40  1  0  0  0
 26 27  1  0  0  0
 26 41  1  0  0  0
 27 42  1  0  0  0
 28 29  1  0  0  0
 28 43  1  0  0  0
 29 44  1  0  0  0
M  END
> <s_m_entry_id>
6490

> <s_m_entry_name>
dock_pv.325

> <s_m_Source_Path>
/home/csk/Desktop/cluster/DUD-E-result/aldr

> <s_m_Source_File>
dock_pv.maegz

> <i_m_Source_File_Index>
325

> <chembl_id>
CHEMBL142512

> <chembl_pref_name>
None

> <i_lp_mmshare_version>
53161

> <i_f3d_flags>
0

> <r_lp_tautomer_probability>
1

> <s_lp_Force_Field>
OPLS_2005

> <r_lp_Energy>
31.423112

> <b_lp_Chiralities_Consistent>
1

> <s_lp_Variant>
CHEMBL1900_lig166-1

> <s_i_glide_gridfile>
glide-grid_2hv5

> <i_i_glide_lignum>
242

> <i_i_glide_rotatable_bonds>
5

> <r_i_docking_score>
-8.30794625954783

> <r_i_glide_ligand_efficiency>
-0.286480905501649

> <r_i_glide_ligand_efficiency_sa>
-0.880160105222514

> <r_i_glide_ligand_efficiency_ln>
-1.90230902209653

> <r_i_glide_gscore>
-8.30794625954783

> <r_i_glide_lipo>
-4.24738132495003

> <r_i_glide_hbond>
0

> <r_i_glide_metal>
0

> <r_i_glide_rewards>
-2.29021370983844

> <r_i_glide_evdw>
-43.039966583252

> <r_i_glide_ecoul>
-0.94853276014328

> <r_i_glide_erotb>
0.523927018424731

> <r_i_glide_esite>
0

> <r_i_glide_emodel>
-52.0515425975107

> <r_i_glide_energy>
-43.9884993433952

> <r_i_glide_einternal>
4.05596303939819

> <i_i_glide_confnum>
8

> <i_i_glide_posenum>
60

> <r_i_glide_eff_state_penalty>
0

> <s_user_duplicate_titles>
CHEMBL1900_lig166

> <s_m_subgroup_title>
dock_pv

> <s_m_subgroupid>
dock_pv

> <b_m_subgroup_collapsed>
1

$$$$
CHEMBL1900_lig446
                    3D
 Schrodinger Suite 2021-1.
 28 30  0  0  1  0            999 V2000
   18.2186   -7.8144   14.0530 S   0  0  0  0  0  0
   17.5631   -6.6069   12.8658 C   0  0  0  0  0  0
   17.4077   -7.4579   15.6413 C   0  0  0  0  0  0
   18.4387   -5.7093   12.3142 N   0  0  0  0  0  0
   18.1410   -7.3149   16.6943 N   0  0  0  0  0  0
   16.3068   -6.3868   12.3335 C   0  0  0  0  0  0
   17.7967   -4.9114   11.3924 C   0  0  0  0  0  0
   17.5397   -6.9292   17.8988 N   0  0  0  0  0  0
   15.9769   -7.3161   15.7692 C   0  0  0  0  0  0
   16.4275   -5.3148   11.3920 C   0  0  0  0  0  0
   16.2233   -6.6337   18.1223 C   0  0  0  0  0  0
   17.7453   -9.1422   13.6509 O   0  0  0  0  0  0
   19.6489   -7.5103   14.1822 O   0  0  0  0  0  0
   15.4178   -6.9596   16.9536 C   0  0  0  0  0  0
   18.2712   -3.8744   10.5803 C   0  0  0  0  0  0
   15.7936   -6.1152   19.1531 O   0  0  0  0  0  0
   15.5273   -4.6437   10.5539 C   0  0  0  0  0  0
   17.3422   -3.2306    9.7729 C   0  0  0  0  0  0
   16.0065   -3.6097    9.7493 C   0  0  0  0  0  0
   17.7441   -2.2060    8.9959 F   0  0  0  0  0  0
   19.4165   -5.7041   12.5694 H   0  0  0  0  0  0
   15.4081   -6.9169   12.5804 H   0  0  0  0  0  0
   15.3449   -7.5845   14.9454 H   0  0  0  0  0  0
   14.3424   -6.9186   17.0575 H   0  0  0  0  0  0
   19.2974   -3.5489   10.5808 H   0  0  0  0  0  0
   18.1832   -6.7774   18.6621 H   0  0  0  0  0  0
   14.4818   -4.9101   10.5438 H   0  0  0  0  0  0
   15.3451   -3.0708    9.0930 H   0  0  0  0  0  0
  1  2  1  0  0  0
  1 12  2  0  0  0
  1 13  2  0  0  0
  1  3  1  0  0  0
  2  4  1  0  0  0
  2  6  2  0  0  0
  3  9  1  0  0  0
  3  5  2  0  0  0
  4  7  1  0  0  0
  4 21  1  0  0  0
  5  8  1  0  0  0
  6 10  1  0  0  0
  6 22  1  0  0  0
  7 15  1  0  0  0
  7 10  2  0  0  0
  8 11  1  0  0  0
  8 26  1  0  0  0
  9 14  2  0  0  0
  9 23  1  0  0  0
 10 17  1  0  0  0
 11 16  2  0  0  0
 11 14  1  0  0  0
 14 24  1  0  0  0
 15 18  2  0  0  0
 15 25  1  0  0  0
 17 19  2  0  0  0
 17 27  1  0  0  0
 18 20  1  0  0  0
 18 19  1  0  0  0
 19 28  1  0  0  0
M  END
> <s_m_entry_id>
6491

> <s_m_entry_name>
dock_pv.326

> <s_m_Source_Path>
/home/csk/Desktop/cluster/DUD-E-result/aldr

> <s_m_Source_File>
dock_pv.maegz

> <i_m_Source_File_Index>
326

> <chembl_id>
CHEMBL199240

> <chembl_pref_name>
None

> <i_lp_mmshare_version>
53161

> <i_f3d_flags>
0

> <r_lp_tautomer_probability>
0.998994762270461

> <s_lp_Force_Field>
OPLS_2005

> <r_lp_Energy>
20.2161

> <b_lp_Chiralities_Consistent>
1

> <s_lp_Variant>
CHEMBL1900_lig446-1

> <s_i_glide_gridfile>
glide-grid_2hv5

> <i_i_glide_lignum>
568

> <i_i_glide_rotatable_bonds>
2

> <r_i_docking_score>
-8.30764130215716

> <r_i_glide_ligand_efficiency>
-0.415382065107858

> <r_i_glide_ligand_efficiency_sa>
-1.12752039402043

> <r_i_glide_ligand_efficiency_ln>
-2.0791286135815

> <r_i_glide_gscore>
-8.30764130215716

> <r_i_glide_lipo>
-3.52195511324754

> <r_i_glide_hbond>
-0.00741179208768735

> <r_i_glide_metal>
0

> <r_i_glide_rewards>
-2.98670544983565

> <r_i_glide_evdw>
-40.5460624694824

> <r_i_glide_ecoul>
-1.26070725917816

> <r_i_glide_erotb>
0.424840265364556

> <r_i_glide_esite>
0

> <r_i_glide_emodel>
-58.200773810139

> <r_i_glide_energy>
-41.8067697286606

> <r_i_glide_einternal>
5.31946802139282

> <i_i_glide_confnum>
4

> <i_i_glide_posenum>
231

> <r_i_glide_eff_state_penalty>
0

> <s_user_duplicate_titles>
CHEMBL1900_lig446

> <s_m_subgroup_title>
dock_pv

> <s_m_subgroupid>
dock_pv

> <b_m_subgroup_collapsed>
1

$$$$
CHEMBL1900_lig542
                    3D
 Schrodinger Suite 2021-1.
 39 40  0  0  1  0            999 V2000
   16.1054   -4.1402    9.9373 C   0  0  0  0  0  0
   15.1181   -4.8414   10.6191 C   0  0  0  0  0  0
   15.4780   -5.7144   11.6395 C   0  0  0  0  0  0
   16.8268   -5.8889   11.9718 C   0  0  0  0  0  0
   17.8087   -5.2068   11.2493 C   0  0  0  0  0  0
   17.4511   -4.3308   10.2300 C   0  0  0  0  0  0
   17.2448   -6.7068   13.1238 C   0  0  0  0  0  0
   16.4816   -6.9476   14.2096 C   0  0  0  0  0  0
   16.9484   -7.7211   15.3465 C   0  0  0  0  0  0
   16.0534   -7.6911   16.3549 O   0  0  0  0  0  0
   18.0356   -8.3010   15.3819 O   0  0  0  0  0  0
   16.3570   -8.2066   17.6476 C   0  0  0  0  0  0
   16.1422   -7.0872   18.6780 C   0  0  0  0  0  0
   17.1456   -5.9164   18.5627 C   0  0  0  0  0  0
   16.6268   -4.6660   19.2552 C   0  0  0  0  0  0
   16.5669   -4.6227   20.6502 C   0  0  0  0  0  0
   15.9760   -3.5352   21.2838 C   0  0  0  0  0  0
   15.4365   -2.5085   20.5160 C   0  0  0  0  0  0
   15.5345   -2.5154   19.1321 C   0  0  0  0  0  0
   16.1452   -3.5933   18.4955 C   0  0  0  0  0  0
   15.7450   -3.2404    8.9808 O   0  0  0  0  0  0
   14.0749   -4.6902   10.3856 H   0  0  0  0  0  0
   14.6974   -6.2249   12.1828 H   0  0  0  0  0  0
   18.8532   -5.3256   11.4971 H   0  0  0  0  0  0
   18.2073   -3.7824    9.6890 H   0  0  0  0  0  0
   18.2412   -7.1276   13.0664 H   0  0  0  0  0  0
   15.4855   -6.5379   14.2845 H   0  0  0  0  0  0
   15.6781   -9.0334   17.8546 H   0  0  0  0  0  0
   17.3712   -8.6026   17.7290 H   0  0  0  0  0  0
   15.1229   -6.7118   18.5709 H   0  0  0  0  0  0
   16.1892   -7.5083   19.6810 H   0  0  0  0  0  0
   18.1152   -6.1983   18.9808 H   0  0  0  0  0  0
   17.3429   -5.6806   17.5159 H   0  0  0  0  0  0
   16.9453   -5.4452   21.2394 H   0  0  0  0  0  0
   15.9040   -3.4998   22.3619 H   0  0  0  0  0  0
   14.9479   -1.6704   20.9810 H   0  0  0  0  0  0
   15.1145   -1.6905   18.5806 H   0  0  0  0  0  0
   16.1947   -3.6179   17.4164 H   0  0  0  0  0  0
   14.7845   -3.1502    8.9113 H   0  0  0  0  0  0
  1  6  1  0  0  0
  1  2  2  0  0  0
  1 21  1  0  0  0
  2  3  1  0  0  0
  2 22  1  0  0  0
  3  4  2  0  0  0
  3 23  1  0  0  0
  4  7  1  0  0  0
  4  5  1  0  0  0
  5  6  2  0  0  0
  5 24  1  0  0  0
  6 25  1  0  0  0
  7  8  2  0  0  0
  7 26  1  0  0  0
  8  9  1  0  0  0
  8 27  1  0  0  0
  9 11  2  0  0  0
  9 10  1  0  0  0
 10 12  1  0  0  0
 12 13  1  0  0  0
 12 28  1  0  0  0
 12 29  1  0  0  0
 13 14  1  0  0  0
 13 30  1  0  0  0
 13 31  1  0  0  0
 14 15  1  0  0  0
 14 32  1  0  0  0
 14 33  1  0  0  0
 15 16  2  0  0  0
 15 20  1  0  0  0
 16 17  1  0  0  0
 16 34  1  0  0  0
 17 18  2  0  0  0
 17 35  1  0  0  0
 18 19  1  0  0  0
 18 36  1  0  0  0
 19 20  2  0  0  0
 19 37  1  0  0  0
 20 38  1  0  0  0
 21 39  1  0  0  0
M  END
> <s_m_entry_id>
6492

> <s_m_entry_name>
dock_pv.327

> <s_m_Source_Path>
/home/csk/Desktop/cluster/DUD-E-result/aldr

> <s_m_Source_File>
dock_pv.maegz

> <i_m_Source_File_Index>
327

> <chembl_id>
CHEMBL1940393

> <chembl_pref_name>
None

> <i_lp_mmshare_version>
53161

> <i_f3d_flags>
0

> <r_lp_tautomer_probability>
1

> <s_lp_Force_Field>
OPLS_2005

> <r_lp_Energy>
11.821554

> <b_lp_Chiralities_Consistent>
1

> <s_lp_Variant>
CHEMBL1900_lig542-1

> <s_i_glide_gridfile>
glide-grid_2hv5

> <i_i_glide_lignum>
665

> <i_i_glide_rotatable_bonds>
8

> <r_i_docking_score>
-8.29633827353212

> <r_i_glide_ligand_efficiency>
-0.395063727311053

> <r_i_glide_ligand_efficiency_sa>
-1.08995086738358

> <r_i_glide_ligand_efficiency_ln>
-2.05125287380083

> <r_i_glide_gscore>
-8.29633827353212

> <r_i_glide_lipo>
-5.00108740733009

> <r_i_glide_hbond>
-0.32

> <r_i_glide_metal>
0

> <r_i_glide_rewards>
-2.73138471341163

> <r_i_glide_evdw>
-43.8201522827148

> <r_i_glide_ecoul>
-5.17633390426636

> <r_i_glide_erotb>
2.7235915469853

> <r_i_glide_esite>
0

> <r_i_glide_emodel>
-69.53551156976

> <r_i_glide_energy>
-48.9964861869812

> <r_i_glide_einternal>
5.16543388366699

> <i_i_glide_confnum>
3

> <i_i_glide_posenum>
79

> <r_i_glide_eff_state_penalty>
0

> <s_user_duplicate_titles>
CHEMBL1900_lig542

> <s_m_subgroup_title>
dock_pv

> <s_m_subgroupid>
dock_pv

> <b_m_subgroup_collapsed>
1

$$$$
CHEMBL1900_lig355
                    3D
 Schrodinger Suite 2021-1.
 35 36  0  0  1  0            999 V2000
   15.4451   -8.2111   17.2187 C   0  0  2  0  0  0
   16.4478   -8.5437   16.1080 C   0  0  0  0  0  0
   19.0132   -6.7474   14.0319 N   0  3  0  0  0  0
   16.7250   -9.8793   15.7592 C   0  0  0  0  0  0
   18.2137   -7.8461   14.5809 C   0  0  0  0  0  0
   16.2043   -7.7321   18.5161 C   0  0  0  0  0  0
   17.1619   -7.5457   15.4414 C   0  0  0  0  0  0
   15.9839  -10.9508   16.2032 O   0  0  0  0  0  0
   18.5150   -9.1844   14.3034 C   0  0  0  0  0  0
   14.5888   -9.4659   17.5376 C   0  0  0  0  0  0
   17.7449  -10.1970   14.8694 C   0  0  0  0  0  0
   16.2697   -6.2248   18.8238 C   0  0  0  0  0  0
   20.0841   -6.5150   14.5809 O   0  5  0  0  0  0
   18.5447   -6.1133   13.0935 O   0  0  0  0  0  0
   15.3985  -10.7751   17.4825 C   0  0  1  0  0  0
   15.7450   -5.7151   19.8060 O   0  0  0  0  0  0
   14.5440   -7.2076   16.7997 O   0  0  0  0  0  0
   16.9450   -5.5298   17.8793 O   0  0  0  0  0  0
   19.6503   -9.5519   13.3810 C   0  0  0  0  0  0
   14.5655  -12.0112   17.8447 C   0  0  0  0  0  0
   16.2260  -10.7135   18.1810 H   0  0  0  0  0  0
   17.2244   -8.1150   18.5261 H   0  0  0  0  0  0
   15.7565   -8.1828   19.4011 H   0  0  0  0  0  0
   16.9138   -6.5150   15.6181 H   0  0  0  0  0  0
   14.1451   -9.3725   18.5263 H   0  0  0  0  0  0
   13.7499   -9.5614   16.8425 H   0  0  0  0  0  0
   17.9330  -11.2321   14.6249 H   0  0  0  0  0  0
   13.8516   -7.1255   17.4617 H   0  0  0  0  0  0
   17.4061   -6.1157   17.2789 H   0  0  0  0  0  0
   20.5647   -9.0162   13.6395 H   0  0  0  0  0  0
   19.8724  -10.6194   13.3813 H   0  0  0  0  0  0
   19.3450   -9.2514   12.3828 H   0  0  0  0  0  0
   14.1227  -11.9162   18.8360 H   0  0  0  0  0  0
   13.7578  -12.1759   17.1335 H   0  0  0  0  0  0
   15.1841  -12.9081   17.8466 H   0  0  0  0  0  0
  1  2  1  0  0  0
  1  6  1  0  0  0
  1 10  1  0  0  0
  1 17  1  0  0  0
  2  4  2  0  0  0
  2  7  1  0  0  0
  3  5  1  0  0  0
  3 13  1  0  0  0
  3 14  2  0  0  0
  4 11  1  0  0  0
  4  8  1  0  0  0
  5  7  2  0  0  0
  5  9  1  0  0  0
  6 12  1  0  0  0
  6 22  1  0  0  0
  6 23  1  0  0  0
  7 24  1  0  0  0
  8 15  1  0  0  0
  9 19  1  0  0  0
  9 11  2  0  0  0
 10 15  1  0  0  0
 10 25  1  0  0  0
 10 26  1  0  0  0
 11 27  1  0  0  0
 12 16  2  0  0  0
 12 18  1  0  0  0
 15 20  1  0  0  0
 15 21  1  0  0  0
 17 28  1  0  0  0
 18 29  1  0  0  0
 19 30  1  0  0  0
 19 31  1  0  0  0
 19 32  1  0  0  0
 20 33  1  0  0  0
 20 34  1  0  0  0
 20 35  1  0  0  0
M  CHG  2   3   1  13  -1
M  END
> <s_m_entry_id>
6493

> <s_m_entry_name>
dock_pv.328

> <s_m_Source_Path>
/home/csk/Desktop/cluster/DUD-E-result/aldr

> <s_m_Source_File>
dock_pv.maegz

> <i_m_Source_File_Index>
328

> <chembl_id>
CHEMBL302804

> <chembl_pref_name>
None

> <i_lp_mmshare_version>
53161

> <i_f3d_flags>
0

> <r_lp_tautomer_probability>
1

> <s_lp_Force_Field>
OPLS_2005

> <r_lp_Energy>
21.132071

> <b_lp_Chiralities_Consistent>
1

> <s_lp_Variant>
CHEMBL1900_lig355-1

> <s_i_glide_gridfile>
glide-grid_2hv5

> <i_i_glide_lignum>
476

> <i_i_glide_rotatable_bonds>
5

> <r_i_docking_score>
-8.28986279783819

> <r_i_glide_ligand_efficiency>
-0.41449313989191

> <r_i_glide_ligand_efficiency_sa>
-1.12510747975683

> <r_i_glide_ligand_efficiency_ln>
-2.07467924032478

> <r_i_glide_gscore>
-8.28986279783819

> <r_i_glide_lipo>
-2.70661763464355

> <r_i_glide_hbond>
-0.32

> <r_i_glide_metal>
0

> <r_i_glide_rewards>
-3.2226826522453

> <r_i_glide_evdw>
-32.4066963195801

> <r_i_glide_ecoul>
-5.84781408309937

> <r_i_glide_erotb>
0.456944417494567

> <r_i_glide_esite>
0

> <r_i_glide_emodel>
-48.8684767243681

> <r_i_glide_energy>
-38.2545104026794

> <r_i_glide_einternal>
10.2384624481201

> <i_i_glide_confnum>
1

> <i_i_glide_posenum>
111

> <r_i_glide_eff_state_penalty>
0

> <s_user_duplicate_titles>
CHEMBL1900_lig355,109111

> <s_m_subgroup_title>
dock_pv

> <s_m_subgroupid>
dock_pv

> <b_m_subgroup_collapsed>
1

$$$$
CHEMBL1900_lig622
                    3D
 Schrodinger Suite 2021-1.
 34 35  0  0  1  0            999 V2000
   15.7441   -7.0361   15.2807 N   0  0  0  0  0  0
   15.4553   -7.6651   16.3343 C   0  0  0  0  0  0
   16.1475   -8.8147   16.4649 N   0  0  0  0  0  0
   16.9571   -8.9495   15.3977 C   0  0  0  0  0  0
   16.6568   -7.7729   14.6190 C   0  0  0  0  0  0
   17.7445   -9.8714   15.1681 O   0  0  0  0  0  0
   14.4689   -7.2158   17.3891 C   0  0  0  0  0  0
   17.2995   -7.5846   13.4432 C   0  0  0  0  0  0
   17.1106   -6.4586   12.5127 C   0  0  0  0  0  0
   16.0807   -9.8104   17.5561 C   0  0  0  0  0  0
   14.9769  -10.8488   17.2827 C   0  0  0  0  0  0
   14.5454  -11.3926   18.4558 O   0  0  0  0  0  0
   14.5507  -11.1296   16.1820 O   0  0  0  0  0  0
   18.2352   -5.7145   12.1762 C   0  0  0  0  0  0
   18.1449   -4.6918   11.2405 C   0  0  0  0  0  0
   16.9324   -4.3874   10.6383 C   0  0  0  0  0  0
   15.7884   -5.1199   10.9851 C   0  0  0  0  0  0
   15.8756   -6.1401   11.9338 C   0  0  0  0  0  0
   16.9638   -3.3390    9.7432 O   0  0  0  0  0  0
   15.7455   -2.9054    9.1632 C   0  0  0  0  0  0
   14.9853   -6.7270   18.2147 H   0  0  0  0  0  0
   13.7447   -6.5150   16.9821 H   0  0  0  0  0  0
   13.9052   -8.0576   17.7847 H   0  0  0  0  0  0
   18.0247   -8.3171   13.1117 H   0  0  0  0  0  0
   15.8930   -9.3064   18.5027 H   0  0  0  0  0  0
   17.0295  -10.3358   17.6539 H   0  0  0  0  0  0
   13.8208  -12.0066   18.2979 H   0  0  0  0  0  0
   19.1924   -5.9388   12.6262 H   0  0  0  0  0  0
   19.0172   -4.1176   10.9802 H   0  0  0  0  0  0
   14.8277   -4.9062   10.5443 H   0  0  0  0  0  0
   14.9877   -6.6989   12.1811 H   0  0  0  0  0  0
   15.9504   -2.0082    8.5820 H   0  0  0  0  0  0
   15.3406   -3.6704    8.4957 H   0  0  0  0  0  0
   14.9998   -2.6473    9.9180 H   0  0  0  0  0  0
  1  2  2  0  0  0
  1  5  1  0  0  0
  2  3  1  0  0  0
  2  7  1  0  0  0
  3  4  1  0  0  0
  3 10  1  0  0  0
  4  5  1  0  0  0
  4  6  2  0  0  0
  5  8  2  0  0  0
  7 21  1  0  0  0
  7 22  1  0  0  0
  7 23  1  0  0  0
  8  9  1  0  0  0
  8 24  1  0  0  0
  9 14  2  0  0  0
  9 18  1  0  0  0
 10 11  1  0  0  0
 10 25  1  0  0  0
 10 26  1  0  0  0
 11 12  1  0  0  0
 11 13  2  0  0  0
 12 27  1  0  0  0
 14 15  1  0  0  0
 14 28  1  0  0  0
 15 16  2  0  0  0
 15 29  1  0  0  0
 16 17  1  0  0  0
 16 19  1  0  0  0
 17 18  2  0  0  0
 17 30  1  0  0  0
 18 31  1  0  0  0
 19 20  1  0  0  0
 20 32  1  0  0  0
 20 33  1  0  0  0
 20 34  1  0  0  0
M  END
> <s_m_entry_id>
6494

> <s_m_entry_name>
dock_pv.329

> <s_m_Source_Path>
/home/csk/Desktop/cluster/DUD-E-result/aldr

> <s_m_Source_File>
dock_pv.maegz

> <i_m_Source_File_Index>
329

> <chembl_id>
CHEMBL3936476

> <chembl_pref_name>
None

> <i_lp_mmshare_version>
53161

> <i_f3d_flags>
0

> <r_lp_tautomer_probability>
0.5

> <s_lp_Force_Field>
OPLS_2005

> <r_lp_Energy>
28.398729

> <b_lp_Chiralities_Consistent>
1

> <s_lp_Variant>
CHEMBL1900_lig622-1

> <s_i_glide_gridfile>
glide-grid_2hv5

> <i_i_glide_lignum>
746

> <i_i_glide_rotatable_bonds>
5

> <r_i_docking_score>
-8.28936061697277

> <r_i_glide_ligand_efficiency>
-0.414468030848638

> <r_i_glide_ligand_efficiency_sa>
-1.12503932332751

> <r_i_glide_ligand_efficiency_ln>
-2.0745535610172

> <r_i_glide_gscore>
-8.28936061697277

> <r_i_glide_lipo>
-2.91088980490312

> <r_i_glide_hbond>
-0.00194200702206544

> <r_i_glide_metal>
0

> <r_i_glide_rewards>
-3.79131633424266

> <r_i_glide_evdw>
-38.076774597168

> <r_i_glide_ecoul>
-2.64921998977661

> <r_i_glide_erotb>
0.716009257519973

> <r_i_glide_esite>
0

> <r_i_glide_emodel>
-57.5889612231199

> <r_i_glide_energy>
-40.7259945869446

> <r_i_glide_einternal>
5.19567012786865

> <i_i_glide_confnum>
4

> <i_i_glide_posenum>
108

> <r_i_glide_eff_state_penalty>
0

> <s_user_duplicate_titles>
CHEMBL1900_lig622

> <s_m_subgroup_title>
dock_pv

> <s_m_subgroupid>
dock_pv

> <b_m_subgroup_collapsed>
1

$$$$
CHEMBL1900_lig444
                    3D
 Schrodinger Suite 2021-1.
 28 30  0  0  1  0            999 V2000
   18.5226   -7.5468   14.3461 S   0  0  0  0  0  0
   17.7553   -6.5673   13.0469 C   0  0  0  0  0  0
   17.5118   -7.3150   15.8441 C   0  0  0  0  0  0
   18.4790   -5.5747   12.4405 N   0  0  0  0  0  0
   18.1450   -7.3150   16.9665 N   0  0  0  0  0  0
   16.5108   -6.6271   12.4866 C   0  0  0  0  0  0
   17.7174   -4.9643   11.4647 C   0  0  0  0  0  0
   17.4772   -6.9939   18.1431 N   0  0  0  0  0  0
   16.0810   -7.0808   15.8630 C   0  0  0  0  0  0
   16.4418   -5.6080   11.4978 C   0  0  0  0  0  0
   16.1806   -6.6074   18.2824 C   0  0  0  0  0  0
   18.3883   -8.9610   13.9789 O   0  0  0  0  0  0
   19.8268   -6.9150   14.5810 O   0  0  0  0  0  0
   15.4507   -6.7919   17.0320 C   0  0  0  0  0  0
   17.9948   -3.9089   10.5877 C   0  0  0  0  0  0
   15.7450   -6.1150   19.3202 O   0  0  0  0  0  0
   15.4324   -5.1677   10.6410 C   0  0  0  0  0  0
   16.9452   -3.4856    9.7752 C   0  0  0  0  0  0
   15.7098   -4.1150    9.7810 C   0  0  0  0  0  0
   17.1417   -2.1150    8.7665 Cl  0  0  0  0  0  0
   19.4282   -5.3711   12.7185 H   0  0  0  0  0  0
   15.7450   -7.3150   12.7668 H   0  0  0  0  0  0
   15.4827   -7.2362   14.9810 H   0  0  0  0  0  0
   14.3760   -6.6970   17.0572 H   0  0  0  0  0  0
   18.9450   -3.3985   10.5788 H   0  0  0  0  0  0
   18.0631   -6.9535   18.9644 H   0  0  0  0  0  0
   14.4518   -5.6162   10.6669 H   0  0  0  0  0  0
   14.9450   -3.7640    9.1141 H   0  0  0  0  0  0
  1  2  1  0  0  0
  1 12  2  0  0  0
  1 13  2  0  0  0
  1  3  1  0  0  0
  2  4  1  0  0  0
  2  6  2  0  0  0
  3  9  1  0  0  0
  3  5  2  0  0  0
  4  7  1  0  0  0
  4 21  1  0  0  0
  5  8  1  0  0  0
  6 10  1  0  0  0
  6 22  1  0  0  0
  7 15  1  0  0  0
  7 10  2  0  0  0
  8 11  1  0  0  0
  8 26  1  0  0  0
  9 14  2  0  0  0
  9 23  1  0  0  0
 10 17  1  0  0  0
 11 16  2  0  0  0
 11 14  1  0  0  0
 14 24  1  0  0  0
 15 18  2  0  0  0
 15 25  1  0  0  0
 17 19  2  0  0  0
 17 27  1  0  0  0
 18 20  1  0  0  0
 18 19  1  0  0  0
 19 28  1  0  0  0
M  END
> <s_m_entry_id>
6495

> <s_m_entry_name>
dock_pv.330

> <s_m_Source_Path>
/home/csk/Desktop/cluster/DUD-E-result/aldr

> <s_m_Source_File>
dock_pv.maegz

> <i_m_Source_File_Index>
330

> <chembl_id>
CHEMBL372815

> <chembl_pref_name>
None

> <i_lp_mmshare_version>
53161

> <i_f3d_flags>
0

> <r_lp_tautomer_probability>
0.998994762270461

> <s_lp_Force_Field>
OPLS_2005

> <r_lp_Energy>
19.520969

> <b_lp_Chiralities_Consistent>
1

> <s_lp_Variant>
CHEMBL1900_lig444-1

> <s_i_glide_gridfile>
glide-grid_2hv5

> <i_i_glide_lignum>
566

> <i_i_glide_rotatable_bonds>
2

> <r_i_docking_score>
-8.2823248490061

> <r_i_glide_ligand_efficiency>
-0.414116242450305

> <r_i_glide_ligand_efficiency_sa>
-1.12408442270271

> <r_i_glide_ligand_efficiency_ln>
-2.0727927403503

> <r_i_glide_gscore>
-8.2823248490061

> <r_i_glide_lipo>
-3.65938943226563

> <r_i_glide_hbond>
-0.129090164939002

> <r_i_glide_metal>
0

> <r_i_glide_rewards>
-2.60808087396912

> <r_i_glide_evdw>
-40.6286697387695

> <r_i_glide_ecoul>
-1.60297870635986

> <r_i_glide_erotb>
0.386115915060109

> <r_i_glide_esite>
0

> <r_i_glide_emodel>
-57.2939769535127

> <r_i_glide_energy>
-42.2316484451294

> <r_i_glide_einternal>
4.95064496994019

> <i_i_glide_confnum>
4

> <i_i_glide_posenum>
314

> <r_i_glide_eff_state_penalty>
0

> <s_user_duplicate_titles>
CHEMBL1900_lig444,331200

> <s_m_subgroup_title>
dock_pv

> <s_m_subgroupid>
dock_pv

> <b_m_subgroup_collapsed>
1

$$$$
CHEMBL1900_lig34
                    3D
 Schrodinger Suite 2021-1.
 36 38  0  0  1  0            999 V2000
   18.4026   -8.1010   14.1294 S   0  0  0  0  0  0
   15.1485  -11.7249   16.9227 N   0  0  0  0  0  0
   16.8386   -8.7738   16.4706 C   0  0  0  0  0  0
   15.1189  -10.6107   16.1817 C   0  0  0  0  0  0
   16.5565  -10.2042   15.9819 C   0  0  2  0  0  0
   17.5266   -7.8143   15.6896 C   0  0  0  0  0  0
   16.3725  -12.0475   17.3813 C   0  0  0  0  0  0
   17.2139  -11.2240   16.7499 N   0  0  0  0  0  0
   17.2688   -7.7132   12.8142 N   0  0  0  0  0  0
   19.5122   -7.1444   14.0798 O   0  0  0  0  0  0
   18.6898   -9.5328   14.0107 O   0  0  0  0  0  0
   17.6269   -6.5153   16.1709 C   0  0  0  0  0  0
   16.3931   -8.3982   17.7601 C   0  0  0  0  0  0
   14.1451  -10.0118   15.7443 O   0  0  0  0  0  0
   16.6378  -12.7997   18.3143 O   0  0  0  0  0  0
   17.0766   -6.4650   12.1909 C   0  0  0  0  0  0
   16.5677   -7.1032   18.2374 C   0  0  0  0  0  0
   17.1383   -6.1510   17.4196 C   0  0  0  0  0  0
   16.6504   -4.2156   10.5814 C   0  0  0  0  0  0
   16.1450   -6.6635   19.8468 Cl  0  0  0  0  0  0
   16.4512   -3.1464    9.7776 F   0  0  0  0  0  0
   15.7848   -6.1152   11.7816 C   0  0  0  0  0  0
   18.1447   -5.6358   11.8332 C   0  0  0  0  0  0
   17.9342   -4.5217   11.0208 C   0  0  0  0  0  0
   15.5698   -4.9967   10.9789 C   0  0  0  0  0  0
   14.3132  -12.2114   17.2101 H   0  0  0  0  0  0
   16.7493  -10.3617   14.9251 H   0  0  0  0  0  0
   18.2015  -11.4049   16.6504 H   0  0  0  0  0  0
   16.6851   -8.4741   12.5046 H   0  0  0  0  0  0
   18.1479   -5.7761   15.5830 H   0  0  0  0  0  0
   15.9204   -9.1221   18.4073 H   0  0  0  0  0  0
   17.2825   -5.1430   17.7812 H   0  0  0  0  0  0
   14.9441   -6.7405   12.0405 H   0  0  0  0  0  0
   19.1503   -5.8779   12.1281 H   0  0  0  0  0  0
   18.7644   -3.9006   10.7195 H   0  0  0  0  0  0
   14.5735   -4.7447   10.6461 H   0  0  0  0  0  0
  1  6  1  0  0  0
  1  9  1  0  0  0
  1 10  2  0  0  0
  1 11  2  0  0  0
  2  4  1  0  0  0
  2  7  1  0  0  0
  2 26  1  0  0  0
  3  6  1  0  0  0
  3  5  1  0  0  0
  3 13  2  0  0  0
  4  5  1  0  0  0
  4 14  2  0  0  0
  5  8  1  0  0  0
  5 27  1  0  0  0
  6 12  2  0  0  0
  7  8  1  0  0  0
  7 15  2  0  0  0
  8 28  1  0  0  0
  9 16  1  0  0  0
  9 29  1  0  0  0
 12 18  1  0  0  0
 12 30  1  0  0  0
 13 17  1  0  0  0
 13 31  1  0  0  0
 16 22  1  0  0  0
 16 23  2  0  0  0
 17 18  2  0  0  0
 17 20  1  0  0  0
 18 32  1  0  0  0
 19 24  2  0  0  0
 19 21  1  0  0  0
 19 25  1  0  0  0
 22 25  2  0  0  0
 22 33  1  0  0  0
 23 24  1  0  0  0
 23 34  1  0  0  0
 24 35  1  0  0  0
 25 36  1  0  0  0
M  END
> <s_m_entry_id>
6496

> <s_m_entry_name>
dock_pv.331

> <s_m_Source_Path>
/home/csk/Desktop/cluster/DUD-E-result/aldr

> <s_m_Source_File>
dock_pv.maegz

> <i_m_Source_File_Index>
331

> <chembl_id>
CHEMBL274727

> <chembl_pref_name>
None

> <i_lp_mmshare_version>
53161

> <i_f3d_flags>
0

> <r_lp_tautomer_probability>
0.999999999781369

> <s_lp_Force_Field>
OPLS_2005

> <r_lp_Energy>
22.175852

> <b_lp_Chiralities_Consistent>
1

> <s_lp_Variant>
CHEMBL1900_lig34-1

> <s_i_glide_gridfile>
glide-grid_2hv5

> <i_i_glide_lignum>
66

> <i_i_glide_rotatable_bonds>
4

> <r_i_docking_score>
-8.26971839256936

> <r_i_glide_ligand_efficiency>
-0.330788735702774

> <r_i_glide_ligand_efficiency_sa>
-0.96723212975812

> <r_i_glide_ligand_efficiency_ln>
-1.96017108250104

> <r_i_glide_gscore>
-8.26971839256936

> <r_i_glide_lipo>
-3.65874089344523

> <r_i_glide_hbond>
-0.29812080809413

> <r_i_glide_metal>
0

> <r_i_glide_rewards>
-2.83330181358362

> <r_i_glide_evdw>
-36.8051261901855

> <r_i_glide_ecoul>
-1.00625133514404

> <r_i_glide_erotb>
0.527825616313969

> <r_i_glide_esite>
-0.0161864839794685

> <r_i_glide_emodel>
-58.742531048252

> <r_i_glide_energy>
-37.8113775253296

> <r_i_glide_einternal>
2.98758268356323

> <i_i_glide_confnum>
27

> <i_i_glide_posenum>
375

> <r_i_glide_eff_state_penalty>
0

> <s_user_duplicate_titles>
CHEMBL1900_lig34,23031

> <s_m_subgroup_title>
dock_pv

> <s_m_subgroupid>
dock_pv

> <b_m_subgroup_collapsed>
1

$$$$
CHEMBL1900_lig636
                    3D
 Schrodinger Suite 2021-1.
 44 46  0  0  1  0            999 V2000
   16.8023   -3.6207   19.4697 C   0  0  0  0  0  0
   16.5450   -4.3291   20.6390 C   0  0  0  0  0  0
   16.3669   -5.7064   20.5834 C   0  0  0  0  0  0
   16.9450   -4.2922   18.2557 C   0  0  0  0  0  0
   16.7983   -5.6825   18.2085 C   0  0  0  0  0  0
   16.4381   -6.3660   19.3639 C   0  0  0  0  0  0
   16.1450   -7.7150   19.3423 O   0  0  0  0  0  0
   15.9335   -8.4003   18.1591 C   0  0  0  0  0  0
   16.5524   -7.8119   16.9599 C   0  0  0  0  0  0
   16.9450   -6.5151   17.0109 C   0  0  0  0  0  0
   15.3048   -9.4540   18.2522 O   0  0  0  0  0  0
   16.7704   -8.6177   15.7790 C   0  0  0  0  0  0
   17.9451   -8.3968   15.1628 N   0  0  0  0  0  0
   15.9473   -9.4379   15.3810 O   0  0  0  0  0  0
   18.2894   -8.8234   13.8129 C   0  0  0  0  0  0
   17.6472   -7.8999   12.7575 C   0  0  0  0  0  0
   17.8083   -6.3966   13.0200 C   0  0  0  0  0  0
   17.2653   -5.5663   11.8760 C   0  0  0  0  0  0
   15.8933   -5.5366   11.6196 C   0  0  0  0  0  0
   15.4063   -4.7527   10.5810 C   0  0  0  0  0  0
   16.2953   -4.0107    9.8020 C   0  0  0  0  0  0
   17.6650   -4.0483   10.0492 C   0  0  0  0  0  0
   18.1450   -4.8273   11.0908 C   0  0  0  0  0  0
   16.4372   -3.6785   21.8357 O   0  0  0  0  0  0
   15.7688   -3.1675    8.6724 C   0  0  0  0  0  0
   16.9286   -2.5488   19.5038 H   0  0  0  0  0  0
   16.1450   -6.2565   21.4860 H   0  0  0  0  0  0
   17.1980   -3.7172   17.3810 H   0  0  0  0  0  0
   17.4517   -6.1150   16.1516 H   0  0  0  0  0  0
   18.5918   -7.7584   15.5991 H   0  0  0  0  0  0
   18.0088   -9.8662   13.6479 H   0  0  0  0  0  0
   19.3763   -8.7591   13.7376 H   0  0  0  0  0  0
   16.5840   -8.1150   12.6803 H   0  0  0  0  0  0
   18.0622   -8.1150   11.7810 H   0  0  0  0  0  0
   18.8557   -6.1519   13.2069 H   0  0  0  0  0  0
   17.2635   -6.1146   13.9189 H   0  0  0  0  0  0
   15.2045   -6.1006   12.2316 H   0  0  0  0  0  0
   14.3435   -4.7155   10.3870 H   0  0  0  0  0  0
   18.3516   -3.4747    9.4443 H   0  0  0  0  0  0
   19.1990   -4.8573   11.2956 H   0  0  0  0  0  0
   16.4911   -2.7233   21.7506 H   0  0  0  0  0  0
   14.9875   -3.7150    8.1448 H   0  0  0  0  0  0
   15.3450   -2.2456    9.0687 H   0  0  0  0  0  0
   16.5450   -2.9150    7.9490 H   0  0  0  0  0  0
  1  2  2  0  0  0
  1  4  1  0  0  0
  1 26  1  0  0  0
  2  3  1  0  0  0
  2 24  1  0  0  0
  3  6  2  0  0  0
  3 27  1  0  0  0
  4  5  2  0  0  0
  4 28  1  0  0  0
  5  6  1  0  0  0
  5 10  1  0  0  0
  6  7  1  0  0  0
  7  8  1  0  0  0
  8  9  1  0  0  0
  8 11  2  0  0  0
  9 10  2  0  0  0
  9 12  1  0  0  0
 10 29  1  0  0  0
 12 13  1  0  0  0
 12 14  2  0  0  0
 13 15  1  0  0  0
 13 30  1  0  0  0
 15 16  1  0  0  0
 15 31  1  0  0  0
 15 32  1  0  0  0
 16 17  1  0  0  0
 16 33  1  0  0  0
 16 34  1  0  0  0
 17 18  1  0  0  0
 17 35  1  0  0  0
 17 36  1  0  0  0
 18 19  2  0  0  0
 18 23  1  0  0  0
 19 20  1  0  0  0
 19 37  1  0  0  0
 20 21  2  0  0  0
 20 38  1  0  0  0
 21 22  1  0  0  0
 21 25  1  0  0  0
 22 23  2  0  0  0
 22 39  1  0  0  0
 23 40  1  0  0  0
 24 41  1  0  0  0
 25 42  1  0  0  0
 25 43  1  0  0  0
 25 44  1  0  0  0
M  END
> <s_m_entry_id>
6497

> <s_m_entry_name>
dock_pv.332

> <s_m_Source_Path>
/home/csk/Desktop/cluster/DUD-E-result/aldr

> <s_m_Source_File>
dock_pv.maegz

> <i_m_Source_File_Index>
332

> <chembl_id>
CHEMBL4062779

> <chembl_pref_name>
None

> <i_lp_mmshare_version>
53161

> <i_f3d_flags>
0

> <r_lp_tautomer_probability>
1

> <s_lp_Force_Field>
OPLS_2005

> <r_lp_Energy>
24.201892

> <b_lp_Chiralities_Consistent>
1

> <s_lp_Variant>
CHEMBL1900_lig636-1

> <s_i_glide_gridfile>
glide-grid_2hv5

> <i_i_glide_lignum>
760

> <i_i_glide_rotatable_bonds>
7

> <r_i_docking_score>
-8.26913015266744

> <r_i_glide_ligand_efficiency>
-0.330765206106698

> <r_i_glide_ligand_efficiency_sa>
-0.967163328801893

> <r_i_glide_ligand_efficiency_ln>
-1.96003165201616

> <r_i_glide_gscore>
-8.26913015266744

> <r_i_glide_lipo>
-4.9849031710908

> <r_i_glide_hbond>
0

> <r_i_glide_metal>
0

> <r_i_glide_rewards>
-2.32488866620475

> <r_i_glide_evdw>
-35.8537864685059

> <r_i_glide_ecoul>
-1.08592391014099

> <r_i_glide_erotb>
0.996239594574551

> <r_i_glide_esite>
0

> <r_i_glide_emodel>
-45.0666095106508

> <r_i_glide_energy>
-36.9397103786469

> <r_i_glide_einternal>
6.06682777404785

> <i_i_glide_confnum>
60

> <i_i_glide_posenum>
180

> <r_i_glide_eff_state_penalty>
0

> <s_user_duplicate_titles>
CHEMBL1900_lig636

> <s_m_subgroup_title>
dock_pv

> <s_m_subgroupid>
dock_pv

> <b_m_subgroup_collapsed>
1

$$$$
CHEMBL1900_lig522
                    3D
 Schrodinger Suite 2021-1.
 43 45  0  0  1  0            999 V2000
   14.7226  -10.1816   17.4609 C   0  0  0  0  0  0
   14.9468   -8.8126   17.5403 C   0  0  0  0  0  0
   15.9576   -8.1852   16.8025 C   0  0  0  0  0  0
   15.4740  -10.9977   16.6245 C   0  0  0  0  0  0
   16.4571  -10.3786   15.8422 C   0  0  0  0  0  0
   16.7109   -8.9739   15.9049 C   0  0  0  0  0  0
   17.7712   -8.7039   14.9709 C   0  0  0  0  0  0
   18.1446   -9.9136   14.4125 C   0  0  0  0  0  0
   17.3488  -10.9201   14.9318 N   0  0  0  0  0  0
   18.5463   -7.1571   14.6540 S   0  0  0  0  0  0
   17.6316   -6.5127   13.2860 C   0  0  0  0  0  0
   16.2696   -6.7543   13.1124 C   0  0  0  0  0  0
   15.5809   -6.1229   12.0753 C   0  0  0  0  0  0
   16.2640   -5.2749   11.2075 C   0  0  0  0  0  0
   17.6257   -5.0446   11.3682 C   0  0  0  0  0  0
   18.3000   -5.6596   12.4162 C   0  0  0  0  0  0
   17.5164  -12.3567   14.6718 C   0  0  0  0  0  0
   15.4108   -4.4664    9.9494 Cl  0  0  0  0  0  0
   19.2293  -10.2077   13.3955 C   0  0  0  0  0  0
   16.1912   -6.8005   16.9116 N   0  0  0  0  0  0
   16.1462   -6.0606   18.0401 C   0  0  0  0  0  0
   15.9853   -6.5131   19.1713 O   0  0  0  0  0  0
   16.2956   -4.5526   17.8770 C   0  0  0  0  0  0
   18.5444  -13.0404   15.5839 C   0  0  0  0  0  0
   18.4584  -12.6234   16.8801 O   0  0  0  0  0  0
   19.3330  -13.8870   15.1742 O   0  0  0  0  0  0
   13.9386  -10.6247   18.0585 H   0  0  0  0  0  0
   14.3097   -8.2252   18.1815 H   0  0  0  0  0  0
   15.2762  -12.0590   16.5749 H   0  0  0  0  0  0
   15.7449   -7.3904   13.8037 H   0  0  0  0  0  0
   14.5192   -6.2795   11.9486 H   0  0  0  0  0  0
   18.1475   -4.3752   10.7015 H   0  0  0  0  0  0
   19.3446   -5.4580   12.5755 H   0  0  0  0  0  0
   16.5546  -12.8551   14.7889 H   0  0  0  0  0  0
   17.7886  -12.5049   13.6270 H   0  0  0  0  0  0
   19.6599   -9.2965   12.9818 H   0  0  0  0  0  0
   20.0568  -10.7919   13.7919 H   0  0  0  0  0  0
   18.8281  -10.7832   12.5710 H   0  0  0  0  0  0
   16.5758   -6.3590   16.0887 H   0  0  0  0  0  0
   15.7449   -4.1958   17.0067 H   0  0  0  0  0  0
   17.3442   -4.2794   17.7811 H   0  0  0  0  0  0
   15.9034   -4.0356   18.7537 H   0  0  0  0  0  0
   17.7680  -11.9670   16.9945 H   0  0  0  0  0  0
  1  2  2  0  0  0
  1  4  1  0  0  0
  1 27  1  0  0  0
  2  3  1  0  0  0
  2 28  1  0  0  0
  3  6  2  0  0  0
  3 20  1  0  0  0
  4  5  2  0  0  0
  4 29  1  0  0  0
  5  9  1  0  0  0
  5  6  1  0  0  0
  6  7  1  0  0  0
  7  8  2  0  0  0
  7 10  1  0  0  0
  8  9  1  0  0  0
  8 19  1  0  0  0
  9 17  1  0  0  0
 10 11  1  0  0  0
 11 16  1  0  0  0
 11 12  2  0  0  0
 12 13  1  0  0  0
 12 30  1  0  0  0
 13 14  2  0  0  0
 13 31  1  0  0  0
 14 15  1  0  0  0
 14 18  1  0  0  0
 15 16  2  0  0  0
 15 32  1  0  0  0
 16 33  1  0  0  0
 17 24  1  0  0  0
 17 34  1  0  0  0
 17 35  1  0  0  0
 19 36  1  0  0  0
 19 37  1  0  0  0
 19 38  1  0  0  0
 20 21  1  0  0  0
 20 39  1  0  0  0
 21 22  2  0  0  0
 21 23  1  0  0  0
 23 40  1  0  0  0
 23 41  1  0  0  0
 23 42  1  0  0  0
 24 25  1  0  0  0
 24 26  2  0  0  0
 25 43  1  0  0  0
M  END
> <s_m_entry_id>
6498

> <s_m_entry_name>
dock_pv.333

> <s_m_Source_Path>
/home/csk/Desktop/cluster/DUD-E-result/aldr

> <s_m_Source_File>
dock_pv.maegz

> <i_m_Source_File_Index>
333

> <chembl_id>
CHEMBL1914489

> <chembl_pref_name>
AZD1981

> <i_lp_mmshare_version>
53161

> <i_f3d_flags>
0

> <r_lp_tautomer_probability>
1

> <s_lp_Force_Field>
OPLS_2005

> <r_lp_Energy>
18.152573

> <b_lp_Chiralities_Consistent>
1

> <s_lp_Variant>
CHEMBL1900_lig522-1

> <s_i_glide_gridfile>
glide-grid_2hv5

> <i_i_glide_lignum>
645

> <i_i_glide_rotatable_bonds>
7

> <r_i_docking_score>
-8.25958931651899

> <r_i_glide_ligand_efficiency>
-0.317676512173807

> <r_i_glide_ligand_efficiency_sa>
-0.941115417318188

> <r_i_glide_ligand_efficiency_ln>
-1.9397374490614

> <r_i_glide_gscore>
-8.25958931651899

> <r_i_glide_lipo>
-4.83388005136156

> <r_i_glide_hbond>
0

> <r_i_glide_metal>
0

> <r_i_glide_rewards>
-2.26354064042047

> <r_i_glide_evdw>
-46.1793212890625

> <r_i_glide_ecoul>
3.34945893287659

> <r_i_glide_erotb>
0.644378599784672

> <r_i_glide_esite>
0

> <r_i_glide_emodel>
-59.0417878614941

> <r_i_glide_energy>
-42.8298623561859

> <r_i_glide_einternal>
5.34856081008911

> <i_i_glide_confnum>
20

> <i_i_glide_posenum>
367

> <r_i_glide_eff_state_penalty>
0

> <s_user_duplicate_titles>
CHEMBL1900_lig522

> <s_m_subgroup_title>
dock_pv

> <s_m_subgroupid>
dock_pv

> <b_m_subgroup_collapsed>
1

$$$$
CHEMBL1900_lig23
                    3D
 Schrodinger Suite 2021-1.
 27 28  0  0  1  0            999 V2000
   14.9452   -6.9150   17.7807 N   0  0  0  0  0  0
   17.2534   -8.6544   15.9792 C   0  0  0  0  0  0
   15.0721   -8.0486   17.0873 C   0  0  0  0  0  0
   17.0477  -11.5035   16.1088 S   0  0  0  0  0  0
   16.4954   -8.5082   17.3072 C   0  0  2  0  0  0
   16.0262   -6.5592   18.4979 C   0  0  0  0  0  0
   17.4973   -9.9099   15.3722 C   0  0  0  0  0  0
   16.9586   -7.4591   18.1809 N   0  0  0  0  0  0
   18.1610   -9.9521   14.1388 C   0  0  0  0  0  0
   17.7120   -7.4910   15.3361 C   0  0  0  0  0  0
   17.3963  -12.5495   15.1420 O   0  0  0  0  0  0
   17.6244  -11.5429   17.4561 O   0  0  0  0  0  0
   14.2292   -8.5750   16.3681 O   0  0  0  0  0  0
   16.0764   -5.7137   19.3848 O   0  0  0  0  0  0
   18.3873   -7.5548   14.1223 C   0  0  0  0  0  0
   18.6077   -8.7883   13.5208 C   0  0  0  0  0  0
   15.1744  -11.5029   16.2640 C   0  0  0  0  0  0
   18.9449   -6.1053   13.3717 Cl  0  0  0  0  0  0
   14.0562   -6.4438   17.8511 H   0  0  0  0  0  0
   16.4974   -9.4189   17.9011 H   0  0  0  0  0  0
   17.9446   -7.3033   18.3368 H   0  0  0  0  0  0
   18.3631  -10.8944   13.6502 H   0  0  0  0  0  0
   17.5432   -6.5186   15.7754 H   0  0  0  0  0  0
   19.1357   -8.8520   12.5811 H   0  0  0  0  0  0
   14.8368  -12.5357   16.3283 H   0  0  0  0  0  0
   14.8829  -10.9781   17.1703 H   0  0  0  0  0  0
   14.7463  -11.0204   15.3858 H   0  0  0  0  0  0
  1  3  1  0  0  0
  1  6  1  0  0  0
  1 19  1  0  0  0
  2  5  1  0  0  0
  2  7  1  0  0  0
  2 10  2  0  0  0
  3  5  1  0  0  0
  3 13  2  0  0  0
  4  7  1  0  0  0
  4 11  2  0  0  0
  4 12  2  0  0  0
  4 17  1  0  0  0
  5  8  1  0  0  0
  5 20  1  0  0  0
  6  8  1  0  0  0
  6 14  2  0  0  0
  7  9  2  0  0  0
  8 21  1  0  0  0
  9 16  1  0  0  0
  9 22  1  0  0  0
 10 15  1  0  0  0
 10 23  1  0  0  0
 15 16  2  0  0  0
 15 18  1  0  0  0
 16 24  1  0  0  0
 17 25  1  0  0  0
 17 26  1  0  0  0
 17 27  1  0  0  0
M  END
> <s_m_entry_id>
6499

> <s_m_entry_name>
dock_pv.334

> <s_m_Source_Path>
/home/csk/Desktop/cluster/DUD-E-result/aldr

> <s_m_Source_File>
dock_pv.maegz

> <i_m_Source_File_Index>
334

> <chembl_id>
CHEMBL277520

> <chembl_pref_name>
None

> <i_lp_mmshare_version>
53161

> <i_f3d_flags>
0

> <r_lp_tautomer_probability>
0.999999999781369

> <s_lp_Force_Field>
OPLS_2005

> <r_lp_Energy>
18.265713

> <b_lp_Chiralities_Consistent>
1

> <s_lp_Variant>
CHEMBL1900_lig23-1

> <s_i_glide_gridfile>
glide-grid_2hv5

> <i_i_glide_lignum>
42

> <i_i_glide_rotatable_bonds>
2

> <r_i_docking_score>
-8.25392741005779

> <r_i_glide_ligand_efficiency>
-0.458551522780989

> <r_i_glide_ligand_efficiency_sa>
-1.20174495597183

> <r_i_glide_ligand_efficiency_ln>
-2.1216294800889

> <r_i_glide_gscore>
-8.25392741005779

> <r_i_glide_lipo>
-2.24441127345022

> <r_i_glide_hbond>
-0.141199046162565

> <r_i_glide_metal>
0

> <r_i_glide_rewards>
-3.80851581603349

> <r_i_glide_evdw>
-33.4371643066406

> <r_i_glide_ecoul>
-3.43947696685791

> <r_i_glide_erotb>
0.15282042663754

> <r_i_glide_esite>
-0.0248419406883445

> <r_i_glide_emodel>
-54.9153157632663

> <r_i_glide_energy>
-36.8766412734985

> <r_i_glide_einternal>
0.397029042243958

> <i_i_glide_confnum>
1

> <i_i_glide_posenum>
341

> <r_i_glide_eff_state_penalty>
0

> <s_user_duplicate_titles>
CHEMBL1900_lig23,23085

> <s_m_subgroup_title>
dock_pv

> <s_m_subgroupid>
dock_pv

> <b_m_subgroup_collapsed>
1

$$$$
CHEMBL1900_lig582
                    3D
 Schrodinger Suite 2021-1.
 32 33  0  0  1  0            999 V2000
   16.4655   -7.6852   14.9527 C   0  0  0  0  0  0
   16.4978   -8.4409   16.0821 N   0  0  0  0  0  0
   17.2602   -9.5521   16.0957 C   0  0  0  0  0  0
   18.1449   -9.6523   14.5482 S   0  0  0  0  0  0
   17.3830   -8.1845   13.9593 C   0  0  0  0  0  0
   17.3669  -10.3991   16.9824 O   0  0  0  0  0  0
   15.7451   -6.7110   14.8013 O   0  0  0  0  0  0
   17.6267   -7.6131   12.7560 C   0  0  0  0  0  0
   17.0367   -6.4440   12.0534 C   0  0  0  0  0  0
   17.8822   -5.4672   11.5161 C   0  0  0  0  0  0
   17.3775   -4.4410   10.7145 C   0  0  0  0  0  0
   16.0098   -4.3701   10.4550 C   0  0  0  0  0  0
   15.1501   -5.3134   11.0117 C   0  0  0  0  0  0
   15.6627   -6.3381   11.8054 C   0  0  0  0  0  0
   18.2347   -3.4814   10.1803 N   0  0  0  0  0  0
   15.6489   -8.1361   17.2728 C   0  0  0  0  0  0
   15.9749   -6.7830   17.9381 C   0  0  0  0  0  0
   16.4739   -6.9138   19.1769 O   0  0  0  0  0  0
   15.7451   -5.7106   17.3812 O   0  0  0  0  0  0
   16.8289   -5.7628   19.9336 C   0  0  0  0  0  0
   18.3752   -8.1257   12.1811 H   0  0  0  0  0  0
   18.9447   -5.5288   11.6948 H   0  0  0  0  0  0
   15.6032   -3.5820    9.8376 H   0  0  0  0  0  0
   14.0882   -5.2551   10.8216 H   0  0  0  0  0  0
   14.9824   -7.0826   12.1809 H   0  0  0  0  0  0
   17.7888   -2.6860    9.7473 H   0  0  0  0  0  0
   19.1072   -3.3375   10.6621 H   0  0  0  0  0  0
   15.7443   -8.9124   18.0354 H   0  0  0  0  0  0
   14.5993   -8.1545   16.9778 H   0  0  0  0  0  0
   16.9440   -6.0348   20.9819 H   0  0  0  0  0  0
   16.0648   -4.9855   19.8787 H   0  0  0  0  0  0
   17.7718   -5.3449   19.5789 H   0  0  0  0  0  0
  1  2  1  0  0  0
  1  5  1  0  0  0
  1  7  2  0  0  0
  2  3  1  0  0  0
  2 16  1  0  0  0
  3  4  1  0  0  0
  3  6  2  0  0  0
  4  5  1  0  0  0
  5  8  2  0  0  0
  8  9  1  0  0  0
  8 21  1  0  0  0
  9 10  2  0  0  0
  9 14  1  0  0  0
 10 11  1  0  0  0
 10 22  1  0  0  0
 11 12  2  0  0  0
 11 15  1  0  0  0
 12 13  1  0  0  0
 12 23  1  0  0  0
 13 14  2  0  0  0
 13 24  1  0  0  0
 14 25  1  0  0  0
 15 26  1  0  0  0
 15 27  1  0  0  0
 16 17  1  0  0  0
 16 28  1  0  0  0
 16 29  1  0  0  0
 17 18  1  0  0  0
 17 19  2  0  0  0
 18 20  1  0  0  0
 20 30  1  0  0  0
 20 31  1  0  0  0
 20 32  1  0  0  0
M  END
> <s_m_entry_id>
6500

> <s_m_entry_name>
dock_pv.335

> <s_m_Source_Path>
/home/csk/Desktop/cluster/DUD-E-result/aldr

> <s_m_Source_File>
dock_pv.maegz

> <i_m_Source_File_Index>
335

> <chembl_id>
CHEMBL2260161

> <chembl_pref_name>
None

> <i_lp_mmshare_version>
53161

> <i_f3d_flags>
0

> <r_lp_tautomer_probability>
1

> <s_lp_Force_Field>
OPLS_2005

> <r_lp_Energy>
18.888552

> <b_lp_Chiralities_Consistent>
1

> <s_lp_Variant>
CHEMBL1900_lig582-1

> <s_i_glide_gridfile>
glide-grid_2hv5

> <i_i_glide_lignum>
705

> <i_i_glide_rotatable_bonds>
4

> <r_i_docking_score>
-8.22137585714852

> <r_i_glide_ligand_efficiency>
-0.411068792857426

> <r_i_glide_ligand_efficiency_sa>
-1.11581237185038

> <r_i_glide_ligand_efficiency_ln>
-2.05753921792064

> <r_i_glide_gscore>
-8.22137585714852

> <r_i_glide_lipo>
-3.07100176324839

> <r_i_glide_hbond>
-0.0503941315787567

> <r_i_glide_metal>
0

> <r_i_glide_rewards>
-3.59582054547914

> <r_i_glide_evdw>
-36.748477935791

> <r_i_glide_ecoul>
-2.05110454559326

> <r_i_glide_erotb>
0.640930161786304

> <r_i_glide_esite>
0

> <r_i_glide_emodel>
-54.8149623659323

> <r_i_glide_energy>
-38.7995824813843

> <r_i_glide_einternal>
4.89534997940063

> <i_i_glide_confnum>
16

> <i_i_glide_posenum>
301

> <r_i_glide_eff_state_penalty>
0

> <s_user_duplicate_titles>
CHEMBL1900_lig582

> <s_m_subgroup_title>
dock_pv

> <s_m_subgroupid>
dock_pv

> <b_m_subgroup_collapsed>
1

$$$$
CHEMBL1900_lig630
                    3D
 Schrodinger Suite 2021-1.
 42 44  0  0  1  0            999 V2000
   16.2723  -13.1887   18.0222 C   0  0  0  0  0  0
   14.9702  -12.8497   18.3932 C   0  0  0  0  0  0
   14.4952  -11.5618   18.1651 C   0  0  0  0  0  0
   17.0902  -12.2513   17.3885 C   0  0  0  0  0  0
   16.5959  -10.9684   17.1426 C   0  0  0  0  0  0
   15.3014  -10.6236   17.5342 C   0  0  0  0  0  0
   14.7761   -9.3595   17.3203 O   0  0  0  0  0  0
   15.5042   -8.3512   16.7035 C   0  0  0  0  0  0
   16.8920   -8.6813   16.2720 C   0  0  0  0  0  0
   17.3756   -9.9263   16.4962 C   0  0  0  0  0  0
   14.9053   -7.2814   16.5803 O   0  0  0  0  0  0
   17.7234   -7.6827   15.6390 C   0  0  0  0  0  0
   18.4399   -8.1189   14.5843 N   0  0  0  0  0  0
   17.7443   -6.5167   16.0260 O   0  0  0  0  0  0
   19.3336   -7.2938   13.7782 C   0  0  0  0  0  0
   18.5958   -6.2163   12.9641 C   0  0  0  0  0  0
   17.4221   -6.7467   12.1078 C   0  0  0  0  0  0
   16.7369   -5.6651   11.2915 C   0  0  0  0  0  0
   17.4830   -4.7857   10.4984 C   0  0  0  0  0  0
   16.8470   -3.7815    9.7746 C   0  0  0  0  0  0
   15.4621   -3.6654    9.8158 C   0  0  0  0  0  0
   14.7110   -4.5525   10.5817 C   0  0  0  0  0  0
   15.3446   -5.5467   11.3241 C   0  0  0  0  0  0
   14.1464  -13.7780   18.9642 O   0  0  0  0  0  0
   17.5773   -2.9125    9.0153 O   0  0  0  0  0  0
   16.6421  -14.1826   18.2085 H   0  0  0  0  0  0
   13.4908  -11.2932   18.4547 H   0  0  0  0  0  0
   18.0928  -12.5264   17.0920 H   0  0  0  0  0  0
   18.3895  -10.1675   16.2089 H   0  0  0  0  0  0
   18.3482   -9.0843   14.3079 H   0  0  0  0  0  0
   19.8398   -7.9783   13.0964 H   0  0  0  0  0  0
   20.1043   -6.8447   14.4090 H   0  0  0  0  0  0
   19.3339   -5.7194   12.3402 H   0  0  0  0  0  0
   18.2299   -5.4424   13.6391 H   0  0  0  0  0  0
   16.6845   -7.2161   12.7602 H   0  0  0  0  0  0
   17.7455   -7.5294   11.4226 H   0  0  0  0  0  0
   18.5561   -4.8709   10.4406 H   0  0  0  0  0  0
   14.9469   -2.8908    9.2669 H   0  0  0  0  0  0
   13.6346   -4.4632   10.6126 H   0  0  0  0  0  0
   14.7467   -6.2150   11.9268 H   0  0  0  0  0  0
   13.2402  -13.4515   19.0365 H   0  0  0  0  0  0
   17.0172   -2.2532    8.6011 H   0  0  0  0  0  0
  1  2  2  0  0  0
  1  4  1  0  0  0
  1 26  1  0  0  0
  2  3  1  0  0  0
  2 24  1  0  0  0
  3  6  2  0  0  0
  3 27  1  0  0  0
  4  5  2  0  0  0
  4 28  1  0  0  0
  5  6  1  0  0  0
  5 10  1  0  0  0
  6  7  1  0  0  0
  7  8  1  0  0  0
  8  9  1  0  0  0
  8 11  2  0  0  0
  9 10  2  0  0  0
  9 12  1  0  0  0
 10 29  1  0  0  0
 12 13  1  0  0  0
 12 14  2  0  0  0
 13 15  1  0  0  0
 13 30  1  0  0  0
 15 16  1  0  0  0
 15 31  1  0  0  0
 15 32  1  0  0  0
 16 17  1  0  0  0
 16 33  1  0  0  0
 16 34  1  0  0  0
 17 18  1  0  0  0
 17 35  1  0  0  0
 17 36  1  0  0  0
 18 19  2  0  0  0
 18 23  1  0  0  0
 19 20  1  0  0  0
 19 37  1  0  0  0
 20 21  2  0  0  0
 20 25  1  0  0  0
 21 22  1  0  0  0
 21 38  1  0  0  0
 22 23  2  0  0  0
 22 39  1  0  0  0
 23 40  1  0  0  0
 24 41  1  0  0  0
 25 42  1  0  0  0
M  END
> <s_m_entry_id>
6501

> <s_m_entry_name>
dock_pv.336

> <s_m_Source_Path>
/home/csk/Desktop/cluster/DUD-E-result/aldr

> <s_m_Source_File>
dock_pv.maegz

> <i_m_Source_File_Index>
336

> <chembl_id>
CHEMBL4071421

> <chembl_pref_name>
None

> <i_lp_mmshare_version>
53161

> <i_f3d_flags>
0

> <r_lp_tautomer_probability>
0.999999999997365

> <s_lp_Force_Field>
OPLS_2005

> <r_lp_Energy>
23.303084

> <b_lp_Chiralities_Consistent>
1

> <s_lp_Variant>
CHEMBL1900_lig630-1

> <s_i_glide_gridfile>
glide-grid_2hv5

> <i_i_glide_lignum>
754

> <i_i_glide_rotatable_bonds>
8

> <r_i_docking_score>
-8.21805886502446

> <r_i_glide_ligand_efficiency>
-0.328722354600979

> <r_i_glide_ligand_efficiency_sa>
-0.961189994769044

> <r_i_glide_ligand_efficiency_ln>
-1.94792622636178

> <r_i_glide_gscore>
-8.21805886502446

> <r_i_glide_lipo>
-3.68820752086961

> <r_i_glide_hbond>
-0.32

> <r_i_glide_metal>
0

> <r_i_glide_rewards>
-2.30058572019182

> <r_i_glide_evdw>
-42.4056663513184

> <r_i_glide_ecoul>
-5.1665506362915

> <r_i_glide_erotb>
0.986000289046615

> <r_i_glide_esite>
0

> <r_i_glide_emodel>
-66.4844582107461

> <r_i_glide_energy>
-47.5722169876099

> <r_i_glide_einternal>
5.96323204040527

> <i_i_glide_confnum>
81

> <i_i_glide_posenum>
277

> <r_i_glide_eff_state_penalty>
0

> <s_user_duplicate_titles>
CHEMBL1900_lig630

> <s_m_subgroup_title>
dock_pv

> <s_m_subgroupid>
dock_pv

> <b_m_subgroup_collapsed>
1

$$$$
CHEMBL1900_lig170
                    3D
 Schrodinger Suite 2021-1.
 41 44  0  0  1  0            999 V2000
   17.9377   -8.7145   15.6893 N   0  0  0  0  0  0
   17.3144   -7.8013   16.5125 N   0  0  0  0  0  0
   18.2952   -6.3106   13.3200 N   0  0  0  0  0  0
   17.5949  -10.0390   15.4885 C   0  0  0  0  0  0
   16.2842   -8.1349   17.1827 C   0  0  0  0  0  0
   18.4038   -7.5632   13.6321 C   0  0  0  0  0  0
   17.6243   -6.4209   12.2028 C   0  0  0  0  0  0
   17.3450   -7.6180   11.7815 N   0  0  0  0  0  0
   18.9826   -8.1194   14.8630 C   0  0  0  0  0  0
   16.4552  -10.4604   16.3985 C   0  0  0  0  0  0
   15.8271   -9.5328   17.2555 C   0  0  0  0  0  0
   15.5258   -6.9597   17.8124 C   0  0  0  0  0  0
   17.8246   -8.4317   12.7836 O   0  0  0  0  0  0
   16.3048   -6.1872   18.9013 C   0  0  0  0  0  0
   17.2902   -5.2780   11.3769 C   0  0  0  0  0  0
   18.1450  -10.7887   14.6759 O   0  0  0  0  0  0
   15.7450   -5.6441   19.8428 O   0  0  0  0  0  0
   15.9837   -5.0460   10.9538 C   0  0  0  0  0  0
   18.3455   -4.4703   10.9810 C   0  0  0  0  0  0
   16.8186   -3.1798    9.7246 C   0  0  0  0  0  0
   17.6465   -6.1151   18.6873 O   0  0  0  0  0  0
   15.7450   -3.9721   10.1155 C   0  0  0  0  0  0
   18.1155   -3.4051   10.1449 C   0  0  0  0  0  0
   16.5450   -1.7431    8.5810 Br  0  0  0  0  0  0
   16.0603  -11.8044   16.4008 C   0  0  0  0  0  0
   14.9093  -10.0011   18.1935 C   0  0  0  0  0  0
   15.0997  -12.2434   17.3088 C   0  0  0  0  0  0
   14.5448  -11.3469   18.2180 C   0  0  0  0  0  0
   19.5101   -7.3150   15.3810 H   0  0  0  0  0  0
   19.7450   -8.8432   14.5810 H   0  0  0  0  0  0
   15.2957   -6.2347   17.0320 H   0  0  0  0  0  0
   14.5503   -7.2643   18.1810 H   0  0  0  0  0  0
   15.1711   -5.6858   11.2674 H   0  0  0  0  0  0
   19.3436   -4.6924   11.3096 H   0  0  0  0  0  0
   17.8784   -6.5977   17.8857 H   0  0  0  0  0  0
   14.7425   -3.7565    9.7810 H   0  0  0  0  0  0
   18.9244   -2.7666    9.8226 H   0  0  0  0  0  0
   16.5156  -12.5175   15.7266 H   0  0  0  0  0  0
   14.4758   -9.3344   18.9217 H   0  0  0  0  0  0
   14.8003  -13.2816   17.3236 H   0  0  0  0  0  0
   13.8156  -11.6961   18.9360 H   0  0  0  0  0  0
  1  2  1  0  0  0
  1  4  1  0  0  0
  1  9  1  0  0  0
  2  5  2  0  0  0
  3  6  2  0  0  0
  3  7  1  0  0  0
  4 10  1  0  0  0
  4 16  2  0  0  0
  5 12  1  0  0  0
  5 11  1  0  0  0
  6  9  1  0  0  0
  6 13  1  0  0  0
  7 15  1  0  0  0
  7  8  2  0  0  0
  8 13  1  0  0  0
  9 29  1  0  0  0
  9 30  1  0  0  0
 10 11  2  0  0  0
 10 25  1  0  0  0
 11 26  1  0  0  0
 12 14  1  0  0  0
 12 31  1  0  0  0
 12 32  1  0  0  0
 14 17  2  0  0  0
 14 21  1  0  0  0
 15 18  2  0  0  0
 15 19  1  0  0  0
 18 22  1  0  0  0
 18 33  1  0  0  0
 19 23  2  0  0  0
 19 34  1  0  0  0
 20 23  1  0  0  0
 20 24  1  0  0  0
 20 22  2  0  0  0
 21 35  1  0  0  0
 22 36  1  0  0  0
 23 37  1  0  0  0
 25 27  2  0  0  0
 25 38  1  0  0  0
 26 28  2  0  0  0
 26 39  1  0  0  0
 27 28  1  0  0  0
 27 40  1  0  0  0
 28 41  1  0  0  0
M  END
> <s_m_entry_id>
6502

> <s_m_entry_name>
dock_pv.337

> <s_m_Source_Path>
/home/csk/Desktop/cluster/DUD-E-result/aldr

> <s_m_Source_File>
dock_pv.maegz

> <i_m_Source_File_Index>
337

> <chembl_id>
CHEMBL335376

> <chembl_pref_name>
None

> <i_lp_mmshare_version>
53161

> <i_f3d_flags>
0

> <r_lp_tautomer_probability>
1

> <s_lp_Force_Field>
OPLS_2005

> <r_lp_Energy>
31.458381

> <b_lp_Chiralities_Consistent>
1

> <s_lp_Variant>
CHEMBL1900_lig170-1

> <s_i_glide_gridfile>
glide-grid_2hv5

> <i_i_glide_lignum>
246

> <i_i_glide_rotatable_bonds>
6

> <r_i_docking_score>
-8.21759585618253

> <r_i_glide_ligand_efficiency>
-0.293485566292233

> <r_i_glide_ligand_efficiency_sa>
-0.891195033017798

> <r_i_glide_ligand_efficiency_ln>
-1.8968624027055

> <r_i_glide_gscore>
-8.21759585618253

> <r_i_glide_lipo>
-4.10844950211659

> <r_i_glide_hbond>
-0.32

> <r_i_glide_metal>
0

> <r_i_glide_rewards>
-2.27590154336231

> <r_i_glide_evdw>
-29.8819103240967

> <r_i_glide_ecoul>
-3.54737091064453

> <r_i_glide_erotb>
0.512956342097879

> <r_i_glide_esite>
0

> <r_i_glide_emodel>
-31.9883668431827

> <r_i_glide_energy>
-33.4292812347412

> <r_i_glide_einternal>
6.39668226242065

> <i_i_glide_confnum>
2

> <i_i_glide_posenum>
270

> <r_i_glide_eff_state_penalty>
0

> <s_user_duplicate_titles>
CHEMBL1900_lig170

> <s_m_subgroup_title>
dock_pv

> <s_m_subgroupid>
dock_pv

> <b_m_subgroup_collapsed>
1

$$$$
CHEMBL1900_lig591
                    3D
 Schrodinger Suite 2021-1.
 41 43  0  0  1  0            999 V2000
   16.9123  -10.0298   15.9109 C   0  0  0  0  0  0
   16.7103  -11.1697   16.6238 N   0  0  0  0  0  0
   15.5908  -11.2931   17.3620 C   0  0  0  0  0  0
   14.5534   -9.8769   17.0555 S   0  0  0  0  0  0
   15.7624   -9.1513   16.0152 C   0  0  0  0  0  0
   15.2953  -12.1901   18.1501 O   0  0  0  0  0  0
   17.9376   -9.8105   15.2607 O   0  0  0  0  0  0
   15.6306   -7.9568   15.3882 C   0  0  0  0  0  0
   16.6235   -7.2470   14.5613 C   0  0  0  0  0  0
   16.3473   -6.9150   13.2294 C   0  0  0  0  0  0
   17.3191   -6.3262   12.4239 C   0  0  0  0  0  0
   18.5685   -6.0529   12.9783 C   0  0  0  0  0  0
   18.8528   -6.3451   14.3060 C   0  0  0  0  0  0
   17.8711   -6.9171   15.1034 C   0  0  0  0  0  0
   17.0592   -6.1216   11.0896 O   0  0  0  0  0  0
   17.0662   -4.8436   10.5820 C   0  0  0  0  0  0
   15.8577   -4.2912   10.1642 C   0  0  0  0  0  0
   15.8457   -3.0251    9.5933 C   0  0  0  0  0  0
   17.0169   -2.3026    9.4526 C   0  0  0  0  0  0
   18.2256   -2.8374    9.8743 C   0  0  0  0  0  0
   18.2492   -4.1160   10.4195 C   0  0  0  0  0  0
   17.7144  -12.2741   16.6416 C   0  0  0  0  0  0
   18.0169  -12.8219   15.2341 C   0  0  0  0  0  0
   19.3381  -12.9324   15.0056 O   0  0  0  0  0  0
   17.1132  -13.0804   14.4339 O   0  0  0  0  0  0
   19.8163  -13.2150   13.6968 C   0  0  0  0  0  0
   14.7001   -7.4278   15.5183 H   0  0  0  0  0  0
   15.3990   -7.1508   12.7704 H   0  0  0  0  0  0
   19.3444   -5.6411   12.3725 H   0  0  0  0  0  0
   19.8311   -6.1297   14.7121 H   0  0  0  0  0  0
   18.1029   -7.1523   16.1314 H   0  0  0  0  0  0
   14.9382   -4.8475   10.2663 H   0  0  0  0  0  0
   14.9449   -2.5703    9.2474 H   0  0  0  0  0  0
   16.9616   -1.3187    9.0191 H   0  0  0  0  0  0
   19.1392   -2.2664    9.7832 H   0  0  0  0  0  0
   19.1958   -4.5269   10.7008 H   0  0  0  0  0  0
   17.3586  -13.1275   17.2214 H   0  0  0  0  0  0
   18.6271  -11.9447   17.1394 H   0  0  0  0  0  0
   20.8745  -13.4768   13.7364 H   0  0  0  0  0  0
   19.7057  -12.3389   13.0551 H   0  0  0  0  0  0
   19.2769  -14.0410   13.2355 H   0  0  0  0  0  0
  1  2  1  0  0  0
  1  5  1  0  0  0
  1  7  2  0  0  0
  2  3  1  0  0  0
  2 22  1  0  0  0
  3  4  1  0  0  0
  3  6  2  0  0  0
  4  5  1  0  0  0
  5  8  2  0  0  0
  8  9  1  0  0  0
  8 27  1  0  0  0
  9 10  2  0  0  0
  9 14  1  0  0  0
 10 11  1  0  0  0
 10 28  1  0  0  0
 11 12  2  0  0  0
 11 15  1  0  0  0
 12 13  1  0  0  0
 12 29  1  0  0  0
 13 14  2  0  0  0
 13 30  1  0  0  0
 14 31  1  0  0  0
 15 16  1  0  0  0
 16 17  2  0  0  0
 16 21  1  0  0  0
 17 18  1  0  0  0
 17 32  1  0  0  0
 18 19  2  0  0  0
 18 33  1  0  0  0
 19 20  1  0  0  0
 19 34  1  0  0  0
 20 21  2  0  0  0
 20 35  1  0  0  0
 21 36  1  0  0  0
 22 23  1  0  0  0
 22 37  1  0  0  0
 22 38  1  0  0  0
 23 24  1  0  0  0
 23 25  2  0  0  0
 24 26  1  0  0  0
 26 39  1  0  0  0
 26 40  1  0  0  0
 26 41  1  0  0  0
M  END
> <s_m_entry_id>
6503

> <s_m_entry_name>
dock_pv.338

> <s_m_Source_Path>
/home/csk/Desktop/cluster/DUD-E-result/aldr

> <s_m_Source_File>
dock_pv.maegz

> <i_m_Source_File_Index>
338

> <chembl_id>
CHEMBL2260152

> <chembl_pref_name>
None

> <i_lp_mmshare_version>
53161

> <i_f3d_flags>
0

> <r_lp_tautomer_probability>
1

> <s_lp_Force_Field>
OPLS_2005

> <r_lp_Energy>
24.221051

> <b_lp_Chiralities_Consistent>
1

> <s_lp_Variant>
CHEMBL1900_lig591-1

> <s_i_glide_gridfile>
glide-grid_2hv5

> <i_i_glide_lignum>
714

> <i_i_glide_rotatable_bonds>
6

> <r_i_docking_score>
-8.21167879669085

> <r_i_glide_ligand_efficiency>
-0.315833799872725

> <r_i_glide_ligand_efficiency_sa>
-0.935656389376956

> <r_i_glide_ligand_efficiency_ln>
-1.92848582068701

> <r_i_glide_gscore>
-8.21167879669085

> <r_i_glide_lipo>
-4.4955413555075

> <r_i_glide_hbond>
0

> <r_i_glide_metal>
0

> <r_i_glide_rewards>
-2.47110135967338

> <r_i_glide_evdw>
-42.5529403686523

> <r_i_glide_ecoul>
1.17406702041626

> <r_i_glide_erotb>
0.706500883860216

> <r_i_glide_esite>
0

> <r_i_glide_emodel>
-52.9699240582158

> <r_i_glide_energy>
-41.3788733482361

> <r_i_glide_einternal>
13.9579210281372

> <i_i_glide_confnum>
105

> <i_i_glide_posenum>
3

> <r_i_glide_eff_state_penalty>
0

> <s_user_duplicate_titles>
CHEMBL1900_lig591

> <s_m_subgroup_title>
dock_pv

> <s_m_subgroupid>
dock_pv

> <b_m_subgroup_collapsed>
1

$$$$
CHEMBL1900_lig505
                    3D
 Schrodinger Suite 2021-1.
 22 23  0  0  1  0            999 V2000
   15.3451   -3.2029    9.5670 O   0  0  0  0  0  0
   15.8487   -4.1968   10.3617 C   0  0  0  0  0  0
   17.2263   -4.2976   10.5469 C   0  0  0  0  0  0
   17.7462   -5.3149   11.3454 C   0  0  0  0  0  0
   16.8935   -6.2344   11.9591 C   0  0  0  0  0  0
   17.4586   -7.3602   12.7300 C   0  0  0  0  0  0
   17.1811   -7.7136   14.0056 C   0  0  0  0  0  0
   16.1449   -6.9150   15.1915 S   0  0  0  0  0  0
   16.5228   -8.1519   16.4233 C   0  0  0  0  0  0
   16.0754   -8.1711   17.5668 O   0  0  0  0  0  0
   17.3614   -9.0229   15.8659 N   0  0  0  0  0  0
   17.7768   -8.8902   14.5998 C   0  0  0  0  0  0
   18.5454   -9.6842   14.0609 O   0  0  0  0  0  0
   15.5153   -6.1150   11.7688 C   0  0  0  0  0  0
   14.9883   -5.0985   10.9800 C   0  0  0  0  0  0
   14.3908   -3.2630    9.3817 H   0  0  0  0  0  0
   17.8867   -3.5905   10.0681 H   0  0  0  0  0  0
   18.8157   -5.3932   11.4744 H   0  0  0  0  0  0
   18.1452   -7.9790   12.1754 H   0  0  0  0  0  0
   17.6902   -9.8049   16.4083 H   0  0  0  0  0  0
   14.8503   -6.8493   12.1810 H   0  0  0  0  0  0
   13.9196   -5.0280   10.8363 H   0  0  0  0  0  0
  1  2  1  0  0  0
  1 16  1  0  0  0
  2  3  2  0  0  0
  2 15  1  0  0  0
  3  4  1  0  0  0
  3 17  1  0  0  0
  4  5  2  0  0  0
  4 18  1  0  0  0
  5  6  1  0  0  0
  5 14  1  0  0  0
  6  7  2  0  0  0
  6 19  1  0  0  0
  7  8  1  0  0  0
  7 12  1  0  0  0
  8  9  1  0  0  0
  9 10  2  0  0  0
  9 11  1  0  0  0
 11 12  1  0  0  0
 11 20  1  0  0  0
 12 13  2  0  0  0
 14 15  2  0  0  0
 14 21  1  0  0  0
 15 22  1  0  0  0
M  END
> <s_m_entry_id>
6504

> <s_m_entry_name>
dock_pv.339

> <s_m_Source_Path>
/home/csk/Desktop/cluster/DUD-E-result/aldr

> <s_m_Source_File>
dock_pv.maegz

> <i_m_Source_File_Index>
339

> <chembl_id>
CHEMBL87706

> <chembl_pref_name>
None

> <i_lp_mmshare_version>
53161

> <i_f3d_flags>
0

> <r_lp_tautomer_probability>
1

> <s_lp_Force_Field>
OPLS_2005

> <r_lp_Energy>
13.892612

> <b_lp_Chiralities_Consistent>
1

> <s_lp_Variant>
CHEMBL1900_lig505-1

> <s_i_glide_gridfile>
glide-grid_2hv5

> <i_i_glide_lignum>
628

> <i_i_glide_rotatable_bonds>
2

> <r_i_docking_score>
-8.20535286675152

> <r_i_glide_ligand_efficiency>
-0.547023524450102

> <r_i_glide_ligand_efficiency_sa>
-1.34907601972386

> <r_i_glide_ligand_efficiency_ln>
-2.21284837630097

> <r_i_glide_gscore>
-8.20535286675152

> <r_i_glide_lipo>
-2.66416425892846

> <r_i_glide_hbond>
-0.32

> <r_i_glide_metal>
0

> <r_i_glide_rewards>
-3.31743414203633

> <r_i_glide_evdw>
-28.4732646942139

> <r_i_glide_ecoul>
-5.49888944625854

> <r_i_glide_erotb>
0.344742185862748

> <r_i_glide_esite>
0

> <r_i_glide_emodel>
-49.177636950885

> <r_i_glide_energy>
-33.9721541404724

> <r_i_glide_einternal>
2.06411600112915

> <i_i_glide_confnum>
3

> <i_i_glide_posenum>
326

> <r_i_glide_eff_state_penalty>
0

> <s_user_duplicate_titles>
CHEMBL1900_lig505

> <s_m_subgroup_title>
dock_pv

> <s_m_subgroupid>
dock_pv

> <b_m_subgroup_collapsed>
1

$$$$
CHEMBL1900_lig206
                    3D
 Schrodinger Suite 2021-1.
 37 38  0  0  1  0            999 V2000
   16.8310   -9.8502   16.1143 C   0  0  0  0  0  0
   15.8552   -9.1196   16.6781 C   0  0  0  0  0  0
   15.7452   -7.8183   16.0452 C   0  0  0  0  0  0
   16.7091   -7.8018   15.0957 N   0  0  0  0  0  0
   17.4796   -9.0266   15.0485 C   0  0  0  0  0  0
   17.3051  -11.1987   16.4098 C   0  0  0  0  0  0
   14.9464   -6.9149   16.3075 O   0  0  0  0  0  0
   16.8894   -6.6941   14.1515 C   0  0  0  0  0  0
   18.1099  -11.7855   15.6831 O   0  0  0  0  0  0
   14.9628   -9.3503   17.6816 O   0  0  0  0  0  0
   16.7972  -11.7136   17.5588 O   0  0  0  0  0  0
   16.7182   -7.1273   12.6876 C   0  0  0  0  0  0
   16.6018   -5.9515   11.7356 C   0  0  0  0  0  0
   17.2195  -12.9795   18.0560 C   0  0  0  0  0  0
   15.3357   -5.5152   11.3423 C   0  0  0  0  0  0
   17.7454   -5.3152   11.2482 C   0  0  0  0  0  0
   18.5856  -12.8695   18.7493 C   0  0  0  0  0  0
   17.6247   -4.2596   10.3480 C   0  0  0  0  0  0
   15.2161   -4.4564   10.4513 C   0  0  0  0  0  0
   16.3578   -3.8360    9.9488 C   0  0  0  0  0  0
   18.5362   -8.8248   15.2329 H   0  0  0  0  0  0
   17.4062   -9.4931   14.0647 H   0  0  0  0  0  0
   16.1607   -5.9153   14.3739 H   0  0  0  0  0  0
   17.8904   -6.2861   14.3022 H   0  0  0  0  0  0
   14.3845   -8.5864   17.7623 H   0  0  0  0  0  0
   17.5423   -7.7676   12.3683 H   0  0  0  0  0  0
   15.8083   -7.7147   12.5836 H   0  0  0  0  0  0
   17.2473  -13.7198   17.2541 H   0  0  0  0  0  0
   16.4765  -13.3293   18.7725 H   0  0  0  0  0  0
   14.4404   -5.9857   11.7260 H   0  0  0  0  0  0
   18.7252   -5.6466   11.5584 H   0  0  0  0  0  0
   18.9132  -13.8336   19.1372 H   0  0  0  0  0  0
   18.5653  -12.1669   19.5801 H   0  0  0  0  0  0
   19.3452  -12.5160   18.0520 H   0  0  0  0  0  0
   18.5057   -3.7699    9.9622 H   0  0  0  0  0  0
   14.2337   -4.1149   10.1660 H   0  0  0  0  0  0
   16.2564   -3.0126    9.2568 H   0  0  0  0  0  0
  1  2  2  0  0  0
  1  5  1  0  0  0
  1  6  1  0  0  0
  2  3  1  0  0  0
  2 10  1  0  0  0
  3  7  2  0  0  0
  3  4  1  0  0  0
  4  5  1  0  0  0
  4  8  1  0  0  0
  5 21  1  0  0  0
  5 22  1  0  0  0
  6  9  2  0  0  0
  6 11  1  0  0  0
  8 12  1  0  0  0
  8 23  1  0  0  0
  8 24  1  0  0  0
 10 25  1  0  0  0
 11 14  1  0  0  0
 12 13  1  0  0  0
 12 26  1  0  0  0
 12 27  1  0  0  0
 13 15  2  0  0  0
 13 16  1  0  0  0
 14 17  1  0  0  0
 14 28  1  0  0  0
 14 29  1  0  0  0
 15 19  1  0  0  0
 15 30  1  0  0  0
 16 18  2  0  0  0
 16 31  1  0  0  0
 17 32  1  0  0  0
 17 33  1  0  0  0
 17 34  1  0  0  0
 18 20  1  0  0  0
 18 35  1  0  0  0
 19 20  2  0  0  0
 19 36  1  0  0  0
 20 37  1  0  0  0
M  END
> <s_m_entry_id>
6505

> <s_m_entry_name>
dock_pv.340

> <s_m_Source_Path>
/home/csk/Desktop/cluster/DUD-E-result/aldr

> <s_m_Source_File>
dock_pv.maegz

> <i_m_Source_File_Index>
340

> <chembl_id>
CHEMBL7461

> <chembl_pref_name>
None

> <i_lp_mmshare_version>
53161

> <i_f3d_flags>
0

> <r_lp_tautomer_probability>
1

> <s_lp_Force_Field>
OPLS_2005

> <r_lp_Energy>
24.812683

> <b_lp_Chiralities_Consistent>
1

> <s_lp_Variant>
CHEMBL1900_lig206-1

> <s_i_glide_gridfile>
glide-grid_2hv5

> <i_i_glide_lignum>
282

> <i_i_glide_rotatable_bonds>
7

> <r_i_docking_score>
-8.2009178750552

> <r_i_glide_ligand_efficiency>
-0.41004589375276

> <r_i_glide_ligand_efficiency_sa>
-1.11303579650344

> <r_i_glide_ligand_efficiency_ln>
-2.05241925975209

> <r_i_glide_gscore>
-8.2009178750552

> <r_i_glide_lipo>
-3.27270440642118

> <r_i_glide_hbond>
-0.451792671893535

> <r_i_glide_metal>
0

> <r_i_glide_rewards>
-3.34635850667352

> <r_i_glide_evdw>
-34.9324417114258

> <r_i_glide_ecoul>
-3.79385113716125

> <r_i_glide_erotb>
1.18563746607852

> <r_i_glide_esite>
0

> <r_i_glide_emodel>
-55.5603402356885

> <r_i_glide_energy>
-38.726292848587

> <r_i_glide_einternal>
4.39802742004395

> <i_i_glide_confnum>
93

> <i_i_glide_posenum>
49

> <r_i_glide_eff_state_penalty>
0

> <s_user_duplicate_titles>
CHEMBL1900_lig206

> <s_m_subgroup_title>
dock_pv

> <s_m_subgroupid>
dock_pv

> <b_m_subgroup_collapsed>
1

$$$$
CHEMBL1900_lig354
                    3D
 Schrodinger Suite 2021-1.
 33 34  0  0  1  0            999 V2000
   16.4001   -7.4336   17.0507 C   0  0  2  0  0  0
   17.2062   -8.0091   15.8695 C   0  0  0  0  0  0
   17.3025   -9.3997   15.6509 C   0  0  0  0  0  0
   17.3452   -6.5232   17.8997 C   0  0  0  0  0  0
   16.6552  -10.3189   16.4533 O   0  0  0  0  0  0
   15.7892   -8.6049   17.8658 C   0  0  0  0  0  0
   15.4221   -9.8544   17.0200 C   0  0  0  0  0  0
   16.8141   -5.8134   19.1521 C   0  0  0  0  0  0
   17.8274   -7.1778   14.9346 C   0  0  0  0  0  0
   18.0331   -9.9214   14.5814 C   0  0  0  0  0  0
   15.7450   -6.0496   19.6968 O   0  0  0  0  0  0
   15.3391   -6.6202   16.5833 O   0  0  0  0  0  0
   18.5379   -7.6811   13.8558 C   0  0  0  0  0  0
   17.7028   -4.8916   19.6109 O   0  0  0  0  0  0
   18.6584   -9.0570   13.6832 C   0  0  0  0  0  0
   19.0886   -6.8164   12.9817 F   0  0  0  0  0  0
   14.9454  -10.9940   17.9363 C   0  0  0  0  0  0
   14.3927   -9.5372   15.9137 C   0  0  0  0  0  0
   17.7441   -5.7377   17.2616 H   0  0  0  0  0  0
   18.2060   -7.1098   18.2191 H   0  0  0  0  0  0
   16.5451   -8.9153   18.5811 H   0  0  0  0  0  0
   14.9448   -8.2818   18.4722 H   0  0  0  0  0  0
   17.7489   -6.1147   15.0350 H   0  0  0  0  0  0
   18.0960  -10.9904   14.4394 H   0  0  0  0  0  0
   14.6669   -7.2163   16.2440 H   0  0  0  0  0  0
   17.3504   -4.4542   20.3881 H   0  0  0  0  0  0
   19.2190   -9.4479   12.8478 H   0  0  0  0  0  0
   14.1188  -10.6821   18.5743 H   0  0  0  0  0  0
   14.6106  -11.8534   17.3545 H   0  0  0  0  0  0
   15.7453  -11.3485   18.5810 H   0  0  0  0  0  0
   13.4884   -9.1027   16.3371 H   0  0  0  0  0  0
   14.7562   -8.8483   15.1547 H   0  0  0  0  0  0
   14.1111  -10.4462   15.3830 H   0  0  0  0  0  0
  1  2  1  0  0  0
  1  4  1  0  0  0
  1  6  1  0  0  0
  1 12  1  0  0  0
  2  3  2  0  0  0
  2  9  1  0  0  0
  3 10  1  0  0  0
  3  5  1  0  0  0
  4  8  1  0  0  0
  4 19  1  0  0  0
  4 20  1  0  0  0
  5  7  1  0  0  0
  6  7  1  0  0  0
  6 21  1  0  0  0
  6 22  1  0  0  0
  7 17  1  0  0  0
  7 18  1  0  0  0
  8 11  2  0  0  0
  8 14  1  0  0  0
  9 13  2  0  0  0
  9 23  1  0  0  0
 10 15  2  0  0  0
 10 24  1  0  0  0
 12 25  1  0  0  0
 13 15  1  0  0  0
 13 16  1  0  0  0
 14 26  1  0  0  0
 15 27  1  0  0  0
 17 28  1  0  0  0
 17 29  1  0  0  0
 17 30  1  0  0  0
 18 31  1  0  0  0
 18 32  1  0  0  0
 18 33  1  0  0  0
M  END
> <s_m_entry_id>
6506

> <s_m_entry_name>
dock_pv.341

> <s_m_Source_Path>
/home/csk/Desktop/cluster/DUD-E-result/aldr

> <s_m_Source_File>
dock_pv.maegz

> <i_m_Source_File_Index>
341

> <chembl_id>
CHEMBL67806

> <chembl_pref_name>
None

> <i_lp_mmshare_version>
53161

> <i_f3d_flags>
0

> <r_lp_tautomer_probability>
1

> <s_lp_Force_Field>
OPLS_2005

> <r_lp_Energy>
15.401133

> <b_lp_Chiralities_Consistent>
1

> <s_lp_Variant>
CHEMBL1900_lig354-1

> <s_i_glide_gridfile>
glide-grid_2hv5

> <i_i_glide_lignum>
475

> <i_i_glide_rotatable_bonds>
4

> <r_i_docking_score>
-8.18511187354771

> <r_i_glide_ligand_efficiency>
-0.454728437419317

> <r_i_glide_ligand_efficiency_sa>
-1.19172563792056

> <r_i_glide_ligand_efficiency_ln>
-2.10394080127038

> <r_i_glide_gscore>
-8.18511187354771

> <r_i_glide_lipo>
-3.1935677754988

> <r_i_glide_hbond>
-0.30301587235334

> <r_i_glide_metal>
0

> <r_i_glide_rewards>
-3.00613035400407

> <r_i_glide_evdw>
-28.7627277374268

> <r_i_glide_ecoul>
-5.25519371032715

> <r_i_glide_erotb>
0.54401757172891

> <r_i_glide_esite>
0

> <r_i_glide_emodel>
-49.1318256964426

> <r_i_glide_energy>
-34.0179214477539

> <r_i_glide_einternal>
1.56597065925598

> <i_i_glide_confnum>
7

> <i_i_glide_posenum>
158

> <r_i_glide_eff_state_penalty>
0

> <s_user_duplicate_titles>
CHEMBL1900_lig354

> <s_m_subgroup_title>
dock_pv

> <s_m_subgroupid>
dock_pv

> <b_m_subgroup_collapsed>
1

$$$$
CHEMBL1900_lig70
                    3D
 Schrodinger Suite 2021-1.
 27 29  0  0  1  0            999 V2000
   18.1517   -7.6608   14.1014 S   0  0  0  0  0  0
   17.5411   -6.4875   12.8529 C   0  0  0  0  0  0
   17.2875   -7.3243   15.6681 C   0  0  0  0  0  0
   15.9318   -6.5125   12.1811 S   0  0  0  0  0  0
   18.0054   -7.3155   16.7424 N   0  0  0  0  0  0
   18.3247   -5.5091   12.2867 C   0  0  0  0  0  0
   17.4237   -6.9723   17.9611 N   0  0  0  0  0  0
   15.8687   -7.0660   15.7859 C   0  0  0  0  0  0
   16.1390   -6.5856   18.1909 C   0  0  0  0  0  0
   16.3205   -5.1676   11.1136 C   0  0  0  0  0  0
   17.6747   -4.7593   11.2765 C   0  0  0  0  0  0
   17.7464   -9.0101   13.6936 O   0  0  0  0  0  0
   19.5639   -7.3197   14.3139 O   0  0  0  0  0  0
   15.3281   -6.7533   16.9913 C   0  0  0  0  0  0
   15.7460   -6.1150   19.2562 O   0  0  0  0  0  0
   15.4720   -4.5214   10.2034 C   0  0  0  0  0  0
   18.1699   -3.7148   10.4746 C   0  0  0  0  0  0
   17.3210   -3.0847    9.5688 C   0  0  0  0  0  0
   15.9955   -3.4808    9.4414 C   0  0  0  0  0  0
   19.3444   -5.3457   12.5881 H   0  0  0  0  0  0
   15.2102   -7.2043   14.9448 H   0  0  0  0  0  0
   14.2612   -6.6219   17.0881 H   0  0  0  0  0  0
   18.0620   -6.9282   18.7431 H   0  0  0  0  0  0
   14.4358   -4.8140   10.1052 H   0  0  0  0  0  0
   19.1897   -3.3783   10.5781 H   0  0  0  0  0  0
   17.6899   -2.2653    8.9706 H   0  0  0  0  0  0
   15.3516   -2.9669    8.7438 H   0  0  0  0  0  0
  1  2  1  0  0  0
  1 12  2  0  0  0
  1 13  2  0  0  0
  1  3  1  0  0  0
  2  4  1  0  0  0
  2  6  2  0  0  0
  3  8  1  0  0  0
  3  5  2  0  0  0
  4 10  1  0  0  0
  5  7  1  0  0  0
  6 11  1  0  0  0
  6 20  1  0  0  0
  7  9  1  0  0  0
  7 23  1  0  0  0
  8 14  2  0  0  0
  8 21  1  0  0  0
  9 15  2  0  0  0
  9 14  1  0  0  0
 10 16  1  0  0  0
 10 11  2  0  0  0
 11 17  1  0  0  0
 14 22  1  0  0  0
 16 19  2  0  0  0
 16 24  1  0  0  0
 17 18  2  0  0  0
 17 25  1  0  0  0
 18 19  1  0  0  0
 18 26  1  0  0  0
 19 27  1  0  0  0
M  END
> <s_m_entry_id>
6507

> <s_m_entry_name>
dock_pv.342

> <s_m_Source_Path>
/home/csk/Desktop/cluster/DUD-E-result/aldr

> <s_m_Source_File>
dock_pv.maegz

> <i_m_Source_File_Index>
342

> <chembl_id>
CHEMBL73415

> <chembl_pref_name>
None

> <i_lp_mmshare_version>
53161

> <i_f3d_flags>
0

> <r_lp_tautomer_probability>
0.998994762270461

> <s_lp_Force_Field>
OPLS_2005

> <r_lp_Energy>
21.799512

> <b_lp_Chiralities_Consistent>
1

> <s_lp_Variant>
CHEMBL1900_lig70-1

> <s_i_glide_gridfile>
glide-grid_2hv5

> <i_i_glide_lignum>
107

> <i_i_glide_rotatable_bonds>
2

> <r_i_docking_score>
-8.16691589744289

> <r_i_glide_ligand_efficiency>
-0.429837678812784

> <r_i_glide_ligand_efficiency_sa>
-1.14697956970111

> <r_i_glide_ligand_efficiency_ln>
-2.07048858927177

> <r_i_glide_gscore>
-8.16691589744289

> <r_i_glide_lipo>
-3.5882795749293

> <r_i_glide_hbond>
-0.0918786181954897

> <r_i_glide_metal>
0

> <r_i_glide_rewards>
-2.73175148643815

> <r_i_glide_evdw>
-39.324161529541

> <r_i_glide_ecoul>
-1.44015562534332

> <r_i_glide_erotb>
0.427225202398599

> <r_i_glide_esite>
0

> <r_i_glide_emodel>
-55.4633236316991

> <r_i_glide_energy>
-40.7643171548843

> <r_i_glide_einternal>
5.54597282409668

> <i_i_glide_confnum>
2

> <i_i_glide_posenum>
138

> <r_i_glide_eff_state_penalty>
0

> <s_user_duplicate_titles>
CHEMBL1900_lig70,117373

> <s_m_subgroup_title>
dock_pv

> <s_m_subgroupid>
dock_pv

> <b_m_subgroup_collapsed>
1

$$$$
CHEMBL1900_lig271
                    3D
 Schrodinger Suite 2021-1.
 38 41  0  0  1  0            999 V2000
   18.0103   -8.0391   15.3810 N   0  0  0  0  0  0
   17.4886   -7.3492   16.4657 N   0  0  0  0  0  0
   17.7452   -9.3479   15.0264 C   0  0  0  0  0  0
   16.7664  -10.0054   15.9844 C   0  0  0  0  0  0
   16.6262   -7.8910   17.2432 C   0  0  0  0  0  0
   18.0375   -6.5195   13.3967 C   0  0  0  0  0  0
   16.2034   -9.2930   17.0623 C   0  0  0  0  0  0
   18.5778   -5.5652   12.7054 N   0  0  0  0  0  0
   18.8380   -7.2213   14.4807 C   0  0  0  0  0  0
   16.3884   -6.8950   12.9396 S   0  0  0  0  0  0
   16.5084   -5.7150   11.6506 C   0  0  0  0  0  0
   16.0093   -7.0517   18.3842 C   0  0  0  0  0  0
   16.4336  -11.3499   15.7810 C   0  0  0  0  0  0
   15.3450   -9.9620   17.9419 C   0  0  0  0  0  0
   17.7786   -5.1045   11.7192 C   0  0  0  0  0  0
   15.5913  -12.0092   16.6739 C   0  0  0  0  0  0
   15.0696  -11.3181   17.7725 C   0  0  0  0  0  0
   16.6209   -5.6580   18.6172 C   0  0  0  0  0  0
   15.5969   -5.3633   10.6527 C   0  0  0  0  0  0
   18.2294   -9.9139   14.0413 O   0  0  0  0  0  0
   16.1450   -4.6250   18.1586 O   0  0  0  0  0  0
   18.1450   -4.1150   10.7971 C   0  0  0  0  0  0
   16.0157   -4.4329    9.7037 C   0  0  0  0  0  0
   14.1450  -12.1272   18.9810 Cl  0  0  0  0  0  0
   15.2370  -13.6809   16.4089 Cl  0  0  0  0  0  0
   17.7450   -5.7148   19.3810 O   0  0  0  0  0  0
   17.2493   -3.7966    9.7837 C   0  0  0  0  0  0
   14.9450   -4.1150    8.1810 Br  0  0  0  0  0  0
   19.4240   -6.5150   15.0715 H   0  0  0  0  0  0
   19.6068   -7.8319   14.0012 H   0  0  0  0  0  0
   14.9473   -6.9130   18.1810 H   0  0  0  0  0  0
   16.0749   -7.5989   19.3247 H   0  0  0  0  0  0
   16.8469  -11.8982   14.9447 H   0  0  0  0  0  0
   14.9247   -9.4625   18.8020 H   0  0  0  0  0  0
   14.6302   -5.8392   10.5810 H   0  0  0  0  0  0
   19.1030   -3.6267   10.8513 H   0  0  0  0  0  0
   18.0157   -6.6130   19.5826 H   0  0  0  0  0  0
   17.5255   -3.0735    9.0295 H   0  0  0  0  0  0
  1  2  1  0  0  0
  1  3  1  0  0  0
  1  9  1  0  0  0
  2  5  2  0  0  0
  3  4  1  0  0  0
  3 20  2  0  0  0
  4  7  1  0  0  0
  4 13  2  0  0  0
  5 12  1  0  0  0
  5  7  1  0  0  0
  6  9  1  0  0  0
  6  8  2  0  0  0
  6 10  1  0  0  0
  7 14  2  0  0  0
  8 15  1  0  0  0
  9 29  1  0  0  0
  9 30  1  0  0  0
 10 11  1  0  0  0
 11 19  1  0  0  0
 11 15  2  0  0  0
 12 18  1  0  0  0
 12 31  1  0  0  0
 12 32  1  0  0  0
 13 16  1  0  0  0
 13 33  1  0  0  0
 14 17  1  0  0  0
 14 34  1  0  0  0
 15 22  1  0  0  0
 16 17  2  0  0  0
 16 25  1  0  0  0
 17 24  1  0  0  0
 18 21  2  0  0  0
 18 26  1  0  0  0
 19 23  2  0  0  0
 19 35  1  0  0  0
 22 27  2  0  0  0
 22 36  1  0  0  0
 23 28  1  0  0  0
 23 27  1  0  0  0
 26 37  1  0  0  0
 27 38  1  0  0  0
M  END
> <s_m_entry_id>
6508

> <s_m_entry_name>
dock_pv.343

> <s_m_Source_Path>
/home/csk/Desktop/cluster/DUD-E-result/aldr

> <s_m_Source_File>
dock_pv.maegz

> <i_m_Source_File_Index>
343

> <chembl_id>
CHEMBL279673

> <chembl_pref_name>
None

> <i_lp_mmshare_version>
53161

> <i_f3d_flags>
0

> <r_lp_tautomer_probability>
1

> <s_lp_Force_Field>
OPLS_2005

> <r_lp_Energy>
24.091765

> <b_lp_Chiralities_Consistent>
1

> <s_lp_Variant>
CHEMBL1900_lig271-1

> <s_i_glide_gridfile>
glide-grid_2hv5

> <i_i_glide_lignum>
386

> <i_i_glide_rotatable_bonds>
5

> <r_i_docking_score>
-8.16326798495454

> <r_i_glide_ligand_efficiency>
-0.291545285176948

> <r_i_glide_ligand_efficiency_sa>
-0.885303196787327

> <r_i_glide_ligand_efficiency_ln>
-1.88432193489046

> <r_i_glide_gscore>
-8.16326798495454

> <r_i_glide_lipo>
-4.81779581546998

> <r_i_glide_hbond>
0

> <r_i_glide_metal>
0

> <r_i_glide_rewards>
-1.54384930042006

> <r_i_glide_evdw>
-41.9023208618164

> <r_i_glide_ecoul>
-0.227834016084671

> <r_i_glide_erotb>
0.32766827643902

> <r_i_glide_esite>
0

> <r_i_glide_emodel>
-55.2673262727435

> <r_i_glide_energy>
-42.1301548779011

> <r_i_glide_einternal>
3.66122698783875

> <i_i_glide_confnum>
9

> <i_i_glide_posenum>
346

> <r_i_glide_eff_state_penalty>
0

> <s_user_duplicate_titles>
CHEMBL1900_lig271

> <s_m_subgroup_title>
dock_pv

> <s_m_subgroupid>
dock_pv

> <b_m_subgroup_collapsed>
1

$$$$
CHEMBL1900_lig369
                    3D
 Schrodinger Suite 2021-1.
 31 32  0  0  1  0            999 V2000
   15.3820   -8.3536   17.1100 C   0  0  2  0  0  0
   16.3451   -8.5606   15.9327 C   0  0  0  0  0  0
   16.8270   -9.8513   15.6290 C   0  0  0  0  0  0
   16.1558   -7.8939   18.3952 C   0  0  0  0  0  0
   16.7973   -7.5028   15.1317 C   0  0  0  0  0  0
   17.7481   -7.7043   14.1271 C   0  0  0  0  0  0
   16.3471  -11.0164   16.1840 O   0  0  0  0  0  0
   17.7817  -10.0559   14.6403 C   0  0  0  0  0  0
   14.6499   -9.6852   17.3813 C   0  0  0  0  0  0
   18.2669   -8.9822   13.9083 C   0  0  0  0  0  0
   18.5226   -5.7144   12.6310 N   0  0  0  0  0  0
   18.1788   -6.5924   13.2979 C   0  0  0  0  0  0
   16.2473   -6.3941   18.7204 C   0  0  0  0  0  0
   15.5917  -10.9006   17.3805 C   0  0  1  0  0  0
   15.7458   -5.8872   19.7210 O   0  0  0  0  0  0
   14.3687   -7.4122   16.8189 O   0  0  0  0  0  0
   19.2259   -9.2049   12.9822 F   0  0  0  0  0  0
   16.9456   -5.7136   17.7796 O   0  0  0  0  0  0
   14.8576  -12.2221   17.6377 C   0  0  0  0  0  0
   16.3137  -10.7668   18.1802 H   0  0  0  0  0  0
   15.7440   -8.3709   19.2854 H   0  0  0  0  0  0
   17.1759   -8.2742   18.3620 H   0  0  0  0  0  0
   16.3886   -6.5168   15.2942 H   0  0  0  0  0  0
   18.1397  -11.0529   14.4286 H   0  0  0  0  0  0
   13.8681   -9.8560   16.6384 H   0  0  0  0  0  0
   14.1451   -9.6423   18.3439 H   0  0  0  0  0  0
   13.7318   -7.4071   17.5392 H   0  0  0  0  0  0
   17.3289   -6.3066   17.1321 H   0  0  0  0  0  0
   14.2591  -12.1794   18.5494 H   0  0  0  0  0  0
   14.1886  -12.4638   16.8113 H   0  0  0  0  0  0
   15.5635  -13.0463   17.7421 H   0  0  0  0  0  0
  1  2  1  0  0  0
  1  4  1  0  0  0
  1  9  1  0  0  0
  1 16  1  0  0  0
  2  3  2  0  0  0
  2  5  1  0  0  0
  3  8  1  0  0  0
  3  7  1  0  0  0
  4 13  1  0  0  0
  4 21  1  0  0  0
  4 22  1  0  0  0
  5  6  2  0  0  0
  5 23  1  0  0  0
  6 10  1  0  0  0
  6 12  1  0  0  0
  7 14  1  0  0  0
  8 10  2  0  0  0
  8 24  1  0  0  0
  9 14  1  0  0  0
  9 25  1  0  0  0
  9 26  1  0  0  0
 10 17  1  0  0  0
 11 12  3  0  0  0
 13 15  2  0  0  0
 13 18  1  0  0  0
 14 19  1  0  0  0
 14 20  1  0  0  0
 16 27  1  0  0  0
 18 28  1  0  0  0
 19 29  1  0  0  0
 19 30  1  0  0  0
 19 31  1  0  0  0
M  END
> <s_m_entry_id>
6509

> <s_m_entry_name>
dock_pv.344

> <s_m_Source_Path>
/home/csk/Desktop/cluster/DUD-E-result/aldr

> <s_m_Source_File>
dock_pv.maegz

> <i_m_Source_File_Index>
344

> <chembl_id>
CHEMBL441254

> <chembl_pref_name>
None

> <i_lp_mmshare_version>
53161

> <i_f3d_flags>
0

> <r_lp_tautomer_probability>
1

> <s_lp_Force_Field>
OPLS_2005

> <r_lp_Energy>
15.788142

> <b_lp_Chiralities_Consistent>
1

> <s_lp_Variant>
CHEMBL1900_lig369-1

> <s_i_glide_gridfile>
glide-grid_2hv5

> <i_i_glide_lignum>
490

> <i_i_glide_rotatable_bonds>
4

> <r_i_docking_score>
-8.16084404730478

> <r_i_glide_ligand_efficiency>
-0.429518107752883

> <r_i_glide_ligand_efficiency_sa>
-1.14612682575882

> <r_i_glide_ligand_efficiency_ln>
-2.06894924485037

> <r_i_glide_gscore>
-8.16084404730478

> <r_i_glide_lipo>
-2.52810922294814

> <r_i_glide_hbond>
-0.32

> <r_i_glide_metal>
0

> <r_i_glide_rewards>
-3.51994769158071

> <r_i_glide_evdw>
-31.4533653259277

> <r_i_glide_ecoul>
-4.83952236175537

> <r_i_glide_erotb>
0.505809487783765

> <r_i_glide_esite>
0

> <r_i_glide_emodel>
-50.3645622120941

> <r_i_glide_energy>
-36.2928876876831

> <r_i_glide_einternal>
4.77531242370605

> <i_i_glide_confnum>
4

> <i_i_glide_posenum>
314

> <r_i_glide_eff_state_penalty>
0

> <s_user_duplicate_titles>
CHEMBL1900_lig369,109819

> <s_m_subgroup_title>
dock_pv

> <s_m_subgroupid>
dock_pv

> <b_m_subgroup_collapsed>
1

$$$$
CHEMBL1900_lig558
                    3D
 Schrodinger Suite 2021-1.
 43 46  0  0  1  0            999 V2000
   19.8494  -13.3355   13.5102 C   0  0  0  0  0  0
   18.8377  -13.9226   14.2489 C   0  0  0  0  0  0
   17.7943  -13.1871   14.8202 C   0  0  0  0  0  0
   19.8803  -11.9609   13.3201 C   0  0  0  0  0  0
   18.8675  -11.1800   13.8950 C   0  0  0  0  0  0
   17.8276  -11.7985   14.6388 C   0  0  0  0  0  0
   16.9523  -10.7981   15.0698 N   0  0  0  0  0  0
   18.6305   -9.7911   13.9529 C   0  0  0  0  0  0
   17.4430   -9.5522   14.6406 C   0  0  0  0  0  0
   16.9438   -8.1816   14.7880 C   0  0  0  0  0  0
   17.3916   -7.3344   13.7686 N   0  0  0  0  0  0
   18.4587   -7.6738   12.8252 C   0  0  0  0  0  0
   19.4645   -8.6464   13.4282 C   0  0  0  0  0  0
   15.9238   -7.6711   16.0242 S   0  0  0  0  0  0
   16.9231   -5.9697   13.5334 C   0  0  0  0  0  0
   16.5429   -5.5676   12.1136 C   0  0  0  0  0  0
   17.4971   -4.9486   11.3016 C   0  0  0  0  0  0
   17.1024   -4.3428   10.1097 C   0  0  0  0  0  0
   15.7565   -4.3217    9.7598 C   0  0  0  0  0  0
   14.8051   -4.9262   10.5829 C   0  0  0  0  0  0
   15.2035   -5.5909   11.7357 C   0  0  0  0  0  0
   15.7148  -11.0826   15.8009 C   0  0  0  0  0  0
   15.9019  -11.3674   17.2921 C   0  0  0  0  0  0
   16.9704  -11.7274   17.7799 O   0  0  0  0  0  0
   14.7290  -11.2501   17.9827 O   0  0  0  0  0  0
   20.8328  -14.0943   12.9810 F   0  0  0  0  0  0
   18.8529  -14.9846   14.3910 H   0  0  0  0  0  0
   17.0166  -13.6807   15.3873 H   0  0  0  0  0  0
   20.6920  -11.5113   12.7729 H   0  0  0  0  0  0
   19.0129   -6.7747   12.5790 H   0  0  0  0  0  0
   18.0169   -8.0937   11.9097 H   0  0  0  0  0  0
   20.0604   -8.1668   14.2021 H   0  0  0  0  0  0
   20.1472   -8.8870   12.6357 H   0  0  0  0  0  0
   17.7410   -5.3157   13.8192 H   0  0  0  0  0  0
   16.0972   -5.7159   14.1776 H   0  0  0  0  0  0
   18.5390   -4.8994   11.5995 H   0  0  0  0  0  0
   17.8407   -3.8800    9.4695 H   0  0  0  0  0  0
   15.4454   -3.8261    8.8522 H   0  0  0  0  0  0
   13.7641   -4.9061   10.2955 H   0  0  0  0  0  0
   14.4469   -6.0107   12.3772 H   0  0  0  0  0  0
   15.2814  -11.9867   15.3807 H   0  0  0  0  0  0
   14.9749  -10.3037   15.6187 H   0  0  0  0  0  0
   13.9763  -10.9989   17.4403 H   0  0  0  0  0  0
  1  2  1  0  0  0
  1  4  2  0  0  0
  1 26  1  0  0  0
  2  3  2  0  0  0
  2 27  1  0  0  0
  3  6  1  0  0  0
  3 28  1  0  0  0
  4  5  1  0  0  0
  4 29  1  0  0  0
  5  8  1  0  0  0
  5  6  2  0  0  0
  6  7  1  0  0  0
  7  9  1  0  0  0
  7 22  1  0  0  0
  8  9  2  0  0  0
  8 13  1  0  0  0
  9 10  1  0  0  0
 10 11  1  0  0  0
 10 14  2  0  0  0
 11 12  1  0  0  0
 11 15  1  0  0  0
 12 13  1  0  0  0
 12 30  1  0  0  0
 12 31  1  0  0  0
 13 32  1  0  0  0
 13 33  1  0  0  0
 15 16  1  0  0  0
 15 34  1  0  0  0
 15 35  1  0  0  0
 16 17  2  0  0  0
 16 21  1  0  0  0
 17 18  1  0  0  0
 17 36  1  0  0  0
 18 19  2  0  0  0
 18 37  1  0  0  0
 19 20  1  0  0  0
 19 38  1  0  0  0
 20 21  2  0  0  0
 20 39  1  0  0  0
 21 40  1  0  0  0
 22 23  1  0  0  0
 22 41  1  0  0  0
 22 42  1  0  0  0
 23 24  2  0  0  0
 23 25  1  0  0  0
 25 43  1  0  0  0
M  END
> <s_m_entry_id>
6510

> <s_m_entry_name>
dock_pv.345

> <s_m_Source_Path>
/home/csk/Desktop/cluster/DUD-E-result/aldr

> <s_m_Source_File>
dock_pv.maegz

> <i_m_Source_File_Index>
345

> <chembl_id>
CHEMBL1946960

> <chembl_pref_name>
None

> <i_lp_mmshare_version>
53161

> <i_f3d_flags>
0

> <r_lp_tautomer_probability>
1

> <s_lp_Force_Field>
OPLS_2005

> <r_lp_Energy>
37.53079

> <b_lp_Chiralities_Consistent>
1

> <s_lp_Variant>
CHEMBL1900_lig558-1

> <s_i_glide_gridfile>
glide-grid_2hv5

> <i_i_glide_lignum>
681

> <i_i_glide_rotatable_bonds>
5

> <r_i_docking_score>
-8.16081956239741

> <r_i_glide_ligand_efficiency>
-0.313877675476824

> <r_i_glide_ligand_efficiency_sa>
-0.929861378551075

> <r_i_glide_ligand_efficiency_ln>
-1.91654169639595

> <r_i_glide_gscore>
-8.16081956239741

> <r_i_glide_lipo>
-3.42930068647618

> <r_i_glide_hbond>
-0.267859983634981

> <r_i_glide_metal>
0

> <r_i_glide_rewards>
-3.13593216448668

> <r_i_glide_evdw>
-28.7870960235596

> <r_i_glide_ecoul>
-3.04149746894836

> <r_i_glide_erotb>
0.567852693720661

> <r_i_glide_esite>
0

> <r_i_glide_emodel>
-42.5403100320062

> <r_i_glide_energy>
-31.8285934925079

> <r_i_glide_einternal>
2.68429112434387

> <i_i_glide_confnum>
5

> <i_i_glide_posenum>
26

> <r_i_glide_eff_state_penalty>
0

> <s_user_duplicate_titles>
CHEMBL1900_lig558

> <s_m_subgroup_title>
dock_pv

> <s_m_subgroupid>
dock_pv

> <b_m_subgroup_collapsed>
1

$$$$
CHEMBL1900_lig9
                    3D
 Schrodinger Suite 2021-1.
 48 50  0  0  1  0            999 V2000
   18.8276   -8.5588   14.1363 S   0  0  0  0  0  0
   15.3606   -6.5151   17.9633 N   0  0  0  0  0  0
   17.1604   -8.9380   16.4741 C   0  0  0  0  0  0
   15.6827   -6.9117   16.7329 C   0  0  0  0  0  0
   17.0976   -7.4321   16.8125 C   0  0  1  0  0  0
   16.3771   -6.5149   18.8362 C   0  0  0  0  0  0
   17.8414   -9.4846   15.3538 C   0  0  0  0  0  0
   17.3910   -7.0924   18.1819 N   0  0  0  0  0  0
   19.7247   -9.5005   13.4569 O   0  0  0  0  0  0
   19.3450   -7.3148   14.7118 O   0  0  0  0  0  0
   17.7456  -10.8634   15.1080 C   0  0  0  0  0  0
   16.4564   -9.8170   17.3186 C   0  0  0  0  0  0
   17.6743   -8.1152   12.9503 N   0  0  2  0  0  0
   14.9450   -6.9365   15.7594 O   0  0  0  0  0  0
   16.3967   -5.9659   19.9320 O   0  0  0  0  0  0
   16.3898  -11.1817   17.0646 C   0  0  0  0  0  0
   17.0315  -11.7064   15.9520 C   0  0  0  0  0  0
   15.5124  -12.2133   18.1340 Cl  0  0  0  0  0  0
   16.3667   -4.0668    9.8428 C   0  0  0  0  0  0
   16.7032   -7.0585   13.1937 C   0  0  0  0  0  0
   15.3951   -5.2010   10.0640 C   0  0  0  0  0  0
   17.7413   -4.3131    9.7810 C   0  0  0  0  0  0
   15.8805   -2.7709    9.7810 C   0  0  0  0  0  0
   16.7066   -6.1479   11.9868 C   0  0  0  0  0  0
   15.3264   -5.6894   11.5173 C   0  0  0  0  0  0
   16.7718   -1.7166    9.7810 C   0  0  0  0  0  0
   18.6301   -3.2554    9.7812 C   0  0  0  0  0  0
   18.1435   -1.9581    9.7919 C   0  0  0  0  0  0
   14.4341   -6.1997   18.2000 H   0  0  0  0  0  0
   17.7177   -6.7901   16.2023 H   0  0  0  0  0  0
   18.1781   -7.5050   18.6633 H   0  0  0  0  0  0
   18.2336  -11.3021   14.2495 H   0  0  0  0  0  0
   15.9330   -9.4352   18.1831 H   0  0  0  0  0  0
   17.4326   -8.8267   12.2565 H   0  0  0  0  0  0
   16.9795  -12.7649   15.7409 H   0  0  0  0  0  0
   16.9375   -6.5068   14.1020 H   0  0  0  0  0  0
   15.7442   -7.5338   13.3477 H   0  0  0  0  0  0
   14.3960   -4.9149    9.7387 H   0  0  0  0  0  0
   15.7450   -6.0096    9.4262 H   0  0  0  0  0  0
   18.1355   -5.3149    9.7809 H   0  0  0  0  0  0
   14.8230   -2.5697    9.8348 H   0  0  0  0  0  0
   17.1750   -6.6676   11.1480 H   0  0  0  0  0  0
   17.3428   -5.2885   12.2026 H   0  0  0  0  0  0
   14.9385   -4.9152   12.1791 H   0  0  0  0  0  0
   14.6150   -6.5154   11.5665 H   0  0  0  0  0  0
   16.3633   -0.7297    9.8532 H   0  0  0  0  0  0
   19.6931   -3.4348    9.7872 H   0  0  0  0  0  0
   18.8410   -1.1335    9.8235 H   0  0  0  0  0  0
  1  7  1  0  0  0
  1  9  2  0  0  0
  1 10  2  0  0  0
  1 13  1  0  0  0
  2  4  1  0  0  0
  2  6  1  0  0  0
  2 29  1  0  0  0
  3  7  1  0  0  0
  3  5  1  0  0  0
  3 12  2  0  0  0
  4  5  1  0  0  0
  4 14  2  0  0  0
  5  8  1  0  0  0
  5 30  1  0  0  0
  6  8  1  0  0  0
  6 15  2  0  0  0
  7 11  2  0  0  0
  8 31  1  0  0  0
 11 17  1  0  0  0
 11 32  1  0  0  0
 12 16  1  0  0  0
 12 33  1  0  0  0
 13 20  1  0  0  0
 13 34  1  0  0  0
 16 17  2  0  0  0
 16 18  1  0  0  0
 17 35  1  0  0  0
 19 21  1  0  0  0
 19 22  2  0  0  0
 19 23  1  0  0  0
 20 24  1  0  0  0
 20 36  1  0  0  0
 20 37  1  0  0  0
 21 25  1  0  0  0
 21 38  1  0  0  0
 21 39  1  0  0  0
 22 27  1  0  0  0
 22 40  1  0  0  0
 23 26  2  0  0  0
 23 41  1  0  0  0
 24 25  1  0  0  0
 24 42  1  0  0  0
 24 43  1  0  0  0
 25 44  1  0  0  0
 25 45  1  0  0  0
 26 28  1  0  0  0
 26 46  1  0  0  0
 27 28  2  0  0  0
 27 47  1  0  0  0
 28 48  1  0  0  0
M  END
> <s_m_entry_id>
6511

> <s_m_entry_name>
dock_pv.346

> <s_m_Source_Path>
/home/csk/Desktop/cluster/DUD-E-result/aldr

> <s_m_Source_File>
dock_pv.maegz

> <i_m_Source_File_Index>
346

> <chembl_id>
CHEMBL19392

> <chembl_pref_name>
None

> <i_lp_mmshare_version>
53161

> <i_f3d_flags>
0

> <r_lp_tautomer_probability>
0.999999999781369

> <s_lp_Force_Field>
OPLS_2005

> <r_lp_Energy>
25.196296

> <b_lp_Chiralities_Consistent>
1

> <s_lp_Variant>
CHEMBL1900_lig9-2

> <s_i_glide_gridfile>
glide-grid_2hv5

> <i_i_glide_lignum>
14

> <i_i_glide_rotatable_bonds>
8

> <r_i_docking_score>
-8.15926802081485

> <r_i_glide_ligand_efficiency>
-0.291402429314816

> <r_i_glide_ligand_efficiency_sa>
-0.884869402252293

> <r_i_glide_ligand_efficiency_ln>
-1.88339862572298

> <r_i_glide_gscore>
-8.15926802081485

> <r_i_glide_lipo>
-4.03161542327875

> <r_i_glide_hbond>
-0.272150297087934

> <r_i_glide_metal>
0

> <r_i_glide_rewards>
-2.49574074189812

> <r_i_glide_evdw>
-38.1570434570312

> <r_i_glide_ecoul>
-1.53859043121338

> <r_i_glide_erotb>
0.778879178983518

> <r_i_glide_esite>
0

> <r_i_glide_emodel>
-51.0813209285733

> <r_i_glide_energy>
-39.6956338882446

> <r_i_glide_einternal>
9.46261787414551

> <i_i_glide_confnum>
33

> <i_i_glide_posenum>
249

> <r_i_glide_eff_state_penalty>
0

> <s_user_duplicate_titles>
CHEMBL1900_lig9

> <s_m_subgroup_title>
dock_pv

> <s_m_subgroupid>
dock_pv

> <b_m_subgroup_collapsed>
1

$$$$
CHEMBL1900_lig332
                    3D
 Schrodinger Suite 2021-1.
 37 39  0  0  1  0            999 V2000
   17.2769   -8.1080   15.8117 C   0  0  2  0  0  0
   17.7152   -9.4569   15.2285 C   0  0  0  0  0  0
   17.9593   -8.5005   12.9810 O   0  0  0  0  0  0
   18.0104   -9.5770   13.8558 C   0  0  0  0  0  0
   15.7936   -8.2680   16.2448 C   0  0  0  0  0  0
   17.4976   -6.9839   14.7674 C   0  0  0  0  0  0
   17.0815   -7.4261   13.3625 C   0  0  1  0  0  0
   15.1506   -7.1281   17.0277 C   0  0  0  0  0  0
   17.7450  -10.6234   16.0114 C   0  0  0  0  0  0
   18.3780  -10.8143   13.3156 C   0  0  0  0  0  0
   17.0296   -6.3199   12.3025 C   0  0  0  0  0  0
   15.4803   -5.9490   16.9810 O   0  0  0  0  0  0
   18.0083   -7.7658   16.9729 O   0  0  0  0  0  0
   18.0745  -11.8613   15.4634 C   0  0  0  0  0  0
   14.1450   -7.6123   17.7810 O   0  0  0  0  0  0
   18.4007  -11.9548   14.1149 C   0  0  0  0  0  0
   18.0970  -12.9628   16.2466 F   0  0  0  0  0  0
   18.1450   -5.5267   12.0358 C   0  0  0  0  0  0
   15.8421   -6.0914   11.5907 C   0  0  0  0  0  0
   15.7775   -5.0927   10.6230 C   0  0  0  0  0  0
   18.0851   -4.5313   11.0601 C   0  0  0  0  0  0
   16.9030   -4.3201   10.3567 C   0  0  0  0  0  0
   16.0399   -7.7150   13.4402 H   0  0  0  0  0  0
   15.1596   -8.4666   15.3812 H   0  0  0  0  0  0
   15.7034   -9.1560   16.8726 H   0  0  0  0  0  0
   18.5471   -6.6833   14.7498 H   0  0  0  0  0  0
   16.9264   -6.1150   15.0297 H   0  0  0  0  0  0
   17.5108  -10.5681   17.0640 H   0  0  0  0  0  0
   18.6263  -10.9150   12.2704 H   0  0  0  0  0  0
   17.7278   -6.8910   17.2546 H   0  0  0  0  0  0
   13.6173   -6.9149   18.1810 H   0  0  0  0  0  0
   18.6683  -12.9108   13.6900 H   0  0  0  0  0  0
   19.0624   -5.6901   12.5810 H   0  0  0  0  0  0
   14.9577   -6.6818   11.7810 H   0  0  0  0  0  0
   14.8583   -4.9150   10.0838 H   0  0  0  0  0  0
   18.9450   -3.9148   10.8547 H   0  0  0  0  0  0
   16.8528   -3.5440    9.6072 H   0  0  0  0  0  0
  1  2  1  0  0  0
  1  5  1  0  0  0
  1  6  1  0  0  0
  1 13  1  0  0  0
  2  4  2  0  0  0
  2  9  1  0  0  0
  3  7  1  0  0  0
  3  4  1  0  0  0
  4 10  1  0  0  0
  5  8  1  0  0  0
  5 24  1  0  0  0
  5 25  1  0  0  0
  6  7  1  0  0  0
  6 26  1  0  0  0
  6 27  1  0  0  0
  7 11  1  0  0  0
  7 23  1  0  0  0
  8 12  2  0  0  0
  8 15  1  0  0  0
  9 14  2  0  0  0
  9 28  1  0  0  0
 10 16  2  0  0  0
 10 29  1  0  0  0
 11 18  2  0  0  0
 11 19  1  0  0  0
 13 30  1  0  0  0
 14 16  1  0  0  0
 14 17  1  0  0  0
 15 31  1  0  0  0
 16 32  1  0  0  0
 18 21  1  0  0  0
 18 33  1  0  0  0
 19 20  2  0  0  0
 19 34  1  0  0  0
 20 22  1  0  0  0
 20 35  1  0  0  0
 21 22  2  0  0  0
 21 36  1  0  0  0
 22 37  1  0  0  0
M  END
> <s_m_entry_id>
6512

> <s_m_entry_name>
dock_pv.347

> <s_m_Source_Path>
/home/csk/Desktop/cluster/DUD-E-result/aldr

> <s_m_Source_File>
dock_pv.maegz

> <i_m_Source_File_Index>
347

> <chembl_id>
CHEMBL304797

> <chembl_pref_name>
None

> <i_lp_mmshare_version>
53161

> <i_f3d_flags>
0

> <r_lp_tautomer_probability>
1

> <s_lp_Force_Field>
OPLS_2005

> <r_lp_Energy>
21.555355

> <b_lp_Chiralities_Consistent>
1

> <s_lp_Variant>
CHEMBL1900_lig332-1

> <s_i_glide_gridfile>
glide-grid_2hv5

> <i_i_glide_lignum>
452

> <i_i_glide_rotatable_bonds>
5

> <r_i_docking_score>
-8.15917137903884

> <r_i_glide_ligand_efficiency>
-0.370871426319947

> <r_i_glide_ligand_efficiency_sa>
-1.03919632209402

> <r_i_glide_ligand_efficiency_ln>
-1.99439909804432

> <r_i_glide_gscore>
-8.15917137903884

> <r_i_glide_lipo>
-3.85649413969597

> <r_i_glide_hbond>
-0.265370353734255

> <r_i_glide_metal>
0

> <r_i_glide_rewards>
-2.65441539734803

> <r_i_glide_evdw>
-32.0977897644043

> <r_i_glide_ecoul>
-2.54918193817139

> <r_i_glide_erotb>
0.604375290685344

> <r_i_glide_esite>
0

> <r_i_glide_emodel>
-47.0334659310355

> <r_i_glide_energy>
-34.6469717025757

> <r_i_glide_einternal>
2.50692391395569

> <i_i_glide_confnum>
18

> <i_i_glide_posenum>
293

> <r_i_glide_eff_state_penalty>
0

> <s_user_duplicate_titles>
CHEMBL1900_lig332

> <s_m_subgroup_title>
dock_pv

> <s_m_subgroupid>
dock_pv

> <b_m_subgroup_collapsed>
1

$$$$
CHEMBL1900_lig609
                    3D
 Schrodinger Suite 2021-1.
 44 46  0  0  1  0            999 V2000
   16.3596   -7.7774   16.1641 C   0  0  0  0  0  0
   16.0339   -8.7098   17.2400 C   0  0  0  0  0  0
   15.9253   -8.2458   18.5074 C   0  0  0  0  0  0
   16.1450   -6.8564   18.8717 C   0  0  0  0  0  0
   16.1449   -6.4218   20.1871 C   0  0  0  0  0  0
   16.3222   -5.0793   20.4932 C   0  0  0  0  0  0
   16.4762   -4.1720   19.4587 C   0  0  0  0  0  0
   16.5451   -4.6036   18.1395 C   0  0  0  0  0  0
   16.3930   -5.9621   17.8421 C   0  0  0  0  0  0
   16.4659   -6.4352   16.5411 O   0  0  0  0  0  0
   15.9137  -10.1455   17.0196 C   0  0  0  0  0  0
   16.7248  -10.7859   16.3479 O   0  0  0  0  0  0
   14.8735  -10.7351   17.6422 N   0  0  0  0  0  0
   14.6082  -12.1732   17.7021 C   0  0  0  0  0  0
   14.2280  -12.8277   16.3583 C   0  0  0  0  0  0
   16.5429   -8.1013   14.9412 N   0  0  0  0  0  0
   17.0307   -7.1953   13.9951 C   0  0  0  0  0  0
   18.2885   -6.6063   14.1458 C   0  0  0  0  0  0
   18.7682   -5.7168   13.1993 C   0  0  0  0  0  0
   18.0158   -5.4022   12.0666 C   0  0  0  0  0  0
   16.7772   -6.0249   11.8824 C   0  0  0  0  0  0
   16.3003   -6.9150   12.8375 C   0  0  0  0  0  0
   18.5446   -4.4820   11.1828 O   0  0  0  0  0  0
   16.5009   -2.8496   19.7442 O   0  0  0  0  0  0
   17.7811   -4.0820   10.0517 C   0  0  0  0  0  0
   13.3445  -13.9105   16.5860 O   0  0  0  0  0  0
   15.7130   -8.9264   19.3207 H   0  0  0  0  0  0
   15.9763   -7.1269   20.9810 H   0  0  0  0  0  0
   16.2893   -4.7507   21.5221 H   0  0  0  0  0  0
   16.7055   -3.8614   17.3809 H   0  0  0  0  0  0
   14.2276  -10.1373   18.1366 H   0  0  0  0  0  0
   15.4729  -12.6909   18.1234 H   0  0  0  0  0  0
   13.8118  -12.3189   18.4328 H   0  0  0  0  0  0
   13.7450  -12.1148   15.6913 H   0  0  0  0  0  0
   15.1193  -13.1884   15.8435 H   0  0  0  0  0  0
   18.8924   -6.8281   15.0134 H   0  0  0  0  0  0
   19.7385   -5.2851   13.3796 H   0  0  0  0  0  0
   16.1656   -5.8286   11.0181 H   0  0  0  0  0  0
   15.3468   -7.3746   12.6534 H   0  0  0  0  0  0
   16.4895   -2.6581   20.6856 H   0  0  0  0  0  0
   18.3389   -3.3341    9.4876 H   0  0  0  0  0  0
   17.5906   -4.9197    9.3818 H   0  0  0  0  0  0
   16.8308   -3.6348   10.3475 H   0  0  0  0  0  0
   12.5666  -13.5653   17.0389 H   0  0  0  0  0  0
  1  2  1  0  0  0
  1 10  1  0  0  0
  1 16  2  0  0  0
  2  3  2  0  0  0
  2 11  1  0  0  0
  3  4  1  0  0  0
  3 27  1  0  0  0
  4  5  1  0  0  0
  4  9  2  0  0  0
  5  6  2  0  0  0
  5 28  1  0  0  0
  6  7  1  0  0  0
  6 29  1  0  0  0
  7  8  2  0  0  0
  7 24  1  0  0  0
  8  9  1  0  0  0
  8 30  1  0  0  0
  9 10  1  0  0  0
 11 12  2  0  0  0
 11 13  1  0  0  0
 13 14  1  0  0  0
 13 31  1  0  0  0
 14 15  1  0  0  0
 14 32  1  0  0  0
 14 33  1  0  0  0
 15 26  1  0  0  0
 15 34  1  0  0  0
 15 35  1  0  0  0
 16 17  1  0  0  0
 17 18  1  0  0  0
 17 22  2  0  0  0
 18 19  2  0  0  0
 18 36  1  0  0  0
 19 20  1  0  0  0
 19 37  1  0  0  0
 20 21  2  0  0  0
 20 23  1  0  0  0
 21 22  1  0  0  0
 21 38  1  0  0  0
 22 39  1  0  0  0
 23 25  1  0  0  0
 24 40  1  0  0  0
 25 41  1  0  0  0
 25 42  1  0  0  0
 25 43  1  0  0  0
 26 44  1  0  0  0
M  END
> <s_m_entry_id>
6513

> <s_m_entry_name>
dock_pv.348

> <s_m_Source_Path>
/home/csk/Desktop/cluster/DUD-E-result/aldr

> <s_m_Source_File>
dock_pv.maegz

> <i_m_Source_File_Index>
348

> <chembl_id>
CHEMBL2440415

> <chembl_pref_name>
None

> <i_lp_mmshare_version>
53161

> <i_f3d_flags>
0

> <r_lp_tautomer_probability>
1

> <s_lp_Force_Field>
OPLS_2005

> <r_lp_Energy>
42.75005

> <b_lp_Chiralities_Consistent>
1

> <s_lp_Variant>
CHEMBL1900_lig609-1

> <s_i_glide_gridfile>
glide-grid_2hv5

> <i_i_glide_lignum>
733

> <i_i_glide_rotatable_bonds>
8

> <r_i_docking_score>
-8.15389684648926

> <r_i_glide_ligand_efficiency>
-0.313611417172664

> <r_i_glide_ligand_efficiency_sa>
-0.929072589372678

> <r_i_glide_ligand_efficiency_ln>
-1.9149159192802

> <r_i_glide_gscore>
-8.15389684648926

> <r_i_glide_lipo>
-4.39587313754144

> <r_i_glide_hbond>
-0.232116971598638

> <r_i_glide_metal>
0

> <r_i_glide_rewards>
-2.16903361898373

> <r_i_glide_evdw>
-32.8863410949707

> <r_i_glide_ecoul>
-3.15603613853455

> <r_i_glide_erotb>
0.760849357163261

> <r_i_glide_esite>
0

> <r_i_glide_emodel>
-45.8797676619886

> <r_i_glide_energy>
-36.0423772335052

> <r_i_glide_einternal>
5.46056938171387

> <i_i_glide_confnum>
11

> <i_i_glide_posenum>
136

> <r_i_glide_eff_state_penalty>
0

> <s_user_duplicate_titles>
CHEMBL1900_lig609

> <s_m_subgroup_title>
dock_pv

> <s_m_subgroupid>
dock_pv

> <b_m_subgroup_collapsed>
1

$$$$
CHEMBL1900_lig645
                    3D
 Schrodinger Suite 2021-1.
 36 37  0  0  1  0            999 V2000
   15.6243  -10.5130   16.5042 C   0  0  0  0  0  0
   15.2970  -10.0834   17.7808 C   0  0  0  0  0  0
   15.6020   -8.7835   18.1802 C   0  0  0  0  0  0
   16.2288   -7.8770   17.3017 C   0  0  0  0  0  0
   16.5539   -8.3210   16.0060 C   0  0  0  0  0  0
   16.2618   -9.6412   15.6317 C   0  0  0  0  0  0
   17.2882   -7.4447   15.0252 C   0  0  0  0  0  0
   16.7530   -7.4114   13.7964 N   0  0  0  0  0  0
   18.3559   -6.9151   15.3218 O   0  0  0  0  0  0
   17.5142   -7.2267   12.5654 C   0  0  0  0  0  0
   17.1343   -6.0009   11.7510 C   0  0  0  0  0  0
   16.5093   -6.5596   17.6347 O   0  0  0  0  0  0
   16.5917   -6.1748   19.0081 C   0  0  0  0  0  0
   16.6448   -4.6457   19.1237 C   0  0  0  0  0  0
   16.5448   -3.8656   18.1810 O   0  0  0  0  0  0
   16.7988   -4.2551   20.4186 O   0  0  0  0  0  0
   14.5450  -11.1832   18.8801 Cl  0  0  0  0  0  0
   18.1450   -5.1175   11.3797 C   0  0  0  0  0  0
   17.8593   -4.0067   10.6000 C   0  0  0  0  0  0
   16.5438   -3.7571   10.2317 C   0  0  0  0  0  0
   15.5210   -4.6375   10.5800 C   0  0  0  0  0  0
   15.8163   -5.7663   11.3418 C   0  0  0  0  0  0
   16.1455   -2.1150    9.3802 Br  0  0  0  0  0  0
   15.4085  -11.5266   16.1963 H   0  0  0  0  0  0
   15.3474   -8.5150   19.1894 H   0  0  0  0  0  0
   16.5467  -10.0123   14.6582 H   0  0  0  0  0  0
   15.7839   -7.6694   13.6970 H   0  0  0  0  0  0
   18.5865   -7.2174   12.7723 H   0  0  0  0  0  0
   17.3493   -8.1061   11.9437 H   0  0  0  0  0  0
   15.7301   -6.4998   19.5844 H   0  0  0  0  0  0
   17.4998   -6.5968   19.4329 H   0  0  0  0  0  0
   16.8510   -3.2975   20.4744 H   0  0  0  0  0  0
   19.1553   -5.2953   11.7072 H   0  0  0  0  0  0
   18.6390   -3.3087   10.3362 H   0  0  0  0  0  0
   14.5006   -4.4227   10.2921 H   0  0  0  0  0  0
   15.0224   -6.4453   11.6180 H   0  0  0  0  0  0
  1  2  2  0  0  0
  1  6  1  0  0  0
  1 24  1  0  0  0
  2  3  1  0  0  0
  2 17  1  0  0  0
  3  4  2  0  0  0
  3 25  1  0  0  0
  4  5  1  0  0  0
  4 12  1  0  0  0
  5  6  2  0  0  0
  5  7  1  0  0  0
  6 26  1  0  0  0
  7  8  1  0  0  0
  7  9  2  0  0  0
  8 10  1  0  0  0
  8 27  1  0  0  0
 10 11  1  0  0  0
 10 28  1  0  0  0
 10 29  1  0  0  0
 11 18  2  0  0  0
 11 22  1  0  0  0
 12 13  1  0  0  0
 13 14  1  0  0  0
 13 30  1  0  0  0
 13 31  1  0  0  0
 14 15  2  0  0  0
 14 16  1  0  0  0
 16 32  1  0  0  0
 18 19  1  0  0  0
 18 33  1  0  0  0
 19 20  2  0  0  0
 19 34  1  0  0  0
 20 21  1  0  0  0
 20 23  1  0  0  0
 21 22  2  0  0  0
 21 35  1  0  0  0
 22 36  1  0  0  0
M  END
> <s_m_entry_id>
6514

> <s_m_entry_name>
dock_pv.349

> <s_m_Source_Path>
/home/csk/Desktop/cluster/DUD-E-result/aldr

> <s_m_Source_File>
dock_pv.maegz

> <i_m_Source_File_Index>
349

> <chembl_id>
CHEMBL4128992

> <chembl_pref_name>
None

> <i_lp_mmshare_version>
53161

> <i_f3d_flags>
0

> <r_lp_tautomer_probability>
1

> <s_lp_Force_Field>
OPLS_2005

> <r_lp_Energy>
18.097027

> <b_lp_Chiralities_Consistent>
1

> <s_lp_Variant>
CHEMBL1900_lig645-1

> <s_i_glide_gridfile>
glide-grid_2hv5

> <i_i_glide_lignum>
771

> <i_i_glide_rotatable_bonds>
8

> <r_i_docking_score>
-8.14935122671127

> <r_i_glide_ligand_efficiency>
-0.354319618552664

> <r_i_glide_ligand_efficiency_sa>
-1.00763786246238

> <r_i_glide_ligand_efficiency_ln>
-1.97058702085025

> <r_i_glide_gscore>
-8.14935122671127

> <r_i_glide_lipo>
-4.43895953871225

> <r_i_glide_hbond>
0

> <r_i_glide_metal>
0

> <r_i_glide_rewards>
-2.18671327484165

> <r_i_glide_evdw>
-47.7596702575684

> <r_i_glide_ecoul>
0.831805288791656

> <r_i_glide_erotb>
0.739534306402294

> <r_i_glide_esite>
0

> <r_i_glide_emodel>
-65.2937846098125

> <r_i_glide_energy>
-46.9278649687767

> <r_i_glide_einternal>
8.37575054168701

> <i_i_glide_confnum>
5

> <i_i_glide_posenum>
232

> <r_i_glide_eff_state_penalty>
0

> <s_user_duplicate_titles>
CHEMBL1900_lig645

> <s_m_subgroup_title>
dock_pv

> <s_m_subgroupid>
dock_pv

> <b_m_subgroup_collapsed>
1

$$$$
CHEMBL1900_lig348
                    3D
 Schrodinger Suite 2021-1.
 36 37  0  0  1  0            999 V2000
   15.4455   -8.1630   17.2969 C   0  0  2  0  0  0
   16.4142   -8.5336   16.1740 C   0  0  0  0  0  0
   16.6738   -9.8821   15.8661 C   0  0  0  0  0  0
   16.2551   -7.6904   18.5631 C   0  0  0  0  0  0
   15.9595  -10.9416   16.3773 O   0  0  0  0  0  0
   17.1164   -7.5624   15.4551 C   0  0  0  0  0  0
   14.5743   -9.3932   17.6470 C   0  0  0  0  0  0
   17.6538  -10.2376   14.9520 C   0  0  0  0  0  0
   18.1142   -7.9063   14.5501 C   0  0  0  0  0  0
   16.2854   -6.1898   18.8899 C   0  0  0  0  0  0
   18.4147   -9.2569   14.3107 C   0  0  0  0  0  0
   15.3531  -10.7161   17.6385 C   0  0  1  0  0  0
   15.7450   -5.7115   19.8789 O   0  0  0  0  0  0
   14.5448   -7.1537   16.8801 O   0  0  0  0  0  0
   18.9630   -6.6187   13.7764 Cl  0  0  0  0  0  0
   16.9450   -5.4685   17.9513 O   0  0  0  0  0  0
   19.5592   -9.6436   13.3810 C   0  0  0  0  0  0
   14.5041  -11.9325   18.0203 C   0  0  0  0  0  0
   19.8051  -11.1569   13.1784 C   0  0  0  0  0  0
   16.1450  -10.6473   18.3701 H   0  0  0  0  0  0
   17.2856   -8.0427   18.5201 H   0  0  0  0  0  0
   15.8642   -8.1696   19.4596 H   0  0  0  0  0  0
   16.8976   -6.5173   15.6090 H   0  0  0  0  0  0
   14.1450   -9.2605   18.6329 H   0  0  0  0  0  0
   13.7450   -9.4974   16.9464 H   0  0  0  0  0  0
   17.8087  -11.2884   14.7639 H   0  0  0  0  0  0
   13.8673   -7.0524   17.5557 H   0  0  0  0  0  0
   17.3793   -6.0355   17.3142 H   0  0  0  0  0  0
   19.3450   -9.1769   12.4239 H   0  0  0  0  0  0
   20.4724   -9.1775   13.7559 H   0  0  0  0  0  0
   13.9980  -11.7828   18.9744 H   0  0  0  0  0  0
   13.7457  -12.1389   17.2670 H   0  0  0  0  0  0
   15.1225  -12.8264   18.1108 H   0  0  0  0  0  0
   20.6977  -11.3298   12.5812 H   0  0  0  0  0  0
   19.9648  -11.6824   14.1204 H   0  0  0  0  0  0
   18.9678  -11.6306   12.6644 H   0  0  0  0  0  0
  1  2  1  0  0  0
  1  4  1  0  0  0
  1  7  1  0  0  0
  1 14  1  0  0  0
  2  3  2  0  0  0
  2  6  1  0  0  0
  3  8  1  0  0  0
  3  5  1  0  0  0
  4 10  1  0  0  0
  4 21  1  0  0  0
  4 22  1  0  0  0
  5 12  1  0  0  0
  6  9  2  0  0  0
  6 23  1  0  0  0
  7 12  1  0  0  0
  7 24  1  0  0  0
  7 25  1  0  0  0
  8 11  2  0  0  0
  8 26  1  0  0  0
  9 11  1  0  0  0
  9 15  1  0  0  0
 10 13  2  0  0  0
 10 16  1  0  0  0
 11 17  1  0  0  0
 12 18  1  0  0  0
 12 20  1  0  0  0
 14 27  1  0  0  0
 16 28  1  0  0  0
 17 19  1  0  0  0
 17 29  1  0  0  0
 17 30  1  0  0  0
 18 31  1  0  0  0
 18 32  1  0  0  0
 18 33  1  0  0  0
 19 34  1  0  0  0
 19 35  1  0  0  0
 19 36  1  0  0  0
M  END
> <s_m_entry_id>
6515

> <s_m_entry_name>
dock_pv.350

> <s_m_Source_Path>
/home/csk/Desktop/cluster/DUD-E-result/aldr

> <s_m_Source_File>
dock_pv.maegz

> <i_m_Source_File_Index>
350

> <chembl_id>
CHEMBL305985

> <chembl_pref_name>
None

> <i_lp_mmshare_version>
53161

> <i_f3d_flags>
0

> <r_lp_tautomer_probability>
1

> <s_lp_Force_Field>
OPLS_2005

> <r_lp_Energy>
11.68075

> <b_lp_Chiralities_Consistent>
1

> <s_lp_Variant>
CHEMBL1900_lig348-1

> <s_i_glide_gridfile>
glide-grid_2hv5

> <i_i_glide_lignum>
469

> <i_i_glide_rotatable_bonds>
5

> <r_i_docking_score>
-8.14222776211752

> <r_i_glide_ligand_efficiency>
-0.428538303269343

> <r_i_glide_ligand_efficiency_sa>
-1.14351231386209

> <r_i_glide_ligand_efficiency_ln>
-2.06422961671426

> <r_i_glide_gscore>
-8.14222776211752

> <r_i_glide_lipo>
-3.16507135541615

> <r_i_glide_hbond>
-0.32

> <r_i_glide_metal>
0

> <r_i_glide_rewards>
-2.74998987025724

> <r_i_glide_evdw>
-29.0217456817627

> <r_i_glide_ecoul>
-6.02249002456665

> <r_i_glide_erotb>
0.447294251329006

> <r_i_glide_esite>
0

> <r_i_glide_emodel>
-43.9557553392372

> <r_i_glide_energy>
-35.0442357063293

> <r_i_glide_einternal>
10.8049545288086

> <i_i_glide_confnum>
2

> <i_i_glide_posenum>
340

> <r_i_glide_eff_state_penalty>
0

> <s_user_duplicate_titles>
CHEMBL1900_lig348,108784

> <s_m_subgroup_title>
dock_pv

> <s_m_subgroupid>
dock_pv

> <b_m_subgroup_collapsed>
1

$$$$
CHEMBL1900_lig226
                    3D
 Schrodinger Suite 2021-1.
 30 32  0  0  1  0            999 V2000
   17.0373   -6.5194   12.9474 C   0  0  0  0  0  0
   18.3489   -6.3048   13.1291 N   0  0  0  0  0  0
   18.8740   -6.9158   14.1979 C   0  0  0  0  0  0
   17.7212   -7.6634   14.8765 C   0  0  1  0  0  0
   17.8548   -9.1978   14.8561 C   0  0  0  0  0  0
   18.4160   -9.9051   13.7809 C   0  0  0  0  0  0
   18.4498  -11.2975   13.7531 C   0  0  0  0  0  0
   18.9983  -11.9397   12.6980 F   0  0  0  0  0  0
   17.9182  -12.0248   14.8129 C   0  0  0  0  0  0
   17.3728  -11.3551   15.9054 C   0  0  0  0  0  0
   17.3445   -9.9600   15.9312 C   0  0  0  0  0  0
   16.8299   -9.4268   17.1003 O   0  0  0  0  0  0
   16.5781   -8.0111   17.1484 C   0  0  2  0  0  0
   15.1104   -7.7151   16.7556 C   0  0  0  0  0  0
   14.2743   -8.7368   16.5810 N   0  0  0  0  0  0
   14.7363   -6.5571   16.5811 O   0  0  0  0  0  0
   17.5972   -7.1741   16.3435 C   0  0  0  0  0  0
   16.6504   -7.2083   14.0238 N   0  0  0  0  0  0
   20.0371   -6.8400   14.5810 O   0  0  0  0  0  0
   16.3705   -6.2442   11.9567 O   0  0  0  0  0  0
   18.8916   -5.7234   12.5124 H   0  0  0  0  0  0
   18.8415   -9.3633   12.9544 H   0  0  0  0  0  0
   17.9426  -13.1041   14.7904 H   0  0  0  0  0  0
   16.9792  -11.9191   16.7378 H   0  0  0  0  0  0
   16.6001   -7.7107   18.1969 H   0  0  0  0  0  0
   13.3171   -8.5607   16.3142 H   0  0  0  0  0  0
   14.6031   -9.6819   16.7112 H   0  0  0  0  0  0
   17.3564   -6.1150   16.4058 H   0  0  0  0  0  0
   18.5450   -7.3104   16.8641 H   0  0  0  0  0  0
   15.7012   -7.1735   14.3636 H   0  0  0  0  0  0
  1  2  1  0  0  0
  1 18  1  0  0  0
  1 20  2  0  0  0
  2  3  1  0  0  0
  2 21  1  0  0  0
  3  4  1  0  0  0
  3 19  2  0  0  0
  4  5  1  0  0  0
  4 17  1  0  0  0
  4 18  1  0  0  0
  5  6  2  0  0  0
  5 11  1  0  0  0
  6  7  1  0  0  0
  6 22  1  0  0  0
  7  8  1  0  0  0
  7  9  2  0  0  0
  9 10  1  0  0  0
  9 23  1  0  0  0
 10 11  2  0  0  0
 10 24  1  0  0  0
 11 12  1  0  0  0
 12 13  1  0  0  0
 13 14  1  0  0  0
 13 17  1  0  0  0
 13 25  1  0  0  0
 14 15  1  0  0  0
 14 16  2  0  0  0
 15 26  1  0  0  0
 15 27  1  0  0  0
 17 28  1  0  0  0
 17 29  1  0  0  0
 18 30  1  0  0  0
M  END
> <s_m_entry_id>
6516

> <s_m_entry_name>
dock_pv.351

> <s_m_Source_Path>
/home/csk/Desktop/cluster/DUD-E-result/aldr

> <s_m_Source_File>
dock_pv.maegz

> <i_m_Source_File_Index>
351

> <chembl_id>
CHEMBL84446

> <chembl_pref_name>
FIDARESTAT

> <i_lp_mmshare_version>
53161

> <i_f3d_flags>
0

> <r_lp_tautomer_probability>
0.99999999978137

> <s_lp_Force_Field>
OPLS_2005

> <r_lp_Energy>
20.918934

> <b_lp_Chiralities_Consistent>
1

> <s_lp_Variant>
CHEMBL1900_lig226-1

> <s_i_glide_gridfile>
glide-grid_2hv5

> <i_i_glide_lignum>
302

> <i_i_glide_rotatable_bonds>
1

> <r_i_docking_score>
-8.1406925332232

> <r_i_glide_ligand_efficiency>
-0.40703462666116

> <r_i_glide_ligand_efficiency_sa>
-1.10486196006989

> <r_i_glide_ligand_efficiency_ln>
-2.03734684305625

> <r_i_glide_gscore>
-8.1406925332232

> <r_i_glide_lipo>
-1.81343090116815

> <r_i_glide_hbond>
-0.32

> <r_i_glide_metal>
0

> <r_i_glide_rewards>
-3.89778332528472

> <r_i_glide_evdw>
-35.2802543640137

> <r_i_glide_ecoul>
-2.30310392379761

> <r_i_glide_erotb>
0

> <r_i_glide_esite>
0

> <r_i_glide_emodel>
-51.1137663335727

> <r_i_glide_energy>
-37.5833582878113

> <r_i_glide_einternal>
0.462469607591629

> <i_i_glide_confnum>
2

> <i_i_glide_posenum>
60

> <r_i_glide_eff_state_penalty>
0

> <s_user_duplicate_titles>
CHEMBL1900_lig226,132450

> <s_m_subgroup_title>
dock_pv

> <s_m_subgroupid>
dock_pv

> <b_m_subgroup_collapsed>
1

$$$$
CHEMBL1900_lig333
                    3D
 Schrodinger Suite 2021-1.
 37 38  0  0  1  0            999 V2000
   17.2887   -8.4115   15.3417 C   0  0  0  0  0  0
   16.4455   -7.5928   16.3686 C   0  0  2  0  0  0
   17.2187   -9.7739   15.3982 C   0  0  0  0  0  0
   18.2060   -7.7569   14.2224 C   0  0  2  0  0  0
   17.3560   -7.1613   13.0909 N   0  3  0  0  0  0
   16.5641  -10.5309   16.3157 O   0  0  0  0  0  0
   17.3183   -7.0354   17.5398 C   0  0  0  0  0  0
   15.3049   -8.4934   16.9093 C   0  0  0  0  0  0
   16.6336   -6.0278   18.4831 C   0  0  0  0  0  0
   17.8713  -10.6480   14.4545 C   0  0  0  0  0  0
   16.1452   -7.3150   13.0924 O   0  5  0  0  0  0
   17.9065   -6.5147   12.2000 O   0  0  0  0  0  0
   15.8475   -9.8637   17.3440 C   0  0  1  0  0  0
   18.7943  -10.2157   13.5970 C   0  0  0  0  0  0
   16.5454   -4.8302   18.2261 O   0  0  0  0  0  0
   15.7982   -6.5157   15.7362 O   0  0  0  0  0  0
   19.2373   -8.7724   13.5897 C   0  0  0  0  0  0
   16.1454   -6.6132   19.6105 O   0  0  0  0  0  0
   19.0282   -6.5481   14.7203 C   0  0  0  0  0  0
   14.7647  -10.8280   17.8157 C   0  0  0  0  0  0
   16.5288   -9.7180   18.1806 H   0  0  0  0  0  0
   18.1818   -6.5150   17.1520 H   0  0  0  0  0  0
   17.7477   -7.8452   18.1250 H   0  0  0  0  0  0
   14.5500   -8.6574   16.1365 H   0  0  0  0  0  0
   14.7637   -8.0149   17.7259 H   0  0  0  0  0  0
   17.5801  -11.6876   14.4223 H   0  0  0  0  0  0
   19.2481  -10.9221   12.9145 H   0  0  0  0  0  0
   16.4475   -6.0223   15.2307 H   0  0  0  0  0  0
   19.5014   -8.5068   12.5810 H   0  0  0  0  0  0
   20.1818   -8.7441   14.1331 H   0  0  0  0  0  0
   16.3760   -7.5429   19.6610 H   0  0  0  0  0  0
   19.6757   -6.8375   15.5446 H   0  0  0  0  0  0
   19.6940   -6.1572   13.9485 H   0  0  0  0  0  0
   18.4116   -5.7152   15.0424 H   0  0  0  0  0  0
   14.1407  -10.3744   18.5811 H   0  0  0  0  0  0
   14.1449  -11.1344   16.9771 H   0  0  0  0  0  0
   15.2024  -11.7316   18.2400 H   0  0  0  0  0  0
  1  2  1  0  0  0
  1  3  2  0  0  0
  1  4  1  0  0  0
  2  7  1  0  0  0
  2  8  1  0  0  0
  2 16  1  0  0  0
  3  6  1  0  0  0
  3 10  1  0  0  0
  4  5  1  0  0  0
  4 17  1  0  0  0
  4 19  1  0  0  0
  5 11  1  0  0  0
  5 12  2  0  0  0
  6 13  1  0  0  0
  7  9  1  0  0  0
  7 22  1  0  0  0
  7 23  1  0  0  0
  8 13  1  0  0  0
  8 24  1  0  0  0
  8 25  1  0  0  0
  9 15  2  0  0  0
  9 18  1  0  0  0
 10 14  2  0  0  0
 10 26  1  0  0  0
 13 20  1  0  0  0
 13 21  1  0  0  0
 14 17  1  0  0  0
 14 27  1  0  0  0
 16 28  1  0  0  0
 17 29  1  0  0  0
 17 30  1  0  0  0
 18 31  1  0  0  0
 19 32  1  0  0  0
 19 33  1  0  0  0
 19 34  1  0  0  0
 20 35  1  0  0  0
 20 36  1  0  0  0
 20 37  1  0  0  0
M  CHG  2   5   1  11  -1
M  END
> <s_m_entry_id>
6517

> <s_m_entry_name>
dock_pv.352

> <s_m_Source_Path>
/home/csk/Desktop/cluster/DUD-E-result/aldr

> <s_m_Source_File>
dock_pv.maegz

> <i_m_Source_File_Index>
352

> <chembl_id>
CHEMBL308882

> <chembl_pref_name>
None

> <i_lp_mmshare_version>
53161

> <i_f3d_flags>
0

> <r_lp_tautomer_probability>
1

> <s_lp_Force_Field>
OPLS_2005

> <r_lp_Energy>
20.423996

> <b_lp_Chiralities_Consistent>
1

> <s_lp_Variant>
CHEMBL1900_lig333-1

> <s_i_glide_gridfile>
glide-grid_2hv5

> <i_i_glide_lignum>
453

> <i_i_glide_rotatable_bonds>
5

> <r_i_docking_score>
-8.13483255289544

> <r_i_glide_ligand_efficiency>
-0.406741627644772

> <r_i_glide_ligand_efficiency_sa>
-1.10406663837896

> <r_i_glide_ligand_efficiency_ln>
-2.0358802832553

> <r_i_glide_gscore>
-8.13483255289544

> <r_i_glide_lipo>
-3.20705502316456

> <r_i_glide_hbond>
0

> <r_i_glide_metal>
0

> <r_i_glide_rewards>
-2.94695041048939

> <r_i_glide_evdw>
-30.9465274810791

> <r_i_glide_ecoul>
-5.89871454238892

> <r_i_glide_erotb>
0.451306436170795

> <r_i_glide_esite>
0

> <r_i_glide_emodel>
-47.2114761179589

> <r_i_glide_energy>
-36.845242023468

> <r_i_glide_einternal>
8.25805187225342

> <i_i_glide_confnum>
7

> <i_i_glide_posenum>
289

> <r_i_glide_eff_state_penalty>
0

> <s_user_duplicate_titles>
CHEMBL1900_lig333

> <s_m_subgroup_title>
dock_pv

> <s_m_subgroupid>
dock_pv

> <b_m_subgroup_collapsed>
1

$$$$
CHEMBL1900_lig646
                    3D
 Schrodinger Suite 2021-1.
 36 37  0  0  1  0            999 V2000
   17.6834   -6.9903   12.4360 C   0  0  0  0  0  0
   16.9454   -7.3150   13.6573 N   0  0  0  0  0  0
   17.4812   -7.3896   14.8893 C   0  0  0  0  0  0
   18.5690   -6.9075   15.1918 O   0  0  0  0  0  0
   17.1738   -5.7923   11.6404 C   0  0  0  0  0  0
   15.8184   -5.6247   11.3238 C   0  0  0  0  0  0
   14.8985   -6.5148   11.7494 F   0  0  0  0  0  0
   15.3994   -4.5174   10.5844 C   0  0  0  0  0  0
   16.3287   -3.5616   10.1804 C   0  0  0  0  0  0
   15.7462   -1.9426    9.3812 Br  0  0  0  0  0  0
   17.6812   -3.7381   10.4529 C   0  0  0  0  0  0
   18.0953   -4.8461   11.1852 C   0  0  0  0  0  0
   16.7226   -8.2478   15.8640 C   0  0  0  0  0  0
   16.4810   -9.5833   15.5096 C   0  0  0  0  0  0
   15.7953  -10.4405   16.3599 C   0  0  0  0  0  0
   15.3748   -9.9831   17.5993 C   0  0  0  0  0  0
   14.5450  -11.0549   18.6650 Cl  0  0  0  0  0  0
   15.6505   -8.6738   17.9876 C   0  0  0  0  0  0
   16.3168   -7.7757   17.1305 C   0  0  0  0  0  0
   16.5633   -6.4527   17.4778 O   0  0  0  0  0  0
   16.3633   -6.0439   18.8385 C   0  0  0  0  0  0
   16.5451   -4.5285   18.9926 C   0  0  0  0  0  0
   16.5514   -3.7243   18.0664 O   0  0  0  0  0  0
   16.6563   -4.1767   20.3027 O   0  0  0  0  0  0
   18.7486   -6.8633   12.6434 H   0  0  0  0  0  0
   17.6277   -7.8634   11.7859 H   0  0  0  0  0  0
   15.9789   -7.5789   13.5388 H   0  0  0  0  0  0
   14.3492   -4.3741   10.3766 H   0  0  0  0  0  0
   18.3968   -2.9912   10.1434 H   0  0  0  0  0  0
   19.1384   -4.9567   11.4186 H   0  0  0  0  0  0
   16.8375   -9.9778   14.5697 H   0  0  0  0  0  0
   15.6075  -11.4628   16.0649 H   0  0  0  0  0  0
   15.3450   -8.3889   18.9792 H   0  0  0  0  0  0
   15.3441   -6.2542   19.1629 H   0  0  0  0  0  0
   17.0734   -6.5647   19.4843 H   0  0  0  0  0  0
   16.7822   -3.2270   20.3818 H   0  0  0  0  0  0
  1  5  1  0  0  0
  1  2  1  0  0  0
  1 25  1  0  0  0
  1 26  1  0  0  0
  2  3  1  0  0  0
  2 27  1  0  0  0
  3  4  2  0  0  0
  3 13  1  0  0  0
  5  6  2  0  0  0
  5 12  1  0  0  0
  6  8  1  0  0  0
  6  7  1  0  0  0
  8  9  2  0  0  0
  8 28  1  0  0  0
  9 10  1  0  0  0
  9 11  1  0  0  0
 11 12  2  0  0  0
 11 29  1  0  0  0
 12 30  1  0  0  0
 13 14  2  0  0  0
 13 19  1  0  0  0
 14 15  1  0  0  0
 14 31  1  0  0  0
 15 16  2  0  0  0
 15 32  1  0  0  0
 16 18  1  0  0  0
 16 17  1  0  0  0
 18 19  2  0  0  0
 18 33  1  0  0  0
 19 20  1  0  0  0
 20 21  1  0  0  0
 21 22  1  0  0  0
 21 34  1  0  0  0
 21 35  1  0  0  0
 22 23  2  0  0  0
 22 24  1  0  0  0
 24 36  1  0  0  0
M  END
> <s_m_entry_id>
6518

> <s_m_entry_name>
dock_pv.353

> <s_m_Source_Path>
/home/csk/Desktop/cluster/DUD-E-result/aldr

> <s_m_Source_File>
dock_pv.maegz

> <i_m_Source_File_Index>
353

> <chembl_id>
CHEMBL1230062

> <chembl_pref_name>
None

> <i_lp_mmshare_version>
53161

> <i_f3d_flags>
0

> <r_lp_tautomer_probability>
1

> <s_lp_Force_Field>
OPLS_2005

> <r_lp_Energy>
18.547511

> <b_lp_Chiralities_Consistent>
1

> <s_lp_Variant>
CHEMBL1900_lig646-1

> <s_i_glide_gridfile>
glide-grid_2hv5

> <i_i_glide_lignum>
772

> <i_i_glide_rotatable_bonds>
8

> <r_i_docking_score>
-8.12616807166725

> <r_i_glide_ligand_efficiency>
-0.338590336319469

> <r_i_glide_ligand_efficiency_sa>
-0.976663533099359

> <r_i_glide_ligand_efficiency_ln>
-1.94496490510523

> <r_i_glide_gscore>
-8.12616807166725

> <r_i_glide_lipo>
-4.2974549976219

> <r_i_glide_hbond>
0

> <r_i_glide_metal>
0

> <r_i_glide_rewards>
-2.28706655374522

> <r_i_glide_evdw>
-47.6355781555176

> <r_i_glide_ecoul>
1.04781949520111

> <r_i_glide_erotb>
0.682959463195584

> <r_i_glide_esite>
0

> <r_i_glide_emodel>
-65.8435779100149

> <r_i_glide_energy>
-46.5877586603165

> <r_i_glide_einternal>
7.38754987716675

> <i_i_glide_confnum>
9

> <i_i_glide_posenum>
146

> <r_i_glide_eff_state_penalty>
0

> <s_user_duplicate_titles>
CHEMBL1900_lig646

> <s_m_subgroup_title>
dock_pv

> <s_m_subgroupid>
dock_pv

> <b_m_subgroup_collapsed>
1

$$$$
CHEMBL1900_lig654
                    3D
 Schrodinger Suite 2021-1.
 35 36  0  0  1  0            999 V2000
   16.6544   -3.5226    9.6894 C   0  0  0  0  0  0
   17.5982   -4.3777   10.5445 C   0  0  0  0  0  0
   17.0956   -2.6409    8.9709 O   0  0  0  0  0  0
   15.3456   -3.7521    9.7835 N   0  0  0  0  0  0
   16.8433   -5.4064   11.2064 O   0  0  0  0  0  0
   17.3124   -5.9295   12.3921 C   0  0  0  0  0  0
   16.4453   -6.7361   13.1141 C   0  0  0  0  0  0
   16.8440   -7.3045   14.3261 C   0  0  0  0  0  0
   18.1254   -7.0784   14.8134 C   0  0  0  0  0  0
   19.0092   -6.2829   14.1015 C   0  0  0  0  0  0
   18.5946   -5.7212   12.9040 C   0  0  0  0  0  0
   15.9294   -8.1864   15.0391 C   0  0  0  0  0  0
   17.7205  -10.3583   15.2123 S   0  0  0  0  0  0
   17.0737  -11.7253   16.0766 C   0  0  0  0  0  0
   15.7610  -11.4854   16.3755 N   0  0  0  0  0  0
   15.2700  -10.2436   16.1171 C   0  0  0  0  0  0
   16.2419   -9.4410   15.4357 C   0  0  0  0  0  0
   14.1470   -9.8465   16.4166 O   0  0  0  0  0  0
   18.0606  -13.0354   16.3795 S   0  0  0  0  0  0
   14.8883  -12.5566   16.9225 C   0  0  0  0  0  0
   14.6657  -12.3742   18.4433 C   0  0  0  0  0  0
   14.5995  -13.5852   19.0641 O   0  0  0  0  0  0
   14.5471  -11.3013   18.9867 O   0  0  0  0  0  0
   18.3518   -4.8490    9.9112 H   0  0  0  0  0  0
   18.0674   -3.7129   11.2711 H   0  0  0  0  0  0
   14.6714   -3.2253    9.2392 H   0  0  0  0  0  0
   15.0268   -4.4821   10.4097 H   0  0  0  0  0  0
   15.4528   -6.9068   12.7155 H   0  0  0  0  0  0
   18.4477   -7.5098   15.7544 H   0  0  0  0  0  0
   20.0109   -6.0980   14.4832 H   0  0  0  0  0  0
   19.3061   -5.1305   12.3392 H   0  0  0  0  0  0
   14.9529   -7.7584   15.2412 H   0  0  0  0  0  0
   13.9017  -12.4852   16.4701 H   0  0  0  0  0  0
   15.2792  -13.5405   16.6916 H   0  0  0  0  0  0
   14.7061  -14.3173   18.4592 H   0  0  0  0  0  0
  1  2  1  0  0  0
  1  3  2  0  0  0
  1  4  1  0  0  0
  2  5  1  0  0  0
  2 24  1  0  0  0
  2 25  1  0  0  0
  4 26  1  0  0  0
  4 27  1  0  0  0
  5  6  1  0  0  0
  6  7  1  0  0  0
  6 11  2  0  0  0
  7  8  2  0  0  0
  7 28  1  0  0  0
  8  9  1  0  0  0
  8 12  1  0  0  0
  9 10  2  0  0  0
  9 29  1  0  0  0
 10 11  1  0  0  0
 10 30  1  0  0  0
 11 31  1  0  0  0
 12 17  2  0  0  0
 12 32  1  0  0  0
 13 14  1  0  0  0
 13 17  1  0  0  0
 14 15  1  0  0  0
 14 19  2  0  0  0
 15 16  1  0  0  0
 15 20  1  0  0  0
 16 17  1  0  0  0
 16 18  2  0  0  0
 20 21  1  0  0  0
 20 33  1  0  0  0
 20 34  1  0  0  0
 21 22  1  0  0  0
 21 23  2  0  0  0
 22 35  1  0  0  0
M  END
> <s_m_entry_id>
6519

> <s_m_entry_name>
dock_pv.354

> <s_m_Source_Path>
/home/csk/Desktop/cluster/DUD-E-result/aldr

> <s_m_Source_File>
dock_pv.maegz

> <i_m_Source_File_Index>
354

> <chembl_id>
CHEMBL3262475

> <chembl_pref_name>
None

> <i_lp_mmshare_version>
53161

> <i_f3d_flags>
0

> <r_lp_tautomer_probability>
1

> <s_lp_Force_Field>
OPLS_2005

> <r_lp_Energy>
12.778031

> <b_lp_Chiralities_Consistent>
1

> <s_lp_Variant>
CHEMBL1900_lig654-1

> <s_i_glide_gridfile>
glide-grid_2hv5

> <i_i_glide_lignum>
780

> <i_i_glide_rotatable_bonds>
7

> <r_i_docking_score>
-8.12364973254883

> <r_i_glide_ligand_efficiency>
-0.353202162284732

> <r_i_glide_ligand_efficiency_sa>
-1.0044599654839

> <r_i_glide_ligand_efficiency_ln>
-1.96437216651351

> <r_i_glide_gscore>
-8.12364973254883

> <r_i_glide_lipo>
-2.80860380820743

> <r_i_glide_hbond>
-0.307944565494251

> <r_i_glide_metal>
0

> <r_i_glide_rewards>
-2.97291822150468

> <r_i_glide_evdw>
-40.3525161743164

> <r_i_glide_ecoul>
-4.77984428405762

> <r_i_glide_erotb>
0.768431291574281

> <r_i_glide_esite>
-0.0680119775922853

> <r_i_glide_emodel>
-62.0235870549674

> <r_i_glide_energy>
-45.132360458374

> <r_i_glide_einternal>
13.4484376907349

> <i_i_glide_confnum>
102

> <i_i_glide_posenum>
197

> <r_i_glide_eff_state_penalty>
0

> <s_user_duplicate_titles>
CHEMBL1900_lig654

> <s_m_subgroup_title>
dock_pv

> <s_m_subgroupid>
dock_pv

> <b_m_subgroup_collapsed>
1

$$$$
CHEMBL1900_lig76
                    3D
 Schrodinger Suite 2021-1.
 27 29  0  0  1  0            999 V2000
   16.0107   -3.6291    9.6565 C   0  0  0  0  0  0
   17.3509   -3.2481    9.6884 C   0  0  0  0  0  0
   18.2559   -3.8718   10.5449 C   0  0  0  0  0  0
   15.5151   -4.6461   10.4784 C   0  0  0  0  0  0
   16.4044   -5.3007   11.3438 C   0  0  0  0  0  0
   17.7572   -4.8959   11.3615 C   0  0  0  0  0  0
   18.4733   -5.6200   12.2708 O   0  0  0  0  0  0
   17.5979   -6.5047   12.8331 C   0  0  0  0  0  0
   16.3221   -6.3523   12.3021 C   0  0  0  0  0  0
   18.2735   -7.6829   14.0425 S   0  0  0  0  0  0
   17.8818   -9.0299   13.6139 O   0  0  0  0  0  0
   19.6805   -7.3160   14.2424 O   0  0  0  0  0  0
   17.3986   -7.3905   15.6118 C   0  0  0  0  0  0
   15.9661   -7.2285   15.7106 C   0  0  0  0  0  0
   15.3853   -6.9183   16.8982 C   0  0  0  0  0  0
   16.1710   -6.6403   18.0942 C   0  0  0  0  0  0
   17.4801   -6.9733   17.8958 N   0  0  0  0  0  0
   18.1018   -7.3149   16.6920 N   0  0  0  0  0  0
   15.7451   -6.1169   19.1231 O   0  0  0  0  0  0
   15.3450   -3.1158    8.9815 H   0  0  0  0  0  0
   17.6872   -2.4496    9.0433 H   0  0  0  0  0  0
   19.2867   -3.5642   10.5807 H   0  0  0  0  0  0
   14.4691   -4.9152   10.4518 H   0  0  0  0  0  0
   15.4469   -6.9153   12.5629 H   0  0  0  0  0  0
   15.3450   -7.4542   14.8649 H   0  0  0  0  0  0
   14.3088   -6.8765   16.9812 H   0  0  0  0  0  0
   18.1075   -6.8659   18.6796 H   0  0  0  0  0  0
  1  4  1  0  0  0
  1  2  2  0  0  0
  1 20  1  0  0  0
  2  3  1  0  0  0
  2 21  1  0  0  0
  3  6  2  0  0  0
  3 22  1  0  0  0
  4  5  2  0  0  0
  4 23  1  0  0  0
  5  9  1  0  0  0
  5  6  1  0  0  0
  6  7  1  0  0  0
  7  8  1  0  0  0
  8 10  1  0  0  0
  8  9  2  0  0  0
  9 24  1  0  0  0
 10 11  2  0  0  0
 10 12  2  0  0  0
 10 13  1  0  0  0
 13 14  1  0  0  0
 13 18  2  0  0  0
 14 15  2  0  0  0
 14 25  1  0  0  0
 15 16  1  0  0  0
 15 26  1  0  0  0
 16 17  1  0  0  0
 16 19  2  0  0  0
 17 18  1  0  0  0
 17 27  1  0  0  0
M  END
> <s_m_entry_id>
6520

> <s_m_entry_name>
dock_pv.355

> <s_m_Source_Path>
/home/csk/Desktop/cluster/DUD-E-result/aldr

> <s_m_Source_File>
dock_pv.maegz

> <i_m_Source_File_Index>
355

> <chembl_id>
CHEMBL241777

> <chembl_pref_name>
None

> <i_lp_mmshare_version>
53161

> <i_f3d_flags>
0

> <r_lp_tautomer_probability>
0.998994762270461

> <s_lp_Force_Field>
OPLS_2005

> <r_lp_Energy>
21.857327

> <b_lp_Chiralities_Consistent>
1

> <s_lp_Variant>
CHEMBL1900_lig76-1

> <s_i_glide_gridfile>
glide-grid_2hv5

> <i_i_glide_lignum>
115

> <i_i_glide_rotatable_bonds>
2

> <r_i_docking_score>
-8.11865528340171

> <r_i_glide_ligand_efficiency>
-0.427297646494827

> <r_i_glide_ligand_efficiency_sa>
-1.14020174328272

> <r_i_glide_ligand_efficiency_ln>
-2.05825348706938

> <r_i_glide_gscore>
-8.11865528340171

> <r_i_glide_lipo>
-3.48442547546739

> <r_i_glide_hbond>
-0.0135216277290863

> <r_i_glide_metal>
0

> <r_i_glide_rewards>
-2.84718752315417

> <r_i_glide_evdw>
-41.4977722167969

> <r_i_glide_ecoul>
-1.13337421417236

> <r_i_glide_erotb>
0.47137408591463

> <r_i_glide_esite>
0

> <r_i_glide_emodel>
-59.4566065039169

> <r_i_glide_energy>
-42.6311464309692

> <r_i_glide_einternal>
5.06193542480469

> <i_i_glide_confnum>
6

> <i_i_glide_posenum>
89

> <r_i_glide_eff_state_penalty>
0

> <s_user_duplicate_titles>
CHEMBL1900_lig76,407177

> <s_m_subgroup_title>
dock_pv

> <s_m_subgroupid>
dock_pv

> <b_m_subgroup_collapsed>
1

$$$$
CHEMBL1900_lig454
                    3D
 Schrodinger Suite 2021-1.
 30 32  0  0  1  0            999 V2000
   16.6999   -7.9918   15.5272 S   0  0  0  0  0  0
   16.8626   -7.0442   13.9832 C   0  0  0  0  0  0
   17.3449   -9.6382   15.1462 C   0  0  0  0  0  0
   17.9471   -6.3886   13.4173 C   0  0  0  0  0  0
   15.7450   -6.9147   13.2260 O   0  0  0  0  0  0
   17.0107  -10.5951   15.9472 N   0  0  0  0  0  0
   17.4281   -5.7569   12.2308 C   0  0  0  0  0  0
   16.0667   -6.1150   12.1805 C   0  0  0  0  0  0
   17.4130  -11.8985   15.6555 N   0  0  0  0  0  0
   18.1453   -9.9447   13.9776 C   0  0  0  0  0  0
   18.1459  -12.3325   14.5870 C   0  0  0  0  0  0
   15.2629   -8.1518   15.7822 O   0  0  0  0  0  0
   17.6038   -7.4120   16.5275 O   0  0  0  0  0  0
   18.5196  -11.2228   13.7200 C   0  0  0  0  0  0
   17.9237   -4.9147   11.2220 C   0  0  0  0  0  0
   15.1853   -5.6678   11.1907 C   0  0  0  0  0  0
   18.4532  -13.5067   14.4035 O   0  0  0  0  0  0
   17.0580   -4.4458   10.2331 C   0  0  0  0  0  0
   19.3451   -6.3264   13.9568 C   0  0  0  0  0  0
   15.7133   -4.8154   10.2186 C   0  0  0  0  0  0
   17.5314   -3.6051    9.2870 F   0  0  0  0  0  0
   18.4743   -9.1666   13.3048 H   0  0  0  0  0  0
   19.1220  -11.4466   12.8514 H   0  0  0  0  0  0
   18.9450   -4.5923   11.2193 H   0  0  0  0  0  0
   14.1414   -5.9468   11.1991 H   0  0  0  0  0  0
   17.1089  -12.5971   16.3168 H   0  0  0  0  0  0
   19.7436   -5.3133   13.9326 H   0  0  0  0  0  0
   19.4259   -6.6603   14.9894 H   0  0  0  0  0  0
   20.0185   -6.9590   13.3810 H   0  0  0  0  0  0
   15.0707   -4.4245    9.4424 H   0  0  0  0  0  0
  1  2  1  0  0  0
  1 12  2  0  0  0
  1 13  2  0  0  0
  1  3  1  0  0  0
  2  4  2  0  0  0
  2  5  1  0  0  0
  3 10  1  0  0  0
  3  6  2  0  0  0
  4  7  1  0  0  0
  4 19  1  0  0  0
  5  8  1  0  0  0
  6  9  1  0  0  0
  7 15  1  0  0  0
  7  8  2  0  0  0
  8 16  1  0  0  0
  9 11  1  0  0  0
  9 26  1  0  0  0
 10 14  2  0  0  0
 10 22  1  0  0  0
 11 17  2  0  0  0
 11 14  1  0  0  0
 14 23  1  0  0  0
 15 18  2  0  0  0
 15 24  1  0  0  0
 16 20  2  0  0  0
 16 25  1  0  0  0
 18 21  1  0  0  0
 18 20  1  0  0  0
 19 27  1  0  0  0
 19 28  1  0  0  0
 19 29  1  0  0  0
 20 30  1  0  0  0
M  END
> <s_m_entry_id>
6521

> <s_m_entry_name>
dock_pv.356

> <s_m_Source_Path>
/home/csk/Desktop/cluster/DUD-E-result/aldr

> <s_m_Source_File>
dock_pv.maegz

> <i_m_Source_File_Index>
356

> <chembl_id>
CHEMBL198096

> <chembl_pref_name>
None

> <i_lp_mmshare_version>
53161

> <i_f3d_flags>
0

> <r_lp_tautomer_probability>
0.998994762270461

> <s_lp_Force_Field>
OPLS_2005

> <r_lp_Energy>
21.626626

> <b_lp_Chiralities_Consistent>
1

> <s_lp_Variant>
CHEMBL1900_lig454-1

> <s_i_glide_gridfile>
glide-grid_2hv5

> <i_i_glide_lignum>
576

> <i_i_glide_rotatable_bonds>
2

> <r_i_docking_score>
-8.10740523965094

> <r_i_glide_ligand_efficiency>
-0.386066916173854

> <r_i_glide_ligand_efficiency_sa>
-1.06512934765201

> <r_i_glide_ligand_efficiency_ln>
-2.00453956294885

> <r_i_glide_gscore>
-8.10740523965094

> <r_i_glide_lipo>
-3.52907325939844

> <r_i_glide_hbond>
0

> <r_i_glide_metal>
0

> <r_i_glide_rewards>
-2.96823509552346

> <r_i_glide_evdw>
-36.1025276184082

> <r_i_glide_ecoul>
-1.29509770870209

> <r_i_glide_erotb>
0.389294152496681

> <r_i_glide_esite>
0

> <r_i_glide_emodel>
-52.1110773381698

> <r_i_glide_energy>
-37.3976253271103

> <r_i_glide_einternal>
4.08813762664795

> <i_i_glide_confnum>
4

> <i_i_glide_posenum>
241

> <r_i_glide_eff_state_penalty>
0

> <s_user_duplicate_titles>
CHEMBL1900_lig454,331239

> <s_m_subgroup_title>
dock_pv

> <s_m_subgroupid>
dock_pv

> <b_m_subgroup_collapsed>
1

$$$$
CHEMBL1900_lig74
                    3D
 Schrodinger Suite 2021-1.
 29 32  0  0  1  0            999 V2000
   16.6239   -7.9382   17.0793 C   0  0  0  0  0  0
   15.4947   -6.9342   16.9672 C   0  0  0  0  0  0
   15.7491   -5.9961   17.8804 N   0  0  0  0  0  0
   16.1004   -9.3613   17.2316 C   0  0  0  0  0  0
   17.4202   -8.0430   15.7975 C   0  0  0  0  0  0
   16.8500   -6.1976   18.6139 C   0  0  0  0  0  0
   17.3448   -7.3588   18.1808 N   0  0  0  0  0  0
   16.6097  -10.1778   16.2189 C   0  0  0  0  0  0
   17.4340   -9.3544   15.3250 C   0  0  0  0  0  0
   16.2858  -11.5344   16.1643 C   0  0  0  0  0  0
   18.1442   -9.6806   14.1686 C   0  0  0  0  0  0
   15.2346   -9.9106   18.1809 C   0  0  0  0  0  0
   18.1084   -7.0501   15.1028 C   0  0  0  0  0  0
   14.5460   -6.9670   16.1927 O   0  0  0  0  0  0
   17.3448   -5.4198   19.4209 O   0  0  0  0  0  0
   18.7676   -7.3579   13.9228 C   0  0  0  0  0  0
   14.9250  -11.2700   18.1396 C   0  0  0  0  0  0
   15.4450  -12.0805   17.1327 C   0  0  0  0  0  0
   18.8124   -8.6755   13.4700 C   0  0  0  0  0  0
   19.3450   -6.3639   13.2238 F   0  0  0  0  0  0
   14.1465  -11.8093   19.0984 F   0  0  0  0  0  0
   15.1981   -5.1610   17.9727 H   0  0  0  0  0  0
   17.9525   -7.9315   18.7487 H   0  0  0  0  0  0
   16.6755  -12.1678   15.3811 H   0  0  0  0  0  0
   18.1692  -10.6935   13.7956 H   0  0  0  0  0  0
   14.8318   -9.3091   18.9806 H   0  0  0  0  0  0
   18.1429   -6.0374   15.4649 H   0  0  0  0  0  0
   15.1956  -13.1310   17.1062 H   0  0  0  0  0  0
   19.3634   -8.9169   12.5796 H   0  0  0  0  0  0
  1  2  1  0  0  0
  1  4  1  0  0  0
  1  5  1  0  0  0
  1  7  1  0  0  0
  2  3  1  0  0  0
  2 14  2  0  0  0
  3  6  1  0  0  0
  3 22  1  0  0  0
  4  8  2  0  0  0
  4 12  1  0  0  0
  5  9  2  0  0  0
  5 13  1  0  0  0
  6  7  1  0  0  0
  6 15  2  0  0  0
  7 23  1  0  0  0
  8 10  1  0  0  0
  8  9  1  0  0  0
  9 11  1  0  0  0
 10 18  2  0  0  0
 10 24  1  0  0  0
 11 19  2  0  0  0
 11 25  1  0  0  0
 12 17  2  0  0  0
 12 26  1  0  0  0
 13 16  2  0  0  0
 13 27  1  0  0  0
 16 19  1  0  0  0
 16 20  1  0  0  0
 17 18  1  0  0  0
 17 21  1  0  0  0
 18 28  1  0  0  0
 19 29  1  0  0  0
M  END
> <s_m_entry_id>
6522

> <s_m_entry_name>
dock_pv.357

> <s_m_Source_Path>
/home/csk/Desktop/cluster/DUD-E-result/aldr

> <s_m_Source_File>
dock_pv.maegz

> <i_m_Source_File_Index>
357

> <chembl_id>
CHEMBL269455

> <chembl_pref_name>
IMIRESTAT

> <i_lp_mmshare_version>
53161

> <i_f3d_flags>
0

> <r_lp_tautomer_probability>
0.99999999978137

> <s_lp_Force_Field>
OPLS_2005

> <r_lp_Energy>
41.646437

> <b_lp_Chiralities_Consistent>
1

> <s_lp_Variant>
CHEMBL1900_lig74-1

> <s_i_glide_gridfile>
glide-grid_2hv5

> <i_i_glide_lignum>
113

> <i_i_glide_rotatable_bonds>
0

> <r_i_docking_score>
-8.10378904204156

> <r_i_glide_ligand_efficiency>
-0.385894716287693

> <r_i_glide_ligand_efficiency_sa>
-1.0646542612234

> <r_i_glide_ligand_efficiency_ln>
-2.00364546539715

> <r_i_glide_gscore>
-8.10378904204156

> <r_i_glide_lipo>
-2.72686906125695

> <r_i_glide_hbond>
-0.32

> <r_i_glide_metal>
0

> <r_i_glide_rewards>
-3.48164629326018

> <r_i_glide_evdw>
-29.6728630065918

> <r_i_glide_ecoul>
-0.351707279682159

> <r_i_glide_erotb>
0

> <r_i_glide_esite>
-0.0388744452425122

> <r_i_glide_emodel>
-41.7130911725705

> <r_i_glide_energy>
-30.024570286274

> <r_i_glide_einternal>
0

> <i_i_glide_confnum>
1

> <i_i_glide_posenum>
90

> <r_i_glide_eff_state_penalty>
0

> <s_user_duplicate_titles>
CHEMBL1900_lig74,7347

> <s_m_subgroup_title>
dock_pv

> <s_m_subgroupid>
dock_pv

> <b_m_subgroup_collapsed>
1

$$$$
CHEMBL1900_lig232
                    3D
 Schrodinger Suite 2021-1.
 34 36  0  0  1  0            999 V2000
   16.6330   -7.5622   14.8423 C   0  0  0  0  0  0
   16.7785   -8.7817   15.4141 C   0  0  0  0  0  0
   16.1822   -6.5300   16.9065 C   0  0  0  0  0  0
   16.1563   -6.4959   15.5295 O   0  0  0  0  0  0
   16.4634   -9.0111   16.8221 C   0  0  0  0  0  0
   16.2413   -7.7444   17.5867 C   0  0  0  0  0  0
   16.9444   -7.3120   13.4170 C   0  0  0  0  0  0
   16.1447   -5.3190   17.5993 C   0  0  0  0  0  0
   16.1450   -7.7142   18.9780 C   0  0  0  0  0  0
   16.2523   -6.2607   12.8845 O   0  0  0  0  0  0
   16.4630  -10.1193   17.3552 O   0  0  0  0  0  0
   17.7193   -8.0216   12.7700 O   0  0  0  0  0  0
   16.1666   -5.3068   18.9853 C   0  0  0  0  0  0
   16.1473   -6.5070   19.6782 C   0  0  0  0  0  0
   16.0758   -6.1146   11.4708 C   0  0  0  0  0  0
   16.6506   -4.8347   10.8996 C   0  0  0  0  0  0
   16.1718   -4.1166   19.6555 O   0  0  0  0  0  0
   15.8198   -3.9854   10.1648 C   0  0  0  0  0  0
   18.0146   -4.5596   11.0127 C   0  0  0  0  0  0
   18.5453   -3.4291   10.3967 C   0  0  0  0  0  0
   16.3521   -2.8579    9.5475 C   0  0  0  0  0  0
   17.7118   -2.5855    9.6692 C   0  0  0  0  0  0
   17.1344   -9.6151   14.8262 H   0  0  0  0  0  0
   16.0955   -4.3817   17.0719 H   0  0  0  0  0  0
   16.1273   -8.6302   19.5313 H   0  0  0  0  0  0
   16.1444   -6.5213   20.7584 H   0  0  0  0  0  0
   16.5372   -6.9154   10.9000 H   0  0  0  0  0  0
   15.0062   -6.1635   11.2623 H   0  0  0  0  0  0
   16.3586   -4.2071   20.5921 H   0  0  0  0  0  0
   14.7654   -4.1988   10.0569 H   0  0  0  0  0  0
   18.6585   -5.2274   11.5668 H   0  0  0  0  0  0
   19.5964   -3.2017   10.4811 H   0  0  0  0  0  0
   15.7101   -2.1998    8.9817 H   0  0  0  0  0  0
   18.1283   -1.7153    9.1886 H   0  0  0  0  0  0
  1  2  2  0  0  0
  1  4  1  0  0  0
  1  7  1  0  0  0
  2  5  1  0  0  0
  2 23  1  0  0  0
  3  4  1  0  0  0
  3  6  1  0  0  0
  3  8  2  0  0  0
  5 11  2  0  0  0
  5  6  1  0  0  0
  6  9  2  0  0  0
  7 10  1  0  0  0
  7 12  2  0  0  0
  8 13  1  0  0  0
  8 24  1  0  0  0
  9 14  1  0  0  0
  9 25  1  0  0  0
 10 15  1  0  0  0
 13 14  2  0  0  0
 13 17  1  0  0  0
 14 26  1  0  0  0
 15 16  1  0  0  0
 15 27  1  0  0  0
 15 28  1  0  0  0
 16 18  2  0  0  0
 16 19  1  0  0  0
 17 29  1  0  0  0
 18 21  1  0  0  0
 18 30  1  0  0  0
 19 20  2  0  0  0
 19 31  1  0  0  0
 20 22  1  0  0  0
 20 32  1  0  0  0
 21 22  2  0  0  0
 21 33  1  0  0  0
 22 34  1  0  0  0
M  END
> <s_m_entry_id>
6523

> <s_m_entry_name>
dock_pv.358

> <s_m_Source_Path>
/home/csk/Desktop/cluster/DUD-E-result/aldr

> <s_m_Source_File>
dock_pv.maegz

> <i_m_Source_File_Index>
358

> <chembl_id>
CHEMBL166825

> <chembl_pref_name>
None

> <i_lp_mmshare_version>
53161

> <i_f3d_flags>
0

> <r_lp_tautomer_probability>
1

> <s_lp_Force_Field>
OPLS_2005

> <r_lp_Energy>
12.096722

> <b_lp_Chiralities_Consistent>
1

> <s_lp_Variant>
CHEMBL1900_lig232-1

> <s_i_glide_gridfile>
glide-grid_2hv5

> <i_i_glide_lignum>
340

> <i_i_glide_rotatable_bonds>
5

> <r_i_docking_score>
-8.0933001537167

> <r_i_glide_ligand_efficiency>
-0.367877279714396

> <r_i_glide_ligand_efficiency_sa>
-1.03080660555216

> <r_i_glide_ligand_efficiency_ln>
-1.97829776786426

> <r_i_glide_gscore>
-8.0933001537167

> <r_i_glide_lipo>
-4.19839872485877

> <r_i_glide_hbond>
-0.0341921610284639

> <r_i_glide_metal>
0

> <r_i_glide_rewards>
-2.60535193204

> <r_i_glide_evdw>
-34.5513687133789

> <r_i_glide_ecoul>
-1.02548444271088

> <r_i_glide_erotb>
0.626033766286111

> <r_i_glide_esite>
0

> <r_i_glide_emodel>
-48.2419342487172

> <r_i_glide_energy>
-35.5768531560898

> <r_i_glide_einternal>
6.15013980865479

> <i_i_glide_confnum>
1

> <i_i_glide_posenum>
131

> <r_i_glide_eff_state_penalty>
0

> <s_user_duplicate_titles>
CHEMBL1900_lig232

> <s_m_subgroup_title>
dock_pv

> <s_m_subgroupid>
dock_pv

> <b_m_subgroup_collapsed>
1

$$$$
CHEMBL1900_lig620
                    3D
 Schrodinger Suite 2021-1.
 31 32  0  0  1  0            999 V2000
   15.8749   -6.9152   14.9009 N   0  0  0  0  0  0
   15.7835   -7.5937   15.9611 C   0  0  0  0  0  0
   16.6836   -8.5980   16.0130 N   0  0  0  0  0  0
   17.4394   -8.5554   14.9028 C   0  0  0  0  0  0
   16.8765   -7.4481   14.1702 C   0  0  0  0  0  0
   18.3708   -9.3058   14.5976 O   0  0  0  0  0  0
   14.7900   -7.3689   17.0864 C   0  0  0  0  0  0
   17.4022   -7.1431   12.9591 C   0  0  0  0  0  0
   16.9436   -6.1013   12.0211 C   0  0  0  0  0  0
   16.8781   -9.6290   17.0526 C   0  0  0  0  0  0
   15.8643  -10.7785   16.8943 C   0  0  0  0  0  0
   16.1533  -11.7666   17.7812 O   0  0  0  0  0  0
   14.9438  -10.8034   16.1059 O   0  0  0  0  0  0
   15.5896   -5.8962   11.7289 C   0  0  0  0  0  0
   15.2015   -4.9151   10.8145 C   0  0  0  0  0  0
   16.1632   -4.1285   10.1806 C   0  0  0  0  0  0
   17.5139   -4.3242   10.4669 C   0  0  0  0  0  0
   17.8965   -5.3041   11.3818 C   0  0  0  0  0  0
   18.4660   -3.5541    9.8553 O   0  0  0  0  0  0
   15.3028   -7.1824   18.0298 H   0  0  0  0  0  0
   14.1451   -6.5155   16.8869 H   0  0  0  0  0  0
   14.1446   -8.2382   17.2161 H   0  0  0  0  0  0
   18.2351   -7.7260   12.5868 H   0  0  0  0  0  0
   16.7791   -9.1880   18.0445 H   0  0  0  0  0  0
   17.8825  -10.0504   16.9855 H   0  0  0  0  0  0
   15.5232  -12.4834   17.6734 H   0  0  0  0  0  0
   14.8312   -6.5087   12.1889 H   0  0  0  0  0  0
   14.1537   -4.7653   10.5956 H   0  0  0  0  0  0
   15.8494   -3.3736    9.4750 H   0  0  0  0  0  0
   18.9446   -5.4425   11.5945 H   0  0  0  0  0  0
   18.0719   -2.8791    9.2997 H   0  0  0  0  0  0
  1  2  2  0  0  0
  1  5  1  0  0  0
  2  3  1  0  0  0
  2  7  1  0  0  0
  3  4  1  0  0  0
  3 10  1  0  0  0
  4  5  1  0  0  0
  4  6  2  0  0  0
  5  8  2  0  0  0
  7 20  1  0  0  0
  7 21  1  0  0  0
  7 22  1  0  0  0
  8  9  1  0  0  0
  8 23  1  0  0  0
  9 14  2  0  0  0
  9 18  1  0  0  0
 10 11  1  0  0  0
 10 24  1  0  0  0
 10 25  1  0  0  0
 11 12  1  0  0  0
 11 13  2  0  0  0
 12 26  1  0  0  0
 14 15  1  0  0  0
 14 27  1  0  0  0
 15 16  2  0  0  0
 15 28  1  0  0  0
 16 17  1  0  0  0
 16 29  1  0  0  0
 17 18  2  0  0  0
 17 19  1  0  0  0
 18 30  1  0  0  0
 19 31  1  0  0  0
M  END
> <s_m_entry_id>
6524

> <s_m_entry_name>
dock_pv.359

> <s_m_Source_Path>
/home/csk/Desktop/cluster/DUD-E-result/aldr

> <s_m_Source_File>
dock_pv.maegz

> <i_m_Source_File_Index>
359

> <chembl_id>
CHEMBL3932710

> <chembl_pref_name>
None

> <i_lp_mmshare_version>
53161

> <i_f3d_flags>
0

> <r_lp_tautomer_probability>
0.5

> <s_lp_Force_Field>
OPLS_2005

> <r_lp_Energy>
25.14716

> <b_lp_Chiralities_Consistent>
1

> <s_lp_Variant>
CHEMBL1900_lig620-1

> <s_i_glide_gridfile>
glide-grid_2hv5

> <i_i_glide_lignum>
744

> <i_i_glide_rotatable_bonds>
5

> <r_i_docking_score>
-8.08900524807279

> <r_i_glide_ligand_efficiency>
-0.42573711831962

> <r_i_glide_ligand_efficiency_sa>
-1.13603762733121

> <r_i_glide_ligand_efficiency_ln>
-2.05073656628913

> <r_i_glide_gscore>
-8.08900524807279

> <r_i_glide_lipo>
-2.98722699455459

> <r_i_glide_hbond>
0

> <r_i_glide_metal>
0

> <r_i_glide_rewards>
-3.74295278294611

> <r_i_glide_evdw>
-37.2822532653809

> <r_i_glide_ecoul>
-1.85796296596527

> <r_i_glide_erotb>
0.783981637591748

> <r_i_glide_esite>
0

> <r_i_glide_emodel>
-56.5511810842682

> <r_i_glide_energy>
-39.1402162313461

> <r_i_glide_einternal>
2.67557144165039

> <i_i_glide_confnum>
3

> <i_i_glide_posenum>
295

> <r_i_glide_eff_state_penalty>
0

> <s_user_duplicate_titles>
CHEMBL1900_lig620

> <s_m_subgroup_title>
dock_pv

> <s_m_subgroupid>
dock_pv

> <b_m_subgroup_collapsed>
1

$$$$
CHEMBL1900_lig339
                    3D
 Schrodinger Suite 2021-1.
 34 36  0  0  1  0            999 V2000
   16.2380   -7.6928   16.7431 C   0  0  1  0  0  0
   17.0259   -8.0158   15.4740 C   0  0  0  0  0  0
   15.6542   -9.0250   17.2838 C   0  0  2  0  0  0
   17.5324  -10.3162   16.1989 O   0  0  0  0  0  0
   17.6763   -9.2564   15.3335 C   0  0  0  0  0  0
   17.2449   -6.9026   17.6474 C   0  0  0  0  0  0
   16.7115  -10.1376   17.3546 C   0  0  2  0  0  0
   16.7388   -6.1195   18.8649 C   0  0  0  0  0  0
   17.2387   -7.0569   14.4786 C   0  0  0  0  0  0
   15.1267   -6.8439   16.4925 O   0  0  0  0  0  0
   18.5450   -9.4967   14.2730 C   0  0  0  0  0  0
   15.5799   -6.1150   19.2558 O   0  0  0  0  0  0
   18.1500   -7.2658   13.4526 C   0  0  0  0  0  0
   17.7450   -5.3979   19.4283 O   0  0  0  0  0  0
   18.8161   -8.4845   13.3639 C   0  0  0  0  0  0
   14.5470   -9.7149   16.4696 C   0  0  0  0  0  0
   18.4030   -6.2716   12.5748 F   0  0  0  0  0  0
   15.9380  -11.4485   17.5364 C   0  0  0  0  0  0
   14.5450  -11.1630   16.9833 C   0  0  0  0  0  0
   15.2691   -8.8502   18.2909 H   0  0  0  0  0  0
   17.3712   -9.9294   18.1810 H   0  0  0  0  0  0
   17.7440   -6.1529   17.0310 H   0  0  0  0  0  0
   18.0290   -7.5792   17.9874 H   0  0  0  0  0  0
   16.7309   -6.1131   14.5411 H   0  0  0  0  0  0
   14.7030   -6.6821   17.3415 H   0  0  0  0  0  0
   19.0413  -10.4511   14.1809 H   0  0  0  0  0  0
   18.5851   -5.5832   19.0055 H   0  0  0  0  0  0
   19.5351   -8.6585   12.5813 H   0  0  0  0  0  0
   14.7831   -9.7033   15.4038 H   0  0  0  0  0  0
   13.5808   -9.2254   16.5810 H   0  0  0  0  0  0
   15.8912  -11.7586   18.5804 H   0  0  0  0  0  0
   16.3889  -12.2657   16.9700 H   0  0  0  0  0  0
   14.2667  -11.8630   16.1937 H   0  0  0  0  0  0
   13.8064  -11.2741   17.7810 H   0  0  0  0  0  0
  1  2  1  0  0  0
  1  3  1  0  0  0
  1  6  1  0  0  0
  1 10  1  0  0  0
  2  5  2  0  0  0
  2  9  1  0  0  0
  3  7  1  0  0  0
  3 16  1  0  0  0
  3 20  1  0  0  0
  4  7  1  0  0  0
  4  5  1  0  0  0
  5 11  1  0  0  0
  6  8  1  0  0  0
  6 22  1  0  0  0
  6 23  1  0  0  0
  7 18  1  0  0  0
  7 21  1  0  0  0
  8 12  2  0  0  0
  8 14  1  0  0  0
  9 13  2  0  0  0
  9 24  1  0  0  0
 10 25  1  0  0  0
 11 15  2  0  0  0
 11 26  1  0  0  0
 13 15  1  0  0  0
 13 17  1  0  0  0
 14 27  1  0  0  0
 15 28  1  0  0  0
 16 19  1  0  0  0
 16 29  1  0  0  0
 16 30  1  0  0  0
 18 19  1  0  0  0
 18 31  1  0  0  0
 18 32  1  0  0  0
 19 33  1  0  0  0
 19 34  1  0  0  0
M  END
> <s_m_entry_id>
6525

> <s_m_entry_name>
dock_pv.360

> <s_m_Source_Path>
/home/csk/Desktop/cluster/DUD-E-result/aldr

> <s_m_Source_File>
dock_pv.maegz

> <i_m_Source_File_Index>
360

> <chembl_id>
CHEMBL67751

> <chembl_pref_name>
None

> <i_lp_mmshare_version>
53161

> <i_f3d_flags>
0

> <r_lp_tautomer_probability>
1

> <s_lp_Force_Field>
OPLS_2005

> <r_lp_Energy>
34.189015

> <b_lp_Chiralities_Consistent>
1

> <s_lp_Variant>
CHEMBL1900_lig339-1

> <s_i_glide_gridfile>
glide-grid_2hv5

> <i_i_glide_lignum>
460

> <i_i_glide_rotatable_bonds>
4

> <r_i_docking_score>
-8.08600529419311

> <r_i_glide_ligand_efficiency>
-0.425579226010164

> <r_i_glide_ligand_efficiency_sa>
-1.13561630723275

> <r_i_glide_ligand_efficiency_ln>
-2.04997601354753

> <r_i_glide_gscore>
-8.08600529419311

> <r_i_glide_lipo>
-3.02684971590481

> <r_i_glide_hbond>
-0.174072873650297

> <r_i_glide_metal>
0

> <r_i_glide_rewards>
-3.34278761325684

> <r_i_glide_evdw>
-26.8887138366699

> <r_i_glide_ecoul>
-4.66868305206299

> <r_i_glide_erotb>
0.502443058261778

> <r_i_glide_esite>
0

> <r_i_glide_emodel>
-45.3354860804145

> <r_i_glide_energy>
-31.5573968887329

> <r_i_glide_einternal>
2.19177746772766

> <i_i_glide_confnum>
3

> <i_i_glide_posenum>
346

> <r_i_glide_eff_state_penalty>
0

> <s_user_duplicate_titles>
CHEMBL1900_lig339

> <s_m_subgroup_title>
dock_pv

> <s_m_subgroupid>
dock_pv

> <b_m_subgroup_collapsed>
1

$$$$
CHEMBL1900_lig435
                    3D
 Schrodinger Suite 2021-1.
 30 31  0  0  1  0            999 V2000
   17.1503   -7.2055   14.5900 S   0  0  0  0  0  0
   17.3483   -8.9654   14.9810 C   0  0  0  0  0  0
   16.6864   -9.4052   15.9998 N   0  0  0  0  0  0
   17.6547   -2.9261    9.8270 C   0  0  0  0  0  0
   16.7245  -10.7639   16.3036 N   0  0  0  0  0  0
   18.1386   -9.8980   14.1986 C   0  0  0  0  0  0
   17.4005  -11.7526   15.6474 C   0  0  0  0  0  0
   16.9007   -4.0482   10.5315 C   0  0  0  0  0  0
   17.5912   -7.1002   12.7465 C   0  0  0  0  0  0
   18.1443  -11.2182   14.5136 C   0  0  0  0  0  0
   18.1698   -6.5154   15.3796 O   0  0  0  0  0  0
   15.7280   -6.9151   14.7851 O   0  0  0  0  0  0
   17.5687   -4.9751   11.3458 C   0  0  0  0  0  0
   16.8664   -6.0204   11.9538 C   0  0  0  0  0  0
   17.3911  -12.9297   15.9962 O   0  0  0  0  0  0
   18.8372   -2.6710   10.3921 F   0  0  0  0  0  0
   16.9454   -1.7979    9.7838 F   0  0  0  0  0  0
   17.8626   -3.3149    8.5813 F   0  0  0  0  0  0
   15.5166   -4.1599   10.3561 C   0  0  0  0  0  0
   14.8116   -5.1833   10.9810 C   0  0  0  0  0  0
   15.4897   -6.1151   11.7565 C   0  0  0  0  0  0
   18.7513   -9.5648   13.3734 H   0  0  0  0  0  0
   17.3690   -8.0618   12.2885 H   0  0  0  0  0  0
   18.6648   -6.9420   12.7283 H   0  0  0  0  0  0
   18.7387  -11.9105   13.9345 H   0  0  0  0  0  0
   18.6374   -4.9041   11.4810 H   0  0  0  0  0  0
   16.1743  -11.0354   17.1043 H   0  0  0  0  0  0
   14.9788   -3.4533    9.7388 H   0  0  0  0  0  0
   13.7437   -5.2679   10.8421 H   0  0  0  0  0  0
   14.9447   -6.9375   12.1810 H   0  0  0  0  0  0
  1  9  1  0  0  0
  1 11  2  0  0  0
  1 12  2  0  0  0
  1  2  1  0  0  0
  2  6  1  0  0  0
  2  3  2  0  0  0
  3  5  1  0  0  0
  4  8  1  0  0  0
  4 16  1  0  0  0
  4 17  1  0  0  0
  4 18  1  0  0  0
  5  7  1  0  0  0
  5 27  1  0  0  0
  6 10  2  0  0  0
  6 22  1  0  0  0
  7 15  2  0  0  0
  7 10  1  0  0  0
  8 13  1  0  0  0
  8 19  2  0  0  0
  9 14  1  0  0  0
  9 23  1  0  0  0
  9 24  1  0  0  0
 10 25  1  0  0  0
 13 14  2  0  0  0
 13 26  1  0  0  0
 14 21  1  0  0  0
 19 20  1  0  0  0
 19 28  1  0  0  0
 20 21  2  0  0  0
 20 29  1  0  0  0
 21 30  1  0  0  0
M  END
> <s_m_entry_id>
6526

> <s_m_entry_name>
dock_pv.361

> <s_m_Source_Path>
/home/csk/Desktop/cluster/DUD-E-result/aldr

> <s_m_Source_File>
dock_pv.maegz

> <i_m_Source_File_Index>
361

> <chembl_id>
CHEMBL433987

> <chembl_pref_name>
None

> <i_lp_mmshare_version>
53161

> <i_f3d_flags>
0

> <r_lp_tautomer_probability>
0.998994762270461

> <s_lp_Force_Field>
OPLS_2005

> <r_lp_Energy>
19.993019

> <b_lp_Chiralities_Consistent>
1

> <s_lp_Variant>
CHEMBL1900_lig435-1

> <s_i_glide_gridfile>
glide-grid_2hv5

> <i_i_glide_lignum>
557

> <i_i_glide_rotatable_bonds>
4

> <r_i_docking_score>
-8.06910090385824

> <r_i_glide_ligand_efficiency>
-0.384242900183725

> <r_i_glide_ligand_efficiency_sa>
-1.06009702584385

> <r_i_glide_ligand_efficiency_ln>
-1.99506889332531

> <r_i_glide_gscore>
-8.06910090385824

> <r_i_glide_lipo>
-3.18837183782698

> <r_i_glide_hbond>
0

> <r_i_glide_metal>
0

> <r_i_glide_rewards>
-3.4520890765422

> <r_i_glide_evdw>
-34.1863899230957

> <r_i_glide_ecoul>
-1.8095611333847

> <r_i_glide_erotb>
0.552113676673432

> <r_i_glide_esite>
0

> <r_i_glide_emodel>
-48.3325120644446

> <r_i_glide_energy>
-35.9959510564804

> <r_i_glide_einternal>
8.94150066375732

> <i_i_glide_confnum>
17

> <i_i_glide_posenum>
205

> <r_i_glide_eff_state_penalty>
0

> <s_user_duplicate_titles>
CHEMBL1900_lig435,331304

> <s_m_subgroup_title>
dock_pv

> <s_m_subgroupid>
dock_pv

> <b_m_subgroup_collapsed>
1

$$$$
CHEMBL1900_lig98
                    3D
 Schrodinger Suite 2021-1.
 39 42  0  0  1  0            999 V2000
   16.7948   -8.4525   16.6568 C   0  0  1  0  0  0
   18.0359   -8.4040   14.4786 N   0  0  0  0  0  0
   17.6429   -7.6985   15.5819 C   0  0  0  0  0  0
   15.3278   -8.0264   16.5227 C   0  0  0  0  0  0
   18.1217   -9.7675   14.3465 C   0  0  0  0  0  0
   16.8561   -9.9879   16.5637 C   0  0  0  0  0  0
   15.0822   -7.0050   17.3653 N   0  0  0  0  0  0
   17.5033  -10.5858   15.4665 C   0  0  0  0  0  0
   18.6081   -7.5697   13.3643 C   0  0  0  0  0  0
   16.0534   -6.7776   18.2637 C   0  0  0  0  0  0
   17.7115   -6.5517   12.6106 C   0  0  0  0  0  0
   17.1126   -7.8376   18.0295 C   0  0  0  0  0  0
   16.3254   -6.5381   12.6512 C   0  0  0  0  0  0
   17.9148   -6.5150   15.7146 O   0  0  0  0  0  0
   15.5658   -5.7150   11.8054 C   0  0  0  0  0  0
   14.5104   -8.5502   15.7810 O   0  0  0  0  0  0
   18.6699  -10.3067   13.3810 O   0  0  0  0  0  0
   16.0758   -5.9086   19.1318 O   0  0  0  0  0  0
   18.3059   -5.6027   11.8019 C   0  0  0  0  0  0
   16.2297   -4.8266   10.9535 C   0  0  0  0  0  0
   15.7450   -7.3150   13.5564 F   0  0  0  0  0  0
   16.1903  -10.8319   17.4661 C   0  0  0  0  0  0
   17.6060   -4.7535   10.9708 C   0  0  0  0  0  0
   15.3448   -3.6377    9.7810 Br  0  0  0  0  0  0
   17.5521  -11.9844   15.3491 C   0  0  0  0  0  0
   16.2269  -12.2179   17.3427 C   0  0  0  0  0  0
   16.9230  -12.7952   16.2882 C   0  0  0  0  0  0
   14.2018   -6.5152   17.3810 H   0  0  0  0  0  0
   19.0265   -8.1998   12.5810 H   0  0  0  0  0  0
   19.4748   -7.0358   13.7610 H   0  0  0  0  0  0
   16.9450   -8.5150   18.8494 H   0  0  0  0  0  0
   18.1174   -7.4235   18.1438 H   0  0  0  0  0  0
   14.4866   -5.7355   11.8441 H   0  0  0  0  0  0
   19.3450   -5.5448   11.7826 H   0  0  0  0  0  0
   15.6236  -10.4016   18.2788 H   0  0  0  0  0  0
   18.1275   -4.0501   10.3388 H   0  0  0  0  0  0
   18.0528  -12.4581   14.5153 H   0  0  0  0  0  0
   15.7057  -12.8422   18.0542 H   0  0  0  0  0  0
   16.9527  -13.8689   16.1809 H   0  0  0  0  0  0
  1  3  1  0  0  0
  1  4  1  0  0  0
  1  6  1  0  0  0
  1 12  1  0  0  0
  2  3  1  0  0  0
  2  9  1  0  0  0
  2  5  1  0  0  0
  3 14  2  0  0  0
  4  7  1  0  0  0
  4 16  2  0  0  0
  5  8  1  0  0  0
  5 17  2  0  0  0
  6  8  2  0  0  0
  6 22  1  0  0  0
  7 10  1  0  0  0
  7 28  1  0  0  0
  8 25  1  0  0  0
  9 11  1  0  0  0
  9 29  1  0  0  0
  9 30  1  0  0  0
 10 12  1  0  0  0
 10 18  2  0  0  0
 11 13  1  0  0  0
 11 19  2  0  0  0
 12 31  1  0  0  0
 12 32  1  0  0  0
 13 15  2  0  0  0
 13 21  1  0  0  0
 15 20  1  0  0  0
 15 33  1  0  0  0
 19 23  1  0  0  0
 19 34  1  0  0  0
 20 23  2  0  0  0
 20 24  1  0  0  0
 22 26  2  0  0  0
 22 35  1  0  0  0
 23 36  1  0  0  0
 25 27  2  0  0  0
 25 37  1  0  0  0
 26 27  1  0  0  0
 26 38  1  0  0  0
 27 39  1  0  0  0
M  END
> <s_m_entry_id>
6527

> <s_m_entry_name>
dock_pv.362

> <s_m_Source_Path>
/home/csk/Desktop/cluster/DUD-E-result/aldr

> <s_m_Source_File>
dock_pv.maegz

> <i_m_Source_File_Index>
362

> <chembl_id>
CHEMBL62685

> <chembl_pref_name>
None

> <i_lp_mmshare_version>
53161

> <i_f3d_flags>
0

> <r_lp_tautomer_probability>
0.99999999995914

> <s_lp_Force_Field>
OPLS_2005

> <r_lp_Energy>
32.847517

> <b_lp_Chiralities_Consistent>
1

> <s_lp_Variant>
CHEMBL1900_lig98-1

> <s_i_glide_gridfile>
glide-grid_2hv5

> <i_i_glide_lignum>
138

> <i_i_glide_rotatable_bonds>
2

> <r_i_docking_score>
-8.06897956311247

> <r_i_glide_ligand_efficiency>
-0.298851094930091

> <r_i_glide_ligand_efficiency_sa>
-0.89655328380531

> <r_i_glide_ligand_efficiency_ln>
-1.87832541476782

> <r_i_glide_gscore>
-8.06897956311247

> <r_i_glide_lipo>
-3.21907653887538

> <r_i_glide_hbond>
0

> <r_i_glide_metal>
0

> <r_i_glide_rewards>
-3.16900920681818

> <r_i_glide_evdw>
-36.442440032959

> <r_i_glide_ecoul>
-0.484566152095795

> <r_i_glide_erotb>
0.213913107043416

> <r_i_glide_esite>
0

> <r_i_glide_emodel>
-42.497403228076

> <r_i_glide_energy>
-36.9270061850548

> <r_i_glide_einternal>
4.02148103713989

> <i_i_glide_confnum>
1

> <i_i_glide_posenum>
8

> <r_i_glide_eff_state_penalty>
0

> <s_user_duplicate_titles>
CHEMBL1900_lig98,99688,99480

> <s_m_subgroup_title>
dock_pv

> <s_m_subgroupid>
dock_pv

> <b_m_subgroup_collapsed>
1

$$$$
CHEMBL1900_lig587
                    3D
 Schrodinger Suite 2021-1.
 22 23  0  0  1  0            999 V2000
   15.9636   -5.3710   11.2289 C   0  0  0  0  0  0
   15.6467   -4.4395   10.3187 N   0  0  0  0  0  0
   16.5674   -3.6433    9.7803 C   0  0  0  0  0  0
   18.1451   -4.1164   10.4554 S   0  0  0  0  0  0
   17.3894   -5.3278   11.4991 C   0  0  0  0  0  0
   16.4014   -2.7400    8.9671 O   0  0  0  0  0  0
   15.1222   -6.1165   11.7205 O   0  0  0  0  0  0
   18.0697   -6.0895   12.3927 C   0  0  0  0  0  0
   17.6507   -7.0918   13.3986 C   0  0  0  0  0  0
   16.5376   -6.9159   14.2279 C   0  0  0  0  0  0
   16.2479   -7.8203   15.2473 C   0  0  0  0  0  0
   17.0483   -8.9485   15.4222 C   0  0  0  0  0  0
   18.1436   -9.1552   14.5833 C   0  0  0  0  0  0
   18.4515   -8.2238   13.5920 C   0  0  0  0  0  0
   15.1817   -7.5924   16.0758 O   0  0  0  0  0  0
   14.6834   -4.3270   10.0412 H   0  0  0  0  0  0
   19.1334   -5.9096   12.4216 H   0  0  0  0  0  0
   15.8940   -6.0667   14.1034 H   0  0  0  0  0  0
   16.8276   -9.6637   16.1997 H   0  0  0  0  0  0
   18.7638  -10.0299   14.7066 H   0  0  0  0  0  0
   19.3281   -8.3873   12.9815 H   0  0  0  0  0  0
   15.0577   -8.2943   16.7180 H   0  0  0  0  0  0
  1  2  1  0  0  0
  1  5  1  0  0  0
  1  7  2  0  0  0
  2  3  1  0  0  0
  2 16  1  0  0  0
  3  4  1  0  0  0
  3  6  2  0  0  0
  4  5  1  0  0  0
  5  8  2  0  0  0
  8  9  1  0  0  0
  8 17  1  0  0  0
  9 10  2  0  0  0
  9 14  1  0  0  0
 10 11  1  0  0  0
 10 18  1  0  0  0
 11 12  2  0  0  0
 11 15  1  0  0  0
 12 13  1  0  0  0
 12 19  1  0  0  0
 13 14  2  0  0  0
 13 20  1  0  0  0
 14 21  1  0  0  0
 15 22  1  0  0  0
M  END
> <s_m_entry_id>
6528

> <s_m_entry_name>
dock_pv.363

> <s_m_Source_Path>
/home/csk/Desktop/cluster/DUD-E-result/aldr

> <s_m_Source_File>
dock_pv.maegz

> <i_m_Source_File_Index>
363

> <chembl_id>
CHEMBL2260155

> <chembl_pref_name>
None

> <i_lp_mmshare_version>
53161

> <i_f3d_flags>
0

> <r_lp_tautomer_probability>
1

> <s_lp_Force_Field>
OPLS_2005

> <r_lp_Energy>
15.762189

> <b_lp_Chiralities_Consistent>
1

> <s_lp_Variant>
CHEMBL1900_lig587-1

> <s_i_glide_gridfile>
glide-grid_2hv5

> <i_i_glide_lignum>
710

> <i_i_glide_rotatable_bonds>
2

> <r_i_docking_score>
-8.06546448234656

> <r_i_glide_ligand_efficiency>
-0.537697632156438

> <r_i_glide_ligand_efficiency_sa>
-1.32607639156608

> <r_i_glide_ligand_efficiency_ln>
-2.1751227855408

> <r_i_glide_gscore>
-8.06546448234656

> <r_i_glide_lipo>
-2.63203364075193

> <r_i_glide_hbond>
0

> <r_i_glide_metal>
0

> <r_i_glide_rewards>
-3.55901415151515

> <r_i_glide_evdw>
-35.813606262207

> <r_i_glide_ecoul>
-2.85652375221252

> <r_i_glide_erotb>
0.344742185862748

> <r_i_glide_esite>
0

> <r_i_glide_emodel>
-55.5882993353438

> <r_i_glide_energy>
-38.6701300144196

> <r_i_glide_einternal>
0.971614718437195

> <i_i_glide_confnum>
4

> <i_i_glide_posenum>
204

> <r_i_glide_eff_state_penalty>
0

> <s_user_duplicate_titles>
CHEMBL1900_lig587

> <s_m_subgroup_title>
dock_pv

> <s_m_subgroupid>
dock_pv

> <b_m_subgroup_collapsed>
1

$$$$
CHEMBL1900_lig398
                    3D
 Schrodinger Suite 2021-1.
 47 51  0  0  1  0            999 V2000
   16.1999   -4.4963   20.7232 C   0  0  0  0  0  0
   16.9872   -9.7027   16.7458 N   0  0  0  0  0  0
   17.5453   -4.8306   20.5810 C   0  0  0  0  0  0
   15.4121   -5.0642   19.7810 N   0  0  0  0  0  0
   16.0026   -7.6743   17.1093 C   0  0  0  0  0  0
   16.0337   -5.7741   18.8829 C   0  0  0  0  0  0
   16.4722   -7.7564   15.7522 C   0  0  0  0  0  0
   16.2998   -8.9090   17.6401 C   0  0  0  0  0  0
   15.7620   -3.7553   21.8397 C   0  0  0  0  0  0
   17.7450   -5.7150   19.0671 S   0  0  0  0  0  0
   17.1956   -8.9727   15.5894 C   0  0  0  0  0  0
   18.4451   -4.5150   21.5989 C   0  0  0  0  0  0
   16.6093   -3.7152   22.9407 C   0  0  0  0  0  0
   16.3552   -6.9150   14.6464 C   0  0  0  0  0  0
   17.9356   -4.1150   22.8267 C   0  0  0  0  0  0
   15.2698   -6.5150   17.7764 C   0  0  0  0  0  0
   17.4014  -11.0864   16.9884 C   0  0  0  0  0  0
   17.0317   -7.1811   13.4595 C   0  0  0  0  0  0
   17.9064   -9.2579   14.4134 C   0  0  0  0  0  0
   16.2638  -12.0365   17.3810 C   0  0  0  0  0  0
   17.8355   -8.3192   13.3810 C   0  0  0  0  0  0
   16.3675  -12.8380   18.3042 O   0  0  0  0  0  0
   16.8846   -6.2432   12.3140 C   0  0  0  0  0  0
   14.4935   -3.3150   21.9410 F   0  0  0  0  0  0
   19.7452   -4.8041   21.4799 F   0  0  0  0  0  0
   16.1450   -3.3150   24.1423 F   0  0  0  0  0  0
   15.1556  -11.8992   16.6015 O   0  0  0  0  0  0
   18.0024   -5.5990   11.7810 C   0  0  0  0  0  0
   15.6208   -5.9583   11.7810 C   0  0  0  0  0  0
   15.4791   -5.0554   10.7300 C   0  0  0  0  0  0
   17.8671   -4.6956   10.7281 C   0  0  0  0  0  0
   16.6053   -4.4300   10.2039 C   0  0  0  0  0  0
   16.0609   -9.3016   18.6153 H   0  0  0  0  0  0
   15.7450   -6.0432   14.7158 H   0  0  0  0  0  0
   18.5942   -4.0322   23.6775 H   0  0  0  0  0  0
   14.9761   -5.7919   17.0172 H   0  0  0  0  0  0
   14.3313   -6.8998   18.1799 H   0  0  0  0  0  0
   17.8838  -11.4872   16.0978 H   0  0  0  0  0  0
   18.1450  -11.0837   17.7810 H   0  0  0  0  0  0
   18.4819  -10.1632   14.2905 H   0  0  0  0  0  0
   18.3778   -8.5150   12.4694 H   0  0  0  0  0  0
   14.4655  -12.5007   16.8899 H   0  0  0  0  0  0
   18.9781   -5.7932   12.1972 H   0  0  0  0  0  0
   14.7395   -6.4344   12.1810 H   0  0  0  0  0  0
   14.4998   -4.8375   10.3283 H   0  0  0  0  0  0
   18.7360   -4.2000   10.3230 H   0  0  0  0  0  0
   16.4951   -3.7290    9.3897 H   0  0  0  0  0  0
  1  3  2  0  0  0
  1  4  1  0  0  0
  1  9  1  0  0  0
  2  8  1  0  0  0
  2 17  1  0  0  0
  2 11  1  0  0  0
  3 10  1  0  0  0
  3 12  1  0  0  0
  4  6  2  0  0  0
  5 16  1  0  0  0
  5  7  1  0  0  0
  5  8  2  0  0  0
  6 16  1  0  0  0
  6 10  1  0  0  0
  7 11  2  0  0  0
  7 14  1  0  0  0
  8 33  1  0  0  0
  9 13  2  0  0  0
  9 24  1  0  0  0
 11 19  1  0  0  0
 12 25  1  0  0  0
 12 15  2  0  0  0
 13 15  1  0  0  0
 13 26  1  0  0  0
 14 18  2  0  0  0
 14 34  1  0  0  0
 15 35  1  0  0  0
 16 36  1  0  0  0
 16 37  1  0  0  0
 17 20  1  0  0  0
 17 38  1  0  0  0
 17 39  1  0  0  0
 18 21  1  0  0  0
 18 23  1  0  0  0
 19 21  2  0  0  0
 19 40  1  0  0  0
 20 22  2  0  0  0
 20 27  1  0  0  0
 21 41  1  0  0  0
 23 28  2  0  0  0
 23 29  1  0  0  0
 27 42  1  0  0  0
 28 31  1  0  0  0
 28 43  1  0  0  0
 29 30  2  0  0  0
 29 44  1  0  0  0
 30 32  1  0  0  0
 30 45  1  0  0  0
 31 32  2  0  0  0
 31 46  1  0  0  0
 32 47  1  0  0  0
M  END
> <s_m_entry_id>
6529

> <s_m_entry_name>
dock_pv.364

> <s_m_Source_Path>
/home/csk/Desktop/cluster/DUD-E-result/aldr

> <s_m_Source_File>
dock_pv.maegz

> <i_m_Source_File_Index>
364

> <chembl_id>
CHEMBL192182

> <chembl_pref_name>
None

> <i_lp_mmshare_version>
53161

> <i_f3d_flags>
0

> <r_lp_tautomer_probability>
1

> <s_lp_Force_Field>
OPLS_2005

> <r_lp_Energy>
18.077675

> <b_lp_Chiralities_Consistent>
1

> <s_lp_Variant>
CHEMBL1900_lig398-1

> <s_i_glide_gridfile>
glide-grid_2hv5

> <i_i_glide_lignum>
519

> <i_i_glide_rotatable_bonds>
6

> <r_i_docking_score>
-8.06412980865257

> <r_i_glide_ligand_efficiency>
-0.252004056520393

> <r_i_glide_ligand_efficiency_sa>
-0.800063007917182

> <r_i_glide_ligand_efficiency_ln>
-1.8057784840337

> <r_i_glide_gscore>
-8.06412980865257

> <r_i_glide_lipo>
-5.50277673537386

> <r_i_glide_hbond>
-0.515994470161595

> <r_i_glide_metal>
0

> <r_i_glide_rewards>
-1.51787249088276

> <r_i_glide_evdw>
-17.732442855835

> <r_i_glide_ecoul>
-0.70341420173645

> <r_i_glide_erotb>
0.490087611757566

> <r_i_glide_esite>
-0.0254394509397067

> <r_i_glide_emodel>
-29.2308126402259

> <r_i_glide_energy>
-18.4358570575714

> <r_i_glide_einternal>
7.84807682037354

> <i_i_glide_confnum>
44

> <i_i_glide_posenum>
395

> <r_i_glide_eff_state_penalty>
0

> <s_user_duplicate_titles>
CHEMBL1900_lig398,320996

> <s_m_subgroup_title>
dock_pv

> <s_m_subgroupid>
dock_pv

> <b_m_subgroup_collapsed>
1

$$$$
CHEMBL1900_lig569
                    3D
 Schrodinger Suite 2021-1.
 43 46  0  0  1  0            999 V2000
   17.6926  -13.6664   16.9042 C   0  0  0  0  0  0
   16.7640  -13.1979   17.8277 C   0  0  0  0  0  0
   16.2934  -11.8915   17.7795 C   0  0  0  0  0  0
   18.1676  -12.8597   15.8771 C   0  0  0  0  0  0
   17.7420  -11.5177   15.8166 C   0  0  0  0  0  0
   16.8361  -11.0420   16.8044 C   0  0  0  0  0  0
   16.6634   -9.6811   16.6059 N   0  0  0  0  0  0
   18.0108  -10.4186   14.9415 C   0  0  0  0  0  0
   17.3069   -9.3178   15.4076 C   0  0  0  0  0  0
   17.2942   -8.0575   14.6703 C   0  0  0  0  0  0
   18.2672   -7.8839   13.6901 N   0  0  0  0  0  0
   19.3652   -8.8668   13.5360 C   0  0  0  0  0  0
   18.8481  -10.3266   13.6751 C   0  0  0  0  0  0
   16.1428   -6.9150   14.9714 S   0  0  0  0  0  0
   18.5441   -6.5543   13.0422 C   0  0  0  0  0  0
   17.5848   -5.9514   11.9896 C   0  0  0  0  0  0
   17.9780   -4.7886   11.3205 C   0  0  0  0  0  0
   17.1063   -4.1254   10.4505 C   0  0  0  0  0  0
   15.8137   -4.6140   10.2758 C   0  0  0  0  0  0
   15.4124   -5.7703   10.9322 C   0  0  0  0  0  0
   16.3114   -6.4634   11.7373 C   0  0  0  0  0  0
   15.8655   -8.8351   17.5484 C   0  0  0  0  0  0
   16.5496   -7.6126   18.1953 C   0  0  0  0  0  0
   15.9707   -6.8763   18.9819 O   0  0  0  0  0  0
   17.8281   -7.4089   17.7798 O   0  0  0  0  0  0
   19.3121  -13.5085   14.7521 Cl  0  0  0  0  0  0
   16.2100  -14.2264   19.0908 Cl  0  0  0  0  0  0
   18.0546  -14.6732   16.9811 H   0  0  0  0  0  0
   15.5628  -11.5685   18.5122 H   0  0  0  0  0  0
   20.1379   -8.6475   14.2648 H   0  0  0  0  0  0
   19.8475   -8.7553   12.5795 H   0  0  0  0  0  0
   19.7083  -10.9912   13.7036 H   0  0  0  0  0  0
   18.2634  -10.6222   12.8019 H   0  0  0  0  0  0
   19.5327   -6.5665   12.5909 H   0  0  0  0  0  0
   18.6450   -5.8180   13.8417 H   0  0  0  0  0  0
   18.9450   -4.3578   11.4993 H   0  0  0  0  0  0
   17.4217   -3.2217    9.9472 H   0  0  0  0  0  0
   15.1217   -4.0924    9.6305 H   0  0  0  0  0  0
   14.4104   -6.1470   10.8027 H   0  0  0  0  0  0
   15.9754   -7.3646   12.2135 H   0  0  0  0  0  0
   15.5293   -9.4376   18.3878 H   0  0  0  0  0  0
   14.9538   -8.5182   17.0420 H   0  0  0  0  0  0
   18.0980   -8.0145   17.0905 H   0  0  0  0  0  0
  1  2  1  0  0  0
  1  4  2  0  0  0
  1 28  1  0  0  0
  2  3  2  0  0  0
  2 27  1  0  0  0
  3  6  1  0  0  0
  3 29  1  0  0  0
  4  5  1  0  0  0
  4 26  1  0  0  0
  5  8  1  0  0  0
  5  6  2  0  0  0
  6  7  1  0  0  0
  7  9  1  0  0  0
  7 22  1  0  0  0
  8  9  2  0  0  0
  8 13  1  0  0  0
  9 10  1  0  0  0
 10 14  2  0  0  0
 10 11  1  0  0  0
 11 12  1  0  0  0
 11 15  1  0  0  0
 12 13  1  0  0  0
 12 30  1  0  0  0
 12 31  1  0  0  0
 13 32  1  0  0  0
 13 33  1  0  0  0
 15 16  1  0  0  0
 15 34  1  0  0  0
 15 35  1  0  0  0
 16 17  2  0  0  0
 16 21  1  0  0  0
 17 18  1  0  0  0
 17 36  1  0  0  0
 18 19  2  0  0  0
 18 37  1  0  0  0
 19 20  1  0  0  0
 19 38  1  0  0  0
 20 21  2  0  0  0
 20 39  1  0  0  0
 21 40  1  0  0  0
 22 23  1  0  0  0
 22 41  1  0  0  0
 22 42  1  0  0  0
 23 24  2  0  0  0
 23 25  1  0  0  0
 25 43  1  0  0  0
M  END
> <s_m_entry_id>
6530

> <s_m_entry_name>
dock_pv.365

> <s_m_Source_Path>
/home/csk/Desktop/cluster/DUD-E-result/aldr

> <s_m_Source_File>
dock_pv.maegz

> <i_m_Source_File_Index>
365

> <chembl_id>
CHEMBL1944857

> <chembl_pref_name>
None

> <i_lp_mmshare_version>
53161

> <i_f3d_flags>
0

> <r_lp_tautomer_probability>
1

> <s_lp_Force_Field>
OPLS_2005

> <r_lp_Energy>
38.235698

> <b_lp_Chiralities_Consistent>
1

> <s_lp_Variant>
CHEMBL1900_lig569-1

> <s_i_glide_gridfile>
glide-grid_2hv5

> <i_i_glide_lignum>
692

> <i_i_glide_rotatable_bonds>
5

> <r_i_docking_score>
-8.0457172470715

> <r_i_glide_ligand_efficiency>
-0.297989527669315

> <r_i_glide_ligand_efficiency_sa>
-0.89396858202582

> <r_i_glide_ligand_efficiency_ln>
-1.87291033110274

> <r_i_glide_gscore>
-8.0457172470715

> <r_i_glide_lipo>
-3.74934476069129

> <r_i_glide_hbond>
0

> <r_i_glide_metal>
0

> <r_i_glide_rewards>
-2.89771088358995

> <r_i_glide_evdw>
-33.6393432617188

> <r_i_glide_ecoul>
-1.11146378517151

> <r_i_glide_erotb>
0.450025128071406

> <r_i_glide_esite>
0

> <r_i_glide_emodel>
-31.7017353167643

> <r_i_glide_energy>
-34.7508070468903

> <r_i_glide_einternal>
11.3360261917114

> <i_i_glide_confnum>
15

> <i_i_glide_posenum>
380

> <r_i_glide_eff_state_penalty>
0

> <s_user_duplicate_titles>
CHEMBL1900_lig569

> <s_m_subgroup_title>
dock_pv

> <s_m_subgroupid>
dock_pv

> <b_m_subgroup_collapsed>
1

$$$$
CHEMBL1900_lig445
                    3D
 Schrodinger Suite 2021-1.
 28 30  0  0  1  0            999 V2000
   18.2671   -7.6853   14.0262 S   0  0  0  0  0  0
   17.5747   -6.5212   12.8126 C   0  0  0  0  0  0
   17.3980   -7.3993   15.6003 C   0  0  0  0  0  0
   18.4139   -5.6282   12.1930 N   0  0  0  0  0  0
   18.1042   -7.3150   16.6778 N   0  0  0  0  0  0
   16.3042   -6.3597   12.3049 C   0  0  0  0  0  0
   17.7258   -4.8823   11.2541 C   0  0  0  0  0  0
   17.4835   -6.9728   17.8826 N   0  0  0  0  0  0
   16.3642   -5.3131   11.3357 C   0  0  0  0  0  0
   15.9648   -7.2527   15.7044 C   0  0  0  0  0  0
   16.1725   -6.6466   18.0827 C   0  0  0  0  0  0
   17.8871   -9.0371   13.6040 O   0  0  0  0  0  0
   19.6712   -7.2990   14.2112 O   0  0  0  0  0  0
   15.3849   -6.9420   16.8924 C   0  0  0  0  0  0
   18.1285   -3.8784   10.3538 C   0  0  0  0  0  0
   15.7450   -6.1150   19.1067 O   0  0  0  0  0  0
   19.7450   -3.3150   10.1810 Cl  0  0  0  0  0  0
   15.4062   -4.6962   10.5225 C   0  0  0  0  0  0
   15.8212   -3.7045    9.6399 C   0  0  0  0  0  0
   17.1439   -3.3064    9.5595 C   0  0  0  0  0  0
   19.3989   -5.5933   12.4133 H   0  0  0  0  0  0
   15.4289   -6.9150   12.5810 H   0  0  0  0  0  0
   15.3450   -7.4956   14.8632 H   0  0  0  0  0  0
   14.3085   -6.9150   16.9811 H   0  0  0  0  0  0
   18.1128   -6.8557   18.6634 H   0  0  0  0  0  0
   14.3651   -4.9789   10.5810 H   0  0  0  0  0  0
   15.1223   -3.2185    8.9920 H   0  0  0  0  0  0
   17.4086   -2.5234    8.8654 H   0  0  0  0  0  0
  1  2  1  0  0  0
  1 12  2  0  0  0
  1 13  2  0  0  0
  1  3  1  0  0  0
  2  4  1  0  0  0
  2  6  2  0  0  0
  3 10  1  0  0  0
  3  5  2  0  0  0
  4  7  1  0  0  0
  4 21  1  0  0  0
  5  8  1  0  0  0
  6  9  1  0  0  0
  6 22  1  0  0  0
  7 15  1  0  0  0
  7  9  2  0  0  0
  8 11  1  0  0  0
  8 25  1  0  0  0
  9 18  1  0  0  0
 10 14  2  0  0  0
 10 23  1  0  0  0
 11 16  2  0  0  0
 11 14  1  0  0  0
 14 24  1  0  0  0
 15 17  1  0  0  0
 15 20  2  0  0  0
 18 19  2  0  0  0
 18 26  1  0  0  0
 19 20  1  0  0  0
 19 27  1  0  0  0
 20 28  1  0  0  0
M  END
> <s_m_entry_id>
6531

> <s_m_entry_name>
dock_pv.366

> <s_m_Source_Path>
/home/csk/Desktop/cluster/DUD-E-result/aldr

> <s_m_Source_File>
dock_pv.maegz

> <i_m_Source_File_Index>
366

> <chembl_id>
CHEMBL197678

> <chembl_pref_name>
None

> <i_lp_mmshare_version>
53161

> <i_f3d_flags>
0

> <r_lp_tautomer_probability>
0.998994762270461

> <s_lp_Force_Field>
OPLS_2005

> <r_lp_Energy>
20.794353

> <b_lp_Chiralities_Consistent>
1

> <s_lp_Variant>
CHEMBL1900_lig445-1

> <s_i_glide_gridfile>
glide-grid_2hv5

> <i_i_glide_lignum>
567

> <i_i_glide_rotatable_bonds>
2

> <r_i_docking_score>
-8.04177522615532

> <r_i_glide_ligand_efficiency>
-0.402088761307766

> <r_i_glide_ligand_efficiency_sa>
-1.09143681603874

> <r_i_glide_ligand_efficiency_ln>
-2.0125911036083

> <r_i_glide_gscore>
-8.04177522615532

> <r_i_glide_lipo>
-3.37594073624411

> <r_i_glide_hbond>
-0.00414980653845774

> <r_i_glide_metal>
0

> <r_i_glide_rewards>
-2.61933792619929

> <r_i_glide_evdw>
-39.0427551269531

> <r_i_glide_ecoul>
-3.1754994392395

> <r_i_glide_erotb>
0.386115915060109

> <r_i_glide_esite>
0

> <r_i_glide_emodel>
-57.5349162826567

> <r_i_glide_energy>
-42.2182545661926

> <r_i_glide_einternal>
5.60157871246338

> <i_i_glide_confnum>
4

> <i_i_glide_posenum>
44

> <r_i_glide_eff_state_penalty>
0

> <s_user_duplicate_titles>
CHEMBL1900_lig445,331201

> <s_m_subgroup_title>
dock_pv

> <s_m_subgroupid>
dock_pv

> <b_m_subgroup_collapsed>
1

$$$$
CHEMBL1900_lig168
                    3D
 Schrodinger Suite 2021-1.
 43 45  0  0  1  0            999 V2000
   17.9308   -7.7927   15.6818 N   0  0  0  0  0  0
   17.2948   -7.0240   16.6589 N   0  0  0  0  0  0
   17.8136   -9.1750   15.5525 C   0  0  0  0  0  0
   16.5525   -7.5898   17.5433 C   0  0  0  0  0  0
   16.6919   -9.7471   16.3962 C   0  0  0  0  0  0
   18.9458   -7.0525   14.8626 C   0  0  0  0  0  0
   17.7274   -1.9993    9.7550 C   0  0  0  0  0  0
   16.0462   -8.9629   17.3655 C   0  0  0  0  0  0
   16.4634   -6.9275   18.9264 C   0  0  0  0  0  0
   18.4307   -6.6936   13.4641 C   0  0  0  0  0  0
   17.6033   -5.1324   11.8419 C   0  0  0  0  0  0
   18.3683   -5.5130   12.9806 N   0  0  0  0  0  0
   17.2703   -3.3710   10.1805 C   0  0  0  0  0  0
   16.1786   -5.4203   19.0239 C   0  0  0  0  0  0
   18.0624   -4.0722   11.0815 C   0  0  0  0  0  0
   18.5450   -9.8782   14.8537 O   0  0  0  0  0  0
   17.9133   -8.1198   12.5812 S   0  0  0  0  0  0
   16.2608   -5.4779   11.6048 C   0  0  0  0  0  0
   16.0073   -3.8570    9.8492 C   0  0  0  0  0  0
   15.7475   -4.9158   20.0557 O   0  0  0  0  0  0
   15.4991   -4.9205   10.5772 C   0  0  0  0  0  0
   17.1816   -1.7365    8.5810 F   0  0  0  0  0  0
   17.3439   -1.0531   10.5810 F   0  0  0  0  0  0
   19.0511   -1.9132    9.7810 F   0  0  0  0  0  0
   15.3454   -6.4945   12.8767 Br  0  0  0  0  0  0
   16.4754   -4.7171   17.8978 O   0  0  0  0  0  0
   16.3266  -11.0882   16.2145 C   0  0  0  0  0  0
   14.9459   -9.5018   18.0450 C   0  0  0  0  0  0
   15.2651  -11.6264   16.9392 C   0  0  0  0  0  0
   14.5672  -10.8302   17.8436 C   0  0  0  0  0  0
   19.2589   -6.1493   15.3799 H   0  0  0  0  0  0
   19.8590   -7.6346   14.7485 H   0  0  0  0  0  0
   15.7599   -7.4423   19.5768 H   0  0  0  0  0  0
   17.4408   -7.0568   19.3822 H   0  0  0  0  0  0
   18.9451   -3.5897   11.4069 H   0  0  0  0  0  0
   17.4934   -7.4578   11.5019 H   0  0  0  0  0  0
   15.3652   -3.3367    9.1516 H   0  0  0  0  0  0
   14.4668   -5.2044   10.4337 H   0  0  0  0  0  0
   16.8609   -5.3194   17.2491 H   0  0  0  0  0  0
   16.8400  -11.7077   15.4910 H   0  0  0  0  0  0
   14.3826   -8.9149   18.7476 H   0  0  0  0  0  0
   14.9701  -12.6546   16.7871 H   0  0  0  0  0  0
   13.7365  -11.2482   18.3922 H   0  0  0  0  0  0
  1  2  1  0  0  0
  1  3  1  0  0  0
  1  6  1  0  0  0
  2  4  2  0  0  0
  3  5  1  0  0  0
  3 16  2  0  0  0
  4  9  1  0  0  0
  4  8  1  0  0  0
  5  8  2  0  0  0
  5 27  1  0  0  0
  6 10  1  0  0  0
  6 31  1  0  0  0
  6 32  1  0  0  0
  7 13  1  0  0  0
  7 22  1  0  0  0
  7 23  1  0  0  0
  7 24  1  0  0  0
  8 28  1  0  0  0
  9 14  1  0  0  0
  9 33  1  0  0  0
  9 34  1  0  0  0
 10 12  2  0  0  0
 10 17  1  0  0  0
 11 12  1  0  0  0
 11 15  2  0  0  0
 11 18  1  0  0  0
 13 15  1  0  0  0
 13 19  2  0  0  0
 14 20  2  0  0  0
 14 26  1  0  0  0
 15 35  1  0  0  0
 17 36  1  0  0  0
 18 21  2  0  0  0
 18 25  1  0  0  0
 19 21  1  0  0  0
 19 37  1  0  0  0
 21 38  1  0  0  0
 26 39  1  0  0  0
 27 29  2  0  0  0
 27 40  1  0  0  0
 28 30  2  0  0  0
 28 41  1  0  0  0
 29 30  1  0  0  0
 29 42  1  0  0  0
 30 43  1  0  0  0
M  END
> <s_m_entry_id>
6532

> <s_m_entry_name>
dock_pv.367

> <s_m_Source_Path>
/home/csk/Desktop/cluster/DUD-E-result/aldr

> <s_m_Source_File>
dock_pv.maegz

> <i_m_Source_File_Index>
367

> <chembl_id>
CHEMBL141013

> <chembl_pref_name>
None

> <i_lp_mmshare_version>
53161

> <i_f3d_flags>
0

> <r_lp_tautomer_probability>
1

> <s_lp_Force_Field>
OPLS_2005

> <r_lp_Energy>
35.449593

> <b_lp_Chiralities_Consistent>
1

> <s_lp_Variant>
CHEMBL1900_lig168-1

> <s_i_glide_gridfile>
glide-grid_2hv5

> <i_i_glide_lignum>
244

> <i_i_glide_rotatable_bonds>
8

> <r_i_docking_score>
-8.03244493617756

> <r_i_glide_ligand_efficiency>
-0.267748164539252

> <r_i_glide_ligand_efficiency_sa>
-0.831955799322631

> <r_i_glide_ligand_efficiency_ln>
-1.82505900999696

> <r_i_glide_gscore>
-8.03244493617756

> <r_i_glide_lipo>
-4.37740353289419

> <r_i_glide_hbond>
-0.316974505448033

> <r_i_glide_metal>
0

> <r_i_glide_rewards>
-2.23461092898055

> <r_i_glide_evdw>
-17.5919418334961

> <r_i_glide_ecoul>
-4.75558805465698

> <r_i_glide_erotb>
0.489479331018564

> <r_i_glide_esite>
0

> <r_i_glide_emodel>
-35.3470131407993

> <r_i_glide_energy>
-22.3475298881531

> <r_i_glide_einternal>
24.6184787750244

> <i_i_glide_confnum>
9

> <i_i_glide_posenum>
126

> <r_i_glide_eff_state_penalty>
0

> <s_user_duplicate_titles>
CHEMBL1900_lig168,235277

> <s_m_subgroup_title>
dock_pv

> <s_m_subgroupid>
dock_pv

> <b_m_subgroup_collapsed>
1

$$$$
CHEMBL1900_lig504
                    3D
 Schrodinger Suite 2021-1.
 32 34  0  0  1  0            999 V2000
   17.0673   -3.6416    9.7228 C   0  0  0  0  0  0
   15.7471   -3.8059    9.7308 N   0  0  0  0  0  0
   15.1604   -4.6504   10.5815 C   0  0  0  0  0  0
   16.1418   -5.2548   11.4502 C   0  0  0  0  0  0
   17.7564   -4.7054   10.9807 S   0  0  0  0  0  0
   17.7213   -2.9113    8.9869 O   0  0  0  0  0  0
   13.9534   -4.8627   10.5932 O   0  0  0  0  0  0
   15.7512   -6.0953   12.4384 C   0  0  0  0  0  0
   16.5939   -6.9148   13.3359 C   0  0  0  0  0  0
   16.1450   -7.2710   14.6123 C   0  0  0  0  0  0
   16.8927   -8.1283   15.4209 C   0  0  0  0  0  0
   18.1401   -8.5816   14.9842 C   0  0  0  0  0  0
   18.6069   -8.2253   13.7238 C   0  0  0  0  0  0
   17.8221   -7.4154   12.9059 C   0  0  0  0  0  0
   16.3766   -8.5296   16.6287 O   0  0  0  0  0  0
   15.8626   -9.8030   16.7926 C   0  0  0  0  0  0
   16.1046  -10.8748   15.9165 C   0  0  0  0  0  0
   15.5762  -12.1355   16.1830 C   0  0  0  0  0  0
   14.7980  -12.3305   17.3192 C   0  0  0  0  0  0
   14.5449  -11.2745   18.1885 C   0  0  0  0  0  0
   15.0722  -10.0150   17.9207 C   0  0  0  0  0  0
   15.1651   -3.3026    9.0769 H   0  0  0  0  0  0
   14.6882   -6.2169   12.5809 H   0  0  0  0  0  0
   15.1887   -6.9221   14.9733 H   0  0  0  0  0  0
   18.7103   -9.2556   15.6033 H   0  0  0  0  0  0
   19.5549   -8.6024   13.3671 H   0  0  0  0  0  0
   18.1449   -7.2054   11.9027 H   0  0  0  0  0  0
   16.6990  -10.7508   15.0249 H   0  0  0  0  0  0
   15.7647  -12.9570   15.5070 H   0  0  0  0  0  0
   14.3776  -13.3043   17.5246 H   0  0  0  0  0  0
   13.9279  -11.4331   19.0601 H   0  0  0  0  0  0
   14.8790   -9.1980   18.5991 H   0  0  0  0  0  0
  1  5  1  0  0  0
  1  2  1  0  0  0
  1  6  2  0  0  0
  2  3  1  0  0  0
  2 22  1  0  0  0
  3  7  2  0  0  0
  3  4  1  0  0  0
  4  8  2  0  0  0
  4  5  1  0  0  0
  8  9  1  0  0  0
  8 23  1  0  0  0
  9 14  1  0  0  0
  9 10  2  0  0  0
 10 11  1  0  0  0
 10 24  1  0  0  0
 11 12  2  0  0  0
 11 15  1  0  0  0
 12 13  1  0  0  0
 12 25  1  0  0  0
 13 14  2  0  0  0
 13 26  1  0  0  0
 14 27  1  0  0  0
 15 16  1  0  0  0
 16 17  2  0  0  0
 16 21  1  0  0  0
 17 18  1  0  0  0
 17 28  1  0  0  0
 18 19  2  0  0  0
 18 29  1  0  0  0
 19 20  1  0  0  0
 19 30  1  0  0  0
 20 21  2  0  0  0
 20 31  1  0  0  0
 21 32  1  0  0  0
M  END
> <s_m_entry_id>
6533

> <s_m_entry_name>
dock_pv.368

> <s_m_Source_Path>
/home/csk/Desktop/cluster/DUD-E-result/aldr

> <s_m_Source_File>
dock_pv.maegz

> <i_m_Source_File_Index>
368

> <chembl_id>
CHEMBL1645384

> <chembl_pref_name>
None

> <i_lp_mmshare_version>
53161

> <i_f3d_flags>
0

> <r_lp_tautomer_probability>
1

> <s_lp_Force_Field>
OPLS_2005

> <r_lp_Energy>
20.652913

> <b_lp_Chiralities_Consistent>
1

> <s_lp_Variant>
CHEMBL1900_lig504-1

> <s_i_glide_gridfile>
glide-grid_2hv5

> <i_i_glide_lignum>
627

> <i_i_glide_rotatable_bonds>
3

> <r_i_docking_score>
-8.0240407584266

> <r_i_glide_ligand_efficiency>
-0.382097178972695

> <r_i_glide_ligand_efficiency_sa>
-1.05417714372497

> <r_i_glide_ligand_efficiency_ln>
-1.98392786341993

> <r_i_glide_gscore>
-8.0240407584266

> <r_i_glide_lipo>
-3.19240704031182

> <r_i_glide_hbond>
-0.0700621500432029

> <r_i_glide_metal>
0

> <r_i_glide_rewards>
-3.18184472727273

> <r_i_glide_evdw>
-39.9824028015137

> <r_i_glide_ecoul>
-1.35174548625946

> <r_i_glide_erotb>
0.622155122215755

> <r_i_glide_esite>
0

> <r_i_glide_emodel>
-59.5871247572493

> <r_i_glide_energy>
-41.3341482877731

> <r_i_glide_einternal>
2.66496872901917

> <i_i_glide_confnum>
3

> <i_i_glide_posenum>
3

> <r_i_glide_eff_state_penalty>
0

> <s_user_duplicate_titles>
CHEMBL1900_lig504

> <s_m_subgroup_title>
dock_pv

> <s_m_subgroupid>
dock_pv

> <b_m_subgroup_collapsed>
1

$$$$
CHEMBL1900_lig503
                    3D
 Schrodinger Suite 2021-1.
 31 32  0  0  1  0            999 V2000
   16.0483   -8.2246   16.5448 C   0  0  0  0  0  0
   16.8925   -9.1707   16.0769 N   0  0  0  0  0  0
   17.5319   -8.9629   14.8959 C   0  0  0  0  0  0
   17.0567   -7.7508   14.2620 C   0  0  0  0  0  0
   15.9380   -6.9177   15.3347 S   0  0  0  0  0  0
   15.4365   -8.2085   17.6123 O   0  0  0  0  0  0
   18.3675   -9.7295   14.4111 O   0  0  0  0  0  0
   17.4752   -7.4013   13.0215 C   0  0  0  0  0  0
   17.0190   -6.2620   12.2005 C   0  0  0  0  0  0
   17.2229  -10.3849   16.8830 C   0  0  0  0  0  0
   16.0426  -11.3063   17.2772 C   0  0  0  0  0  0
   14.9448  -11.1525   16.4812 O   0  0  0  0  0  0
   16.1450  -12.1136   18.1785 O   0  0  0  0  0  0
   17.9489   -5.3436   11.7091 C   0  0  0  0  0  0
   17.5683   -4.2962   10.8673 C   0  0  0  0  0  0
   16.2199   -4.1886   10.4904 C   0  0  0  0  0  0
   15.2788   -5.0910   10.9808 C   0  0  0  0  0  0
   15.6781   -6.1150   11.8360 C   0  0  0  0  0  0
   18.5586   -3.4159   10.4778 O   0  0  0  0  0  0
   18.1768   -2.1893    9.8633 C   0  0  0  0  0  0
   18.2002   -8.0312   12.5234 H   0  0  0  0  0  0
   17.7449  -10.0633   17.7810 H   0  0  0  0  0  0
   17.9366  -11.0279   16.3667 H   0  0  0  0  0  0
   15.0503  -10.4679   15.8214 H   0  0  0  0  0  0
   18.9836   -5.4370   11.9915 H   0  0  0  0  0  0
   15.8800   -3.4028    9.8332 H   0  0  0  0  0  0
   14.2406   -4.9954   10.6962 H   0  0  0  0  0  0
   14.9452   -6.8244   12.1807 H   0  0  0  0  0  0
   19.0519   -1.5451    9.7804 H   0  0  0  0  0  0
   17.7733   -2.3551    8.8640 H   0  0  0  0  0  0
   17.4381   -1.6480   10.4565 H   0  0  0  0  0  0
  1  5  1  0  0  0
  1  2  1  0  0  0
  1  6  2  0  0  0
  2 10  1  0  0  0
  2  3  1  0  0  0
  3  7  2  0  0  0
  3  4  1  0  0  0
  4  8  2  0  0  0
  4  5  1  0  0  0
  8  9  1  0  0  0
  8 21  1  0  0  0
  9 14  2  0  0  0
  9 18  1  0  0  0
 10 11  1  0  0  0
 10 22  1  0  0  0
 10 23  1  0  0  0
 11 12  1  0  0  0
 11 13  2  0  0  0
 12 24  1  0  0  0
 14 15  1  0  0  0
 14 25  1  0  0  0
 15 16  2  0  0  0
 15 19  1  0  0  0
 16 17  1  0  0  0
 16 26  1  0  0  0
 17 18  2  0  0  0
 17 27  1  0  0  0
 18 28  1  0  0  0
 19 20  1  0  0  0
 20 29  1  0  0  0
 20 30  1  0  0  0
 20 31  1  0  0  0
M  END
> <s_m_entry_id>
6534

> <s_m_entry_name>
dock_pv.369

> <s_m_Source_Path>
/home/csk/Desktop/cluster/DUD-E-result/aldr

> <s_m_Source_File>
dock_pv.maegz

> <i_m_Source_File_Index>
369

> <chembl_id>
CHEMBL1645383

> <chembl_pref_name>
None

> <i_lp_mmshare_version>
53161

> <i_f3d_flags>
0

> <r_lp_tautomer_probability>
1

> <s_lp_Force_Field>
OPLS_2005

> <r_lp_Energy>
17.029502

> <b_lp_Chiralities_Consistent>
1

> <s_lp_Variant>
CHEMBL1900_lig503-1

> <s_i_glide_gridfile>
glide-grid_2hv5

> <i_i_glide_lignum>
626

> <i_i_glide_rotatable_bonds>
5

> <r_i_docking_score>
-8.02101212750466

> <r_i_glide_ligand_efficiency>
-0.401050606375233

> <r_i_glide_ligand_efficiency_sa>
-1.08861883000393

> <r_i_glide_ligand_efficiency_ln>
-2.00739478482886

> <r_i_glide_gscore>
-8.02101212750466

> <r_i_glide_lipo>
-2.99916182678804

> <r_i_glide_hbond>
-0.319154871343754

> <r_i_glide_metal>
0

> <r_i_glide_rewards>
-3.19866725281597

> <r_i_glide_evdw>
-36.8773345947266

> <r_i_glide_ecoul>
-1.98226821422577

> <r_i_glide_erotb>
0.637178785313294

> <r_i_glide_esite>
0

> <r_i_glide_emodel>
-53.9178570336347

> <r_i_glide_energy>
-38.8596028089523

> <r_i_glide_einternal>
5.9844183921814

> <i_i_glide_confnum>
8

> <i_i_glide_posenum>
240

> <r_i_glide_eff_state_penalty>
0

> <s_user_duplicate_titles>
CHEMBL1900_lig503

> <s_m_subgroup_title>
dock_pv

> <s_m_subgroupid>
dock_pv

> <b_m_subgroup_collapsed>
1

$$$$
CHEMBL1900_lig359
                    3D
 Schrodinger Suite 2021-1.
 30 31  0  0  1  0            999 V2000
   16.1902   -7.5655   16.6555 C   0  0  2  0  0  0
   16.9478   -9.7512   15.5520 C   0  0  0  0  0  0
   17.0364   -8.3469   15.6331 C   0  0  0  0  0  0
   17.1279   -6.9378   17.7429 C   0  0  0  0  0  0
   16.0553  -10.5052   16.2728 O   0  0  0  0  0  0
   15.1000   -8.4948   17.2591 C   0  0  0  0  0  0
   17.7205  -10.4835   14.6594 C   0  0  0  0  0  0
   16.5224   -5.8659   18.6697 C   0  0  0  0  0  0
   17.9414   -7.7129   14.7625 C   0  0  0  0  0  0
   15.6149   -9.9286   17.4900 C   0  0  1  0  0  0
   15.7454   -6.1150   19.5859 O   0  0  0  0  0  0
   15.5046   -6.5151   16.0132 O   0  0  0  0  0  0
   18.6063   -9.8305   13.8183 C   0  0  0  0  0  0
   18.7192   -8.4436   13.8630 C   0  0  0  0  0  0
   16.9449   -4.6121   18.3450 O   0  0  0  0  0  0
   19.3670  -10.5591   12.9809 F   0  0  0  0  0  0
   14.5675  -10.8811   18.0693 C   0  0  0  0  0  0
   16.4554   -9.8889   18.1809 H   0  0  0  0  0  0
   18.0199   -6.5213   17.2755 H   0  0  0  0  0  0
   17.5110   -7.7255   18.3895 H   0  0  0  0  0  0
   14.6960   -8.0799   18.1809 H   0  0  0  0  0  0
   14.2411   -8.5623   16.5875 H   0  0  0  0  0  0
   17.6253  -11.5580   14.6110 H   0  0  0  0  0  0
   18.0584   -6.6394   14.7871 H   0  0  0  0  0  0
   16.1450   -6.0051   15.5140 H   0  0  0  0  0  0
   19.4212   -7.9402   13.2143 H   0  0  0  0  0  0
   17.5801   -4.6152   17.6278 H   0  0  0  0  0  0
   14.1455  -10.4839   18.9810 H   0  0  0  0  0  0
   13.7451  -11.0379   17.3786 H   0  0  0  0  0  0
   14.9988  -11.8563   18.2949 H   0  0  0  0  0  0
  1  3  1  0  0  0
  1  4  1  0  0  0
  1  6  1  0  0  0
  1 12  1  0  0  0
  2  3  2  0  0  0
  2  7  1  0  0  0
  2  5  1  0  0  0
  3  9  1  0  0  0
  4  8  1  0  0  0
  4 19  1  0  0  0
  4 20  1  0  0  0
  5 10  1  0  0  0
  6 10  1  0  0  0
  6 21  1  0  0  0
  6 22  1  0  0  0
  7 13  2  0  0  0
  7 23  1  0  0  0
  8 11  2  0  0  0
  8 15  1  0  0  0
  9 14  2  0  0  0
  9 24  1  0  0  0
 10 17  1  0  0  0
 10 18  1  0  0  0
 12 25  1  0  0  0
 13 14  1  0  0  0
 13 16  1  0  0  0
 14 26  1  0  0  0
 15 27  1  0  0  0
 17 28  1  0  0  0
 17 29  1  0  0  0
 17 30  1  0  0  0
M  END
> <s_m_entry_id>
6535

> <s_m_entry_name>
dock_pv.370

> <s_m_Source_Path>
/home/csk/Desktop/cluster/DUD-E-result/aldr

> <s_m_Source_File>
dock_pv.maegz

> <i_m_Source_File_Index>
370

> <chembl_id>
CHEMBL303731

> <chembl_pref_name>
None

> <i_lp_mmshare_version>
53161

> <i_f3d_flags>
0

> <r_lp_tautomer_probability>
1

> <s_lp_Force_Field>
OPLS_2005

> <r_lp_Energy>
15.714881

> <b_lp_Chiralities_Consistent>
1

> <s_lp_Variant>
CHEMBL1900_lig359-1

> <s_i_glide_gridfile>
glide-grid_2hv5

> <i_i_glide_lignum>
480

> <i_i_glide_rotatable_bonds>
4

> <r_i_docking_score>
-8.01981520857854

> <r_i_glide_ligand_efficiency>
-0.471753835798738

> <r_i_glide_ligand_efficiency_sa>
-1.21301195216613

> <r_i_glide_ligand_efficiency_ln>
-2.09219119541417

> <r_i_glide_gscore>
-8.01981520857854

> <r_i_glide_lipo>
-2.85545291878008

> <r_i_glide_hbond>
-0.265471848625665

> <r_i_glide_metal>
0

> <r_i_glide_rewards>
-3.20130731243491

> <r_i_glide_evdw>
-26.3840293884277

> <r_i_glide_ecoul>
-6.51934337615967

> <r_i_glide_erotb>
0.599519847107451

> <r_i_glide_esite>
0

> <r_i_glide_emodel>
-45.9469281482143

> <r_i_glide_energy>
-32.9033727645874

> <r_i_glide_einternal>
4.65078592300415

> <i_i_glide_confnum>
7

> <i_i_glide_posenum>
35

> <r_i_glide_eff_state_penalty>
0

> <s_user_duplicate_titles>
CHEMBL1900_lig359

> <s_m_subgroup_title>
dock_pv

> <s_m_subgroupid>
dock_pv

> <b_m_subgroup_collapsed>
1

$$$$
CHEMBL1900_lig366
                    3D
 Schrodinger Suite 2021-1.
 32 33  0  0  1  0            999 V2000
   18.1079   -7.7206   14.2310 C   0  0  0  0  0  0
   15.5062   -8.3177   17.0061 C   0  0  2  0  0  0
   18.7581   -6.5696   13.6063 N   0  3  0  0  0  0
   16.5315   -8.5647   15.8923 C   0  0  0  0  0  0
   16.9475   -9.8710   15.5638 C   0  0  0  0  0  0
   17.1081   -7.5124   15.1784 C   0  0  0  0  0  0
   16.2120   -7.8623   18.3340 C   0  0  0  0  0  0
   18.5030   -9.0209   13.9213 C   0  0  0  0  0  0
   16.3922  -11.0149   16.0988 O   0  0  0  0  0  0
   17.9116  -10.0952   14.5811 C   0  0  0  0  0  0
   14.7159   -9.6239   17.2402 C   0  0  0  0  0  0
   16.2613   -6.3678   18.6968 C   0  0  0  0  0  0
   19.7408   -6.1153   14.1811 O   0  5  0  0  0  0
   18.2604   -6.1154   12.5820 O   0  0  0  0  0  0
   15.6215  -10.8673   17.2900 C   0  0  1  0  0  0
   15.7451   -5.9015   19.7092 O   0  0  0  0  0  0
   14.5449   -7.3505   16.6323 O   0  0  0  0  0  0
   19.4511   -9.2471   12.9844 F   0  0  0  0  0  0
   16.9450   -5.6397   17.7812 O   0  0  0  0  0  0
   14.8286  -12.1597   17.5214 C   0  0  0  0  0  0
   16.3109  -10.7548   18.1265 H   0  0  0  0  0  0
   16.7679   -6.5149   15.3732 H   0  0  0  0  0  0
   17.2368   -8.2304   18.3563 H   0  0  0  0  0  0
   15.7453   -8.3483   19.1912 H   0  0  0  0  0  0
   18.1984  -11.1044   14.3265 H   0  0  0  0  0  0
   14.1450   -9.5606   18.1647 H   0  0  0  0  0  0
   13.9774   -9.7746   16.4498 H   0  0  0  0  0  0
   13.8683   -7.3164   17.3146 H   0  0  0  0  0  0
   17.3907   -6.2018   17.1471 H   0  0  0  0  0  0
   14.2188  -12.0999   18.4239 H   0  0  0  0  0  0
   14.1612  -12.3675   16.6845 H   0  0  0  0  0  0
   15.4965  -13.0146   17.6289 H   0  0  0  0  0  0
  1  3  1  0  0  0
  1  6  2  0  0  0
  1  8  1  0  0  0
  2  4  1  0  0  0
  2  7  1  0  0  0
  2 11  1  0  0  0
  2 17  1  0  0  0
  3 13  1  0  0  0
  3 14  2  0  0  0
  4  6  1  0  0  0
  4  5  2  0  0  0
  5 10  1  0  0  0
  5  9  1  0  0  0
  6 22  1  0  0  0
  7 12  1  0  0  0
  7 23  1  0  0  0
  7 24  1  0  0  0
  8 10  2  0  0  0
  8 18  1  0  0  0
  9 15  1  0  0  0
 10 25  1  0  0  0
 11 15  1  0  0  0
 11 26  1  0  0  0
 11 27  1  0  0  0
 12 16  2  0  0  0
 12 19  1  0  0  0
 15 20  1  0  0  0
 15 21  1  0  0  0
 17 28  1  0  0  0
 19 29  1  0  0  0
 20 30  1  0  0  0
 20 31  1  0  0  0
 20 32  1  0  0  0
M  CHG  2   3   1  13  -1
M  END
> <s_m_entry_id>
6536

> <s_m_entry_name>
dock_pv.371

> <s_m_Source_Path>
/home/csk/Desktop/cluster/DUD-E-result/aldr

> <s_m_Source_File>
dock_pv.maegz

> <i_m_Source_File_Index>
371

> <chembl_id>
CHEMBL69769

> <chembl_pref_name>
None

> <i_lp_mmshare_version>
53161

> <i_f3d_flags>
0

> <r_lp_tautomer_probability>
1

> <s_lp_Force_Field>
OPLS_2005

> <r_lp_Energy>
18.792089

> <b_lp_Chiralities_Consistent>
1

> <s_lp_Variant>
CHEMBL1900_lig366-1

> <s_i_glide_gridfile>
glide-grid_2hv5

> <i_i_glide_lignum>
487

> <i_i_glide_rotatable_bonds>
5

> <r_i_docking_score>
-8.01865869757986

> <r_i_glide_ligand_efficiency>
-0.400932934878993

> <r_i_glide_ligand_efficiency_sa>
-1.08829942042189

> <r_i_glide_ligand_efficiency_ln>
-2.00680579894

> <r_i_glide_gscore>
-8.01865869757986

> <r_i_glide_lipo>
-2.58563020935028

> <r_i_glide_hbond>
-0.32

> <r_i_glide_metal>
0

> <r_i_glide_rewards>
-3.17752458309663

> <r_i_glide_evdw>
-33.9442443847656

> <r_i_glide_ecoul>
-4.56166172027588

> <r_i_glide_erotb>
0.445957572146724

> <r_i_glide_esite>
0

> <r_i_glide_emodel>
-54.1316749896759

> <r_i_glide_energy>
-38.5059061050415

> <r_i_glide_einternal>
5.48901033401489

> <i_i_glide_confnum>
6

> <i_i_glide_posenum>
62

> <r_i_glide_eff_state_penalty>
0

> <s_user_duplicate_titles>
CHEMBL1900_lig366,109855

> <s_m_subgroup_title>
dock_pv

> <s_m_subgroupid>
dock_pv

> <b_m_subgroup_collapsed>
1

$$$$
CHEMBL1900_lig326
                    3D
 Schrodinger Suite 2021-1.
 32 35  0  0  1  0            999 V2000
   17.1778   -7.8253   15.4185 C   0  0  0  0  0  0
   17.0337   -7.0383   14.1612 C   0  0  0  0  0  0
   17.7136   -5.9546   12.1464 C   0  0  0  0  0  0
   18.0636   -6.7206   13.2854 C   0  0  0  0  0  0
   18.5452   -5.3129   11.2847 O   0  0  0  0  0  0
   17.8575   -4.5931   10.3744 C   0  0  0  0  0  0
   17.5453   -9.2651   15.2929 C   0  0  0  0  0  0
   16.4083   -5.6881   11.7843 C   0  0  0  0  0  0
   15.7450   -6.6701   13.8519 C   0  0  0  0  0  0
   19.4028   -7.3258   13.6397 C   0  0  0  0  0  0
   16.3829   -4.8656   10.5426 C   0  0  0  0  0  0
   16.6778   -7.3866   16.4603 O   0  0  0  0  0  0
   18.4719   -9.7584   14.3455 C   0  0  0  0  0  0
   15.3958   -6.1148   12.6066 C   0  0  0  0  0  0
   18.4149   -3.8574    9.5634 O   0  0  0  0  0  0
   19.4366   -8.8728   13.5308 C   0  0  0  0  0  0
   16.8203  -10.1484   16.1118 C   0  0  0  0  0  0
   18.5459  -11.1487   14.1805 C   0  0  0  0  0  0
   16.9514  -11.5239   15.9460 C   0  0  0  0  0  0
   17.7988  -12.0246   14.9647 C   0  0  0  0  0  0
   14.9617   -6.8644   14.5816 H   0  0  0  0  0  0
   20.1450   -6.9150   12.9815 H   0  0  0  0  0  0
   19.7183   -6.9881   14.6287 H   0  0  0  0  0  0
   15.8321   -3.9321   10.6578 H   0  0  0  0  0  0
   15.9934   -5.4054    9.6800 H   0  0  0  0  0  0
   14.3667   -5.8684   12.3875 H   0  0  0  0  0  0
   20.4502   -9.1878   13.7821 H   0  0  0  0  0  0
   19.3080   -9.1419   12.4879 H   0  0  0  0  0  0
   16.1132   -9.7912   16.8491 H   0  0  0  0  0  0
   19.2268  -11.5611   13.4496 H   0  0  0  0  0  0
   16.3750  -12.2004   16.5599 H   0  0  0  0  0  0
   17.8911  -13.0915   14.8215 H   0  0  0  0  0  0
  1  2  1  0  0  0
  1  7  1  0  0  0
  1 12  2  0  0  0
  2  4  2  0  0  0
  2  9  1  0  0  0
  3  4  1  0  0  0
  3  5  1  0  0  0
  3  8  2  0  0  0
  4 10  1  0  0  0
  5  6  1  0  0  0
  6 15  2  0  0  0
  6 11  1  0  0  0
  7 13  1  0  0  0
  7 17  2  0  0  0
  8 14  1  0  0  0
  8 11  1  0  0  0
  9 14  2  0  0  0
  9 21  1  0  0  0
 10 16  1  0  0  0
 10 22  1  0  0  0
 10 23  1  0  0  0
 11 24  1  0  0  0
 11 25  1  0  0  0
 13 16  1  0  0  0
 13 18  2  0  0  0
 14 26  1  0  0  0
 16 27  1  0  0  0
 16 28  1  0  0  0
 17 19  1  0  0  0
 17 29  1  0  0  0
 18 20  1  0  0  0
 18 30  1  0  0  0
 19 20  2  0  0  0
 19 31  1  0  0  0
 20 32  1  0  0  0
M  END
> <s_m_entry_id>
6537

> <s_m_entry_name>
dock_pv.372

> <s_m_Source_Path>
/home/csk/Desktop/cluster/DUD-E-result/aldr

> <s_m_Source_File>
dock_pv.maegz

> <i_m_Source_File_Index>
372

> <chembl_id>
CHEMBL311679

> <chembl_pref_name>
None

> <i_lp_mmshare_version>
53161

> <i_f3d_flags>
0

> <r_lp_tautomer_probability>
1

> <s_lp_Force_Field>
OPLS_2005

> <r_lp_Energy>
38.653745

> <b_lp_Chiralities_Consistent>
1

> <s_lp_Variant>
CHEMBL1900_lig326-1

> <s_i_glide_gridfile>
glide-grid_2hv5

> <i_i_glide_lignum>
445

> <i_i_glide_rotatable_bonds>
0

> <r_i_docking_score>
-8.01735352861589

> <r_i_glide_ligand_efficiency>
-0.400867676430795

> <r_i_glide_ligand_efficiency_sa>
-1.08812228174064

> <r_i_glide_ligand_efficiency_ln>
-2.00647915819567

> <r_i_glide_gscore>
-8.01735352861589

> <r_i_glide_lipo>
-3.32246295736172

> <r_i_glide_hbond>
0

> <r_i_glide_metal>
0

> <r_i_glide_rewards>
-3.22390077175466

> <r_i_glide_evdw>
-19.0660972595215

> <r_i_glide_ecoul>
-3.45123291015625

> <r_i_glide_erotb>
0

> <r_i_glide_esite>
0

> <r_i_glide_emodel>
-24.6687674185232

> <r_i_glide_energy>
-22.5173301696777

> <r_i_glide_einternal>
0

> <i_i_glide_confnum>
1

> <i_i_glide_posenum>
1

> <r_i_glide_eff_state_penalty>
0

> <s_user_duplicate_titles>
CHEMBL1900_lig326,122914

> <s_m_subgroup_title>
dock_pv

> <s_m_subgroupid>
dock_pv

> <b_m_subgroup_collapsed>
1

$$$$
CHEMBL1900_lig334
                    3D
 Schrodinger Suite 2021-1.
 33 34  0  0  1  0            999 V2000
   15.4460   -8.2240   17.2362 C   0  0  2  0  0  0
   16.4441   -8.5467   16.1224 C   0  0  0  0  0  0
   16.7527   -9.8775   15.7824 C   0  0  0  0  0  0
   16.2026   -7.7408   18.5318 C   0  0  0  0  0  0
   16.0639  -10.9711   16.2588 O   0  0  0  0  0  0
   17.1107   -7.5363   15.4261 C   0  0  0  0  0  0
   14.5897   -9.4797   17.5412 C   0  0  0  0  0  0
   17.7452  -10.1711   14.8513 C   0  0  0  0  0  0
   18.1222   -7.8108   14.5166 C   0  0  0  0  0  0
   16.2686   -6.2315   18.8287 C   0  0  0  0  0  0
   18.4560   -9.1389   14.2385 C   0  0  0  0  0  0
   15.3904  -10.7920   17.4970 C   0  0  1  0  0  0
   15.7451   -5.7150   19.8083 O   0  0  0  0  0  0
   14.5384   -7.2237   16.8239 O   0  0  0  0  0  0
   18.9449   -6.4813   13.7808 Cl  0  0  0  0  0  0
   16.9450   -5.5451   17.8781 O   0  0  0  0  0  0
   19.5628   -9.4676   13.2668 C   0  0  0  0  0  0
   14.5442  -12.0324   17.8030 C   0  0  0  0  0  0
   16.1494  -10.7393   18.2649 H   0  0  0  0  0  0
   17.2252   -8.1158   18.5423 H   0  0  0  0  0  0
   15.7540   -8.1905   19.4167 H   0  0  0  0  0  0
   16.8362   -6.5149   15.5973 H   0  0  0  0  0  0
   14.1450   -9.3856   18.5285 H   0  0  0  0  0  0
   13.7587   -9.5727   16.8382 H   0  0  0  0  0  0
   17.9590  -11.2022   14.6097 H   0  0  0  0  0  0
   13.8480   -7.1473   17.4890 H   0  0  0  0  0  0
   17.3722   -6.1373   17.2587 H   0  0  0  0  0  0
   20.5217   -9.0986   13.6323 H   0  0  0  0  0  0
   19.6420  -10.5348   13.0589 H   0  0  0  0  0  0
   19.3452   -8.9528   12.3349 H   0  0  0  0  0  0
   14.0093  -11.9250   18.7472 H   0  0  0  0  0  0
   13.8089  -12.2190   17.0217 H   0  0  0  0  0  0
   15.1703  -12.9214   17.8783 H   0  0  0  0  0  0
  1  2  1  0  0  0
  1  4  1  0  0  0
  1  7  1  0  0  0
  1 14  1  0  0  0
  2  3  2  0  0  0
  2  6  1  0  0  0
  3  8  1  0  0  0
  3  5  1  0  0  0
  4 10  1  0  0  0
  4 20  1  0  0  0
  4 21  1  0  0  0
  5 12  1  0  0  0
  6  9  2  0  0  0
  6 22  1  0  0  0
  7 12  1  0  0  0
  7 23  1  0  0  0
  7 24  1  0  0  0
  8 11  2  0  0  0
  8 25  1  0  0  0
  9 11  1  0  0  0
  9 15  1  0  0  0
 10 13  2  0  0  0
 10 16  1  0  0  0
 11 17  1  0  0  0
 12 18  1  0  0  0
 12 19  1  0  0  0
 14 26  1  0  0  0
 16 27  1  0  0  0
 17 28  1  0  0  0
 17 29  1  0  0  0
 17 30  1  0  0  0
 18 31  1  0  0  0
 18 32  1  0  0  0
 18 33  1  0  0  0
M  END
> <s_m_entry_id>
6538

> <s_m_entry_name>
dock_pv.373

> <s_m_Source_Path>
/home/csk/Desktop/cluster/DUD-E-result/aldr

> <s_m_Source_File>
dock_pv.maegz

> <i_m_Source_File_Index>
373

> <chembl_id>
CHEMBL69689

> <chembl_pref_name>
None

> <i_lp_mmshare_version>
53161

> <i_f3d_flags>
0

> <r_lp_tautomer_probability>
1

> <s_lp_Force_Field>
OPLS_2005

> <r_lp_Energy>
15.269988

> <b_lp_Chiralities_Consistent>
1

> <s_lp_Variant>
CHEMBL1900_lig334-1

> <s_i_glide_gridfile>
glide-grid_2hv5

> <i_i_glide_lignum>
455

> <i_i_glide_rotatable_bonds>
4

> <r_i_docking_score>
-8.01653118758055

> <r_i_glide_ligand_efficiency>
-0.445362843754475

> <r_i_glide_ligand_efficiency_sa>
-1.16718083894541

> <r_i_glide_ligand_efficiency_ln>
-2.06060800521432

> <r_i_glide_gscore>
-8.01653118758055

> <r_i_glide_lipo>
-3.05627031398969

> <r_i_glide_hbond>
-0.32

> <r_i_glide_metal>
0

> <r_i_glide_rewards>
-2.80719957633634

> <r_i_glide_evdw>
-29.0929927825928

> <r_i_glide_ecoul>
-5.77788972854614

> <r_i_glide_erotb>
0.488271801157044

> <r_i_glide_esite>
0

> <r_i_glide_emodel>
-45.1762267821185

> <r_i_glide_energy>
-34.8708825111389

> <r_i_glide_einternal>
7.56460332870483

> <i_i_glide_confnum>
8

> <i_i_glide_posenum>
325

> <r_i_glide_eff_state_penalty>
0

> <s_user_duplicate_titles>
CHEMBL1900_lig334,109141

> <s_m_subgroup_title>
dock_pv

> <s_m_subgroupid>
dock_pv

> <b_m_subgroup_collapsed>
1

$$$$
CHEMBL1900_lig8
                    3D
 Schrodinger Suite 2021-1.
 45 47  0  0  1  0            999 V2000
   18.3822   -8.2570   14.0806 S   0  0  0  0  0  0
   15.0907  -11.8287   16.9555 N   0  0  0  0  0  0
   16.8763   -8.9587   16.4642 C   0  0  0  0  0  0
   15.0996  -10.7362   16.1808 C   0  0  0  0  0  0
   16.5534  -10.3804   15.9777 C   0  0  2  0  0  0
   16.3027  -12.1764   17.4281 C   0  0  0  0  0  0
   17.5937   -8.0129   15.6928 C   0  0  0  0  0  0
   17.1731  -11.4107   16.7630 N   0  0  0  0  0  0
   18.6126   -9.6872   13.8608 O   0  0  0  0  0  0
   19.5037   -7.3144   14.0066 O   0  0  0  0  0  0
   17.7448   -6.7244   16.1926 C   0  0  0  0  0  0
   16.4223   -8.5718   17.7456 C   0  0  0  0  0  0
   17.1892   -7.7150   12.9164 N   0  0  2  0  0  0
   14.1450  -10.1153   15.7268 O   0  0  0  0  0  0
   16.5468  -12.8950   18.3916 O   0  0  0  0  0  0
   16.6203   -7.2841   18.2272 C   0  0  0  0  0  0
   17.2464   -6.3515   17.4311 C   0  0  0  0  0  0
   16.1450   -6.8274   19.8152 Cl  0  0  0  0  0  0
   16.8040   -4.6981   10.2386 C   0  0  0  0  0  0
   16.5933   -6.3701   13.0378 C   0  0  0  0  0  0
   16.1416   -6.0307   10.5172 C   0  0  0  0  0  0
   16.0672   -3.6613    9.6607 C   0  0  0  0  0  0
   18.1450   -4.5149   10.5688 C   0  0  0  0  0  0
   15.5549   -6.1206   11.9326 C   0  0  0  0  0  0
   18.7483   -3.2884   10.3296 C   0  0  0  0  0  0
   16.6743   -2.4335    9.4215 C   0  0  0  0  0  0
   18.0086   -2.2534    9.7784 C   0  0  0  0  0  0
   14.2396  -12.2820   17.2507 H   0  0  0  0  0  0
   16.7577  -10.5539   14.9261 H   0  0  0  0  0  0
   18.1523  -11.6358   16.6668 H   0  0  0  0  0  0
   18.2697   -5.9844   15.6098 H   0  0  0  0  0  0
   15.9130   -9.2773   18.3860 H   0  0  0  0  0  0
   16.5442   -8.4430   12.6011 H   0  0  0  0  0  0
   17.3818   -5.3414   17.7885 H   0  0  0  0  0  0
   17.3780   -5.6129   13.0260 H   0  0  0  0  0  0
   16.0958   -6.3097   14.0059 H   0  0  0  0  0  0
   15.3464   -6.1642    9.7910 H   0  0  0  0  0  0
   16.8396   -6.8462   10.3183 H   0  0  0  0  0  0
   15.0262   -3.8014    9.4041 H   0  0  0  0  0  0
   18.7134   -5.3170   11.0159 H   0  0  0  0  0  0
   14.9970   -5.2101   12.1568 H   0  0  0  0  0  0
   14.8133   -6.9147   11.9414 H   0  0  0  0  0  0
   19.7820   -3.1239   10.5806 H   0  0  0  0  0  0
   16.1093   -1.6259    8.9806 H   0  0  0  0  0  0
   18.5028   -1.3148    9.6033 H   0  0  0  0  0  0
  1  7  1  0  0  0
  1  9  2  0  0  0
  1 10  2  0  0  0
  1 13  1  0  0  0
  2  4  1  0  0  0
  2  6  1  0  0  0
  2 28  1  0  0  0
  3  7  1  0  0  0
  3  5  1  0  0  0
  3 12  2  0  0  0
  4  5  1  0  0  0
  4 14  2  0  0  0
  5  8  1  0  0  0
  5 29  1  0  0  0
  6  8  1  0  0  0
  6 15  2  0  0  0
  7 11  2  0  0  0
  8 30  1  0  0  0
 11 17  1  0  0  0
 11 31  1  0  0  0
 12 16  1  0  0  0
 12 32  1  0  0  0
 13 20  1  0  0  0
 13 33  1  0  0  0
 16 17  2  0  0  0
 16 18  1  0  0  0
 17 34  1  0  0  0
 19 21  1  0  0  0
 19 22  2  0  0  0
 19 23  1  0  0  0
 20 24  1  0  0  0
 20 35  1  0  0  0
 20 36  1  0  0  0
 21 24  1  0  0  0
 21 37  1  0  0  0
 21 38  1  0  0  0
 22 26  1  0  0  0
 22 39  1  0  0  0
 23 25  2  0  0  0
 23 40  1  0  0  0
 24 41  1  0  0  0
 24 42  1  0  0  0
 25 27  1  0  0  0
 25 43  1  0  0  0
 26 27  2  0  0  0
 26 44  1  0  0  0
 27 45  1  0  0  0
M  END
> <s_m_entry_id>
6539

> <s_m_entry_name>
dock_pv.374

> <s_m_Source_Path>
/home/csk/Desktop/cluster/DUD-E-result/aldr

> <s_m_Source_File>
dock_pv.maegz

> <i_m_Source_File_Index>
374

> <chembl_id>
CHEMBL19711

> <chembl_pref_name>
None

> <i_lp_mmshare_version>
53161

> <i_f3d_flags>
0

> <r_lp_tautomer_probability>
0.999999999781369

> <s_lp_Force_Field>
OPLS_2005

> <r_lp_Energy>
23.907158

> <b_lp_Chiralities_Consistent>
1

> <s_lp_Variant>
CHEMBL1900_lig8-1

> <s_i_glide_gridfile>
glide-grid_2hv5

> <i_i_glide_lignum>
11

> <i_i_glide_rotatable_bonds>
7

> <r_i_docking_score>
-8.00605859917055

> <r_i_glide_ligand_efficiency>
-0.296520688858168

> <r_i_glide_ligand_efficiency_sa>
-0.889562065597222

> <r_i_glide_ligand_efficiency_ln>
-1.8636784516953

> <r_i_glide_gscore>
-8.00605859917055

> <r_i_glide_lipo>
-4.33362989389607

> <r_i_glide_hbond>
-0.264559786217896

> <r_i_glide_metal>
0

> <r_i_glide_rewards>
-1.84742117894533

> <r_i_glide_evdw>
-41.9403800964355

> <r_i_glide_ecoul>
-1.0577290058136

> <r_i_glide_erotb>
0.709642024033543

> <r_i_glide_esite>
-0.0144114084509789

> <r_i_glide_emodel>
-56.1214955025328

> <r_i_glide_energy>
-42.9981091022491

> <r_i_glide_einternal>
8.10410785675049

> <i_i_glide_confnum>
4

> <i_i_glide_posenum>
291

> <r_i_glide_eff_state_penalty>
0

> <s_user_duplicate_titles>
CHEMBL1900_lig8,23015

> <s_m_subgroup_title>
dock_pv

> <s_m_subgroupid>
dock_pv

> <b_m_subgroup_collapsed>
1

$$$$
CHEMBL1900_lig34
                    3D
 Schrodinger Suite 2021-1.
 36 38  0  0  1  0            999 V2000
   18.1436   -7.2977   14.6654 S   0  0  0  0  0  0
   14.4152   -9.6895   16.9813 N   0  0  0  0  0  0
   17.3641  -10.0074   15.2367 C   0  0  0  0  0  0
   15.2967   -8.9224   16.3371 C   0  0  0  0  0  0
   16.6396   -9.5967   16.5344 C   0  0  1  0  0  0
   18.1085   -9.0977   14.4425 C   0  0  0  0  0  0
   14.9479  -10.6891   17.7026 C   0  0  0  0  0  0
   16.2405  -10.6881   17.3818 N   0  0  0  0  0  0
   16.7925   -6.6569   13.6723 N   0  0  0  0  0  0
   17.7939   -6.9905   16.0539 O   0  0  0  0  0  0
   19.4218   -6.8183   14.1345 O   0  0  0  0  0  0
   18.8737   -9.5922   13.3824 C   0  0  0  0  0  0
   17.3553  -11.3658   14.8628 C   0  0  0  0  0  0
   15.0499   -7.9159   15.6802 O   0  0  0  0  0  0
   14.4055  -11.3480   18.5811 O   0  0  0  0  0  0
   16.8370   -5.9803   12.4336 C   0  0  0  0  0  0
   18.0973  -11.8308   13.7846 C   0  0  0  0  0  0
   18.8735  -10.9461   13.0547 C   0  0  0  0  0  0
   16.7044   -4.3664   10.1436 C   0  0  0  0  0  0
   18.0584  -13.5030   13.3623 Cl  0  0  0  0  0  0
   16.6399   -3.5580    9.0616 F   0  0  0  0  0  0
   15.6162   -5.7471   11.7856 C   0  0  0  0  0  0
   17.9918   -5.3936   11.9012 C   0  0  0  0  0  0
   17.9274   -4.5949   10.7607 C   0  0  0  0  0  0
   15.5470   -4.9458   10.6482 C   0  0  0  0  0  0
   13.4278   -9.4874   16.9869 H   0  0  0  0  0  0
   17.2907   -8.9955   17.1678 H   0  0  0  0  0  0
   16.8259  -11.5027   17.4837 H   0  0  0  0  0  0
   15.9002   -6.6710   14.1468 H   0  0  0  0  0  0
   19.4658   -8.9145   12.7905 H   0  0  0  0  0  0
   16.7767  -12.0950   15.4092 H   0  0  0  0  0  0
   19.4499  -11.3160   12.2207 H   0  0  0  0  0  0
   14.6893   -6.1183   12.1895 H   0  0  0  0  0  0
   18.9448   -5.4863   12.3797 H   0  0  0  0  0  0
   18.8152   -4.1209   10.3724 H   0  0  0  0  0  0
   14.5945   -4.7388   10.1834 H   0  0  0  0  0  0
  1  6  1  0  0  0
  1  9  1  0  0  0
  1 10  2  0  0  0
  1 11  2  0  0  0
  2  4  1  0  0  0
  2  7  1  0  0  0
  2 26  1  0  0  0
  3  6  1  0  0  0
  3  5  1  0  0  0
  3 13  2  0  0  0
  4  5  1  0  0  0
  4 14  2  0  0  0
  5  8  1  0  0  0
  5 27  1  0  0  0
  6 12  2  0  0  0
  7  8  1  0  0  0
  7 15  2  0  0  0
  8 28  1  0  0  0
  9 16  1  0  0  0
  9 29  1  0  0  0
 12 18  1  0  0  0
 12 30  1  0  0  0
 13 17  1  0  0  0
 13 31  1  0  0  0
 16 22  1  0  0  0
 16 23  2  0  0  0
 17 18  2  0  0  0
 17 20  1  0  0  0
 18 32  1  0  0  0
 19 24  2  0  0  0
 19 21  1  0  0  0
 19 25  1  0  0  0
 22 25  2  0  0  0
 22 33  1  0  0  0
 23 24  1  0  0  0
 23 34  1  0  0  0
 24 35  1  0  0  0
 25 36  1  0  0  0
M  END
> <s_m_entry_id>
6540

> <s_m_entry_name>
dock_pv.375

> <s_m_Source_Path>
/home/csk/Desktop/cluster/DUD-E-result/aldr

> <s_m_Source_File>
dock_pv.maegz

> <i_m_Source_File_Index>
375

> <chembl_id>
CHEMBL274727

> <chembl_pref_name>
None

> <i_lp_mmshare_version>
53161

> <i_f3d_flags>
0

> <r_lp_tautomer_probability>
0.999999999781369

> <s_lp_Force_Field>
OPLS_2005

> <r_lp_Energy>
22.095558

> <b_lp_Chiralities_Consistent>
1

> <s_lp_Variant>
CHEMBL1900_lig34-2

> <s_i_glide_gridfile>
glide-grid_2hv5

> <i_i_glide_lignum>
67

> <i_i_glide_rotatable_bonds>
4

> <r_i_docking_score>
-7.99689643590764

> <r_i_glide_ligand_efficiency>
-0.319875857436306

> <r_i_glide_ligand_efficiency_sa>
-0.935322680166245

> <r_i_glide_ligand_efficiency_ln>
-1.89550410295792

> <r_i_glide_gscore>
-7.99689643590764

> <r_i_glide_lipo>
-3.31157123456727

> <r_i_glide_hbond>
0

> <r_i_glide_metal>
0

> <r_i_glide_rewards>
-3.1260390823104

> <r_i_glide_evdw>
-45.0072326660156

> <r_i_glide_ecoul>
1.08833265304565

> <r_i_glide_erotb>
0.527825616313969

> <r_i_glide_esite>
0

> <r_i_glide_emodel>
-60.8539987747369

> <r_i_glide_energy>
-43.91890001297

> <r_i_glide_einternal>
7.40933656692505

> <i_i_glide_confnum>
5

> <i_i_glide_posenum>
154

> <r_i_glide_eff_state_penalty>
0

> <s_user_duplicate_titles>
CHEMBL1900_lig34

> <s_m_subgroup_title>
dock_pv

> <s_m_subgroupid>
dock_pv

> <b_m_subgroup_collapsed>
1

$$$$
CHEMBL1900_lig441
                    3D
 Schrodinger Suite 2021-1.
 27 28  0  0  1  0            999 V2000
   18.2437   -7.7470   13.5416 S   0  0  0  0  0  0
   17.4313   -7.5977   15.1628 C   0  0  0  0  0  0
   18.1446   -7.1381   16.1321 N   0  0  0  0  0  0
   17.5527   -6.9150   17.3765 N   0  0  0  0  0  0
   17.1109   -5.5475   11.9996 C   0  0  0  0  0  0
   18.2669   -5.9650   12.9202 C   0  0  0  0  0  0
   16.0365   -7.9051   15.4140 C   0  0  0  0  0  0
   16.2281   -6.9954   17.6947 C   0  0  0  0  0  0
   17.3182   -4.6018   10.9806 C   0  0  0  0  0  0
   15.4802   -7.6428   16.6247 C   0  0  0  0  0  0
   19.6183   -8.1955   13.7833 O   0  0  0  0  0  0
   17.3455   -8.5150   12.6859 O   0  0  0  0  0  0
   16.2549   -4.1727   10.1822 C   0  0  0  0  0  0
   15.7450   -6.5154   18.7177 O   0  0  0  0  0  0
   18.5447   -4.0706   10.7821 F   0  0  0  0  0  0
   16.5007   -2.9735    8.9623 Cl  0  0  0  0  0  0
   15.8212   -6.0598   12.1846 C   0  0  0  0  0  0
   14.7640   -5.6486   11.3809 C   0  0  0  0  0  0
   14.9811   -4.6964   10.3911 C   0  0  0  0  0  0
   18.4187   -5.3152   13.7759 H   0  0  0  0  0  0
   19.1786   -5.8987   12.3556 H   0  0  0  0  0  0
   15.4340   -8.3954   14.6685 H   0  0  0  0  0  0
   14.4487   -7.9026   16.8177 H   0  0  0  0  0  0
   18.1667   -6.5074   18.0660 H   0  0  0  0  0  0
   15.6169   -6.7642   12.9704 H   0  0  0  0  0  0
   13.7716   -6.0473   11.5388 H   0  0  0  0  0  0
   14.1511   -4.3819    9.7810 H   0  0  0  0  0  0
  1  6  1  0  0  0
  1 11  2  0  0  0
  1 12  2  0  0  0
  1  2  1  0  0  0
  2  7  1  0  0  0
  2  3  2  0  0  0
  3  4  1  0  0  0
  4  8  1  0  0  0
  4 24  1  0  0  0
  5  6  1  0  0  0
  5  9  2  0  0  0
  5 17  1  0  0  0
  6 20  1  0  0  0
  6 21  1  0  0  0
  7 10  2  0  0  0
  7 22  1  0  0  0
  8 14  2  0  0  0
  8 10  1  0  0  0
  9 13  1  0  0  0
  9 15  1  0  0  0
 10 23  1  0  0  0
 13 16  1  0  0  0
 13 19  2  0  0  0
 17 18  2  0  0  0
 17 25  1  0  0  0
 18 19  1  0  0  0
 18 26  1  0  0  0
 19 27  1  0  0  0
M  END
> <s_m_entry_id>
6541

> <s_m_entry_name>
dock_pv.376

> <s_m_Source_Path>
/home/csk/Desktop/cluster/DUD-E-result/aldr

> <s_m_Source_File>
dock_pv.maegz

> <i_m_Source_File_Index>
376

> <chembl_id>
CHEMBL198250

> <chembl_pref_name>
None

> <i_lp_mmshare_version>
53161

> <i_f3d_flags>
0

> <r_lp_tautomer_probability>
0.998994762270461

> <s_lp_Force_Field>
OPLS_2005

> <r_lp_Energy>
17.70393

> <b_lp_Chiralities_Consistent>
1

> <s_lp_Variant>
CHEMBL1900_lig441-1

> <s_i_glide_gridfile>
glide-grid_2hv5

> <i_i_glide_lignum>
563

> <i_i_glide_rotatable_bonds>
3

> <r_i_docking_score>
-7.99200351703525

> <r_i_glide_ligand_efficiency>
-0.420631764054487

> <r_i_glide_ligand_efficiency_sa>
-1.12241449160619

> <r_i_glide_ligand_efficiency_ln>
-2.02614454406496

> <r_i_glide_gscore>
-7.99200351703525

> <r_i_glide_lipo>
-3.57844383283592

> <r_i_glide_hbond>
0

> <r_i_glide_metal>
0

> <r_i_glide_rewards>
-3.03714931767388

> <r_i_glide_evdw>
-30.9262466430664

> <r_i_glide_ecoul>
-2.8868670463562

> <r_i_glide_erotb>
0.602932022581302

> <r_i_glide_esite>
0

> <r_i_glide_emodel>
-43.4101807848574

> <r_i_glide_energy>
-33.8131136894226

> <r_i_glide_einternal>
10.7934322357178

> <i_i_glide_confnum>
16

> <i_i_glide_posenum>
205

> <r_i_glide_eff_state_penalty>
0

> <s_user_duplicate_titles>
CHEMBL1900_lig441,331190

> <s_m_subgroup_title>
dock_pv

> <s_m_subgroupid>
dock_pv

> <b_m_subgroup_collapsed>
1

$$$$
CHEMBL1900_lig205
                    3D
 Schrodinger Suite 2021-1.
 34 35  0  0  1  0            999 V2000
   17.1882   -7.9491   15.8137 C   0  0  0  0  0  0
   18.1489   -6.9981   13.9543 N   0  0  0  0  0  0
   17.7241   -8.9048   15.0416 C   0  0  0  0  0  0
   18.3621   -8.3292   13.8730 C   0  0  0  0  0  0
   17.4660   -6.6344   15.1743 C   0  0  0  0  0  0
   16.3657   -8.0421   17.0166 C   0  0  0  0  0  0
   18.4077   -6.0410   12.8586 C   0  0  0  0  0  0
   17.2155   -5.6356   11.9741 C   0  0  0  0  0  0
   18.9529   -8.9300   12.9812 O   0  0  0  0  0  0
   17.3731   -4.6817   10.9471 C   0  0  0  0  0  0
   16.0325   -7.0472   17.6640 O   0  0  0  0  0  0
   17.7461  -10.2640   15.1040 O   0  0  0  0  0  0
   15.9726   -9.3049   17.2966 O   0  0  0  0  0  0
   18.9000   -3.9542   10.5811 Cl  0  0  0  0  0  0
   15.9413   -6.1823   12.1810 C   0  0  0  0  0  0
   16.2777   -4.2796   10.1819 C   0  0  0  0  0  0
   14.9889   -9.5475   18.2926 C   0  0  0  0  0  0
   14.8506   -5.7737   11.4166 C   0  0  0  0  0  0
   14.5504  -11.0162   18.2239 C   0  0  0  0  0  0
   15.0172   -4.8153   10.4268 C   0  0  0  0  0  0
   16.5348   -6.1146   14.9525 H   0  0  0  0  0  0
   18.1126   -5.9975   15.7804 H   0  0  0  0  0  0
   18.8308   -5.1349   13.2947 H   0  0  0  0  0  0
   19.1672   -6.4280   12.1853 H   0  0  0  0  0  0
   18.1927  -10.6023   14.3206 H   0  0  0  0  0  0
   15.7714   -6.9254   12.9440 H   0  0  0  0  0  0
   16.3993   -3.5455    9.4005 H   0  0  0  0  0  0
   14.1450   -8.8899   18.1105 H   0  0  0  0  0  0
   15.3587   -9.3054   19.2881 H   0  0  0  0  0  0
   13.8722   -6.1950   11.5981 H   0  0  0  0  0  0
   13.7862  -11.2404   18.9678 H   0  0  0  0  0  0
   15.3909  -11.6839   18.4060 H   0  0  0  0  0  0
   14.1450  -11.2543   17.2415 H   0  0  0  0  0  0
   14.1694   -4.5141    9.8298 H   0  0  0  0  0  0
  1  3  2  0  0  0
  1  5  1  0  0  0
  1  6  1  0  0  0
  2  5  1  0  0  0
  2  7  1  0  0  0
  2  4  1  0  0  0
  3  4  1  0  0  0
  3 12  1  0  0  0
  4  9  2  0  0  0
  5 21  1  0  0  0
  5 22  1  0  0  0
  6 11  2  0  0  0
  6 13  1  0  0  0
  7  8  1  0  0  0
  7 23  1  0  0  0
  7 24  1  0  0  0
  8 10  2  0  0  0
  8 15  1  0  0  0
 10 14  1  0  0  0
 10 16  1  0  0  0
 12 25  1  0  0  0
 13 17  1  0  0  0
 15 18  2  0  0  0
 15 26  1  0  0  0
 16 20  2  0  0  0
 16 27  1  0  0  0
 17 19  1  0  0  0
 17 28  1  0  0  0
 17 29  1  0  0  0
 18 20  1  0  0  0
 18 30  1  0  0  0
 19 31  1  0  0  0
 19 32  1  0  0  0
 19 33  1  0  0  0
 20 34  1  0  0  0
M  END
> <s_m_entry_id>
6542

> <s_m_entry_name>
dock_pv.377

> <s_m_Source_Path>
/home/csk/Desktop/cluster/DUD-E-result/aldr

> <s_m_Source_File>
dock_pv.maegz

> <i_m_Source_File_Index>
377

> <chembl_id>
CHEMBL266772

> <chembl_pref_name>
None

> <i_lp_mmshare_version>
53161

> <i_f3d_flags>
0

> <r_lp_tautomer_probability>
1

> <s_lp_Force_Field>
OPLS_2005

> <r_lp_Energy>
23.981762

> <b_lp_Chiralities_Consistent>
1

> <s_lp_Variant>
CHEMBL1900_lig205-1

> <s_i_glide_gridfile>
glide-grid_2hv5

> <i_i_glide_lignum>
281

> <i_i_glide_rotatable_bonds>
6

> <r_i_docking_score>
-7.98444991401034

> <r_i_glide_ligand_efficiency>
-0.399222495700517

> <r_i_glide_ligand_efficiency_sa>
-1.08365657418835

> <r_i_glide_ligand_efficiency_ln>
-1.99824446869374

> <r_i_glide_gscore>
-7.98444991401034

> <r_i_glide_lipo>
-3.30298216483228

> <r_i_glide_hbond>
0

> <r_i_glide_metal>
0

> <r_i_glide_rewards>
-3.41637327050351

> <r_i_glide_evdw>
-37.1490287780762

> <r_i_glide_ecoul>
-1.63400149345398

> <r_i_glide_erotb>
0.837457184247356

> <r_i_glide_esite>
0

> <r_i_glide_emodel>
-54.9221332394406

> <r_i_glide_energy>
-38.7830302715302

> <r_i_glide_einternal>
3.39870166778564

> <i_i_glide_confnum>
16

> <i_i_glide_posenum>
256

> <r_i_glide_eff_state_penalty>
0

> <s_user_duplicate_titles>
CHEMBL1900_lig205

> <s_m_subgroup_title>
dock_pv

> <s_m_subgroupid>
dock_pv

> <b_m_subgroup_collapsed>
1

$$$$
CHEMBL1900_lig235
                    3D
 Schrodinger Suite 2021-1.
 30 31  0  0  1  0            999 V2000
   16.2795   -7.1503   17.4711 C   0  0  0  0  0  0
   15.6128   -8.3247   17.6044 C   0  0  0  0  0  0
   17.4913   -7.9227   15.6265 C   0  0  0  0  0  0
   17.1373   -6.8887   16.4550 O   0  0  0  0  0  0
   15.7964   -9.4300   16.6825 C   0  0  0  0  0  0
   16.8811   -9.1855   15.6936 C   0  0  0  0  0  0
   16.1446   -6.0704   18.4538 C   0  0  0  0  0  0
   18.5450   -7.6680   14.7661 C   0  0  0  0  0  0
   17.3454  -10.1986   14.8454 C   0  0  0  0  0  0
   16.9450   -5.0084   18.2540 O   0  0  0  0  0  0
   15.1773  -10.4887   16.7462 O   0  0  0  0  0  0
   15.3453   -6.1150   19.3812 O   0  0  0  0  0  0
   19.0335   -8.7025   13.9862 C   0  0  0  0  0  0
   18.4231   -9.9540   13.9959 C   0  0  0  0  0  0
   20.1829   -8.5150   13.2883 O   0  0  0  0  0  0
   17.1094   -3.9732   19.2319 C   0  0  0  0  0  0
   17.7392   -4.5118   20.5398 C   0  0  0  0  0  0
   15.8555   -3.1069   19.4709 C   0  0  0  0  0  0
   14.9443   -8.4955   18.4322 H   0  0  0  0  0  0
   19.0177   -6.6981   14.7722 H   0  0  0  0  0  0
   16.9040  -11.1870   14.8626 H   0  0  0  0  0  0
   18.8158  -10.7467   13.3762 H   0  0  0  0  0  0
   20.5602   -7.6338   13.3510 H   0  0  0  0  0  0
   17.8476   -3.3149   18.7802 H   0  0  0  0  0  0
   17.8429   -3.7150   21.2762 H   0  0  0  0  0  0
   18.7341   -4.9150   20.3509 H   0  0  0  0  0  0
   17.1407   -5.2921   21.0082 H   0  0  0  0  0  0
   16.0993   -2.2388   20.0839 H   0  0  0  0  0  0
   15.4478   -2.7393   18.5291 H   0  0  0  0  0  0
   15.0673   -3.6514   19.9923 H   0  0  0  0  0  0
  1  2  2  0  0  0
  1  4  1  0  0  0
  1  7  1  0  0  0
  2  5  1  0  0  0
  2 19  1  0  0  0
  3  4  1  0  0  0
  3  6  1  0  0  0
  3  8  2  0  0  0
  5 11  2  0  0  0
  5  6  1  0  0  0
  6  9  2  0  0  0
  7 10  1  0  0  0
  7 12  2  0  0  0
  8 13  1  0  0  0
  8 20  1  0  0  0
  9 14  1  0  0  0
  9 21  1  0  0  0
 10 16  1  0  0  0
 13 14  2  0  0  0
 13 15  1  0  0  0
 14 22  1  0  0  0
 15 23  1  0  0  0
 16 17  1  0  0  0
 16 18  1  0  0  0
 16 24  1  0  0  0
 17 25  1  0  0  0
 17 26  1  0  0  0
 17 27  1  0  0  0
 18 28  1  0  0  0
 18 29  1  0  0  0
 18 30  1  0  0  0
M  END
> <s_m_entry_id>
6543

> <s_m_entry_name>
dock_pv.378

> <s_m_Source_Path>
/home/csk/Desktop/cluster/DUD-E-result/aldr

> <s_m_Source_File>
dock_pv.maegz

> <i_m_Source_File_Index>
378

> <chembl_id>
CHEMBL170943

> <chembl_pref_name>
None

> <i_lp_mmshare_version>
53161

> <i_f3d_flags>
0

> <r_lp_tautomer_probability>
1

> <s_lp_Force_Field>
OPLS_2005

> <r_lp_Energy>
5.744816

> <b_lp_Chiralities_Consistent>
1

> <s_lp_Variant>
CHEMBL1900_lig235-1

> <s_i_glide_gridfile>
glide-grid_2hv5

> <i_i_glide_lignum>
346

> <i_i_glide_rotatable_bonds>
4

> <r_i_docking_score>
-7.97991878980058

> <r_i_glide_ligand_efficiency>
-0.443328821655588

> <r_i_glide_ligand_efficiency_sa>
-1.16185019303926

> <r_i_glide_ligand_efficiency_ln>
-2.05119697715366

> <r_i_glide_gscore>
-7.97991878980058

> <r_i_glide_lipo>
-3.11931624303941

> <r_i_glide_hbond>
-0.532303912129181

> <r_i_glide_metal>
0

> <r_i_glide_rewards>
-2.81103417938639

> <r_i_glide_evdw>
-26.4940280914307

> <r_i_glide_ecoul>
-5.06278276443481

> <r_i_glide_erotb>
0.566854363991151

> <r_i_glide_esite>
0

> <r_i_glide_emodel>
-42.6653566027317

> <r_i_glide_energy>
-31.5568108558655

> <r_i_glide_einternal>
1.62817525863647

> <i_i_glide_confnum>
1

> <i_i_glide_posenum>
392

> <r_i_glide_eff_state_penalty>
0

> <s_user_duplicate_titles>
CHEMBL1900_lig235

> <s_m_subgroup_title>
dock_pv

> <s_m_subgroupid>
dock_pv

> <b_m_subgroup_collapsed>
1

$$$$
CHEMBL1900_lig347
                    3D
 Schrodinger Suite 2021-1.
 27 28  0  0  1  0            999 V2000
   16.1561   -7.4227   17.0113 C   0  0  2  0  0  0
   16.9300   -8.0059   15.8126 C   0  0  0  0  0  0
   17.0788   -6.4259   17.7845 C   0  0  0  0  0  0
   16.4643   -5.6217   18.9388 C   0  0  0  0  0  0
   17.0280   -9.4008   15.6197 C   0  0  0  0  0  0
   17.5654   -7.1864   14.8687 C   0  0  0  0  0  0
   16.4295  -10.3252   16.4529 O   0  0  0  0  0  0
   15.7455   -6.1143   19.7982 O   0  0  0  0  0  0
   15.6779   -8.5790   17.9235 C   0  0  0  0  0  0
   17.7913   -9.9377   14.5824 C   0  0  0  0  0  0
   15.0261   -6.6908   16.5719 O   0  0  0  0  0  0
   18.3266   -7.7113   13.8322 C   0  0  0  0  0  0
   15.2799   -9.8423   17.1454 C   0  0  0  0  0  0
   16.8084   -4.3036   18.8921 O   0  0  0  0  0  0
   18.4528   -9.0907   13.6930 C   0  0  0  0  0  0
   18.9440   -6.8683   12.9811 F   0  0  0  0  0  0
   17.4997   -5.7142   17.0801 H   0  0  0  0  0  0
   17.9384   -6.9607   18.1935 H   0  0  0  0  0  0
   17.4870   -6.1151   14.9383 H   0  0  0  0  0  0
   16.4980   -8.8604   18.5808 H   0  0  0  0  0  0
   14.8713   -8.2681   18.5808 H   0  0  0  0  0  0
   17.8704  -11.0090   14.4694 H   0  0  0  0  0  0
   14.3690   -7.3183   16.2634 H   0  0  0  0  0  0
   14.9232  -10.6172   17.8240 H   0  0  0  0  0  0
   14.4708   -9.6238   16.4432 H   0  0  0  0  0  0
   17.3429   -4.0828   18.1274 H   0  0  0  0  0  0
   19.0556   -9.4980   12.8962 H   0  0  0  0  0  0
  1  2  1  0  0  0
  1  3  1  0  0  0
  1  9  1  0  0  0
  1 11  1  0  0  0
  2  5  2  0  0  0
  2  6  1  0  0  0
  3  4  1  0  0  0
  3 17  1  0  0  0
  3 18  1  0  0  0
  4  8  2  0  0  0
  4 14  1  0  0  0
  5 10  1  0  0  0
  5  7  1  0  0  0
  6 12  2  0  0  0
  6 19  1  0  0  0
  7 13  1  0  0  0
  9 13  1  0  0  0
  9 20  1  0  0  0
  9 21  1  0  0  0
 10 15  2  0  0  0
 10 22  1  0  0  0
 11 23  1  0  0  0
 12 15  1  0  0  0
 12 16  1  0  0  0
 13 24  1  0  0  0
 13 25  1  0  0  0
 14 26  1  0  0  0
 15 27  1  0  0  0
M  END
> <s_m_entry_id>
6544

> <s_m_entry_name>
dock_pv.379

> <s_m_Source_Path>
/home/csk/Desktop/cluster/DUD-E-result/aldr

> <s_m_Source_File>
dock_pv.maegz

> <i_m_Source_File_Index>
379

> <chembl_id>
CHEMBL68635

> <chembl_pref_name>
None

> <i_lp_mmshare_version>
53161

> <i_f3d_flags>
0

> <r_lp_tautomer_probability>
1

> <s_lp_Force_Field>
OPLS_2005

> <r_lp_Energy>
14.836088

> <b_lp_Chiralities_Consistent>
1

> <s_lp_Variant>
CHEMBL1900_lig347-1

> <s_i_glide_gridfile>
glide-grid_2hv5

> <i_i_glide_lignum>
468

> <i_i_glide_rotatable_bonds>
4

> <r_i_docking_score>
-7.97739436608444

> <r_i_glide_ligand_efficiency>
-0.498587147880278

> <r_i_glide_ligand_efficiency_sa>
-1.2563608844817

> <r_i_glide_ligand_efficiency_ln>
-2.11456772880037

> <r_i_glide_gscore>
-7.97739436608444

> <r_i_glide_lipo>
-2.68234563636587

> <r_i_glide_hbond>
-0.299569938015704

> <r_i_glide_metal>
0

> <r_i_glide_rewards>
-3.4379740947512

> <r_i_glide_evdw>
-26.235179901123

> <r_i_glide_ecoul>
-6.06546115875244

> <r_i_glide_erotb>
0.664073471917357

> <r_i_glide_esite>
0

> <r_i_glide_emodel>
-47.0154396197963

> <r_i_glide_energy>
-32.3006410598755

> <r_i_glide_einternal>
2.70982098579407

> <i_i_glide_confnum>
1

> <i_i_glide_posenum>
313

> <r_i_glide_eff_state_penalty>
0

> <s_user_duplicate_titles>
CHEMBL1900_lig347,108749

> <s_m_subgroup_title>
dock_pv

> <s_m_subgroupid>
dock_pv

> <b_m_subgroup_collapsed>
1

$$$$
CHEMBL1900_lig474
                    3D
 Schrodinger Suite 2021-1.
 29 31  0  0  1  0            999 V2000
   16.4065   -6.7931   17.8629 C   0  0  0  0  0  0
   15.8393   -7.9756   18.1780 C   0  0  0  0  0  0
   15.8985   -9.1336   17.3148 C   0  0  0  0  0  0
   16.8280   -8.9598   16.1622 C   0  0  0  0  0  0
   17.1801  -10.0167   15.3079 C   0  0  0  0  0  0
   18.1499   -9.8298   14.3315 C   0  0  0  0  0  0
   18.7869   -8.6031   14.2003 C   0  0  0  0  0  0
   18.3971   -7.5220   14.9779 C   0  0  0  0  0  0
   17.4242   -7.7040   15.9528 C   0  0  0  0  0  0
   17.1303   -6.6020   16.7310 O   0  0  0  0  0  0
   15.3014  -10.1845   17.5433 O   0  0  0  0  0  0
   16.6276  -11.2645   15.4265 O   0  0  0  0  0  0
   19.8633   -8.4971   13.3798 O   0  0  0  0  0  0
   16.2664   -4.3185   18.1839 C   0  0  0  0  0  0
   16.1917   -3.1951   19.0034 C   0  0  0  0  0  0
   16.3394   -3.3348   20.3788 C   0  0  0  0  0  0
   16.5445   -4.5880   20.9439 C   0  0  0  0  0  0
   16.5439   -5.7138   20.1240 C   0  0  0  0  0  0
   16.4243   -5.5947   18.7349 C   0  0  0  0  0  0
   15.3450   -8.1041   19.1126 H   0  0  0  0  0  0
   18.4533  -10.6590   13.7092 H   0  0  0  0  0  0
   18.8788   -6.5624   14.8835 H   0  0  0  0  0  0
   15.9858  -11.2827   16.1466 H   0  0  0  0  0  0
   20.3010   -7.6444   13.4124 H   0  0  0  0  0  0
   16.1446   -4.1950   17.1234 H   0  0  0  0  0  0
   16.0436   -2.2135   18.5810 H   0  0  0  0  0  0
   16.3025   -2.4626   21.0143 H   0  0  0  0  0  0
   16.6497   -4.6902   22.0146 H   0  0  0  0  0  0
   16.6354   -6.6858   20.5777 H   0  0  0  0  0  0
  1  2  2  0  0  0
  1 10  1  0  0  0
  1 19  1  0  0  0
  2  3  1  0  0  0
  2 20  1  0  0  0
  3  4  1  0  0  0
  3 11  2  0  0  0
  4  5  2  0  0  0
  4  9  1  0  0  0
  5  6  1  0  0  0
  5 12  1  0  0  0
  6  7  2  0  0  0
  6 21  1  0  0  0
  7  8  1  0  0  0
  7 13  1  0  0  0
  8  9  2  0  0  0
  8 22  1  0  0  0
  9 10  1  0  0  0
 12 23  1  0  0  0
 13 24  1  0  0  0
 14 15  2  0  0  0
 14 19  1  0  0  0
 14 25  1  0  0  0
 15 16  1  0  0  0
 15 26  1  0  0  0
 16 17  2  0  0  0
 16 27  1  0  0  0
 17 18  1  0  0  0
 17 28  1  0  0  0
 18 19  2  0  0  0
 18 29  1  0  0  0
M  END
> <s_m_entry_id>
6545

> <s_m_entry_name>
dock_pv.380

> <s_m_Source_Path>
/home/csk/Desktop/cluster/DUD-E-result/aldr

> <s_m_Source_File>
dock_pv.maegz

> <i_m_Source_File_Index>
380

> <chembl_id>
CHEMBL117

> <chembl_pref_name>
CHRYSIN

> <i_lp_mmshare_version>
53161

> <i_f3d_flags>
0

> <r_lp_tautomer_probability>
1

> <s_lp_Force_Field>
OPLS_2005

> <r_lp_Energy>
16.320194

> <b_lp_Chiralities_Consistent>
1

> <s_lp_Variant>
CHEMBL1900_lig474-1

> <s_i_glide_gridfile>
glide-grid_2hv5

> <i_i_glide_lignum>
596

> <i_i_glide_rotatable_bonds>
3

> <r_i_docking_score>
-7.97173418574909

> <r_i_glide_ligand_efficiency>
-0.419564957144689

> <r_i_glide_ligand_efficiency_sa>
-1.11956782229201

> <r_i_glide_ligand_efficiency_ln>
-2.0210058332386

> <r_i_glide_gscore>
-7.97173418574909

> <r_i_glide_lipo>
-3.77005700968738

> <r_i_glide_hbond>
-0.109774263293454

> <r_i_glide_metal>
0

> <r_i_glide_rewards>
-2.57565340909091

> <r_i_glide_evdw>
-29.8076343536377

> <r_i_glide_ecoul>
-1.98604846000671

> <r_i_glide_erotb>
0.272039483005549

> <r_i_glide_esite>
0

> <r_i_glide_emodel>
-44.2312392117148

> <r_i_glide_energy>
-31.7936828136444

> <r_i_glide_einternal>
2.46702742576599

> <i_i_glide_confnum>
3

> <i_i_glide_posenum>
95

> <r_i_glide_eff_state_penalty>
0

> <s_user_duplicate_titles>
CHEMBL1900_lig474

> <s_m_subgroup_title>
dock_pv

> <s_m_subgroupid>
dock_pv

> <b_m_subgroup_collapsed>
1

$$$$
CHEMBL1900_lig341
                    3D
 Schrodinger Suite 2021-1.
 30 31  0  0  1  0            999 V2000
   15.5144   -8.1484   17.0480 C   0  0  2  0  0  0
   16.5194   -8.3548   15.9135 C   0  0  0  0  0  0
   17.0089   -9.6431   15.6177 C   0  0  0  0  0  0
   16.2220   -7.7152   18.3833 C   0  0  0  0  0  0
   16.5336  -10.8084   16.1820 O   0  0  0  0  0  0
   16.9782   -7.2931   15.1240 C   0  0  0  0  0  0
   17.9680   -9.8364   14.6282 C   0  0  0  0  0  0
   14.7477   -9.4714   17.2513 C   0  0  0  0  0  0
   17.9498   -7.4731   14.1434 C   0  0  0  0  0  0
   18.4573   -8.7503   13.9099 C   0  0  0  0  0  0
   16.2761   -6.2185   18.7386 C   0  0  0  0  0  0
   15.6785  -10.6942   17.3136 C   0  0  1  0  0  0
   15.7451   -5.7378   19.7396 O   0  0  0  0  0  0
   14.5435   -7.1826   16.7071 O   0  0  0  0  0  0
   18.5134   -6.1164   13.2310 Cl  0  0  0  0  0  0
   19.4129   -8.9479   12.9811 F   0  0  0  0  0  0
   16.9446   -5.5068   17.7979 O   0  0  0  0  0  0
   14.9156  -12.0108   17.5041 C   0  0  0  0  0  0
   16.3314  -10.5715   18.1746 H   0  0  0  0  0  0
   17.2404   -8.1021   18.4115 H   0  0  0  0  0  0
   15.7455   -8.1995   19.2355 H   0  0  0  0  0  0
   16.5538   -6.3153   15.2658 H   0  0  0  0  0  0
   18.3264  -10.8307   14.4079 H   0  0  0  0  0  0
   14.1505   -9.4269   18.1667 H   0  0  0  0  0  0
   14.0283   -9.6303   16.4447 H   0  0  0  0  0  0
   13.8676   -7.1758   17.3911 H   0  0  0  0  0  0
   17.3501   -6.0846   17.1501 H   0  0  0  0  0  0
   14.2599  -11.9736   18.3750 H   0  0  0  0  0  0
   14.2958  -12.2343   16.6352 H   0  0  0  0  0  0
   15.6010  -12.8474   17.6428 H   0  0  0  0  0  0
  1  2  1  0  0  0
  1  4  1  0  0  0
  1  8  1  0  0  0
  1 14  1  0  0  0
  2  3  2  0  0  0
  2  6  1  0  0  0
  3  7  1  0  0  0
  3  5  1  0  0  0
  4 11  1  0  0  0
  4 20  1  0  0  0
  4 21  1  0  0  0
  5 12  1  0  0  0
  6  9  2  0  0  0
  6 22  1  0  0  0
  7 10  2  0  0  0
  7 23  1  0  0  0
  8 12  1  0  0  0
  8 24  1  0  0  0
  8 25  1  0  0  0
  9 10  1  0  0  0
  9 15  1  0  0  0
 10 16  1  0  0  0
 11 13  2  0  0  0
 11 17  1  0  0  0
 12 18  1  0  0  0
 12 19  1  0  0  0
 14 26  1  0  0  0
 17 27  1  0  0  0
 18 28  1  0  0  0
 18 29  1  0  0  0
 18 30  1  0  0  0
M  END
> <s_m_entry_id>
6546

> <s_m_entry_name>
dock_pv.381

> <s_m_Source_Path>
/home/csk/Desktop/cluster/DUD-E-result/aldr

> <s_m_Source_File>
dock_pv.maegz

> <i_m_Source_File_Index>
381

> <chembl_id>
CHEMBL307121

> <chembl_pref_name>
None

> <i_lp_mmshare_version>
53161

> <i_f3d_flags>
0

> <r_lp_tautomer_probability>
1

> <s_lp_Force_Field>
OPLS_2005

> <r_lp_Energy>
15.229547

> <b_lp_Chiralities_Consistent>
1

> <s_lp_Variant>
CHEMBL1900_lig341-1

> <s_i_glide_gridfile>
glide-grid_2hv5

> <i_i_glide_lignum>
462

> <i_i_glide_rotatable_bonds>
4

> <r_i_docking_score>
-7.96488812573434

> <r_i_glide_ligand_efficiency>
-0.442493784763019

> <r_i_glide_ligand_efficiency_sa>
-1.15966177729132

> <r_i_glide_ligand_efficiency_ln>
-2.04733342245976

> <r_i_glide_gscore>
-7.96488812573434

> <r_i_glide_lipo>
-3.03503471069885

> <r_i_glide_hbond>
-0.32

> <r_i_glide_metal>
0

> <r_i_glide_rewards>
-2.82006352227406

> <r_i_glide_evdw>
-29.5437717437744

> <r_i_glide_ecoul>
-5.2582368850708

> <r_i_glide_erotb>
0.476134227187916

> <r_i_glide_esite>
0

> <r_i_glide_emodel>
-48.1102812746304

> <r_i_glide_energy>
-34.8020086288452

> <r_i_glide_einternal>
5.81980895996094

> <i_i_glide_confnum>
2

> <i_i_glide_posenum>
372

> <r_i_glide_eff_state_penalty>
0

> <s_user_duplicate_titles>
CHEMBL1900_lig341,109854

> <s_m_subgroup_title>
dock_pv

> <s_m_subgroupid>
dock_pv

> <b_m_subgroup_collapsed>
1

$$$$
CHEMBL1900_lig361
                    3D
 Schrodinger Suite 2021-1.
 35 36  0  0  1  0            999 V2000
   15.5502   -8.5385   16.9109 C   0  0  2  0  0  0
   16.5396   -8.6523   15.7440 C   0  0  0  0  0  0
   17.0822   -9.9020   15.3834 C   0  0  0  0  0  0
   16.2730   -7.9481   18.1726 C   0  0  0  0  0  0
   16.9822   -7.5273   15.0395 C   0  0  0  0  0  0
   16.6517  -11.1029   15.9056 O   0  0  0  0  0  0
   14.9505   -9.9275   17.2278 C   0  0  0  0  0  0
   17.9558   -7.6300   14.0468 C   0  0  0  0  0  0
   16.5244   -6.4307   18.2486 C   0  0  0  0  0  0
   18.4303   -6.4085   13.3805 C   0  0  0  0  0  0
   16.0020  -11.0497   17.1741 C   0  0  1  0  0  0
   18.0575  -10.0110   14.3913 C   0  0  0  0  0  0
   18.5124   -8.8718   13.7339 C   0  0  0  0  0  0
   16.0170   -5.6020   17.5029 O   0  0  0  0  0  0
   19.3448   -5.7152   13.8122 O   0  0  0  0  0  0
   14.4380   -7.7307   16.5944 O   0  0  0  0  0  0
   17.3449   -6.1150   19.2899 O   0  0  0  0  0  0
   17.6845   -6.0038   12.1154 C   0  0  0  0  0  0
   15.4017  -12.4297   17.4676 C   0  0  0  0  0  0
   16.7639  -10.8559   17.9245 H   0  0  0  0  0  0
   15.7433   -8.2207   19.0860 H   0  0  0  0  0  0
   17.2442   -8.4366   18.2386 H   0  0  0  0  0  0
   16.5691   -6.5590   15.2795 H   0  0  0  0  0  0
   14.1585  -10.1783   16.5184 H   0  0  0  0  0  0
   14.4632   -9.9266   18.2021 H   0  0  0  0  0  0
   18.4572  -10.9786   14.1333 H   0  0  0  0  0  0
   19.2830   -8.9667   12.9792 H   0  0  0  0  0  0
   13.8551   -7.6961   17.3561 H   0  0  0  0  0  0
   17.6964   -6.8918   19.7304 H   0  0  0  0  0  0
   16.6365   -5.8163   12.3503 H   0  0  0  0  0  0
   17.7205   -6.8109   11.3856 H   0  0  0  0  0  0
   18.1184   -5.1057   11.6755 H   0  0  0  0  0  0
   14.9281  -12.4589   18.4499 H   0  0  0  0  0  0
   14.6461  -12.6960   16.7274 H   0  0  0  0  0  0
   16.1702  -13.2022   17.4475 H   0  0  0  0  0  0
  1  2  1  0  0  0
  1  4  1  0  0  0
  1  7  1  0  0  0
  1 16  1  0  0  0
  2  3  2  0  0  0
  2  5  1  0  0  0
  3 12  1  0  0  0
  3  6  1  0  0  0
  4  9  1  0  0  0
  4 21  1  0  0  0
  4 22  1  0  0  0
  5  8  2  0  0  0
  5 23  1  0  0  0
  6 11  1  0  0  0
  7 11  1  0  0  0
  7 24  1  0  0  0
  7 25  1  0  0  0
  8 10  1  0  0  0
  8 13  1  0  0  0
  9 14  2  0  0  0
  9 17  1  0  0  0
 10 15  2  0  0  0
 10 18  1  0  0  0
 11 19  1  0  0  0
 11 20  1  0  0  0
 12 13  2  0  0  0
 12 26  1  0  0  0
 13 27  1  0  0  0
 16 28  1  0  0  0
 17 29  1  0  0  0
 18 30  1  0  0  0
 18 31  1  0  0  0
 18 32  1  0  0  0
 19 33  1  0  0  0
 19 34  1  0  0  0
 19 35  1  0  0  0
M  END
> <s_m_entry_id>
6547

> <s_m_entry_name>
dock_pv.382

> <s_m_Source_Path>
/home/csk/Desktop/cluster/DUD-E-result/aldr

> <s_m_Source_File>
dock_pv.maegz

> <i_m_Source_File_Index>
382

> <chembl_id>
CHEMBL69646

> <chembl_pref_name>
None

> <i_lp_mmshare_version>
53161

> <i_f3d_flags>
0

> <r_lp_tautomer_probability>
0.99995

> <s_lp_Force_Field>
OPLS_2005

> <r_lp_Energy>
19.944203

> <b_lp_Chiralities_Consistent>
1

> <s_lp_Variant>
CHEMBL1900_lig361-1

> <s_i_glide_gridfile>
glide-grid_2hv5

> <i_i_glide_lignum>
482

> <i_i_glide_rotatable_bonds>
5

> <r_i_docking_score>
-7.95900327666044

> <r_i_glide_ligand_efficiency>
-0.418894909297918

> <r_i_glide_ligand_efficiency_sa>
-1.11777986551472

> <r_i_glide_ligand_efficiency_ln>
-2.01777827434977

> <r_i_glide_gscore>
-7.95900327666044

> <r_i_glide_lipo>
-2.84844611082589

> <r_i_glide_hbond>
0

> <r_i_glide_metal>
0

> <r_i_glide_rewards>
-3.37520243336102

> <r_i_glide_evdw>
-34.6733474731445

> <r_i_glide_ecoul>
-3.40455222129822

> <r_i_glide_erotb>
0.508995474378428

> <r_i_glide_esite>
0

> <r_i_glide_emodel>
-51.0641471950814

> <r_i_glide_energy>
-38.0778996944427

> <r_i_glide_einternal>
11.450364112854

> <i_i_glide_confnum>
5

> <i_i_glide_posenum>
53

> <r_i_glide_eff_state_penalty>
0

> <s_user_duplicate_titles>
CHEMBL1900_lig361,108594

> <s_m_subgroup_title>
dock_pv

> <s_m_subgroupid>
dock_pv

> <b_m_subgroup_collapsed>
1

$$$$
CHEMBL1900_lig340
                    3D
 Schrodinger Suite 2021-1.
 30 31  0  0  1  0            999 V2000
   15.3948   -8.2054   17.1828 C   0  0  2  0  0  0
   16.3859   -8.3817   16.0259 C   0  0  0  0  0  0
   16.8798   -9.6599   15.7000 C   0  0  0  0  0  0
   16.1603   -7.7361   18.4761 C   0  0  0  0  0  0
   16.3388  -10.8385   16.1641 O   0  0  0  0  0  0
   16.9051   -7.2943   15.3147 C   0  0  0  0  0  0
   17.9415   -9.8170   14.8165 C   0  0  0  0  0  0
   14.6682   -9.5486   17.4229 C   0  0  0  0  0  0
   17.9976   -7.4323   14.4596 C   0  0  0  0  0  0
   18.5457   -8.6996   14.2524 C   0  0  0  0  0  0
   16.2479   -6.2306   18.7866 C   0  0  0  0  0  0
   15.6092  -10.7641   17.3815 C   0  0  1  0  0  0
   15.7450   -5.7152   19.7809 O   0  0  0  0  0  0
   14.3733   -7.2761   16.8881 O   0  0  0  0  0  0
   18.6787   -6.0254   13.7192 Cl  0  0  0  0  0  0
   20.0150   -8.9120   13.3808 Cl  0  0  0  0  0  0
   16.9450   -5.5522   17.8433 O   0  0  0  0  0  0
   14.8678  -12.0890   17.5996 C   0  0  0  0  0  0
   16.3384  -10.6600   18.1810 H   0  0  0  0  0  0
   17.1816   -8.1151   18.4634 H   0  0  0  0  0  0
   15.7450   -8.2048   19.3662 H   0  0  0  0  0  0
   16.4757   -6.3212   15.4744 H   0  0  0  0  0  0
   18.3235  -10.8045   14.6042 H   0  0  0  0  0  0
   14.1453   -9.5310   18.3787 H   0  0  0  0  0  0
   13.8932   -9.7053   16.6686 H   0  0  0  0  0  0
   13.7178   -7.2987   17.5913 H   0  0  0  0  0  0
   17.3553   -6.1448   17.2121 H   0  0  0  0  0  0
   14.3005  -12.0823   18.5314 H   0  0  0  0  0  0
   14.1660  -12.2853   16.7886 H   0  0  0  0  0  0
   15.5657  -12.9257   17.6417 H   0  0  0  0  0  0
  1  2  1  0  0  0
  1  4  1  0  0  0
  1  8  1  0  0  0
  1 14  1  0  0  0
  2  3  2  0  0  0
  2  6  1  0  0  0
  3  7  1  0  0  0
  3  5  1  0  0  0
  4 11  1  0  0  0
  4 20  1  0  0  0
  4 21  1  0  0  0
  5 12  1  0  0  0
  6  9  2  0  0  0
  6 22  1  0  0  0
  7 10  2  0  0  0
  7 23  1  0  0  0
  8 12  1  0  0  0
  8 24  1  0  0  0
  8 25  1  0  0  0
  9 10  1  0  0  0
  9 15  1  0  0  0
 10 16  1  0  0  0
 11 13  2  0  0  0
 11 17  1  0  0  0
 12 18  1  0  0  0
 12 19  1  0  0  0
 14 26  1  0  0  0
 17 27  1  0  0  0
 18 28  1  0  0  0
 18 29  1  0  0  0
 18 30  1  0  0  0
M  END
> <s_m_entry_id>
6548

> <s_m_entry_name>
dock_pv.383

> <s_m_Source_Path>
/home/csk/Desktop/cluster/DUD-E-result/aldr

> <s_m_Source_File>
dock_pv.maegz

> <i_m_Source_File_Index>
383

> <chembl_id>
CHEMBL70014

> <chembl_pref_name>
None

> <i_lp_mmshare_version>
53161

> <i_f3d_flags>
0

> <r_lp_tautomer_probability>
1

> <s_lp_Force_Field>
OPLS_2005

> <r_lp_Energy>
15.32139

> <b_lp_Chiralities_Consistent>
1

> <s_lp_Variant>
CHEMBL1900_lig340-1

> <s_i_glide_gridfile>
glide-grid_2hv5

> <i_i_glide_lignum>
461

> <i_i_glide_rotatable_bonds>
4

> <r_i_docking_score>
-7.94043739422478

> <r_i_glide_ligand_efficiency>
-0.441135410790266

> <r_i_glide_ligand_efficiency_sa>
-1.15610183039554

> <r_i_glide_ligand_efficiency_ln>
-2.04104848800332

> <r_i_glide_gscore>
-7.94043739422478

> <r_i_glide_lipo>
-3.09820311244523

> <r_i_glide_hbond>
-0.32

> <r_i_glide_metal>
0

> <r_i_glide_rewards>
-2.69904153998452

> <r_i_glide_evdw>
-30.4774436950684

> <r_i_glide_ecoul>
-4.86430406570435

> <r_i_glide_erotb>
0.430325052814046

> <r_i_glide_esite>
0

> <r_i_glide_emodel>
-47.7254605524233

> <r_i_glide_energy>
-35.3417477607727

> <r_i_glide_einternal>
5.68427419662476

> <i_i_glide_confnum>
2

> <i_i_glide_posenum>
4

> <r_i_glide_eff_state_penalty>
0

> <s_user_duplicate_titles>
CHEMBL1900_lig340,108016

> <s_m_subgroup_title>
dock_pv

> <s_m_subgroupid>
dock_pv

> <b_m_subgroup_collapsed>
1

$$$$
CHEMBL1900_lig534
                    3D
 Schrodinger Suite 2021-1.
 61 63  0  0  1  0            999 V2000
   17.7495  -11.5779   15.1412 C   0  0  0  0  0  0
   18.1452  -12.0116   16.2282 O   0  0  0  0  0  0
   18.1779  -12.0958   13.8563 C   0  0  0  0  0  0
   19.3234  -12.7974   13.7146 C   0  0  0  0  0  0
   19.8953  -13.2440   12.4341 C   0  0  0  0  0  0
   19.1200  -13.3634   11.2734 C   0  0  0  0  0  0
   19.7142  -13.6601   10.0492 C   0  0  0  0  0  0
   21.1037  -13.8331    9.9671 C   0  0  0  0  0  0
   21.8747  -13.7566   11.1287 C   0  0  0  0  0  0
   21.2756  -13.4690   12.3525 C   0  0  0  0  0  0
   21.7143  -14.0072    8.7496 O   0  0  0  0  0  0
   18.9416  -13.6978    8.9189 O   0  0  0  0  0  0
   14.7817   -9.9526   16.9602 O   0  0  0  0  0  0
   16.1530   -9.7087   17.2311 C   0  0  1  0  0  0
   16.9518   -9.4449   15.9349 C   0  0  2  0  0  0
   16.4361   -8.1416   15.2891 C   0  0  1  0  0  0
   16.5913   -6.9247   16.2212 C   0  0  0  0  0  0
   15.8752   -7.1404   17.5725 C   0  0  1  0  0  0
   16.2899   -8.5003   18.1812 C   0  0  0  0  0  0
   16.8934   -7.8138   13.9921 O   0  0  0  0  0  0
   18.1641   -7.5638   13.6396 C   0  0  0  0  0  0
   19.1580   -8.0230   14.1834 O   0  0  0  0  0  0
   18.2267   -6.5804   12.5819 C   0  0  0  0  0  0
   17.1448   -6.2182   11.8597 C   0  0  0  0  0  0
   17.0712   -5.0840   10.9487 C   0  0  0  0  0  0
   15.9272   -4.9166   10.1759 C   0  0  0  0  0  0
   15.7943   -3.8078    9.3632 C   0  0  0  0  0  0
   16.7673   -2.8180    9.3558 C   0  0  0  0  0  0
   17.9248   -2.9715   10.1328 C   0  0  0  0  0  0
   18.0700   -4.1162   10.9052 C   0  0  0  0  0  0
   18.9085   -2.0171   10.1800 O   0  0  0  0  0  0
   16.5450   -1.7143    8.5812 O   0  0  0  0  0  0
   16.9534  -10.5034   14.9796 O   0  0  0  0  0  0
   16.1455   -5.9164   18.4994 C   0  0  0  0  0  0
   16.3009   -6.2350   19.8190 O   0  0  0  0  0  0
   16.1655   -4.7601   18.0829 O   0  0  0  0  0  0
   14.4811   -7.1579   17.3584 O   0  0  0  0  0  0
   17.5625  -11.8418   13.0013 H   0  0  0  0  0  0
   19.9044  -13.0298   14.5949 H   0  0  0  0  0  0
   18.0522  -13.1986   11.3023 H   0  0  0  0  0  0
   22.9482  -13.8782   11.0782 H   0  0  0  0  0  0
   21.8977  -13.3751   13.2319 H   0  0  0  0  0  0
   22.6686  -13.8985    8.7917 H   0  0  0  0  0  0
   19.4945  -13.7900    8.1375 H   0  0  0  0  0  0
   14.7229  -10.5288   16.1856 H   0  0  0  0  0  0
   16.5279  -10.5985   17.7451 H   0  0  0  0  0  0
   18.0041   -9.2820   16.2003 H   0  0  0  0  0  0
   15.3711   -8.2780   15.1212 H   0  0  0  0  0  0
   17.6495   -6.7353   16.3978 H   0  0  0  0  0  0
   16.1475   -6.0691   15.7142 H   0  0  0  0  0  0
   15.7402   -8.7144   19.0946 H   0  0  0  0  0  0
   17.3373   -8.4198   18.4591 H   0  0  0  0  0  0
   19.1900   -6.1133   12.4677 H   0  0  0  0  0  0
   16.2117   -6.7482   11.9759 H   0  0  0  0  0  0
   15.1386   -5.6479   10.1805 H   0  0  0  0  0  0
   14.9434   -3.7151    8.7174 H   0  0  0  0  0  0
   18.9236   -4.2020   11.5441 H   0  0  0  0  0  0
   18.6514   -1.2224    9.7012 H   0  0  0  0  0  0
   15.6998   -1.7714    8.1307 H   0  0  0  0  0  0
   16.3094   -7.1811   19.9705 H   0  0  0  0  0  0
   14.2335   -8.0709   17.1644 H   0  0  0  0  0  0
  1  3  1  0  0  0
  1  2  2  0  0  0
  1 33  1  0  0  0
  3  4  2  0  0  0
  3 38  1  0  0  0
  4  5  1  0  0  0
  4 39  1  0  0  0
  5 10  1  0  0  0
  5  6  2  0  0  0
  6  7  1  0  0  0
  6 40  1  0  0  0
  7 12  1  0  0  0
  7  8  2  0  0  0
  8 11  1  0  0  0
  8  9  1  0  0  0
  9 10  2  0  0  0
  9 41  1  0  0  0
 10 42  1  0  0  0
 11 43  1  0  0  0
 12 44  1  0  0  0
 13 14  1  0  0  0
 13 45  1  0  0  0
 14 15  1  0  0  0
 14 19  1  0  0  0
 14 46  1  0  0  0
 15 33  1  0  0  0
 15 16  1  0  0  0
 15 47  1  0  0  0
 16 20  1  0  0  0
 16 17  1  0  0  0
 16 48  1  0  0  0
 17 18  1  0  0  0
 17 49  1  0  0  0
 17 50  1  0  0  0
 18 19  1  0  0  0
 18 34  1  0  0  0
 18 37  1  0  0  0
 19 51  1  0  0  0
 19 52  1  0  0  0
 20 21  1  0  0  0
 21 22  2  0  0  0
 21 23  1  0  0  0
 23 24  2  0  0  0
 23 53  1  0  0  0
 24 25  1  0  0  0
 24 54  1  0  0  0
 25 26  2  0  0  0
 25 30  1  0  0  0
 26 27  1  0  0  0
 26 55  1  0  0  0
 27 28  2  0  0  0
 27 56  1  0  0  0
 28 29  1  0  0  0
 28 32  1  0  0  0
 29 30  2  0  0  0
 29 31  1  0  0  0
 30 57  1  0  0  0
 31 58  1  0  0  0
 32 59  1  0  0  0
 34 35  1  0  0  0
 34 36  2  0  0  0
 35 60  1  0  0  0
 37 61  1  0  0  0
M  END
> <s_m_entry_id>
6549

> <s_m_entry_name>
dock_pv.384

> <s_m_Source_Path>
/home/csk/Desktop/cluster/DUD-E-result/aldr

> <s_m_Source_File>
dock_pv.maegz

> <i_m_Source_File_Index>
384

> <chembl_id>
CHEMBL249448

> <chembl_pref_name>
None

> <i_lp_mmshare_version>
53161

> <i_f3d_flags>
0

> <r_lp_tautomer_probability>
1

> <s_lp_Force_Field>
OPLS_2005

> <r_lp_Energy>
35.05484

> <b_lp_Chiralities_Consistent>
1

> <s_lp_Variant>
CHEMBL1900_lig534-1

> <s_i_glide_gridfile>
glide-grid_2hv5

> <i_i_glide_lignum>
657

> <i_i_glide_rotatable_bonds>
16

> <r_i_docking_score>
-7.93903492030081

> <r_i_glide_ligand_efficiency>
-0.214568511359481

> <r_i_glide_ligand_efficiency_sa>
-0.714989881366617

> <r_i_glide_ligand_efficiency_ln>
-1.7217905568282

> <r_i_glide_gscore>
-7.93903492030081

> <r_i_glide_lipo>
-4.19847795515181

> <r_i_glide_hbond>
0

> <r_i_glide_metal>
0

> <r_i_glide_rewards>
-1.10534782096117

> <r_i_glide_evdw>
-50.1485176086426

> <r_i_glide_ecoul>
-5.46920728683472

> <r_i_glide_erotb>
0.692597829269506

> <r_i_glide_esite>
0

> <r_i_glide_emodel>
-57.8058947797163

> <r_i_glide_energy>
-55.6177248954773

> <r_i_glide_einternal>
34.9187049865723

> <i_i_glide_confnum>
33

> <i_i_glide_posenum>
33

> <r_i_glide_eff_state_penalty>
0

> <s_user_duplicate_titles>
CHEMBL1900_lig534

> <s_m_subgroup_title>
dock_pv

> <s_m_subgroupid>
dock_pv

> <b_m_subgroup_collapsed>
1

$$$$
CHEMBL1900_lig344
                    3D
 Schrodinger Suite 2021-1.
 30 31  0  0  1  0            999 V2000
   15.3568   -8.1982   17.2052 C   0  0  2  0  0  0
   16.3239   -8.2973   16.0190 C   0  0  0  0  0  0
   16.9171   -9.5340   15.6937 C   0  0  0  0  0  0
   16.1450   -7.7411   18.4863 C   0  0  0  0  0  0
   16.4818  -10.7522   16.1702 O   0  0  0  0  0  0
   16.7325   -7.1761   15.2861 C   0  0  0  0  0  0
   17.9755   -9.6093   14.7923 C   0  0  0  0  0  0
   14.6933   -9.5758   17.4109 C   0  0  0  0  0  0
   17.8089   -7.2378   14.4004 C   0  0  0  0  0  0
   18.4634   -8.4511   14.1968 C   0  0  0  0  0  0
   16.2445   -6.2367   18.7891 C   0  0  0  0  0  0
   15.6932  -10.7436   17.3560 C   0  0  1  0  0  0
   15.7449   -5.7155   19.7810 O   0  0  0  0  0  0
   14.2832   -7.3054   16.9804 O   0  0  0  0  0  0
   18.2357   -6.1153   13.7774 F   0  0  0  0  0  0
   19.9050   -8.5273   13.2604 Cl  0  0  0  0  0  0
   16.9449   -5.5667   17.8413 O   0  0  0  0  0  0
   15.0058  -12.1060   17.5125 C   0  0  0  0  0  0
   16.3894  -10.6324   18.1809 H   0  0  0  0  0  0
   17.1669   -8.1192   18.4517 H   0  0  0  0  0  0
   15.7452   -8.2119   19.3820 H   0  0  0  0  0  0
   16.2334   -6.2360   15.4537 H   0  0  0  0  0  0
   18.4371  -10.5625   14.5802 H   0  0  0  0  0  0
   14.1535   -9.6020   18.3575 H   0  0  0  0  0  0
   13.9357   -9.7489   16.6437 H   0  0  0  0  0  0
   13.6731   -7.3491   17.7228 H   0  0  0  0  0  0
   17.3215   -6.1632   17.1930 H   0  0  0  0  0  0
   14.3936  -12.1451   18.4146 H   0  0  0  0  0  0
   14.3568  -12.3192   16.6623 H   0  0  0  0  0  0
   15.7384  -12.9106   17.5747 H   0  0  0  0  0  0
  1  2  1  0  0  0
  1  4  1  0  0  0
  1  8  1  0  0  0
  1 14  1  0  0  0
  2  3  2  0  0  0
  2  6  1  0  0  0
  3  7  1  0  0  0
  3  5  1  0  0  0
  4 11  1  0  0  0
  4 20  1  0  0  0
  4 21  1  0  0  0
  5 12  1  0  0  0
  6  9  2  0  0  0
  6 22  1  0  0  0
  7 10  2  0  0  0
  7 23  1  0  0  0
  8 12  1  0  0  0
  8 24  1  0  0  0
  8 25  1  0  0  0
  9 10  1  0  0  0
  9 15  1  0  0  0
 10 16  1  0  0  0
 11 13  2  0  0  0
 11 17  1  0  0  0
 12 18  1  0  0  0
 12 19  1  0  0  0
 14 26  1  0  0  0
 17 27  1  0  0  0
 18 28  1  0  0  0
 18 29  1  0  0  0
 18 30  1  0  0  0
M  END
> <s_m_entry_id>
6550

> <s_m_entry_name>
dock_pv.385

> <s_m_Source_Path>
/home/csk/Desktop/cluster/DUD-E-result/aldr

> <s_m_Source_File>
dock_pv.maegz

> <i_m_Source_File_Index>
385

> <chembl_id>
CHEMBL303218

> <chembl_pref_name>
None

> <i_lp_mmshare_version>
53161

> <i_f3d_flags>
0

> <r_lp_tautomer_probability>
1

> <s_lp_Force_Field>
OPLS_2005

> <r_lp_Energy>
15.223789

> <b_lp_Chiralities_Consistent>
1

> <s_lp_Variant>
CHEMBL1900_lig344-1

> <s_i_glide_gridfile>
glide-grid_2hv5

> <i_i_glide_lignum>
465

> <i_i_glide_rotatable_bonds>
4

> <r_i_docking_score>
-7.92737847509782

> <r_i_glide_ligand_efficiency>
-0.440409915283212

> <r_i_glide_ligand_efficiency_sa>
-1.15420049429072

> <r_i_glide_ligand_efficiency_ln>
-2.03769176017893

> <r_i_glide_gscore>
-7.92737847509782

> <r_i_glide_lipo>
-2.78358360606258

> <r_i_glide_hbond>
-0.32

> <r_i_glide_metal>
0

> <r_i_glide_rewards>
-3.19079992962007

> <r_i_glide_evdw>
-28.6609497070312

> <r_i_glide_ecoul>
-4.50721120834351

> <r_i_glide_erotb>
0.476134227187916

> <r_i_glide_esite>
0

> <r_i_glide_emodel>
-45.1310155717257

> <r_i_glide_energy>
-33.1681609153748

> <r_i_glide_einternal>
4.64513921737671

> <i_i_glide_confnum>
6

> <i_i_glide_posenum>
247

> <r_i_glide_eff_state_penalty>
0

> <s_user_duplicate_titles>
CHEMBL1900_lig344,108015

> <s_m_subgroup_title>
dock_pv

> <s_m_subgroupid>
dock_pv

> <b_m_subgroup_collapsed>
1

$$$$
CHEMBL1900_lig337
                    3D
 Schrodinger Suite 2021-1.
 34 35  0  0  1  0            999 V2000
   15.5521   -8.0343   17.0961 C   0  0  2  0  0  0
   16.4964   -8.5477   15.9970 C   0  0  0  0  0  0
   16.6496   -9.9297   15.7803 C   0  0  0  0  0  0
   16.4079   -7.5596   18.3347 C   0  0  0  0  0  0
   15.8759  -10.8935   16.3878 O   0  0  0  0  0  0
   17.2835   -7.6885   15.2191 C   0  0  0  0  0  0
   17.5722  -10.4260   14.8700 C   0  0  0  0  0  0
   14.5889   -9.1689   17.5287 C   0  0  0  0  0  0
   18.2170   -8.1796   14.3050 C   0  0  0  0  0  0
   18.3854   -9.5597   14.1301 C   0  0  0  0  0  0
   16.3221   -6.0901   18.7657 C   0  0  0  0  0  0
   15.3166  -10.5206   17.6363 C   0  0  1  0  0  0
   15.7450   -5.7153   19.7808 O   0  0  0  0  0  0
   14.7099   -6.9993   16.6163 O   0  0  0  0  0  0
   19.1669   -7.0476   13.4090 Cl  0  0  0  0  0  0
   16.9448   -5.2702   17.8848 O   0  0  0  0  0  0
   19.3409  -10.0034   13.2333 O   0  0  0  0  0  0
   14.4383  -11.6661   18.1487 C   0  0  0  0  0  0
   19.4537  -11.4023   12.9774 C   0  0  0  0  0  0
   16.1434  -10.4058   18.3289 H   0  0  0  0  0  0
   17.4653   -7.7919   18.1966 H   0  0  0  0  0  0
   16.1445   -8.1345   19.2235 H   0  0  0  0  0  0
   17.1790   -6.6206   15.3331 H   0  0  0  0  0  0
   17.6369  -11.4961   14.7552 H   0  0  0  0  0  0
   14.1450   -8.9180   18.4900 H   0  0  0  0  0  0
   13.7509   -9.2829   16.8335 H   0  0  0  0  0  0
   14.0053   -6.8797   17.2605 H   0  0  0  0  0  0
   17.3910   -5.7635   17.1950 H   0  0  0  0  0  0
   13.8594  -11.3730   19.0236 H   0  0  0  0  0  0
   13.7451  -12.0044   17.3816 H   0  0  0  0  0  0
   15.0452  -12.5276   18.4271 H   0  0  0  0  0  0
   20.1961  -11.5949   12.2024 H   0  0  0  0  0  0
   19.7683  -11.9464   13.8698 H   0  0  0  0  0  0
   18.5103  -11.8178   12.6197 H   0  0  0  0  0  0
  1  2  1  0  0  0
  1  4  1  0  0  0
  1  8  1  0  0  0
  1 14  1  0  0  0
  2  3  2  0  0  0
  2  6  1  0  0  0
  3  7  1  0  0  0
  3  5  1  0  0  0
  4 11  1  0  0  0
  4 21  1  0  0  0
  4 22  1  0  0  0
  5 12  1  0  0  0
  6  9  2  0  0  0
  6 23  1  0  0  0
  7 10  2  0  0  0
  7 24  1  0  0  0
  8 12  1  0  0  0
  8 25  1  0  0  0
  8 26  1  0  0  0
  9 10  1  0  0  0
  9 15  1  0  0  0
 10 17  1  0  0  0
 11 13  2  0  0  0
 11 16  1  0  0  0
 12 18  1  0  0  0
 12 20  1  0  0  0
 14 27  1  0  0  0
 16 28  1  0  0  0
 17 19  1  0  0  0
 18 29  1  0  0  0
 18 30  1  0  0  0
 18 31  1  0  0  0
 19 32  1  0  0  0
 19 33  1  0  0  0
 19 34  1  0  0  0
M  END
> <s_m_entry_id>
6551

> <s_m_entry_name>
dock_pv.386

> <s_m_Source_Path>
/home/csk/Desktop/cluster/DUD-E-result/aldr

> <s_m_Source_File>
dock_pv.maegz

> <i_m_Source_File_Index>
386

> <chembl_id>
CHEMBL68992

> <chembl_pref_name>
None

> <i_lp_mmshare_version>
53161

> <i_f3d_flags>
0

> <r_lp_tautomer_probability>
1

> <s_lp_Force_Field>
OPLS_2005

> <r_lp_Energy>
19.077002

> <b_lp_Chiralities_Consistent>
1

> <s_lp_Variant>
CHEMBL1900_lig337-1

> <s_i_glide_gridfile>
glide-grid_2hv5

> <i_i_glide_lignum>
458

> <i_i_glide_rotatable_bonds>
5

> <r_i_docking_score>
-7.92252615334051

> <r_i_glide_ligand_efficiency>
-0.416975060702132

> <r_i_glide_ligand_efficiency_sa>
-1.11265693836145

> <r_i_glide_ligand_efficiency_ln>
-2.0085305401314

> <r_i_glide_gscore>
-7.92252615334051

> <r_i_glide_lipo>
-3.06300775671429

> <r_i_glide_hbond>
-0.32

> <r_i_glide_metal>
0

> <r_i_glide_rewards>
-2.7516776172225

> <r_i_glide_evdw>
-28.5627937316895

> <r_i_glide_ecoul>
-5.34434223175049

> <r_i_glide_erotb>
0.441950241943323

> <r_i_glide_esite>
0

> <r_i_glide_emodel>
-44.2990114603091

> <r_i_glide_energy>
-33.9071359634399

> <r_i_glide_einternal>
8.66672706604004

> <i_i_glide_confnum>
2

> <i_i_glide_posenum>
264

> <r_i_glide_eff_state_penalty>
0

> <s_user_duplicate_titles>
CHEMBL1900_lig337,109163

> <s_m_subgroup_title>
dock_pv

> <s_m_subgroupid>
dock_pv

> <b_m_subgroup_collapsed>
1

$$$$
CHEMBL1900_lig89
                    3D
 Schrodinger Suite 2021-1.
 28 30  0  0  1  0            999 V2000
   16.4573   -7.8108   17.4092 C   0  0  2  0  0  0
   17.1925   -8.0776   16.0885 C   0  0  0  0  0  0
   16.0926   -5.6297   18.0099 N   0  0  0  0  0  0
   15.5618   -6.5940   17.2534 C   0  0  0  0  0  0
   17.1382   -9.3409   15.4702 C   0  0  0  0  0  0
   17.0953   -6.0264   18.7946 C   0  0  0  0  0  0
   17.3200   -7.2966   18.4427 N   0  0  0  0  0  0
   16.4202  -10.3949   15.9856 O   0  0  0  0  0  0
   17.7926   -9.6524   14.3219 N   0  0  0  0  0  0
   15.5936   -9.0324   17.8420 C   0  0  0  0  0  0
   17.9507   -7.1035   15.4293 C   0  0  0  0  0  0
   14.5450   -6.5150   16.5810 O   0  0  0  0  0  0
   15.2511  -10.0253   16.7147 C   0  0  2  0  0  0
   17.7450   -5.3150   19.5521 O   0  0  0  0  0  0
   18.4851   -8.6637   13.7036 C   0  0  0  0  0  0
   18.5607   -7.3728   14.2162 C   0  0  0  0  0  0
   19.3450   -6.0986   13.3810 Cl  0  0  0  0  0  0
   14.6092  -11.3053   17.2659 C   0  0  0  0  0  0
   15.7450   -4.6851   18.0253 H   0  0  0  0  0  0
   17.7848   -7.9370   19.0703 H   0  0  0  0  0  0
   14.6785   -8.7423   18.3623 H   0  0  0  0  0  0
   16.1450   -9.5953   18.5810 H   0  0  0  0  0  0
   18.0453   -6.1150   15.8419 H   0  0  0  0  0  0
   14.5353   -9.5557   16.0347 H   0  0  0  0  0  0
   18.9728   -8.9152   12.7761 H   0  0  0  0  0  0
   13.7450  -11.0817   17.8901 H   0  0  0  0  0  0
   14.2755  -11.9539   16.4555 H   0  0  0  0  0  0
   15.3149  -11.8742   17.8714 H   0  0  0  0  0  0
  1  2  1  0  0  0
  1  4  1  0  0  0
  1  7  1  0  0  0
  1 10  1  0  0  0
  2  5  1  0  0  0
  2 11  2  0  0  0
  3  4  1  0  0  0
  3  6  1  0  0  0
  3 19  1  0  0  0
  4 12  2  0  0  0
  5  9  2  0  0  0
  5  8  1  0  0  0
  6  7  1  0  0  0
  6 14  2  0  0  0
  7 20  1  0  0  0
  8 13  1  0  0  0
  9 15  1  0  0  0
 10 13  1  0  0  0
 10 21  1  0  0  0
 10 22  1  0  0  0
 11 16  1  0  0  0
 11 23  1  0  0  0
 13 18  1  0  0  0
 13 24  1  0  0  0
 15 16  2  0  0  0
 15 25  1  0  0  0
 16 17  1  0  0  0
 18 26  1  0  0  0
 18 27  1  0  0  0
 18 28  1  0  0  0
M  END
> <s_m_entry_id>
6552

> <s_m_entry_name>
dock_pv.387

> <s_m_Source_Path>
/home/csk/Desktop/cluster/DUD-E-result/aldr

> <s_m_Source_File>
dock_pv.maegz

> <i_m_Source_File_Index>
387

> <chembl_id>
CHEMBL56123

> <chembl_pref_name>
None

> <i_lp_mmshare_version>
53161

> <i_f3d_flags>
0

> <r_lp_tautomer_probability>
0.99999999978137

> <s_lp_Force_Field>
OPLS_2005

> <r_lp_Energy>
19.942171

> <b_lp_Chiralities_Consistent>
1

> <s_lp_Variant>
CHEMBL1900_lig89-1

> <s_i_glide_gridfile>
glide-grid_2hv5

> <i_i_glide_lignum>
128

> <i_i_glide_rotatable_bonds>
0

> <r_i_docking_score>
-7.90620830917652

> <r_i_glide_ligand_efficiency>
-0.439233794954251

> <r_i_glide_ligand_efficiency_sa>
-1.15111818706302

> <r_i_glide_ligand_efficiency_ln>
-2.03225007819099

> <r_i_glide_gscore>
-7.90620830917652

> <r_i_glide_lipo>
-2.70009550341308

> <r_i_glide_hbond>
-0.342611904863403

> <r_i_glide_metal>
0

> <r_i_glide_rewards>
-3.0189760166761

> <r_i_glide_evdw>
-26.8070240020752

> <r_i_glide_ecoul>
-3.36115789413452

> <r_i_glide_erotb>
0

> <r_i_glide_esite>
0

> <r_i_glide_emodel>
-43.860694235226

> <r_i_glide_energy>
-30.1681818962097

> <r_i_glide_einternal>
0

> <i_i_glide_confnum>
1

> <i_i_glide_posenum>
157

> <r_i_glide_eff_state_penalty>
0

> <s_user_duplicate_titles>
CHEMBL1900_lig89

> <s_m_subgroup_title>
dock_pv

> <s_m_subgroupid>
dock_pv

> <b_m_subgroup_collapsed>
1

$$$$
CHEMBL1900_lig564
                    3D
 Schrodinger Suite 2021-1.
 43 46  0  0  1  0            999 V2000
   19.7103  -13.3834   13.4474 C   0  0  0  0  0  0
   18.6865  -13.9355   14.1884 C   0  0  0  0  0  0
   17.6764  -13.1781   14.7915 C   0  0  0  0  0  0
   19.7933  -11.9979   13.2777 C   0  0  0  0  0  0
   18.8036  -11.1868   13.8597 C   0  0  0  0  0  0
   17.7541  -11.7820   14.6161 C   0  0  0  0  0  0
   16.9337  -10.7687   15.0727 N   0  0  0  0  0  0
   18.6105   -9.7926   13.9301 C   0  0  0  0  0  0
   17.4400   -9.5402   14.6448 C   0  0  0  0  0  0
   16.9396   -8.1780   14.8216 C   0  0  0  0  0  0
   17.3469   -7.3518   13.7735 N   0  0  0  0  0  0
   18.4016   -7.6871   12.8172 C   0  0  0  0  0  0
   19.4188   -8.6681   13.3950 C   0  0  0  0  0  0
   15.9945   -7.6489   16.1139 S   0  0  0  0  0  0
   16.8381   -6.0073   13.5471 C   0  0  0  0  0  0
   16.3910   -5.5637   12.1434 C   0  0  0  0  0  0
   15.0287   -5.5217   11.7901 C   0  0  0  0  0  0
   14.6019   -4.9211   10.6141 C   0  0  0  0  0  0
   15.5515   -4.4944    9.7060 C   0  0  0  0  0  0
   16.8911   -4.4743   10.0227 C   0  0  0  0  0  0
   17.2946   -4.9545   11.2580 C   0  0  0  0  0  0
   15.6813  -11.0468   15.8072 C   0  0  0  0  0  0
   15.8686  -11.3166   17.2979 C   0  0  0  0  0  0
   16.9256  -11.7151   17.7818 O   0  0  0  0  0  0
   14.7146  -11.1335   18.0133 O   0  0  0  0  0  0
   14.9421   -4.1150    7.9598 Br  0  0  0  0  0  0
   18.5825   -4.8224   11.5955 F   0  0  0  0  0  0
   20.4596  -14.0086   12.9878 H   0  0  0  0  0  0
   18.6428  -14.9994   14.3170 H   0  0  0  0  0  0
   16.8893  -13.6344   15.3695 H   0  0  0  0  0  0
   20.6191  -11.5771   12.7356 H   0  0  0  0  0  0
   18.9413   -6.7656   12.5803 H   0  0  0  0  0  0
   17.9464   -8.0866   11.9132 H   0  0  0  0  0  0
   20.0357   -8.1661   14.1631 H   0  0  0  0  0  0
   20.1180   -8.9163   12.6063 H   0  0  0  0  0  0
   17.6879   -5.3551   13.7836 H   0  0  0  0  0  0
   16.0581   -5.7262   14.2336 H   0  0  0  0  0  0
   14.2880   -5.8968   12.4721 H   0  0  0  0  0  0
   13.5620   -4.9080   10.3746 H   0  0  0  0  0  0
   17.6304   -4.1105    9.3202 H   0  0  0  0  0  0
   15.2396  -11.9374   15.3815 H   0  0  0  0  0  0
   14.9609  -10.2499   15.6133 H   0  0  0  0  0  0
   13.9806  -10.8285   17.4704 H   0  0  0  0  0  0
  1  2  1  0  0  0
  1  4  2  0  0  0
  1 28  1  0  0  0
  2  3  2  0  0  0
  2 29  1  0  0  0
  3  6  1  0  0  0
  3 30  1  0  0  0
  4  5  1  0  0  0
  4 31  1  0  0  0
  5  8  1  0  0  0
  5  6  2  0  0  0
  6  7  1  0  0  0
  7  9  1  0  0  0
  7 22  1  0  0  0
  8  9  2  0  0  0
  8 13  1  0  0  0
  9 10  1  0  0  0
 10 14  2  0  0  0
 10 11  1  0  0  0
 11 12  1  0  0  0
 11 15  1  0  0  0
 12 13  1  0  0  0
 12 32  1  0  0  0
 12 33  1  0  0  0
 13 34  1  0  0  0
 13 35  1  0  0  0
 15 16  1  0  0  0
 15 36  1  0  0  0
 15 37  1  0  0  0
 16 17  2  0  0  0
 16 21  1  0  0  0
 17 18  1  0  0  0
 17 38  1  0  0  0
 18 19  2  0  0  0
 18 39  1  0  0  0
 19 20  1  0  0  0
 19 26  1  0  0  0
 20 21  2  0  0  0
 20 40  1  0  0  0
 21 27  1  0  0  0
 22 23  1  0  0  0
 22 41  1  0  0  0
 22 42  1  0  0  0
 23 24  2  0  0  0
 23 25  1  0  0  0
 25 43  1  0  0  0
M  END
> <s_m_entry_id>
6553

> <s_m_entry_name>
dock_pv.388

> <s_m_Source_Path>
/home/csk/Desktop/cluster/DUD-E-result/aldr

> <s_m_Source_File>
dock_pv.maegz

> <i_m_Source_File_Index>
388

> <chembl_id>
CHEMBL1944852

> <chembl_pref_name>
None

> <i_lp_mmshare_version>
53161

> <i_f3d_flags>
0

> <r_lp_tautomer_probability>
1

> <s_lp_Force_Field>
OPLS_2005

> <r_lp_Energy>
38.170142

> <b_lp_Chiralities_Consistent>
1

> <s_lp_Variant>
CHEMBL1900_lig564-1

> <s_i_glide_gridfile>
glide-grid_2hv5

> <i_i_glide_lignum>
687

> <i_i_glide_rotatable_bonds>
5

> <r_i_docking_score>
-7.90614407466017

> <r_i_glide_ligand_efficiency>
-0.29282015091334

> <r_i_glide_ligand_efficiency_sa>
-0.878460451774931

> <r_i_glide_ligand_efficiency_ln>
-1.84041999760896

> <r_i_glide_gscore>
-7.90614407466017

> <r_i_glide_lipo>
-3.44321943488727

> <r_i_glide_hbond>
-0.266652423179095

> <r_i_glide_metal>
0

> <r_i_glide_rewards>
-3.0062402963378

> <r_i_glide_evdw>
-17.1280899047852

> <r_i_glide_ecoul>
-4.89271402359009

> <r_i_glide_erotb>
0.400279678521769

> <r_i_glide_esite>
0

> <r_i_glide_emodel>
-36.410353876413

> <r_i_glide_energy>
-22.0208039283752

> <r_i_glide_einternal>
3.33942341804504

> <i_i_glide_confnum>
16

> <i_i_glide_posenum>
21

> <r_i_glide_eff_state_penalty>
0

> <s_user_duplicate_titles>
CHEMBL1900_lig564

> <s_m_subgroup_title>
dock_pv

> <s_m_subgroupid>
dock_pv

> <b_m_subgroup_collapsed>
1

$$$$
CHEMBL1900_lig557
                    3D
 Schrodinger Suite 2021-1.
 43 46  0  0  1  0            999 V2000
   15.2381  -13.2986   17.9165 C   0  0  0  0  0  0
   14.5454  -12.3518   18.6551 C   0  0  0  0  0  0
   14.6403  -10.9905   18.3762 C   0  0  0  0  0  0
   16.0737  -12.9239   16.8710 C   0  0  0  0  0  0
   16.2047  -11.5603   16.5693 C   0  0  0  0  0  0
   15.4684  -10.6013   17.3233 C   0  0  0  0  0  0
   15.7446   -9.3429   16.8115 N   0  0  0  0  0  0
   16.9722  -10.8336   15.6204 C   0  0  0  0  0  0
   16.7378   -9.4790   15.8321 C   0  0  0  0  0  0
   17.4820   -8.4644   15.1192 C   0  0  0  0  0  0
   18.0228   -8.8708   13.9172 N   0  0  0  0  0  0
   18.0922  -10.2811   13.4487 C   0  0  0  0  0  0
   17.9546  -11.3325   14.5726 C   0  0  0  0  0  0
   17.7462   -6.9150   15.6776 S   0  0  0  0  0  0
   18.5484   -7.8868   12.9531 C   0  0  0  0  0  0
   17.5940   -6.8238   12.3411 C   0  0  0  0  0  0
   16.2016   -6.9127   12.4293 C   0  0  0  0  0  0
   15.3811   -5.9938   11.7741 C   0  0  0  0  0  0
   15.9574   -4.9508   11.0549 C   0  0  0  0  0  0
   17.3396   -4.7928   11.0322 C   0  0  0  0  0  0
   18.1443   -5.7144   11.6968 C   0  0  0  0  0  0
   15.0434   -8.0975   17.2315 C   0  0  0  0  0  0
   15.7523   -7.2117   18.2744 C   0  0  0  0  0  0
   15.3454   -6.1236   18.6628 O   0  0  0  0  0  0
   16.9450   -7.7147   18.6460 O   0  0  0  0  0  0
   15.1196  -14.3395   18.1652 H   0  0  0  0  0  0
   13.9042  -12.6864   19.4568 H   0  0  0  0  0  0
   14.1443  -10.2603   18.9809 H   0  0  0  0  0  0
   16.6138  -13.6704   16.3095 H   0  0  0  0  0  0
   19.0508  -10.4519   12.9586 H   0  0  0  0  0  0
   17.3450  -10.4405   12.6769 H   0  0  0  0  0  0
   18.9407  -11.5574   14.9819 H   0  0  0  0  0  0
   17.6163  -12.2698   14.1306 H   0  0  0  0  0  0
   18.9448   -8.5154   12.1812 H   0  0  0  0  0  0
   19.4226   -7.3889   13.3825 H   0  0  0  0  0  0
   15.7445   -7.7134   12.9794 H   0  0  0  0  0  0
   14.3055   -6.0857   11.8221 H   0  0  0  0  0  0
   15.3267   -4.2367   10.5480 H   0  0  0  0  0  0
   17.7832   -3.9581   10.5107 H   0  0  0  0  0  0
   19.2134   -5.5917   11.6794 H   0  0  0  0  0  0
   14.0629   -8.3622   17.6203 H   0  0  0  0  0  0
   14.8518   -7.4970   16.3428 H   0  0  0  0  0  0
   17.1784   -8.5094   18.1613 H   0  0  0  0  0  0
  1  2  1  0  0  0
  1  4  2  0  0  0
  1 26  1  0  0  0
  2  3  2  0  0  0
  2 27  1  0  0  0
  3  6  1  0  0  0
  3 28  1  0  0  0
  4  5  1  0  0  0
  4 29  1  0  0  0
  5  8  1  0  0  0
  5  6  2  0  0  0
  6  7  1  0  0  0
  7  9  1  0  0  0
  7 22  1  0  0  0
  8  9  2  0  0  0
  8 13  1  0  0  0
  9 10  1  0  0  0
 10 11  1  0  0  0
 10 14  2  0  0  0
 11 12  1  0  0  0
 11 15  1  0  0  0
 12 13  1  0  0  0
 12 30  1  0  0  0
 12 31  1  0  0  0
 13 32  1  0  0  0
 13 33  1  0  0  0
 15 16  1  0  0  0
 15 34  1  0  0  0
 15 35  1  0  0  0
 16 17  2  0  0  0
 16 21  1  0  0  0
 17 18  1  0  0  0
 17 36  1  0  0  0
 18 19  2  0  0  0
 18 37  1  0  0  0
 19 20  1  0  0  0
 19 38  1  0  0  0
 20 21  2  0  0  0
 20 39  1  0  0  0
 21 40  1  0  0  0
 22 23  1  0  0  0
 22 41  1  0  0  0
 22 42  1  0  0  0
 23 24  2  0  0  0
 23 25  1  0  0  0
 25 43  1  0  0  0
M  END
> <s_m_entry_id>
6554

> <s_m_entry_name>
dock_pv.389

> <s_m_Source_Path>
/home/csk/Desktop/cluster/DUD-E-result/aldr

> <s_m_Source_File>
dock_pv.maegz

> <i_m_Source_File_Index>
389

> <chembl_id>
CHEMBL1946959

> <chembl_pref_name>
None

> <i_lp_mmshare_version>
53161

> <i_f3d_flags>
0

> <r_lp_tautomer_probability>
1

> <s_lp_Force_Field>
OPLS_2005

> <r_lp_Energy>
38.281604

> <b_lp_Chiralities_Consistent>
1

> <s_lp_Variant>
CHEMBL1900_lig557-1

> <s_i_glide_gridfile>
glide-grid_2hv5

> <i_i_glide_lignum>
680

> <i_i_glide_rotatable_bonds>
5

> <r_i_docking_score>
-7.90241783115825

> <r_i_glide_ligand_efficiency>
-0.31609671324633

> <r_i_glide_ligand_efficiency_sa>
-0.924272395531349

> <r_i_glide_ligand_efficiency_ln>
-1.873109842337

> <r_i_glide_gscore>
-7.90241783115825

> <r_i_glide_lipo>
-3.52749602325688

> <r_i_glide_hbond>
0

> <r_i_glide_metal>
0

> <r_i_glide_rewards>
-3.46618897524696

> <r_i_glide_evdw>
-24.9439582824707

> <r_i_glide_ecoul>
-1.8825615644455

> <r_i_glide_erotb>
0.620849316135954

> <r_i_glide_esite>
0

> <r_i_glide_emodel>
-23.1471999640524

> <r_i_glide_energy>
-26.8265198469162

> <r_i_glide_einternal>
17.3741874694824

> <i_i_glide_confnum>
5

> <i_i_glide_posenum>
34

> <r_i_glide_eff_state_penalty>
0

> <s_user_duplicate_titles>
CHEMBL1900_lig557

> <s_m_subgroup_title>
dock_pv

> <s_m_subgroupid>
dock_pv

> <b_m_subgroup_collapsed>
1

$$$$
CHEMBL1900_lig543
                    3D
 Schrodinger Suite 2021-1.
 29 29  0  0  1  0            999 V2000
   16.1200   -3.9521    9.9052 C   0  0  0  0  0  0
   17.4697   -4.1396   10.1816 C   0  0  0  0  0  0
   17.8458   -5.0400   11.1729 C   0  0  0  0  0  0
   16.8774   -5.7572   11.8803 C   0  0  0  0  0  0
   15.5243   -5.5941   11.5558 C   0  0  0  0  0  0
   15.1463   -4.6827   10.5780 C   0  0  0  0  0  0
   17.3084   -6.5886   13.0191 C   0  0  0  0  0  0
   16.5222   -6.9107   14.0665 C   0  0  0  0  0  0
   16.9833   -7.6813   15.2055 C   0  0  0  0  0  0
   15.9836   -7.8825   16.0887 O   0  0  0  0  0  0
   18.1449   -8.0657   15.3530 O   0  0  0  0  0  0
   16.2154   -8.4429   17.3759 C   0  0  0  0  0  0
   15.7450   -3.0219    8.9811 O   0  0  0  0  0  0
   14.9451   -9.1928   17.7813 C   0  0  0  0  0  0
   16.5448   -7.3082   18.3611 C   0  0  0  0  0  0
   18.2157   -3.5676    9.6514 H   0  0  0  0  0  0
   18.8929   -5.1529   11.4131 H   0  0  0  0  0  0
   14.7500   -6.1305   12.0830 H   0  0  0  0  0  0
   14.0986   -4.5340   10.3605 H   0  0  0  0  0  0
   18.3310   -6.9436   12.9884 H   0  0  0  0  0  0
   15.4993   -6.5689   14.1112 H   0  0  0  0  0  0
   17.0387   -9.1601   17.3466 H   0  0  0  0  0  0
   14.7823   -2.9384    8.9204 H   0  0  0  0  0  0
   15.0516   -9.6562   18.7624 H   0  0  0  0  0  0
   14.7020   -9.9794   17.0664 H   0  0  0  0  0  0
   14.1022   -8.5066   17.8251 H   0  0  0  0  0  0
   16.6190   -7.6840   19.3810 H   0  0  0  0  0  0
   17.4962   -6.8368   18.1131 H   0  0  0  0  0  0
   15.7761   -6.5352   18.3520 H   0  0  0  0  0  0
  1  6  1  0  0  0
  1 13  1  0  0  0
  1  2  2  0  0  0
  2  3  1  0  0  0
  2 16  1  0  0  0
  3  4  2  0  0  0
  3 17  1  0  0  0
  4  5  1  0  0  0
  4  7  1  0  0  0
  5  6  2  0  0  0
  5 18  1  0  0  0
  6 19  1  0  0  0
  7  8  2  0  0  0
  7 20  1  0  0  0
  8  9  1  0  0  0
  8 21  1  0  0  0
  9 10  1  0  0  0
  9 11  2  0  0  0
 10 12  1  0  0  0
 12 14  1  0  0  0
 12 15  1  0  0  0
 12 22  1  0  0  0
 13 23  1  0  0  0
 14 24  1  0  0  0
 14 25  1  0  0  0
 14 26  1  0  0  0
 15 27  1  0  0  0
 15 28  1  0  0  0
 15 29  1  0  0  0
M  END
> <s_m_entry_id>
6555

> <s_m_entry_name>
dock_pv.390

> <s_m_Source_Path>
/home/csk/Desktop/cluster/DUD-E-result/aldr

> <s_m_Source_File>
dock_pv.maegz

> <i_m_Source_File_Index>
390

> <chembl_id>
CHEMBL1940391

> <chembl_pref_name>
ISOPROPYL 3-(4-HYDROXYPHENYL)ACRYLATE

> <i_lp_mmshare_version>
53161

> <i_f3d_flags>
0

> <r_lp_tautomer_probability>
1

> <s_lp_Force_Field>
OPLS_2005

> <r_lp_Energy>
6.720874

> <b_lp_Chiralities_Consistent>
1

> <s_lp_Variant>
CHEMBL1900_lig543-1

> <s_i_glide_gridfile>
glide-grid_2hv5

> <i_i_glide_lignum>
666

> <i_i_glide_rotatable_bonds>
5

> <r_i_docking_score>
-7.90235381220803

> <r_i_glide_ligand_efficiency>
-0.526823587480535

> <r_i_glide_ligand_efficiency_sa>
-1.29925869131377

> <r_i_glide_ligand_efficiency_ln>
-2.131134527213

> <r_i_glide_gscore>
-7.90235381220803

> <r_i_glide_lipo>
-3.45858407187499

> <r_i_glide_hbond>
-0.32

> <r_i_glide_metal>
0

> <r_i_glide_rewards>
-3.01718583549526

> <r_i_glide_evdw>
-32.0900382995605

> <r_i_glide_ecoul>
-4.43889284133911

> <r_i_glide_erotb>
1.16375193634111

> <r_i_glide_esite>
0

> <r_i_glide_emodel>
-52.4827287308579

> <r_i_glide_energy>
-36.5289311408997

> <r_i_glide_einternal>
1.63033008575439

> <i_i_glide_confnum>
1

> <i_i_glide_posenum>
162

> <r_i_glide_eff_state_penalty>
0

> <s_user_duplicate_titles>
CHEMBL1900_lig543

> <s_m_subgroup_title>
dock_pv

> <s_m_subgroupid>
dock_pv

> <b_m_subgroup_collapsed>
1

$$$$
CHEMBL1900_lig84
                    3D
 Schrodinger Suite 2021-1.
 26 28  0  0  1  0            999 V2000
   18.2591   -7.5975   13.9930 S   0  0  0  0  0  0
   17.6031   -6.4213   12.7667 C   0  0  0  0  0  0
   17.3731   -7.3326   15.5664 C   0  0  0  0  0  0
   18.3541   -5.5131   12.2074 N   0  0  0  0  0  0
   15.9616   -6.5095   12.1813 S   0  0  0  0  0  0
   18.0743   -7.3147   16.6515 N   0  0  0  0  0  0
   17.4586   -7.0023   17.8644 N   0  0  0  0  0  0
   15.9436   -7.1393   15.6686 C   0  0  0  0  0  0
   17.6811   -4.8079   11.2594 C   0  0  0  0  0  0
   16.1621   -6.6333   18.0700 C   0  0  0  0  0  0
   16.3227   -5.1809   11.0919 C   0  0  0  0  0  0
   17.8916   -8.9479   13.5509 O   0  0  0  0  0  0
   19.6595   -7.2227   14.2222 O   0  0  0  0  0  0
   15.3695   -6.8523   16.8672 C   0  0  0  0  0  0
   15.7541   -6.1155   19.1088 O   0  0  0  0  0  0
   18.2219   -3.7702   10.4792 C   0  0  0  0  0  0
   15.4929   -4.5147   10.1809 C   0  0  0  0  0  0
   17.3857   -3.1138    9.5753 C   0  0  0  0  0  0
   16.0492   -3.4786    9.4312 C   0  0  0  0  0  0
   15.3171   -7.3182   14.8132 H   0  0  0  0  0  0
   14.2966   -6.7802   16.9575 H   0  0  0  0  0  0
   18.0888   -6.9298   18.6524 H   0  0  0  0  0  0
   19.2519   -3.4704   10.5860 H   0  0  0  0  0  0
   14.4511   -4.7826   10.0720 H   0  0  0  0  0  0
   17.7790   -2.3020    8.9784 H   0  0  0  0  0  0
   15.4220   -2.9416    8.7375 H   0  0  0  0  0  0
  1  2  1  0  0  0
  1 12  2  0  0  0
  1 13  2  0  0  0
  1  3  1  0  0  0
  2  4  2  0  0  0
  2  5  1  0  0  0
  3  8  1  0  0  0
  3  6  2  0  0  0
  4  9  1  0  0  0
  5 11  1  0  0  0
  6  7  1  0  0  0
  7 10  1  0  0  0
  7 22  1  0  0  0
  8 14  2  0  0  0
  8 20  1  0  0  0
  9 16  1  0  0  0
  9 11  2  0  0  0
 10 15  2  0  0  0
 10 14  1  0  0  0
 11 17  1  0  0  0
 14 21  1  0  0  0
 16 18  2  0  0  0
 16 23  1  0  0  0
 17 19  2  0  0  0
 17 24  1  0  0  0
 18 19  1  0  0  0
 18 25  1  0  0  0
 19 26  1  0  0  0
M  END
> <s_m_entry_id>
6556

> <s_m_entry_name>
dock_pv.391

> <s_m_Source_Path>
/home/csk/Desktop/cluster/DUD-E-result/aldr

> <s_m_Source_File>
dock_pv.maegz

> <i_m_Source_File_Index>
391

> <chembl_id>
CHEMBL73330

> <chembl_pref_name>
None

> <i_lp_mmshare_version>
53161

> <i_f3d_flags>
0

> <r_lp_tautomer_probability>
0.998994762270461

> <s_lp_Force_Field>
OPLS_2005

> <r_lp_Energy>
21.040929

> <b_lp_Chiralities_Consistent>
1

> <s_lp_Variant>
CHEMBL1900_lig84-1

> <s_i_glide_gridfile>
glide-grid_2hv5

> <i_i_glide_lignum>
123

> <i_i_glide_rotatable_bonds>
2

> <r_i_docking_score>
-7.88982001871264

> <r_i_glide_ligand_efficiency>
-0.415253685195402

> <r_i_glide_ligand_efficiency_sa>
-1.10806361712573

> <r_i_glide_ligand_efficiency_ln>
-2.00023883253987

> <r_i_glide_gscore>
-7.88982001871264

> <r_i_glide_lipo>
-3.31680672574252

> <r_i_glide_hbond>
-0.000800881144532966

> <r_i_glide_metal>
0

> <r_i_glide_rewards>
-2.74291187318556

> <r_i_glide_evdw>
-41.1602630615234

> <r_i_glide_ecoul>
-1.30669248104095

> <r_i_glide_erotb>
0.424716486592295

> <r_i_glide_esite>
0

> <r_i_glide_emodel>
-58.8129596397961

> <r_i_glide_energy>
-42.4669555425644

> <r_i_glide_einternal>
4.7717022895813

> <i_i_glide_confnum>
4

> <i_i_glide_posenum>
365

> <r_i_glide_eff_state_penalty>
0

> <s_user_duplicate_titles>
CHEMBL1900_lig84,117247

> <s_m_subgroup_title>
dock_pv

> <s_m_subgroupid>
dock_pv

> <b_m_subgroup_collapsed>
1

$$$$
CHEMBL1900_lig351
                    3D
 Schrodinger Suite 2021-1.
 30 31  0  0  1  0            999 V2000
   15.5222   -8.1206   17.0632 C   0  0  2  0  0  0
   16.5510   -8.3327   15.9444 C   0  0  0  0  0  0
   17.0140   -9.6286   15.6278 C   0  0  0  0  0  0
   16.2194   -7.6874   18.4059 C   0  0  0  0  0  0
   16.5082  -10.7905   16.1738 O   0  0  0  0  0  0
   14.7440   -9.4404   17.2578 C   0  0  0  0  0  0
   16.2678   -6.1915   18.7718 C   0  0  0  0  0  0
   17.0713   -7.2677   15.1998 C   0  0  0  0  0  0
   15.6666  -10.6702   17.3172 C   0  0  1  0  0  0
   17.9799   -9.8320   14.6413 C   0  0  0  0  0  0
   15.7450   -5.7196   19.7807 O   0  0  0  0  0  0
   14.5448   -7.1604   16.7076 O   0  0  0  0  0  0
   18.0496   -7.4655   14.2293 C   0  0  0  0  0  0
   16.9450   -5.4673   17.8475 O   0  0  0  0  0  0
   18.5118   -8.7474   13.9499 C   0  0  0  0  0  0
   18.6852   -6.1148   13.3799 Cl  0  0  0  0  0  0
   14.8931  -11.9817   17.5004 C   0  0  0  0  0  0
   16.3178  -10.5574   18.1804 H   0  0  0  0  0  0
   17.2408   -8.0676   18.4376 H   0  0  0  0  0  0
   15.7462   -8.1797   19.2547 H   0  0  0  0  0  0
   14.1451   -9.3964   18.1657 H   0  0  0  0  0  0
   14.0299   -9.5938   16.4455 H   0  0  0  0  0  0
   16.7019   -6.2682   15.3662 H   0  0  0  0  0  0
   18.3087  -10.8333   14.4049 H   0  0  0  0  0  0
   13.8580   -7.1642   17.3808 H   0  0  0  0  0  0
   17.3531   -6.0336   17.1910 H   0  0  0  0  0  0
   19.2664   -8.9018   13.1913 H   0  0  0  0  0  0
   14.2257  -11.9378   18.3614 H   0  0  0  0  0  0
   14.2875  -12.2036   16.6220 H   0  0  0  0  0  0
   15.5736  -12.8192   17.6522 H   0  0  0  0  0  0
  1  2  1  0  0  0
  1  4  1  0  0  0
  1  6  1  0  0  0
  1 12  1  0  0  0
  2  3  2  0  0  0
  2  8  1  0  0  0
  3 10  1  0  0  0
  3  5  1  0  0  0
  4  7  1  0  0  0
  4 19  1  0  0  0
  4 20  1  0  0  0
  5  9  1  0  0  0
  6  9  1  0  0  0
  6 21  1  0  0  0
  6 22  1  0  0  0
  7 11  2  0  0  0
  7 14  1  0  0  0
  8 13  2  0  0  0
  8 23  1  0  0  0
  9 17  1  0  0  0
  9 18  1  0  0  0
 10 15  2  0  0  0
 10 24  1  0  0  0
 12 25  1  0  0  0
 13 15  1  0  0  0
 13 16  1  0  0  0
 14 26  1  0  0  0
 15 27  1  0  0  0
 17 28  1  0  0  0
 17 29  1  0  0  0
 17 30  1  0  0  0
M  END
> <s_m_entry_id>
6557

> <s_m_entry_name>
dock_pv.392

> <s_m_Source_Path>
/home/csk/Desktop/cluster/DUD-E-result/aldr

> <s_m_Source_File>
dock_pv.maegz

> <i_m_Source_File_Index>
392

> <chembl_id>
CHEMBL69708

> <chembl_pref_name>
None

> <i_lp_mmshare_version>
53161

> <i_f3d_flags>
0

> <r_lp_tautomer_probability>
1

> <s_lp_Force_Field>
OPLS_2005

> <r_lp_Energy>
14.676128

> <b_lp_Chiralities_Consistent>
1

> <s_lp_Variant>
CHEMBL1900_lig351-1

> <s_i_glide_gridfile>
glide-grid_2hv5

> <i_i_glide_lignum>
472

> <i_i_glide_rotatable_bonds>
4

> <r_i_docking_score>
-7.88499126311182

> <r_i_glide_ligand_efficiency>
-0.463823015477166

> <r_i_glide_ligand_efficiency_sa>
-1.19261957989371

> <r_i_glide_ligand_efficiency_ln>
-2.05701863042356

> <r_i_glide_gscore>
-7.88499126311182

> <r_i_glide_lipo>
-3.03659288346408

> <r_i_glide_hbond>
-0.32

> <r_i_glide_metal>
0

> <r_i_glide_rewards>
-2.65241817180026

> <r_i_glide_evdw>
-30.6322154998779

> <r_i_glide_ecoul>
-5.86382579803467

> <r_i_glide_erotb>
0.535204436851606

> <r_i_glide_esite>
0

> <r_i_glide_emodel>
-49.3860139845698

> <r_i_glide_energy>
-36.4960412979126

> <r_i_glide_einternal>
8.11956024169922

> <i_i_glide_confnum>
2

> <i_i_glide_posenum>
76

> <r_i_glide_eff_state_penalty>
0

> <s_user_duplicate_titles>
CHEMBL1900_lig351,108874

> <s_m_subgroup_title>
dock_pv

> <s_m_subgroupid>
dock_pv

> <b_m_subgroup_collapsed>
1

$$$$
CHEMBL1900_lig67
                    3D
 Schrodinger Suite 2021-1.
 29 31  0  0  1  0            999 V2000
   16.0314  -10.6397   16.6472 C   0  0  2  0  0  0
   15.7461   -9.4987   17.6718 C   0  0  0  0  0  0
   16.3944   -8.3105   17.4585 N   0  0  0  0  0  0
   16.4163  -11.9464   17.3802 C   0  0  0  0  0  0
   17.2417   -7.9525   16.4444 C   0  0  0  0  0  0
   17.0607  -10.3335   15.5465 C   0  0  0  0  0  0
   15.5392  -12.9030   17.0306 N   0  0  0  0  0  0
   17.5531   -9.0255   15.4282 C   0  0  0  0  0  0
   14.5461  -12.5106   16.2209 C   0  0  0  0  0  0
   14.6884  -11.0070   16.0238 C   0  0  0  0  0  0
   18.3841   -8.6718   14.3574 C   0  0  0  0  0  0
   14.9449   -9.6775   18.5886 O   0  0  0  0  0  0
   17.4611  -11.2785   14.5822 C   0  0  0  0  0  0
   17.3759  -12.1151   18.1319 O   0  0  0  0  0  0
   17.7360   -6.8270   16.3593 O   0  0  0  0  0  0
   13.6836  -13.2309   15.7288 O   0  0  0  0  0  0
   16.1465   -7.2737   18.4938 C   0  0  0  0  0  0
   18.2906  -10.9271   13.5226 C   0  0  0  0  0  0
   18.7347   -9.6174   13.4070 C   0  0  0  0  0  0
   18.6423  -11.8480   12.5984 F   0  0  0  0  0  0
   15.6256  -13.8537   17.3516 H   0  0  0  0  0  0
   13.8211  -10.5191   16.4750 H   0  0  0  0  0  0
   14.6330  -10.7092   14.9813 H   0  0  0  0  0  0
   18.7641   -7.6646   14.2441 H   0  0  0  0  0  0
   17.0986  -12.2943   14.6237 H   0  0  0  0  0  0
   16.1420   -7.7082   19.4956 H   0  0  0  0  0  0
   16.9092   -6.4934   18.5315 H   0  0  0  0  0  0
   15.1801   -6.7970   18.3262 H   0  0  0  0  0  0
   19.3450   -9.3168   12.5812 H   0  0  0  0  0  0
  1  2  1  0  0  0
  1  4  1  0  0  0
  1  6  1  0  0  0
  1 10  1  0  0  0
  2  3  1  0  0  0
  2 12  2  0  0  0
  3 17  1  0  0  0
  3  5  1  0  0  0
  4  7  1  0  0  0
  4 14  2  0  0  0
  5  8  1  0  0  0
  5 15  2  0  0  0
  6  8  1  0  0  0
  6 13  2  0  0  0
  7  9  1  0  0  0
  7 21  1  0  0  0
  8 11  2  0  0  0
  9 10  1  0  0  0
  9 16  2  0  0  0
 10 22  1  0  0  0
 10 23  1  0  0  0
 11 19  1  0  0  0
 11 24  1  0  0  0
 13 18  1  0  0  0
 13 25  1  0  0  0
 17 26  1  0  0  0
 17 27  1  0  0  0
 17 28  1  0  0  0
 18 19  2  0  0  0
 18 20  1  0  0  0
 19 29  1  0  0  0
M  END
> <s_m_entry_id>
6558

> <s_m_entry_name>
dock_pv.393

> <s_m_Source_Path>
/home/csk/Desktop/cluster/DUD-E-result/aldr

> <s_m_Source_File>
dock_pv.maegz

> <i_m_Source_File_Index>
393

> <chembl_id>
CHEMBL10615

> <chembl_pref_name>
None

> <i_lp_mmshare_version>
53161

> <i_f3d_flags>
0

> <r_lp_tautomer_probability>
0.99999999995914

> <s_lp_Force_Field>
OPLS_2005

> <r_lp_Energy>
30.939814

> <b_lp_Chiralities_Consistent>
1

> <s_lp_Variant>
CHEMBL1900_lig67-2

> <s_i_glide_gridfile>
glide-grid_2hv5

> <i_i_glide_lignum>
103

> <i_i_glide_rotatable_bonds>
0

> <r_i_docking_score>
-7.87913822307006

> <r_i_glide_ligand_efficiency>
-0.393956911153503

> <r_i_glide_ligand_efficiency_sa>
-1.06936357874654

> <r_i_glide_ligand_efficiency_ln>
-1.97188842586342

> <r_i_glide_gscore>
-7.87913822307006

> <r_i_glide_lipo>
-1.85147505228533

> <r_i_glide_hbond>
-0.32

> <r_i_glide_metal>
0

> <r_i_glide_rewards>
-3.8171631452552

> <r_i_glide_evdw>
-23.3875427246094

> <r_i_glide_ecoul>
-4.68891906738281

> <r_i_glide_erotb>
0

> <r_i_glide_esite>
-0.0177850291916365

> <r_i_glide_emodel>
-38.5154419864053

> <r_i_glide_energy>
-28.0764617919922

> <r_i_glide_einternal>
0

> <i_i_glide_confnum>
1

> <i_i_glide_posenum>
13

> <r_i_glide_eff_state_penalty>
0

> <s_user_duplicate_titles>
CHEMBL1900_lig67

> <s_m_subgroup_title>
dock_pv

> <s_m_subgroupid>
dock_pv

> <b_m_subgroup_collapsed>
1

$$$$
CHEMBL1900_lig576
                    3D
 Schrodinger Suite 2021-1.
 28 29  0  0  1  0            999 V2000
   17.4743   -7.4211   15.1428 N   0  0  0  0  0  0
   16.5891   -7.3018   14.1034 C   0  0  0  0  0  0
   17.1083   -6.5136   13.0753 C   0  0  0  0  0  0
   18.4153   -6.2058   13.5082 C   0  0  0  0  0  0
   18.6199   -6.7808   14.7513 C   0  0  0  0  0  0
   16.3297   -6.0700   11.8987 C   0  0  0  0  0  0
   16.7837   -4.9661   10.9807 C   0  0  0  0  0  0
   15.1858   -6.5150   11.7795 O   0  0  0  0  0  0
   15.7968   -4.1934   10.3438 C   0  0  0  0  0  0
   16.1439   -3.1071    9.5496 C   0  0  0  0  0  0
   17.4828   -2.7835    9.3808 C   0  0  0  0  0  0
   18.4778   -3.5743    9.9447 C   0  0  0  0  0  0
   18.1295   -4.6784   10.7167 C   0  0  0  0  0  0
   17.1968   -8.0192   16.4452 C   0  0  0  0  0  0
   16.2917   -7.1602   17.3439 C   0  0  0  0  0  0
   16.1452   -7.7146   18.5806 O   0  0  0  0  0  0
   15.7428   -6.1198   16.9815 O   0  0  0  0  0  0
   15.6021   -7.7153   14.2192 H   0  0  0  0  0  0
   19.1524   -5.5818   13.0355 H   0  0  0  0  0  0
   19.4709   -6.7281   15.4131 H   0  0  0  0  0  0
   14.7441   -4.3982   10.4878 H   0  0  0  0  0  0
   15.3712   -2.5099    9.0875 H   0  0  0  0  0  0
   17.7467   -1.9240    8.7851 H   0  0  0  0  0  0
   19.5160   -3.3333    9.7811 H   0  0  0  0  0  0
   18.9273   -5.3040   11.0754 H   0  0  0  0  0  0
   18.1450   -8.2070   16.9472 H   0  0  0  0  0  0
   16.7093   -8.9784   16.2704 H   0  0  0  0  0  0
   16.6426   -8.5243   18.7145 H   0  0  0  0  0  0
  1  2  1  0  0  0
  1  5  1  0  0  0
  1 14  1  0  0  0
  2  3  2  0  0  0
  2 18  1  0  0  0
  3  4  1  0  0  0
  3  6  1  0  0  0
  4  5  2  0  0  0
  4 19  1  0  0  0
  5 20  1  0  0  0
  6  7  1  0  0  0
  6  8  2  0  0  0
  7  9  2  0  0  0
  7 13  1  0  0  0
  9 10  1  0  0  0
  9 21  1  0  0  0
 10 11  2  0  0  0
 10 22  1  0  0  0
 11 12  1  0  0  0
 11 23  1  0  0  0
 12 13  2  0  0  0
 12 24  1  0  0  0
 13 25  1  0  0  0
 14 15  1  0  0  0
 14 26  1  0  0  0
 14 27  1  0  0  0
 15 16  1  0  0  0
 15 17  2  0  0  0
 16 28  1  0  0  0
M  END
> <s_m_entry_id>
6559

> <s_m_entry_name>
dock_pv.394

> <s_m_Source_Path>
/home/csk/Desktop/cluster/DUD-E-result/aldr

> <s_m_Source_File>
dock_pv.maegz

> <i_m_Source_File_Index>
394

> <chembl_id>
CHEMBL93723

> <chembl_pref_name>
None

> <i_lp_mmshare_version>
53161

> <i_f3d_flags>
0

> <r_lp_tautomer_probability>
1

> <s_lp_Force_Field>
OPLS_2005

> <r_lp_Energy>
15.821663

> <b_lp_Chiralities_Consistent>
1

> <s_lp_Variant>
CHEMBL1900_lig576-1

> <s_i_glide_gridfile>
glide-grid_2hv5

> <i_i_glide_lignum>
699

> <i_i_glide_rotatable_bonds>
5

> <r_i_docking_score>
-7.87889384771705

> <r_i_glide_ligand_efficiency>
-0.463464343983356

> <r_i_glide_ligand_efficiency_sa>
-1.19169733448545

> <r_i_glide_ligand_efficiency_ln>
-2.05542795052983

> <r_i_glide_gscore>
-7.87889384771705

> <r_i_glide_lipo>
-3.44221334907639

> <r_i_glide_hbond>
-0.11425110758632

> <r_i_glide_metal>
0

> <r_i_glide_rewards>
-3.52376259697025

> <r_i_glide_evdw>
-36.7732696533203

> <r_i_glide_ecoul>
-1.72353398799896

> <r_i_glide_erotb>
1.29852678678176

> <r_i_glide_esite>
0

> <r_i_glide_emodel>
-53.0239230392885

> <r_i_glide_energy>
-38.4968036413193

> <r_i_glide_einternal>
5.8446888923645

> <i_i_glide_confnum>
17

> <i_i_glide_posenum>
125

> <r_i_glide_eff_state_penalty>
0

> <s_user_duplicate_titles>
CHEMBL1900_lig576

> <s_m_subgroup_title>
dock_pv

> <s_m_subgroupid>
dock_pv

> <b_m_subgroup_collapsed>
1

$$$$
CHEMBL1900_lig82
                    3D
 Schrodinger Suite 2021-1.
 28 30  0  0  1  0            999 V2000
   18.1955   -7.7016   14.0164 S   0  0  0  0  0  0
   17.5501   -6.5163   12.7988 C   0  0  0  0  0  0
   17.3657   -7.3470   15.5923 C   0  0  0  0  0  0
   18.4185   -5.5895   12.2852 N   0  0  0  0  0  0
   18.0777   -7.3150   16.6692 N   0  0  0  0  0  0
   16.3126   -6.3426   12.2065 C   0  0  0  0  0  0
   17.4703   -6.9708   17.8825 N   0  0  0  0  0  0
   15.9487   -7.1109   15.6948 C   0  0  0  0  0  0
   16.1701   -6.6101   18.0971 C   0  0  0  0  0  0
   17.7915   -4.8088   11.3386 C   0  0  0  0  0  0
   16.4360   -5.2524   11.2864 C   0  0  0  0  0  0
   17.7451   -9.0386   13.6194 O   0  0  0  0  0  0
   19.6186   -7.3841   14.1847 O   0  0  0  0  0  0
   15.3785   -6.8163   16.8926 C   0  0  0  0  0  0
   15.7516   -6.1162   19.1421 O   0  0  0  0  0  0
   18.2716   -3.7599   10.5419 C   0  0  0  0  0  0
   15.5483   -4.5967   10.4236 C   0  0  0  0  0  0
   16.0233   -3.5463    9.6396 C   0  0  0  0  0  0
   17.3529   -3.1430    9.6948 C   0  0  0  0  0  0
   19.3830   -5.5573   12.5817 H   0  0  0  0  0  0
   15.4239   -6.9149   12.4032 H   0  0  0  0  0  0
   15.3450   -7.2470   14.8184 H   0  0  0  0  0  0
   14.3068   -6.7096   16.9804 H   0  0  0  0  0  0
   18.1007   -6.9036   18.6656 H   0  0  0  0  0  0
   19.2922   -3.4175   10.5810 H   0  0  0  0  0  0
   14.5099   -4.8861   10.3725 H   0  0  0  0  0  0
   15.3450   -3.0283    8.9811 H   0  0  0  0  0  0
   17.6718   -2.3189    9.0717 H   0  0  0  0  0  0
  1  2  1  0  0  0
  1 12  2  0  0  0
  1 13  2  0  0  0
  1  3  1  0  0  0
  2  4  1  0  0  0
  2  6  2  0  0  0
  3  8  1  0  0  0
  3  5  2  0  0  0
  4 10  1  0  0  0
  4 20  1  0  0  0
  5  7  1  0  0  0
  6 11  1  0  0  0
  6 21  1  0  0  0
  7  9  1  0  0  0
  7 24  1  0  0  0
  8 14  2  0  0  0
  8 22  1  0  0  0
  9 15  2  0  0  0
  9 14  1  0  0  0
 10 16  1  0  0  0
 10 11  2  0  0  0
 11 17  1  0  0  0
 14 23  1  0  0  0
 16 19  2  0  0  0
 16 25  1  0  0  0
 17 18  2  0  0  0
 17 26  1  0  0  0
 18 19  1  0  0  0
 18 27  1  0  0  0
 19 28  1  0  0  0
M  END
> <s_m_entry_id>
6560

> <s_m_entry_name>
dock_pv.395

> <s_m_Source_Path>
/home/csk/Desktop/cluster/DUD-E-result/aldr

> <s_m_Source_File>
dock_pv.maegz

> <i_m_Source_File_Index>
395

> <chembl_id>
CHEMBL72278

> <chembl_pref_name>
None

> <i_lp_mmshare_version>
53161

> <i_f3d_flags>
0

> <r_lp_tautomer_probability>
0.998994762270461

> <s_lp_Force_Field>
OPLS_2005

> <r_lp_Energy>
20.073505

> <b_lp_Chiralities_Consistent>
1

> <s_lp_Variant>
CHEMBL1900_lig82-1

> <s_i_glide_gridfile>
glide-grid_2hv5

> <i_i_glide_lignum>
121

> <i_i_glide_rotatable_bonds>
2

> <r_i_docking_score>
-7.87169974629145

> <r_i_glide_ligand_efficiency>
-0.414299986646919

> <r_i_glide_ligand_efficiency_sa>
-1.10551876634907

> <r_i_glide_ligand_efficiency_ln>
-1.99564495429333

> <r_i_glide_gscore>
-7.87169974629145

> <r_i_glide_lipo>
-3.44601637357165

> <r_i_glide_hbond>
-0.0218466335317981

> <r_i_glide_metal>
0

> <r_i_glide_rewards>
-2.75544785924953

> <r_i_glide_evdw>
-40.7983741760254

> <r_i_glide_ecoul>
-0.551812052726746

> <r_i_glide_erotb>
0.474301636771803

> <r_i_glide_esite>
0

> <r_i_glide_emodel>
-56.702529493675

> <r_i_glide_energy>
-41.3501862287521

> <r_i_glide_einternal>
5.28291797637939

> <i_i_glide_confnum>
1

> <i_i_glide_posenum>
176

> <r_i_glide_eff_state_penalty>
0

> <s_user_duplicate_titles>
CHEMBL1900_lig82,117370

> <s_m_subgroup_title>
dock_pv

> <s_m_subgroupid>
dock_pv

> <b_m_subgroup_collapsed>
1

$$$$
CHEMBL1900_lig336
                    3D
 Schrodinger Suite 2021-1.
 32 33  0  0  1  0            999 V2000
   17.9045   -7.6479   14.4198 C   0  0  0  0  0  0
   15.3472   -8.2540   17.2382 C   0  0  2  0  0  0
   18.5068   -6.5136   13.7199 N   0  3  0  0  0  0
   16.3091   -8.4900   16.0631 C   0  0  0  0  0  0
   16.7195   -9.7955   15.7221 C   0  0  0  0  0  0
   16.8773   -7.4360   15.3411 C   0  0  0  0  0  0
   16.1454   -7.7586   18.5007 C   0  0  0  0  0  0
   18.3684   -8.9441   14.1952 C   0  0  0  0  0  0
   16.1187  -10.9382   16.1965 O   0  0  0  0  0  0
   17.7440  -10.0206   14.8102 C   0  0  0  0  0  0
   14.6039   -9.5771   17.5462 C   0  0  0  0  0  0
   16.2413   -6.2503   18.7902 C   0  0  0  0  0  0
   19.5459   -6.0630   14.1811 O   0  5  0  0  0  0
   17.9418   -6.0984   12.7148 O   0  0  0  0  0  0
   15.5069  -10.8194   17.4685 C   0  0  1  0  0  0
   15.7451   -5.7155   19.7790 O   0  0  0  0  0  0
   14.3312   -7.3153   16.9394 O   0  0  0  0  0  0
   19.7377   -9.2365   13.1975 Cl  0  0  0  0  0  0
   16.9445   -5.5844   17.8434 O   0  0  0  0  0  0
   14.7622  -12.1211   17.7910 C   0  0  0  0  0  0
   16.3177  -10.7107   18.1809 H   0  0  0  0  0  0
   16.5361   -6.4359   15.5379 H   0  0  0  0  0  0
   17.1688   -8.1296   18.4650 H   0  0  0  0  0  0
   15.7451   -8.2100   19.4065 H   0  0  0  0  0  0
   18.0625  -11.0293   14.5922 H   0  0  0  0  0  0
   14.1454   -9.5303   18.5330 H   0  0  0  0  0  0
   13.7777   -9.7268   16.8474 H   0  0  0  0  0  0
   13.6958   -7.3042   17.6611 H   0  0  0  0  0  0
   17.0124   -4.6568   18.0774 H   0  0  0  0  0  0
   14.2659  -12.0686   18.7609 H   0  0  0  0  0  0
   14.0013  -12.3371   17.0407 H   0  0  0  0  0  0
   15.4476  -12.9681   17.8139 H   0  0  0  0  0  0
  1  3  1  0  0  0
  1  6  2  0  0  0
  1  8  1  0  0  0
  2  4  1  0  0  0
  2  7  1  0  0  0
  2 11  1  0  0  0
  2 17  1  0  0  0
  3 13  1  0  0  0
  3 14  2  0  0  0
  4  6  1  0  0  0
  4  5  2  0  0  0
  5 10  1  0  0  0
  5  9  1  0  0  0
  6 22  1  0  0  0
  7 12  1  0  0  0
  7 23  1  0  0  0
  7 24  1  0  0  0
  8 10  2  0  0  0
  8 18  1  0  0  0
  9 15  1  0  0  0
 10 25  1  0  0  0
 11 15  1  0  0  0
 11 26  1  0  0  0
 11 27  1  0  0  0
 12 16  2  0  0  0
 12 19  1  0  0  0
 15 20  1  0  0  0
 15 21  1  0  0  0
 17 28  1  0  0  0
 19 29  1  0  0  0
 20 30  1  0  0  0
 20 31  1  0  0  0
 20 32  1  0  0  0
M  CHG  2   3   1  13  -1
M  END
> <s_m_entry_id>
6561

> <s_m_entry_name>
dock_pv.396

> <s_m_Source_Path>
/home/csk/Desktop/cluster/DUD-E-result/aldr

> <s_m_Source_File>
dock_pv.maegz

> <i_m_Source_File_Index>
396

> <chembl_id>
CHEMBL303474

> <chembl_pref_name>
None

> <i_lp_mmshare_version>
53161

> <i_f3d_flags>
0

> <r_lp_tautomer_probability>
1

> <s_lp_Force_Field>
OPLS_2005

> <r_lp_Energy>
18.022125

> <b_lp_Chiralities_Consistent>
1

> <s_lp_Variant>
CHEMBL1900_lig336-1

> <s_i_glide_gridfile>
glide-grid_2hv5

> <i_i_glide_lignum>
457

> <i_i_glide_rotatable_bonds>
5

> <r_i_docking_score>
-7.87036994432535

> <r_i_glide_ligand_efficiency>
-0.393518497216268

> <r_i_glide_ligand_efficiency_sa>
-1.06817354023314

> <r_i_glide_ligand_efficiency_ln>
-1.96969401489081

> <r_i_glide_gscore>
-7.87036994432535

> <r_i_glide_lipo>
-2.6742879503283

> <r_i_glide_hbond>
-0.32

> <r_i_glide_metal>
0

> <r_i_glide_rewards>
-3.06530300220945

> <r_i_glide_evdw>
-33.4085655212402

> <r_i_glide_ecoul>
-3.63142013549805

> <r_i_glide_erotb>
0.404362304599119

> <r_i_glide_esite>
0

> <r_i_glide_emodel>
-48.8537181669352

> <r_i_glide_energy>
-37.0399856567383

> <r_i_glide_einternal>
6.02635383605957

> <i_i_glide_confnum>
6

> <i_i_glide_posenum>
77

> <r_i_glide_eff_state_penalty>
0

> <s_user_duplicate_titles>
CHEMBL1900_lig336,109140

> <s_m_subgroup_title>
dock_pv

> <s_m_subgroupid>
dock_pv

> <b_m_subgroup_collapsed>
1

$$$$
CHEMBL1900_lig31
                    3D
 Schrodinger Suite 2021-1.
 26 27  0  0  1  0            999 V2000
   14.7160   -7.2177   17.6190 N   0  0  0  0  0  0
   17.1856   -8.8529   15.9883 C   0  0  0  0  0  0
   14.9213   -8.3568   16.9512 C   0  0  0  0  0  0
   16.3407   -8.7645   17.2644 C   0  0  2  0  0  0
   15.7478   -6.8084   18.3803 C   0  0  0  0  0  0
   16.7042   -7.7151   18.1813 N   0  0  0  0  0  0
   17.3851  -10.0659   15.2909 C   0  0  0  0  0  0
   16.6771  -11.6941   15.7828 S   0  0  2  0  0  0
   18.1514  -10.0733   14.1225 C   0  0  0  0  0  0
   17.7754   -7.6813   15.4846 C   0  0  0  0  0  0
   14.1456   -8.9140   16.1812 O   0  0  0  0  0  0
   15.7452   -5.9177   19.2251 O   0  0  0  0  0  0
   15.4142  -11.4626   16.6106 O   0  0  0  0  0  0
   18.5532   -7.7034   14.3342 C   0  0  0  0  0  0
   18.7399   -8.9004   13.6527 C   0  0  0  0  0  0
   19.2947   -6.2487   13.7779 Cl  0  0  0  0  0  0
   18.0160  -12.1637   16.9726 C   0  0  0  0  0  0
   13.8124   -6.7708   17.6410 H   0  0  0  0  0  0
   16.3543   -9.6854   17.8445 H   0  0  0  0  0  0
   17.6724   -7.5383   18.4061 H   0  0  0  0  0  0
   18.3002  -10.9928   13.5732 H   0  0  0  0  0  0
   17.6401   -6.7344   15.9861 H   0  0  0  0  0  0
   19.3443   -8.9181   12.7615 H   0  0  0  0  0  0
   18.9560  -12.3132   16.4446 H   0  0  0  0  0  0
   18.1437  -11.3954   17.7339 H   0  0  0  0  0  0
   17.7505  -13.0979   17.4665 H   0  0  0  0  0  0
  1  3  1  0  0  0
  1  5  1  0  0  0
  1 18  1  0  0  0
  2  4  1  0  0  0
  2  7  2  0  0  0
  2 10  1  0  0  0
  3  4  1  0  0  0
  3 11  2  0  0  0
  4  6  1  0  0  0
  4 19  1  0  0  0
  5  6  1  0  0  0
  5 12  2  0  0  0
  6 20  1  0  0  0
  7  8  1  0  0  0
  7  9  1  0  0  0
  8 13  2  0  0  0
  8 17  1  0  0  0
  9 15  2  0  0  0
  9 21  1  0  0  0
 10 14  2  0  0  0
 10 22  1  0  0  0
 14 15  1  0  0  0
 14 16  1  0  0  0
 15 23  1  0  0  0
 17 24  1  0  0  0
 17 25  1  0  0  0
 17 26  1  0  0  0
M  END
> <s_m_entry_id>
6562

> <s_m_entry_name>
dock_pv.397

> <s_m_Source_Path>
/home/csk/Desktop/cluster/DUD-E-result/aldr

> <s_m_Source_File>
dock_pv.maegz

> <i_m_Source_File_Index>
397

> <chembl_id>
CHEMBL279274

> <chembl_pref_name>
None

> <i_lp_mmshare_version>
53161

> <i_f3d_flags>
0

> <r_lp_tautomer_probability>
0.999999999781369

> <s_lp_Force_Field>
OPLS_2005

> <r_lp_Energy>
17.387245

> <b_lp_Chiralities_Consistent>
1

> <s_lp_Variant>
CHEMBL1900_lig31-1

> <s_i_glide_gridfile>
glide-grid_2hv5

> <i_i_glide_lignum>
58

> <i_i_glide_rotatable_bonds>
2

> <r_i_docking_score>
-7.86518911043024

> <r_i_glide_ligand_efficiency>
-0.462658182966485

> <r_i_glide_ligand_efficiency_sa>
-1.18962446750562

> <r_i_glide_ligand_efficiency_ln>
-2.05185268976119

> <r_i_glide_gscore>
-7.86518911043024

> <r_i_glide_lipo>
-2.10578439646196

> <r_i_glide_hbond>
-0.219690441337193

> <r_i_glide_metal>
0

> <r_i_glide_rewards>
-3.8387065339367

> <r_i_glide_evdw>
-31.4646606445312

> <r_i_glide_ecoul>
-1.97670614719391

> <r_i_glide_erotb>
0.168731215611264

> <r_i_glide_esite>
0

> <r_i_glide_emodel>
-49.1327289983651

> <r_i_glide_energy>
-33.4413667917252

> <r_i_glide_einternal>
0.506560981273651

> <i_i_glide_confnum>
1

> <i_i_glide_posenum>
7

> <r_i_glide_eff_state_penalty>
0

> <s_user_duplicate_titles>
CHEMBL1900_lig31,23034

> <s_m_subgroup_title>
dock_pv

> <s_m_subgroupid>
dock_pv

> <b_m_subgroup_collapsed>
1

$$$$
CHEMBL1900_lig470
                    3D
 Schrodinger Suite 2021-1.
 37 40  0  0  1  0            999 V2000
   16.5238   -8.9473   15.5623 C   0  0  1  0  0  0
   17.8550   -7.5508   13.9726 N   0  0  0  0  0  0
   16.7892   -7.5808   14.8531 C   0  0  0  0  0  0
   17.3108  -10.0462   14.9696 N   0  0  0  0  0  0
   18.8209   -8.5193   13.7904 C   0  0  0  0  0  0
   16.9730   -8.7434   17.0023 C   0  0  0  0  0  0
   18.3411   -9.8461   14.0783 C   0  0  0  0  0  0
   16.1071   -9.3993   17.7810 N   0  0  0  0  0  0
   15.0471   -9.3051   15.7428 C   0  0  0  0  0  0
   18.2021   -6.1976   13.4275 C   0  0  0  0  0  0
   15.0035   -9.8376   17.1660 C   0  0  0  0  0  0
   17.4497   -5.6761   12.1858 C   0  0  0  0  0  0
   17.1571  -11.4134   15.1187 C   0  0  0  0  0  0
   16.0823   -5.8288   11.9664 C   0  0  0  0  0  0
   16.1600   -6.5803   15.2178 O   0  0  0  0  0  0
   18.8930  -11.0896   13.7801 C   0  0  0  0  0  0
   15.4377   -5.2442   10.8891 C   0  0  0  0  0  0
   19.9567   -8.2997   13.3807 O   0  0  0  0  0  0
   17.9547   -8.1121   17.3809 O   0  0  0  0  0  0
   18.1230  -12.0743   14.3886 C   0  0  0  0  0  0
   14.1451  -10.5538   17.6591 O   0  0  0  0  0  0
   18.1458   -4.9163   11.2566 C   0  0  0  0  0  0
   16.1811   -4.4992    9.9921 C   0  0  0  0  0  0
   15.3450   -6.5150   12.8142 F   0  0  0  0  0  0
   17.5414   -4.3279   10.1613 C   0  0  0  0  0  0
   15.3450   -3.7151    8.5190 Br  0  0  0  0  0  0
   16.2604   -9.5184   18.7728 H   0  0  0  0  0  0
   14.3722   -8.4496   15.6755 H   0  0  0  0  0  0
   14.6847  -10.0602   15.0432 H   0  0  0  0  0  0
   19.2609   -6.1460   13.1697 H   0  0  0  0  0  0
   18.1444   -5.4466   14.2124 H   0  0  0  0  0  0
   16.3765  -11.8136   15.7483 H   0  0  0  0  0  0
   19.7631  -11.2587   13.1611 H   0  0  0  0  0  0
   14.3704   -5.3527   10.7667 H   0  0  0  0  0  0
   18.2704  -13.1431   14.3234 H   0  0  0  0  0  0
   19.1805   -4.7748   11.3809 H   0  0  0  0  0  0
   18.1165   -3.7445    9.4577 H   0  0  0  0  0  0
  1  3  1  0  0  0
  1  4  1  0  0  0
  1  6  1  0  0  0
  1  9  1  0  0  0
  2  3  1  0  0  0
  2 10  1  0  0  0
  2  5  1  0  0  0
  3 15  2  0  0  0
  4  7  1  0  0  0
  4 13  1  0  0  0
  5  7  1  0  0  0
  5 18  2  0  0  0
  6  8  1  0  0  0
  6 19  2  0  0  0
  7 16  2  0  0  0
  8 11  1  0  0  0
  8 27  1  0  0  0
  9 11  1  0  0  0
  9 28  1  0  0  0
  9 29  1  0  0  0
 10 12  1  0  0  0
 10 30  1  0  0  0
 10 31  1  0  0  0
 11 21  2  0  0  0
 12 14  1  0  0  0
 12 22  2  0  0  0
 13 20  2  0  0  0
 13 32  1  0  0  0
 14 17  2  0  0  0
 14 24  1  0  0  0
 16 20  1  0  0  0
 16 33  1  0  0  0
 17 23  1  0  0  0
 17 34  1  0  0  0
 20 35  1  0  0  0
 22 25  1  0  0  0
 22 36  1  0  0  0
 23 25  2  0  0  0
 23 26  1  0  0  0
 25 37  1  0  0  0
M  END
> <s_m_entry_id>
6563

> <s_m_entry_name>
dock_pv.398

> <s_m_Source_Path>
/home/csk/Desktop/cluster/DUD-E-result/aldr

> <s_m_Source_File>
dock_pv.maegz

> <i_m_Source_File_Index>
398

> <chembl_id>
CHEMBL335776

> <chembl_pref_name>
None

> <i_lp_mmshare_version>
53161

> <i_f3d_flags>
0

> <r_lp_tautomer_probability>
0.99995

> <s_lp_Force_Field>
OPLS_2005

> <r_lp_Energy>
32.135138

> <b_lp_Chiralities_Consistent>
1

> <s_lp_Variant>
CHEMBL1900_lig470-1

> <s_i_glide_gridfile>
glide-grid_2hv5

> <i_i_glide_lignum>
592

> <i_i_glide_rotatable_bonds>
2

> <r_i_docking_score>
-7.85977586294901

> <r_i_glide_ligand_efficiency>
-0.302299071651885

> <r_i_glide_ligand_efficiency_sa>
-0.895559810279301

> <r_i_glide_ligand_efficiency_ln>
-1.84584257138544

> <r_i_glide_gscore>
-7.85977586294901

> <r_i_glide_lipo>
-3.46614916228406

> <r_i_glide_hbond>
-0.0102755421124734

> <r_i_glide_metal>
0

> <r_i_glide_rewards>
-3.24416357045454

> <r_i_glide_evdw>
-30.3149757385254

> <r_i_glide_ecoul>
1.057168841362

> <r_i_glide_erotb>
0.224176247857181

> <r_i_glide_esite>
-0.00619037523314282

> <r_i_glide_emodel>
-34.5703723367336

> <r_i_glide_energy>
-29.2578068971634

> <r_i_glide_einternal>
0.48826789855957

> <i_i_glide_confnum>
4

> <i_i_glide_posenum>
67

> <r_i_glide_eff_state_penalty>
0

> <s_user_duplicate_titles>
CHEMBL1900_lig470,219256,219248

> <s_m_subgroup_title>
dock_pv

> <s_m_subgroupid>
dock_pv

> <b_m_subgroup_collapsed>
1

$$$$
CHEMBL1900_lig6
                    3D
 Schrodinger Suite 2021-1.
 42 43  0  0  1  0            999 V2000
   15.3458   -6.5194   17.9818 N   0  0  0  0  0  0
   17.2390   -8.7637   16.3467 C   0  0  0  0  0  0
   15.6831   -6.8589   16.7360 C   0  0  0  0  0  0
   18.6146   -8.0620   13.9254 S   0  0  0  0  0  0
   17.1218   -7.2908   16.7895 C   0  0  1  0  0  0
   16.3640   -6.5008   18.8512 C   0  0  0  0  0  0
   17.8100   -9.1717   15.1146 C   0  0  0  0  0  0
   17.3967   -7.0190   18.1810 N   0  0  0  0  0  0
   17.7853  -10.5337   14.7702 C   0  0  0  0  0  0
   16.6910   -9.7459   17.1890 C   0  0  0  0  0  0
   19.3449   -8.9147   12.9848 O   0  0  0  0  0  0
   19.3447   -7.0218   14.6538 O   0  0  0  0  0  0
   14.9451   -6.9151   15.7646 O   0  0  0  0  0  0
   16.3536   -6.0085   19.9740 O   0  0  0  0  0  0
   16.6904  -11.0919   16.8368 C   0  0  0  0  0  0
   17.1900   -7.2695   12.9759 C   0  0  0  0  0  0
   17.2345  -11.4848   15.6218 C   0  0  0  0  0  0
   16.0092  -12.2599   17.9057 Cl  0  0  0  0  0  0
   17.6442   -5.9713   12.2905 C   0  0  0  0  0  0
   16.0232   -3.3248    9.8920 C   0  0  0  0  0  0
   17.1135   -4.1450   10.5992 C   0  0  0  0  0  0
   16.5706   -5.3507   11.3833 C   0  0  0  0  0  0
   16.5534   -1.9816    9.3746 C   0  0  0  0  0  0
   14.4010   -6.2781   18.2352 H   0  0  0  0  0  0
   17.7045   -6.5876   16.2068 H   0  0  0  0  0  0
   18.1960   -7.4299   18.6432 H   0  0  0  0  0  0
   18.2030  -10.8736   13.8346 H   0  0  0  0  0  0
   16.2426   -9.4649   18.1310 H   0  0  0  0  0  0
   16.3816   -7.0792   13.6776 H   0  0  0  0  0  0
   16.8649   -8.0123   12.2520 H   0  0  0  0  0  0
   17.2322  -12.5266   15.3364 H   0  0  0  0  0  0
   18.5447   -6.1411   11.7061 H   0  0  0  0  0  0
   17.9392   -5.2576   13.0585 H   0  0  0  0  0  0
   15.1990   -3.1361   10.5805 H   0  0  0  0  0  0
   15.5959   -3.8989    9.0677 H   0  0  0  0  0  0
   17.8484   -4.4843    9.8669 H   0  0  0  0  0  0
   17.6561   -3.4983   11.2868 H   0  0  0  0  0  0
   15.7210   -5.0479   11.9989 H   0  0  0  0  0  0
   16.1921   -6.0977   10.6826 H   0  0  0  0  0  0
   15.7448   -1.3695    8.9802 H   0  0  0  0  0  0
   17.2881   -2.1247    8.5820 H   0  0  0  0  0  0
   17.0260   -1.4069   10.1732 H   0  0  0  0  0  0
  1  3  1  0  0  0
  1  6  1  0  0  0
  1 24  1  0  0  0
  2  5  1  0  0  0
  2  7  1  0  0  0
  2 10  2  0  0  0
  3  5  1  0  0  0
  3 13  2  0  0  0
  4  7  1  0  0  0
  4 11  2  0  0  0
  4 12  2  0  0  0
  4 16  1  0  0  0
  5  8  1  0  0  0
  5 25  1  0  0  0
  6  8  1  0  0  0
  6 14  2  0  0  0
  7  9  2  0  0  0
  8 26  1  0  0  0
  9 17  1  0  0  0
  9 27  1  0  0  0
 10 15  1  0  0  0
 10 28  1  0  0  0
 15 17  2  0  0  0
 15 18  1  0  0  0
 16 19  1  0  0  0
 16 29  1  0  0  0
 16 30  1  0  0  0
 17 31  1  0  0  0
 19 22  1  0  0  0
 19 32  1  0  0  0
 19 33  1  0  0  0
 20 21  1  0  0  0
 20 23  1  0  0  0
 20 34  1  0  0  0
 20 35  1  0  0  0
 21 22  1  0  0  0
 21 36  1  0  0  0
 21 37  1  0  0  0
 22 38  1  0  0  0
 22 39  1  0  0  0
 23 40  1  0  0  0
 23 41  1  0  0  0
 23 42  1  0  0  0
M  END
> <s_m_entry_id>
6564

> <s_m_entry_name>
dock_pv.399

> <s_m_Source_Path>
/home/csk/Desktop/cluster/DUD-E-result/aldr

> <s_m_Source_File>
dock_pv.maegz

> <i_m_Source_File_Index>
399

> <chembl_id>
CHEMBL18854

> <chembl_pref_name>
None

> <i_lp_mmshare_version>
53161

> <i_f3d_flags>
0

> <r_lp_tautomer_probability>
0.999999999781369

> <s_lp_Force_Field>
OPLS_2005

> <r_lp_Energy>
18.346763

> <b_lp_Chiralities_Consistent>
1

> <s_lp_Variant>
CHEMBL1900_lig6-2

> <s_i_glide_gridfile>
glide-grid_2hv5

> <i_i_glide_lignum>
8

> <i_i_glide_rotatable_bonds>
7

> <r_i_docking_score>
-7.85149478980531

> <r_i_glide_ligand_efficiency>
-0.341369338687187

> <r_i_glide_ligand_efficiency_sa>
-0.970808989211602

> <r_i_glide_ligand_efficiency_ln>
-1.89856263359354

> <r_i_glide_gscore>
-7.85149478980531

> <r_i_glide_lipo>
-3.09853535746552

> <r_i_glide_hbond>
-0.304533526083993

> <r_i_glide_metal>
0

> <r_i_glide_rewards>
-3.02461476616653

> <r_i_glide_evdw>
-40.6577568054199

> <r_i_glide_ecoul>
-1.8914715051651

> <r_i_glide_erotb>
0.892797425956491

> <r_i_glide_esite>
0

> <r_i_glide_emodel>
-59.9508482659735

> <r_i_glide_energy>
-42.549228310585

> <r_i_glide_einternal>
2.70749568939209

> <i_i_glide_confnum>
70

> <i_i_glide_posenum>
37

> <r_i_glide_eff_state_penalty>
0

> <s_user_duplicate_titles>
CHEMBL1900_lig6,22188

> <s_m_subgroup_title>
dock_pv

> <s_m_subgroupid>
dock_pv

> <b_m_subgroup_collapsed>
1

$$$$
CHEMBL1900_lig98
                    3D
 Schrodinger Suite 2021-1.
 39 42  0  0  1  0            999 V2000
   16.2628   -9.3237   15.7225 C   0  0  2  0  0  0
   17.2949   -7.7111   14.1566 N   0  0  0  0  0  0
   16.2200   -7.9542   14.9811 C   0  0  0  0  0  0
   16.7581   -8.9436   17.1202 C   0  0  0  0  0  0
   18.3376   -8.5406   13.8277 C   0  0  0  0  0  0
   17.1910  -10.3996   15.1183 C   0  0  0  0  0  0
   15.8978   -9.4543   18.0125 N   0  0  0  0  0  0
   18.1313  -10.0006   14.1575 C   0  0  0  0  0  0
   17.4267   -6.3021   13.7129 C   0  0  0  0  0  0
   14.8923  -10.1683   17.4966 C   0  0  0  0  0  0
   16.8109   -5.8831   12.3744 C   0  0  0  0  0  0
   14.8636   -9.8816   16.0075 C   0  0  0  0  0  0
   17.6276   -5.3520   11.3779 C   0  0  0  0  0  0
   15.3448   -7.1217   15.2511 O   0  0  0  0  0  0
   17.0929   -4.8837   10.1810 C   0  0  0  0  0  0
   17.7449   -8.2590   17.3813 O   0  0  0  0  0  0
   19.4057   -8.1211   13.3810 O   0  0  0  0  0  0
   14.1448  -10.9140   18.1164 O   0  0  0  0  0  0
   15.4275   -5.8557   12.1810 C   0  0  0  0  0  0
   15.7151   -4.9153    9.9882 C   0  0  0  0  0  0
   18.9449   -5.2477   11.5938 F   0  0  0  0  0  0
   17.1704  -11.7573   15.4930 C   0  0  0  0  0  0
   14.8797   -5.3825   10.9954 C   0  0  0  0  0  0
   14.9517   -4.3998    8.3314 Br  0  0  0  0  0  0
   19.0021  -10.9337   13.5801 C   0  0  0  0  0  0
   18.0212  -12.6883   14.9001 C   0  0  0  0  0  0
   18.9343  -12.2765   13.9362 C   0  0  0  0  0  0
   16.0667   -9.3898   19.0067 H   0  0  0  0  0  0
   18.4674   -5.9715   13.7609 H   0  0  0  0  0  0
   16.9538   -5.7193   14.4763 H   0  0  0  0  0  0
   14.0450   -9.1838   15.8210 H   0  0  0  0  0  0
   14.6244  -10.7835   15.4438 H   0  0  0  0  0  0
   17.7419   -4.5039    9.4059 H   0  0  0  0  0  0
   14.7596   -6.1147   12.9830 H   0  0  0  0  0  0
   16.4786  -12.1124   16.2424 H   0  0  0  0  0  0
   13.8064   -5.3665   10.8588 H   0  0  0  0  0  0
   19.7452  -10.6271   12.8588 H   0  0  0  0  0  0
   17.9783  -13.7264   15.1953 H   0  0  0  0  0  0
   19.6026  -12.9920   13.4794 H   0  0  0  0  0  0
  1  3  1  0  0  0
  1  4  1  0  0  0
  1  6  1  0  0  0
  1 12  1  0  0  0
  2  3  1  0  0  0
  2  9  1  0  0  0
  2  5  1  0  0  0
  3 14  2  0  0  0
  4  7  1  0  0  0
  4 16  2  0  0  0
  5  8  1  0  0  0
  5 17  2  0  0  0
  6  8  2  0  0  0
  6 22  1  0  0  0
  7 10  1  0  0  0
  7 28  1  0  0  0
  8 25  1  0  0  0
  9 11  1  0  0  0
  9 29  1  0  0  0
  9 30  1  0  0  0
 10 12  1  0  0  0
 10 18  2  0  0  0
 11 13  1  0  0  0
 11 19  2  0  0  0
 12 31  1  0  0  0
 12 32  1  0  0  0
 13 15  2  0  0  0
 13 21  1  0  0  0
 15 20  1  0  0  0
 15 33  1  0  0  0
 19 23  1  0  0  0
 19 34  1  0  0  0
 20 23  2  0  0  0
 20 24  1  0  0  0
 22 26  2  0  0  0
 22 35  1  0  0  0
 23 36  1  0  0  0
 25 27  2  0  0  0
 25 37  1  0  0  0
 26 27  1  0  0  0
 26 38  1  0  0  0
 27 39  1  0  0  0
M  END
> <s_m_entry_id>
6565

> <s_m_entry_name>
dock_pv.400

> <s_m_Source_Path>
/home/csk/Desktop/cluster/DUD-E-result/aldr

> <s_m_Source_File>
dock_pv.maegz

> <i_m_Source_File_Index>
400

> <chembl_id>
CHEMBL62685

> <chembl_pref_name>
None

> <i_lp_mmshare_version>
53161

> <i_f3d_flags>
0

> <r_lp_tautomer_probability>
0.99999999995914

> <s_lp_Force_Field>
OPLS_2005

> <r_lp_Energy>
32.847527

> <b_lp_Chiralities_Consistent>
1

> <s_lp_Variant>
CHEMBL1900_lig98-2

> <s_i_glide_gridfile>
glide-grid_2hv5

> <i_i_glide_lignum>
139

> <i_i_glide_rotatable_bonds>
2

> <r_i_docking_score>
-7.84244290550145

> <r_i_glide_ligand_efficiency>
-0.290460848351906

> <r_i_glide_ligand_efficiency_sa>
-0.871382544098406

> <r_i_glide_ligand_efficiency_ln>
-1.82559141562466

> <r_i_glide_gscore>
-7.84244290550145

> <r_i_glide_lipo>
-3.41520580517002

> <r_i_glide_hbond>
-0.0487753539559455

> <r_i_glide_metal>
0

> <r_i_glide_rewards>
-3.16900920681818

> <r_i_glide_evdw>
-23.5659275054932

> <r_i_glide_ecoul>
-1.63379514217377

> <r_i_glide_erotb>
0.213913107043416

> <r_i_glide_esite>
0

> <r_i_glide_emodel>
-27.4400320865354

> <r_i_glide_energy>
-25.1997226476669

> <r_i_glide_einternal>
1.53339028358459

> <i_i_glide_confnum>
6

> <i_i_glide_posenum>
45

> <r_i_glide_eff_state_penalty>
0

> <s_user_duplicate_titles>
CHEMBL1900_lig98

> <s_m_subgroup_title>
dock_pv

> <s_m_subgroupid>
dock_pv

> <b_m_subgroup_collapsed>
1

$$$$
CHEMBL1900_lig342
                    3D
 Schrodinger Suite 2021-1.
 30 31  0  0  1  0            999 V2000
   16.1679   -7.5834   16.7774 C   0  0  2  0  0  0
   17.0354   -8.3319   15.7507 C   0  0  0  0  0  0
   16.9123   -9.7266   15.5772 C   0  0  0  0  0  0
   17.0800   -7.0028   17.9141 C   0  0  0  0  0  0
   15.9982  -10.4972   16.2500 O   0  0  0  0  0  0
   17.9973   -7.6747   14.9691 C   0  0  0  0  0  0
   17.6742  -10.4204   14.6438 C   0  0  0  0  0  0
   15.0659   -8.5344   17.3135 C   0  0  0  0  0  0
   18.7855   -8.3698   14.0567 C   0  0  0  0  0  0
   18.6054   -9.7398   13.8755 C   0  0  0  0  0  0
   16.4953   -5.8984   18.8122 C   0  0  0  0  0  0
   15.5900   -9.9712   17.5009 C   0  0  1  0  0  0
   15.7571   -6.1145   19.7670 O   0  0  0  0  0  0
   15.4938   -6.5150   16.1533 O   0  0  0  0  0  0
   19.7449   -7.7092   13.3812 F   0  0  0  0  0  0
   19.3452  -10.4257   12.9810 F   0  0  0  0  0  0
   16.8973   -4.6571   18.4206 O   0  0  0  0  0  0
   14.5630  -10.9423   18.0699 C   0  0  0  0  0  0
   16.4404   -9.9534   18.1809 H   0  0  0  0  0  0
   18.0225   -6.6368   17.5092 H   0  0  0  0  0  0
   17.3777   -7.8114   18.5788 H   0  0  0  0  0  0
   18.1611   -6.6136   15.0782 H   0  0  0  0  0  0
   17.5373  -11.4840   14.5106 H   0  0  0  0  0  0
   14.6369   -8.1479   18.2316 H   0  0  0  0  0  0
   14.2244   -8.5827   16.6185 H   0  0  0  0  0  0
   16.1450   -5.9940   15.6782 H   0  0  0  0  0  0
   17.5136   -4.6876   17.6881 H   0  0  0  0  0  0
   14.1448  -10.5493   18.9810 H   0  0  0  0  0  0
   13.7453  -11.1064   17.3790 H   0  0  0  0  0  0
   15.0093  -11.9120   18.2902 H   0  0  0  0  0  0
  1  2  1  0  0  0
  1  4  1  0  0  0
  1  8  1  0  0  0
  1 14  1  0  0  0
  2  3  2  0  0  0
  2  6  1  0  0  0
  3  7  1  0  0  0
  3  5  1  0  0  0
  4 11  1  0  0  0
  4 20  1  0  0  0
  4 21  1  0  0  0
  5 12  1  0  0  0
  6  9  2  0  0  0
  6 22  1  0  0  0
  7 10  2  0  0  0
  7 23  1  0  0  0
  8 12  1  0  0  0
  8 24  1  0  0  0
  8 25  1  0  0  0
  9 10  1  0  0  0
  9 15  1  0  0  0
 10 16  1  0  0  0
 11 13  2  0  0  0
 11 17  1  0  0  0
 12 18  1  0  0  0
 12 19  1  0  0  0
 14 26  1  0  0  0
 17 27  1  0  0  0
 18 28  1  0  0  0
 18 29  1  0  0  0
 18 30  1  0  0  0
M  END
> <s_m_entry_id>
6566

> <s_m_entry_name>
dock_pv.401

> <s_m_Source_Path>
/home/csk/Desktop/cluster/DUD-E-result/aldr

> <s_m_Source_File>
dock_pv.maegz

> <i_m_Source_File_Index>
401

> <chembl_id>
CHEMBL71820

> <chembl_pref_name>
None

> <i_lp_mmshare_version>
53161

> <i_f3d_flags>
0

> <r_lp_tautomer_probability>
1

> <s_lp_Force_Field>
OPLS_2005

> <r_lp_Energy>
15.403748

> <b_lp_Chiralities_Consistent>
1

> <s_lp_Variant>
CHEMBL1900_lig342-1

> <s_i_glide_gridfile>
glide-grid_2hv5

> <i_i_glide_lignum>
463

> <i_i_glide_rotatable_bonds>
4

> <r_i_docking_score>
-7.81922918044844

> <r_i_glide_ligand_efficiency>
-0.434401621136024

> <r_i_glide_ligand_efficiency_sa>
-1.13845430912578

> <r_i_glide_ligand_efficiency_ln>
-2.00989254165183

> <r_i_glide_gscore>
-7.81922918044844

> <r_i_glide_lipo>
-2.80370855255466

> <r_i_glide_hbond>
-0.305961876734604

> <r_i_glide_metal>
0

> <r_i_glide_rewards>
-3.03290127289453

> <r_i_glide_evdw>
-27.1255474090576

> <r_i_glide_ecoul>
-5.66746044158936

> <r_i_glide_erotb>
0.529738958426643

> <r_i_glide_esite>
0

> <r_i_glide_emodel>
-45.5361595481803

> <r_i_glide_energy>
-32.793007850647

> <r_i_glide_einternal>
4.8980917930603

> <i_i_glide_confnum>
6

> <i_i_glide_posenum>
47

> <r_i_glide_eff_state_penalty>
0

> <s_user_duplicate_titles>
CHEMBL1900_lig342,109821

> <s_m_subgroup_title>
dock_pv

> <s_m_subgroupid>
dock_pv

> <b_m_subgroup_collapsed>
1

$$$$
CHEMBL1900_lig104
                    3D
 Schrodinger Suite 2021-1.
 30 32  0  0  1  0            999 V2000
   16.2613   -9.6049   16.5849 C   0  0  2  0  0  0
   16.1165   -8.2790   17.2901 N   0  0  0  0  0  0
   17.1328   -9.4628   15.3344 C   0  0  0  0  0  0
   17.3628   -8.1702   14.8492 C   0  0  0  0  0  0
   14.9041  -10.1691   16.2201 C   0  0  0  0  0  0
   15.9949   -7.1068   16.5856 C   0  0  0  0  0  0
   16.7160  -10.7072   17.3810 N   0  0  0  0  0  0
   18.2973   -7.9358   13.8449 C   0  0  0  0  0  0
   16.6459   -7.1218   15.4115 N   0  0  0  0  0  0
   14.6870  -11.2040   17.0408 N   0  0  0  0  0  0
   18.5846   -6.5704   13.3874 N   0  3  0  0  0  0
   15.7513  -11.5396   17.7809 C   0  0  0  0  0  0
   18.9910   -9.0222   13.3181 C   0  0  0  0  0  0
   17.7893  -10.5417   14.7247 C   0  0  0  0  0  0
   19.3455   -5.9002   14.0734 O   0  5  0  0  0  0
   15.3429   -6.1152   16.9075 O   0  0  0  0  0  0
   14.1450   -9.7140   15.3817 O   0  0  0  0  0  0
   18.0181   -6.1725   12.3775 O   0  0  0  0  0  0
   18.7195  -10.3227   13.7211 C   0  0  0  0  0  0
   15.8764  -12.5199   18.5066 O   0  0  0  0  0  0
   15.7171   -8.2324   18.6932 C   0  0  0  0  0  0
   19.5654  -11.6503   13.0139 Cl  0  0  0  0  0  0
   17.5714  -10.5858   17.9005 H   0  0  0  0  0  0
   16.6557   -6.2256   14.9481 H   0  0  0  0  0  0
   13.8554  -11.7719   16.9967 H   0  0  0  0  0  0
   19.7462   -8.8803   12.5810 H   0  0  0  0  0  0
   17.6139  -11.5535   15.0616 H   0  0  0  0  0  0
   15.4177   -7.2309   19.0016 H   0  0  0  0  0  0
   16.5445   -8.5151   19.3304 H   0  0  0  0  0  0
   14.8882   -8.9146   18.8842 H   0  0  0  0  0  0
  1  2  1  0  0  0
  1  3  1  0  0  0
  1  5  1  0  0  0
  1  7  1  0  0  0
  2  6  1  0  0  0
  2 21  1  0  0  0
  3  4  1  0  0  0
  3 14  2  0  0  0
  4  8  2  0  0  0
  4  9  1  0  0  0
  5 10  1  0  0  0
  5 17  2  0  0  0
  6 16  2  0  0  0
  6  9  1  0  0  0
  7 12  1  0  0  0
  7 23  1  0  0  0
  8 11  1  0  0  0
  8 13  1  0  0  0
  9 24  1  0  0  0
 10 12  1  0  0  0
 10 25  1  0  0  0
 11 15  1  0  0  0
 11 18  2  0  0  0
 12 20  2  0  0  0
 13 19  2  0  0  0
 13 26  1  0  0  0
 14 19  1  0  0  0
 14 27  1  0  0  0
 19 22  1  0  0  0
 21 28  1  0  0  0
 21 29  1  0  0  0
 21 30  1  0  0  0
M  CHG  2  11   1  15  -1
M  END
> <s_m_entry_id>
6567

> <s_m_entry_name>
dock_pv.402

> <s_m_Source_Path>
/home/csk/Desktop/cluster/DUD-E-result/aldr

> <s_m_Source_File>
dock_pv.maegz

> <i_m_Source_File_Index>
402

> <chembl_id>
CHEMBL66476

> <chembl_pref_name>
None

> <i_lp_mmshare_version>
53161

> <i_f3d_flags>
0

> <r_lp_tautomer_probability>
0.99999999978137

> <s_lp_Force_Field>
OPLS_2005

> <r_lp_Energy>
38.581778

> <b_lp_Chiralities_Consistent>
1

> <s_lp_Variant>
CHEMBL1900_lig104-1

> <s_i_glide_gridfile>
glide-grid_2hv5

> <i_i_glide_lignum>
149

> <i_i_glide_rotatable_bonds>
1

> <r_i_docking_score>
-7.81191427466826

> <r_i_glide_ligand_efficiency>
-0.355087012484921

> <r_i_glide_ligand_efficiency_sa>
-0.994967773762506

> <r_i_glide_ligand_efficiency_ln>
-1.90951679522551

> <r_i_glide_gscore>
-7.81191427466826

> <r_i_glide_lipo>
-1.69351681640358

> <r_i_glide_hbond>
-0.584537857036019

> <r_i_glide_metal>
0

> <r_i_glide_rewards>
-3.35531834848485

> <r_i_glide_evdw>
-30.2422885894775

> <r_i_glide_ecoul>
-4.35870933532715

> <r_i_glide_erotb>
0

> <r_i_glide_esite>
-0.0126204229708679

> <r_i_glide_emodel>
-42.1817584695621

> <r_i_glide_energy>
-34.6009979248047

> <r_i_glide_einternal>
2.85203671455383

> <i_i_glide_confnum>
1

> <i_i_glide_posenum>
35

> <r_i_glide_eff_state_penalty>
0

> <s_user_duplicate_titles>
CHEMBL1900_lig104,101935

> <s_m_subgroup_title>
dock_pv

> <s_m_subgroupid>
dock_pv

> <b_m_subgroup_collapsed>
1

$$$$
CHEMBL1900_lig648
                    3D
 Schrodinger Suite 2021-1.
 38 40  0  0  1  0            999 V2000
   15.8222  -12.7653   16.4356 C   0  0  0  0  0  0
   15.2806  -12.1558   17.5354 N   0  0  0  0  0  0
   15.3807  -10.8081   17.6376 C   0  0  0  0  0  0
   16.1209  -10.2744   16.5196 C   0  0  0  0  0  0
   16.6433  -11.5787   15.4626 S   0  0  0  0  0  0
   15.8055  -14.3567   15.9505 S   0  0  0  0  0  0
   14.8923  -10.1397   18.5519 O   0  0  0  0  0  0
   16.2444   -8.9412   16.3559 C   0  0  0  0  0  0
   16.8255   -8.2342   15.2069 C   0  0  0  0  0  0
   14.5352  -12.9221   18.5724 C   0  0  0  0  0  0
   15.4094  -13.3944   19.7553 C   0  0  0  0  0  0
   16.7507  -13.3156   19.5215 O   0  0  0  0  0  0
   14.9307  -13.8100   20.7846 O   0  0  0  0  0  0
   16.0632   -7.1907   14.7039 C   0  0  0  0  0  0
   16.4592   -6.5150   13.5644 C   0  0  0  0  0  0
   17.6577   -6.8228   12.9241 C   0  0  0  0  0  0
   18.4420   -7.8584   13.4463 C   0  0  0  0  0  0
   18.0247   -8.5751   14.5720 C   0  0  0  0  0  0
   18.1449   -6.1148   11.8369 O   0  0  0  0  0  0
   17.4284   -5.2115   11.0761 C   0  0  0  0  0  0
   16.0845   -5.3842   10.7209 C   0  0  0  0  0  0
   15.4348   -4.4129    9.9657 C   0  0  0  0  0  0
   16.1406   -3.3039    9.5079 C   0  0  0  0  0  0
   17.4936   -3.1564    9.7939 C   0  0  0  0  0  0
   18.1306   -4.1098   10.5827 C   0  0  0  0  0  0
   15.8580   -8.2828   17.1240 H   0  0  0  0  0  0
   14.0156  -13.7795   18.1462 H   0  0  0  0  0  0
   13.7451  -12.3002   18.9932 H   0  0  0  0  0  0
   17.2257  -13.7153   20.2531 H   0  0  0  0  0  0
   15.1267   -6.9191   15.1687 H   0  0  0  0  0  0
   15.8276   -5.7151   13.2208 H   0  0  0  0  0  0
   19.3853   -8.1053   12.9811 H   0  0  0  0  0  0
   18.6376   -9.3804   14.9495 H   0  0  0  0  0  0
   15.5359   -6.2588   11.0373 H   0  0  0  0  0  0
   14.3864   -4.5161    9.7302 H   0  0  0  0  0  0
   15.6265   -2.5499    8.9321 H   0  0  0  0  0  0
   18.0356   -2.2967    9.4286 H   0  0  0  0  0  0
   19.1729   -3.9882   10.8260 H   0  0  0  0  0  0
  1  6  2  0  0  0
  1  5  1  0  0  0
  1  2  1  0  0  0
  2  3  1  0  0  0
  2 10  1  0  0  0
  3  7  2  0  0  0
  3  4  1  0  0  0
  4  8  2  0  0  0
  4  5  1  0  0  0
  8  9  1  0  0  0
  8 26  1  0  0  0
  9 14  2  0  0  0
  9 18  1  0  0  0
 10 11  1  0  0  0
 10 27  1  0  0  0
 10 28  1  0  0  0
 11 13  2  0  0  0
 11 12  1  0  0  0
 12 29  1  0  0  0
 14 15  1  0  0  0
 14 30  1  0  0  0
 15 16  2  0  0  0
 15 31  1  0  0  0
 16 17  1  0  0  0
 16 19  1  0  0  0
 17 18  2  0  0  0
 17 32  1  0  0  0
 18 33  1  0  0  0
 19 20  1  0  0  0
 20 21  2  0  0  0
 20 25  1  0  0  0
 21 22  1  0  0  0
 21 34  1  0  0  0
 22 23  2  0  0  0
 22 35  1  0  0  0
 23 24  1  0  0  0
 23 36  1  0  0  0
 24 25  2  0  0  0
 24 37  1  0  0  0
 25 38  1  0  0  0
M  END
> <s_m_entry_id>
6568

> <s_m_entry_name>
dock_pv.403

> <s_m_Source_Path>
/home/csk/Desktop/cluster/DUD-E-result/aldr

> <s_m_Source_File>
dock_pv.maegz

> <i_m_Source_File_Index>
403

> <chembl_id>
CHEMBL1645387

> <chembl_pref_name>
None

> <i_lp_mmshare_version>
53161

> <i_f3d_flags>
0

> <r_lp_tautomer_probability>
1

> <s_lp_Force_Field>
OPLS_2005

> <r_lp_Energy>
19.665052

> <b_lp_Chiralities_Consistent>
1

> <s_lp_Variant>
CHEMBL1900_lig648-1

> <s_i_glide_gridfile>
glide-grid_2hv5

> <i_i_glide_lignum>
774

> <i_i_glide_rotatable_bonds>
6

> <r_i_docking_score>
-7.80264731973222

> <r_i_glide_ligand_efficiency>
-0.312105892789289

> <r_i_glide_ligand_efficiency_sa>
-0.912603165737458

> <r_i_glide_ligand_efficiency_ln>
-1.84946124124807

> <r_i_glide_gscore>
-7.80264731973222

> <r_i_glide_lipo>
-4.0132829963069

> <r_i_glide_hbond>
0

> <r_i_glide_metal>
0

> <r_i_glide_rewards>
-2.25878765714563

> <r_i_glide_evdw>
-38.3913536071777

> <r_i_glide_ecoul>
-2.07059407234192

> <r_i_glide_erotb>
0.699580124930483

> <r_i_glide_esite>
0

> <r_i_glide_emodel>
-52.5553235767331

> <r_i_glide_energy>
-40.4619476795197

> <r_i_glide_einternal>
5.54122734069824

> <i_i_glide_confnum>
45

> <i_i_glide_posenum>
151

> <r_i_glide_eff_state_penalty>
0

> <s_user_duplicate_titles>
CHEMBL1900_lig648

> <s_m_subgroup_title>
dock_pv

> <s_m_subgroupid>
dock_pv

> <b_m_subgroup_collapsed>
1

$$$$
CHEMBL1900_lig464
                    3D
 Schrodinger Suite 2021-1.
 37 40  0  0  1  0            999 V2000
   16.7576   -8.4512   16.6883 C   0  0  2  0  0  0
   17.9940   -8.4058   14.4999 N   0  0  0  0  0  0
   17.5809   -7.6945   15.5964 C   0  0  0  0  0  0
   16.9482   -9.9045   16.5645 N   0  0  0  0  0  0
   18.1450   -9.7712   14.3816 C   0  0  0  0  0  0
   15.2673   -8.1428   16.5328 C   0  0  0  0  0  0
   17.5913  -10.5182   15.5011 C   0  0  0  0  0  0
   14.9437   -7.1479   17.3784 N   0  0  0  0  0  0
   17.0339   -7.8207   18.0587 C   0  0  0  0  0  0
   18.5859   -7.5664   13.3961 C   0  0  0  0  0  0
   15.8877   -6.8553   18.2876 C   0  0  0  0  0  0
   17.7156   -6.5106   12.6658 C   0  0  0  0  0  0
   16.4284  -10.9038   17.3618 C   0  0  0  0  0  0
   16.3338   -6.5312   12.6409 C   0  0  0  0  0  0
   17.8605   -6.5150   15.7418 O   0  0  0  0  0  0
   17.5525  -11.8924   15.7242 C   0  0  0  0  0  0
   15.5888   -5.7150   11.7810 C   0  0  0  0  0  0
   18.6917  -10.3063   13.4144 O   0  0  0  0  0  0
   14.4970   -8.7229   15.7810 O   0  0  0  0  0  0
   16.8240  -12.1367   16.8850 C   0  0  0  0  0  0
   15.8307   -5.9981   19.1655 O   0  0  0  0  0  0
   18.3203   -5.4882   11.9623 C   0  0  0  0  0  0
   16.2606   -4.7913   10.9789 C   0  0  0  0  0  0
   15.7450   -7.3150   13.5276 F   0  0  0  0  0  0
   17.6337   -4.6506   11.0955 C   0  0  0  0  0  0
   15.3450   -3.6452    9.7810 Br  0  0  0  0  0  0
   14.0270   -6.7267   17.3906 H   0  0  0  0  0  0
   16.9450   -8.5150   18.8765 H   0  0  0  0  0  0
   17.9970   -7.3153   18.1650 H   0  0  0  0  0  0
   18.9775   -8.1890   12.5913 H   0  0  0  0  0  0
   19.4691   -7.0671   13.8009 H   0  0  0  0  0  0
   15.7774  -10.6425   18.1810 H   0  0  0  0  0  0
   17.9782  -12.6450   15.0748 H   0  0  0  0  0  0
   14.5103   -5.7714   11.7671 H   0  0  0  0  0  0
   16.5758  -13.1044   17.2980 H   0  0  0  0  0  0
   19.3450   -5.3602   12.1148 H   0  0  0  0  0  0
   18.1561   -3.8903   10.5344 H   0  0  0  0  0  0
  1  3  1  0  0  0
  1  4  1  0  0  0
  1  6  1  0  0  0
  1  9  1  0  0  0
  2  3  1  0  0  0
  2 10  1  0  0  0
  2  5  1  0  0  0
  3 15  2  0  0  0
  4  7  1  0  0  0
  4 13  1  0  0  0
  5  7  1  0  0  0
  5 18  2  0  0  0
  6  8  1  0  0  0
  6 19  2  0  0  0
  7 16  2  0  0  0
  8 11  1  0  0  0
  8 27  1  0  0  0
  9 11  1  0  0  0
  9 28  1  0  0  0
  9 29  1  0  0  0
 10 12  1  0  0  0
 10 30  1  0  0  0
 10 31  1  0  0  0
 11 21  2  0  0  0
 12 14  1  0  0  0
 12 22  2  0  0  0
 13 20  2  0  0  0
 13 32  1  0  0  0
 14 17  2  0  0  0
 14 24  1  0  0  0
 16 20  1  0  0  0
 16 33  1  0  0  0
 17 23  1  0  0  0
 17 34  1  0  0  0
 20 35  1  0  0  0
 22 25  1  0  0  0
 22 36  1  0  0  0
 23 25  2  0  0  0
 23 26  1  0  0  0
 25 37  1  0  0  0
M  END
> <s_m_entry_id>
6569

> <s_m_entry_name>
dock_pv.404

> <s_m_Source_Path>
/home/csk/Desktop/cluster/DUD-E-result/aldr

> <s_m_Source_File>
dock_pv.maegz

> <i_m_Source_File_Index>
404

> <chembl_id>
CHEMBL334830

> <chembl_pref_name>
RANIRESTAT

> <i_lp_mmshare_version>
53161

> <i_f3d_flags>
0

> <r_lp_tautomer_probability>
0.99995

> <s_lp_Force_Field>
OPLS_2005

> <r_lp_Energy>
32.135124

> <b_lp_Chiralities_Consistent>
1

> <s_lp_Variant>
CHEMBL1900_lig464-1

> <s_i_glide_gridfile>
glide-grid_2hv5

> <i_i_glide_lignum>
586

> <i_i_glide_rotatable_bonds>
2

> <r_i_docking_score>
-7.80260060875319

> <r_i_glide_ligand_efficiency>
-0.300100023413584

> <r_i_glide_ligand_efficiency_sa>
-0.889045138526172

> <r_i_glide_ligand_efficiency_ln>
-1.83241515054486

> <r_i_glide_gscore>
-7.80260060875319

> <r_i_glide_lipo>
-2.97490777704554

> <r_i_glide_hbond>
-0.0162572884996717

> <r_i_glide_metal>
0

> <r_i_glide_rewards>
-3.24416357045454

> <r_i_glide_evdw>
-33.3170433044434

> <r_i_glide_ecoul>
-0.837307035923004

> <r_i_glide_erotb>
0.224176247857181

> <r_i_glide_esite>
0

> <r_i_glide_emodel>
-34.4913785979126

> <r_i_glide_energy>
-34.1543503403664

> <r_i_glide_einternal>
3.29588770866394

> <i_i_glide_confnum>
1

> <i_i_glide_posenum>
145

> <r_i_glide_eff_state_penalty>
0

> <s_user_duplicate_titles>
CHEMBL1900_lig464,219259

> <s_m_subgroup_title>
dock_pv

> <s_m_subgroupid>
dock_pv

> <b_m_subgroup_collapsed>
1

$$$$
CHEMBL1900_lig583
                    3D
 Schrodinger Suite 2021-1.
 23 24  0  0  1  0            999 V2000
   15.9788   -5.4226   11.2940 C   0  0  0  0  0  0
   15.6621   -4.5169   10.3573 N   0  0  0  0  0  0
   16.5766   -3.7129    9.8190 C   0  0  0  0  0  0
   18.1449   -4.1152   10.5624 S   0  0  0  0  0  0
   17.3963   -5.3411   11.5959 C   0  0  0  0  0  0
   16.4087   -2.8386    8.9753 O   0  0  0  0  0  0
   15.1440   -6.1783   11.7807 O   0  0  0  0  0  0
   18.0734   -6.0925   12.4997 C   0  0  0  0  0  0
   17.6540   -7.1283   13.4718 C   0  0  0  0  0  0
   16.5442   -6.9884   14.3162 C   0  0  0  0  0  0
   16.2513   -7.9596   15.2791 C   0  0  0  0  0  0
   17.0553   -9.0921   15.3904 C   0  0  0  0  0  0
   18.1464   -9.2537   14.5401 C   0  0  0  0  0  0
   18.4519   -8.2707   13.6006 C   0  0  0  0  0  0
   15.1480   -7.8197   16.1179 N   0  0  0  0  0  0
   14.7034   -4.4364   10.0541 H   0  0  0  0  0  0
   19.1322   -5.8870   12.5584 H   0  0  0  0  0  0
   15.9177   -6.1151   14.2373 H   0  0  0  0  0  0
   16.8330   -9.8537   16.1232 H   0  0  0  0  0  0
   18.7667  -10.1343   14.6131 H   0  0  0  0  0  0
   19.3238   -8.4037   12.9769 H   0  0  0  0  0  0
   14.9496   -8.5923   16.7363 H   0  0  0  0  0  0
   14.3643   -7.3147   15.7357 H   0  0  0  0  0  0
  1  2  1  0  0  0
  1  5  1  0  0  0
  1  7  2  0  0  0
  2  3  1  0  0  0
  2 16  1  0  0  0
  3  4  1  0  0  0
  3  6  2  0  0  0
  4  5  1  0  0  0
  5  8  2  0  0  0
  8  9  1  0  0  0
  8 17  1  0  0  0
  9 10  2  0  0  0
  9 14  1  0  0  0
 10 11  1  0  0  0
 10 18  1  0  0  0
 11 12  2  0  0  0
 11 15  1  0  0  0
 12 13  1  0  0  0
 12 19  1  0  0  0
 13 14  2  0  0  0
 13 20  1  0  0  0
 14 21  1  0  0  0
 15 22  1  0  0  0
 15 23  1  0  0  0
M  END
> <s_m_entry_id>
6570

> <s_m_entry_name>
dock_pv.405

> <s_m_Source_Path>
/home/csk/Desktop/cluster/DUD-E-result/aldr

> <s_m_Source_File>
dock_pv.maegz

> <i_m_Source_File_Index>
405

> <chembl_id>
CHEMBL2260160

> <chembl_pref_name>
None

> <i_lp_mmshare_version>
53161

> <i_f3d_flags>
0

> <r_lp_tautomer_probability>
1

> <s_lp_Force_Field>
OPLS_2005

> <r_lp_Energy>
18.382572

> <b_lp_Chiralities_Consistent>
1

> <s_lp_Variant>
CHEMBL1900_lig583-1

> <s_i_glide_gridfile>
glide-grid_2hv5

> <i_i_glide_lignum>
706

> <i_i_glide_rotatable_bonds>
1

> <r_i_docking_score>
-7.80183117664462

> <r_i_glide_ligand_efficiency>
-0.520122078442975

> <r_i_glide_ligand_efficiency_sa>
-1.28273134882402

> <r_i_glide_ligand_efficiency_ln>
-2.10402522984331

> <r_i_glide_gscore>
-7.80183117664462

> <r_i_glide_lipo>
-2.6052001945394

> <r_i_glide_hbond>
0

> <r_i_glide_metal>
0

> <r_i_glide_rewards>
-3.57406175757576

> <r_i_glide_evdw>
-35.8774833679199

> <r_i_glide_ecoul>
-1.17362296581268

> <r_i_glide_erotb>
0.34734838873844

> <r_i_glide_esite>
0

> <r_i_glide_emodel>
-52.485930835048

> <r_i_glide_energy>
-37.0511063337326

> <r_i_glide_einternal>
1.18528437614441

> <i_i_glide_confnum>
3

> <i_i_glide_posenum>
232

> <r_i_glide_eff_state_penalty>
0

> <s_user_duplicate_titles>
CHEMBL1900_lig583

> <s_m_subgroup_title>
dock_pv

> <s_m_subgroupid>
dock_pv

> <b_m_subgroup_collapsed>
1

$$$$
CHEMBL1900_lig211
                    3D
 Schrodinger Suite 2021-1.
 37 38  0  0  1  0            999 V2000
   16.9780   -7.7621   16.4903 C   0  0  0  0  0  0
   17.9440   -7.5601   14.4215 N   0  0  0  0  0  0
   17.1940   -8.9808   15.9717 C   0  0  0  0  0  0
   17.8110   -8.8853   14.6567 C   0  0  0  0  0  0
   17.4493   -6.7503   15.5030 C   0  0  0  0  0  0
   16.3792   -7.3730   17.7635 C   0  0  0  0  0  0
   18.4665   -6.9828   13.1773 C   0  0  0  0  0  0
   18.1449   -9.8068   13.9107 O   0  0  0  0  0  0
   15.7484   -8.1533   18.4753 O   0  0  0  0  0  0
   16.9700  -10.2489   16.4155 O   0  0  0  0  0  0
   16.5858   -6.0685   18.0594 O   0  0  0  0  0  0
   17.4524   -6.2420   12.2931 C   0  0  0  0  0  0
   16.1642   -5.5149   19.2994 C   0  0  0  0  0  0
   16.0878   -6.5152   12.3684 C   0  0  0  0  0  0
   17.9002   -5.2716   11.3942 C   0  0  0  0  0  0
   16.4120   -3.9971   19.2774 C   0  0  0  0  0  0
   15.9215   -3.2897   20.5493 C   0  0  0  0  0  0
   17.0024   -4.6047   10.5651 C   0  0  0  0  0  0
   15.1805   -5.8540   11.5418 C   0  0  0  0  0  0
   15.6437   -4.9027   10.6383 C   0  0  0  0  0  0
   16.6393   -6.1153   15.1444 H   0  0  0  0  0  0
   18.2458   -6.1143   15.8852 H   0  0  0  0  0  0
   19.2765   -6.2963   13.4348 H   0  0  0  0  0  0
   18.9115   -7.7807   12.5853 H   0  0  0  0  0  0
   17.2450  -10.8688   15.7334 H   0  0  0  0  0  0
   16.7174   -5.9806   20.1174 H   0  0  0  0  0  0
   15.1057   -5.7153   19.4539 H   0  0  0  0  0  0
   15.7429   -7.2673   13.0609 H   0  0  0  0  0  0
   18.9465   -5.0355   11.3256 H   0  0  0  0  0  0
   15.9160   -3.5573   18.4105 H   0  0  0  0  0  0
   17.4788   -3.8060   19.1488 H   0  0  0  0  0  0
   16.1445   -2.2225   20.5105 H   0  0  0  0  0  0
   16.4045   -3.6913   21.4428 H   0  0  0  0  0  0
   14.8421   -3.3900   20.6782 H   0  0  0  0  0  0
   17.3558   -3.8600    9.8679 H   0  0  0  0  0  0
   14.1252   -6.0795   11.6048 H   0  0  0  0  0  0
   14.9418   -4.3875    9.9937 H   0  0  0  0  0  0
  1  3  2  0  0  0
  1  5  1  0  0  0
  1  6  1  0  0  0
  2  5  1  0  0  0
  2  7  1  0  0  0
  2  4  1  0  0  0
  3  4  1  0  0  0
  3 10  1  0  0  0
  4  8  2  0  0  0
  5 21  1  0  0  0
  5 22  1  0  0  0
  6  9  2  0  0  0
  6 11  1  0  0  0
  7 12  1  0  0  0
  7 23  1  0  0  0
  7 24  1  0  0  0
 10 25  1  0  0  0
 11 13  1  0  0  0
 12 14  2  0  0  0
 12 15  1  0  0  0
 13 16  1  0  0  0
 13 26  1  0  0  0
 13 27  1  0  0  0
 14 19  1  0  0  0
 14 28  1  0  0  0
 15 18  2  0  0  0
 15 29  1  0  0  0
 16 17  1  0  0  0
 16 30  1  0  0  0
 16 31  1  0  0  0
 17 32  1  0  0  0
 17 33  1  0  0  0
 17 34  1  0  0  0
 18 20  1  0  0  0
 18 35  1  0  0  0
 19 20  2  0  0  0
 19 36  1  0  0  0
 20 37  1  0  0  0
M  END
> <s_m_entry_id>
6571

> <s_m_entry_name>
dock_pv.406

> <s_m_Source_Path>
/home/csk/Desktop/cluster/DUD-E-result/aldr

> <s_m_Source_File>
dock_pv.maegz

> <i_m_Source_File_Index>
406

> <chembl_id>
CHEMBL7749

> <chembl_pref_name>
None

> <i_lp_mmshare_version>
53161

> <i_f3d_flags>
0

> <r_lp_tautomer_probability>
1

> <s_lp_Force_Field>
OPLS_2005

> <r_lp_Energy>
22.373723

> <b_lp_Chiralities_Consistent>
1

> <s_lp_Variant>
CHEMBL1900_lig211-1

> <s_i_glide_gridfile>
glide-grid_2hv5

> <i_i_glide_lignum>
287

> <i_i_glide_rotatable_bonds>
7

> <r_i_docking_score>
-7.80034978579835

> <r_i_glide_ligand_efficiency>
-0.390017489289917

> <r_i_glide_ligand_efficiency_sa>
-1.0586703426515

> <r_i_glide_ligand_efficiency_ln>
-1.95217027863089

> <r_i_glide_gscore>
-7.80034978579835

> <r_i_glide_lipo>
-3.66680615799048

> <r_i_glide_hbond>
0

> <r_i_glide_metal>
0

> <r_i_glide_rewards>
-3.54110827179243

> <r_i_glide_evdw>
-39.6657905578613

> <r_i_glide_ecoul>
1.36811137199402

> <r_i_glide_erotb>
1.18563746607852

> <r_i_glide_esite>
0

> <r_i_glide_emodel>
-54.6597069449498

> <r_i_glide_energy>
-38.2976791858673

> <r_i_glide_einternal>
2.50487780570984

> <i_i_glide_confnum>
76

> <i_i_glide_posenum>
263

> <r_i_glide_eff_state_penalty>
0

> <s_user_duplicate_titles>
CHEMBL1900_lig211

> <s_m_subgroup_title>
dock_pv

> <s_m_subgroupid>
dock_pv

> <b_m_subgroup_collapsed>
1

$$$$
CHEMBL1900_lig136
                    3D
 Schrodinger Suite 2021-1.
 28 30  0  0  1  0            999 V2000
   16.6814   -8.0757   16.9798 C   0  0  1  0  0  0
   15.9726   -9.3512   17.3814 N   0  0  0  0  0  0
   17.5654   -8.2545   15.7224 C   0  0  0  0  0  0
   15.6758   -6.9778   16.6847 C   0  0  0  0  0  0
   16.4128  -10.5973   17.0102 C   0  0  0  0  0  0
   17.3805   -7.3999   18.0471 N   0  0  0  0  0  0
   15.7450   -6.1157   17.7038 N   0  0  0  0  0  0
   17.1805  -10.6152   15.9086 N   0  0  0  0  0  0
   16.6989   -6.3936   18.6008 C   0  0  0  0  0  0
   17.7450   -9.5492   15.2250 C   0  0  0  0  0  0
   16.1980  -11.6524   17.6092 O   0  0  0  0  0  0
   14.9450   -6.9150   15.7076 O   0  0  0  0  0  0
   18.5136   -9.7893   14.0840 C   0  0  0  0  0  0
   17.0135   -5.6972   19.5585 O   0  0  0  0  0  0
   14.9454   -9.3108   18.4413 C   0  0  0  0  0  0
   18.2088   -7.1982   15.0508 C   0  0  0  0  0  0
   18.6854  -11.0476   13.6143 F   0  0  0  0  0  0
   18.9810   -7.4278   13.9158 C   0  0  0  0  0  0
   19.1302   -8.7250   13.4372 C   0  0  0  0  0  0
   18.0604   -7.9223   18.5805 H   0  0  0  0  0  0
   15.2513   -5.2401   17.7094 H   0  0  0  0  0  0
   17.4432  -11.5474   15.6243 H   0  0  0  0  0  0
   14.4792  -10.2782   18.6375 H   0  0  0  0  0  0
   14.1451   -8.6292   18.1586 H   0  0  0  0  0  0
   15.3738   -8.9482   19.3752 H   0  0  0  0  0  0
   18.1157   -6.1850   15.4150 H   0  0  0  0  0  0
   19.4740   -6.6063   13.4165 H   0  0  0  0  0  0
   19.7458   -8.9153   12.5797 H   0  0  0  0  0  0
  1  2  1  0  0  0
  1  3  1  0  0  0
  1  4  1  0  0  0
  1  6  1  0  0  0
  2  5  1  0  0  0
  2 15  1  0  0  0
  3 10  1  0  0  0
  3 16  2  0  0  0
  4  7  1  0  0  0
  4 12  2  0  0  0
  5 11  2  0  0  0
  5  8  1  0  0  0
  6  9  1  0  0  0
  6 20  1  0  0  0
  7  9  1  0  0  0
  7 21  1  0  0  0
  8 10  1  0  0  0
  8 22  1  0  0  0
  9 14  2  0  0  0
 10 13  2  0  0  0
 13 17  1  0  0  0
 13 19  1  0  0  0
 15 23  1  0  0  0
 15 24  1  0  0  0
 15 25  1  0  0  0
 16 18  1  0  0  0
 16 26  1  0  0  0
 18 19  2  0  0  0
 18 27  1  0  0  0
 19 28  1  0  0  0
M  END
> <s_m_entry_id>
6572

> <s_m_entry_name>
dock_pv.407

> <s_m_Source_Path>
/home/csk/Desktop/cluster/DUD-E-result/aldr

> <s_m_Source_File>
dock_pv.maegz

> <i_m_Source_File_Index>
407

> <chembl_id>
CHEMBL303779

> <chembl_pref_name>
None

> <i_lp_mmshare_version>
53161

> <i_f3d_flags>
0

> <r_lp_tautomer_probability>
0.99999999978137

> <s_lp_Force_Field>
OPLS_2005

> <r_lp_Energy>
34.782776

> <b_lp_Chiralities_Consistent>
1

> <s_lp_Variant>
CHEMBL1900_lig136-2

> <s_i_glide_gridfile>
glide-grid_2hv5

> <i_i_glide_lignum>
209

> <i_i_glide_rotatable_bonds>
0

> <r_i_docking_score>
-7.79976415811843

> <r_i_glide_ligand_efficiency>
-0.410513903058865

> <r_i_glide_ligand_efficiency_sa>
-1.09541597467043

> <r_i_glide_ligand_efficiency_ln>
-1.9774077376567

> <r_i_glide_gscore>
-7.79976415811843

> <r_i_glide_lipo>
-1.6033957735832

> <r_i_glide_hbond>
-0.348383992546911

> <r_i_glide_metal>
0

> <r_i_glide_rewards>
-3.86289257460932

> <r_i_glide_evdw>
-30.7806167602539

> <r_i_glide_ecoul>
-2.97373986244202

> <r_i_glide_erotb>
0

> <r_i_glide_esite>
0

> <r_i_glide_emodel>
-43.223691742611

> <r_i_glide_energy>
-33.7543566226959

> <r_i_glide_einternal>
0

> <i_i_glide_confnum>
1

> <i_i_glide_posenum>
34

> <r_i_glide_eff_state_penalty>
0

> <s_user_duplicate_titles>
CHEMBL1900_lig136,102060

> <s_m_subgroup_title>
dock_pv

> <s_m_subgroupid>
dock_pv

> <b_m_subgroup_collapsed>
1

$$$$
CHEMBL1900_lig20
                    3D
 Schrodinger Suite 2021-1.
 39 41  0  0  1  0            999 V2000
   18.9235   -7.7668   14.1052 S   0  0  0  0  0  0
   15.3452   -6.5317   17.9809 N   0  0  0  0  0  0
   17.3457   -8.6619   16.2984 C   0  0  0  0  0  0
   15.6881   -6.8436   16.7314 C   0  0  0  0  0  0
   17.1488   -7.2147   16.7817 C   0  0  1  0  0  0
   16.3608   -6.4992   18.8551 C   0  0  0  0  0  0
   18.0474   -8.9835   15.1156 C   0  0  0  0  0  0
   17.4124   -6.9734   18.1786 N   0  0  0  0  0  0
   17.6913   -6.7178   13.4605 N   0  0  3  0  0  0
   19.5268   -8.5149   12.9971 O   0  0  0  0  0  0
   19.7384   -6.9150   14.9770 O   0  0  0  0  0  0
   18.0930  -10.3199   14.6868 C   0  0  0  0  0  0
   16.7575   -9.7038   17.0346 C   0  0  0  0  0  0
   14.9450   -6.9151   15.7612 O   0  0  0  0  0  0
   16.3413   -6.0065   19.9775 O   0  0  0  0  0  0
   16.8299  -11.0255   16.6094 C   0  0  0  0  0  0
   16.8094   -7.1434   12.3754 C   0  0  0  0  0  0
   17.4891  -11.3333   15.4259 C   0  0  0  0  0  0
   16.0996  -12.2727   17.5522 Cl  0  0  0  0  0  0
   16.4442   -5.9616   11.5019 C   0  0  0  0  0  0
   15.1020   -5.6183   11.3506 C   0  0  0  0  0  0
   17.4405   -5.2112   10.8683 C   0  0  0  0  0  0
   17.0933   -4.1164   10.0812 C   0  0  0  0  0  0
   14.7602   -4.5150   10.5808 C   0  0  0  0  0  0
   15.7507   -3.7743    9.9388 C   0  0  0  0  0  0
   14.3914   -6.3361   18.2398 H   0  0  0  0  0  0
   17.7141   -6.4789   16.2178 H   0  0  0  0  0  0
   18.2279   -7.3572   18.6360 H   0  0  0  0  0  0
   17.4380   -5.8781   13.9863 H   0  0  0  0  0  0
   18.6101  -10.5963   13.7797 H   0  0  0  0  0  0
   16.2212   -9.4850   17.9468 H   0  0  0  0  0  0
   15.9067   -7.5340   12.8448 H   0  0  0  0  0  0
   17.2463   -7.9799   11.8285 H   0  0  0  0  0  0
   17.5427  -12.3566   15.0831 H   0  0  0  0  0  0
   14.3217   -6.1788   11.8441 H   0  0  0  0  0  0
   18.4813   -5.4764   10.9863 H   0  0  0  0  0  0
   17.8583   -3.5341    9.5892 H   0  0  0  0  0  0
   13.7237   -4.2320   10.4946 H   0  0  0  0  0  0
   15.4688   -2.9217    9.3380 H   0  0  0  0  0  0
  1  7  1  0  0  0
  1  9  1  0  0  0
  1 10  2  0  0  0
  1 11  2  0  0  0
  2  4  1  0  0  0
  2  6  1  0  0  0
  2 26  1  0  0  0
  3  7  1  0  0  0
  3  5  1  0  0  0
  3 13  2  0  0  0
  4  5  1  0  0  0
  4 14  2  0  0  0
  5  8  1  0  0  0
  5 27  1  0  0  0
  6  8  1  0  0  0
  6 15  2  0  0  0
  7 12  2  0  0  0
  8 28  1  0  0  0
  9 17  1  0  0  0
  9 29  1  0  0  0
 12 18  1  0  0  0
 12 30  1  0  0  0
 13 16  1  0  0  0
 13 31  1  0  0  0
 16 18  2  0  0  0
 16 19  1  0  0  0
 17 20  1  0  0  0
 17 32  1  0  0  0
 17 33  1  0  0  0
 18 34  1  0  0  0
 20 21  2  0  0  0
 20 22  1  0  0  0
 21 24  1  0  0  0
 21 35  1  0  0  0
 22 23  2  0  0  0
 22 36  1  0  0  0
 23 25  1  0  0  0
 23 37  1  0  0  0
 24 25  2  0  0  0
 24 38  1  0  0  0
 25 39  1  0  0  0
M  END
> <s_m_entry_id>
6573

> <s_m_entry_name>
dock_pv.408

> <s_m_Source_Path>
/home/csk/Desktop/cluster/DUD-E-result/aldr

> <s_m_Source_File>
dock_pv.maegz

> <i_m_Source_File_Index>
408

> <chembl_id>
CHEMBL19187

> <chembl_pref_name>
None

> <i_lp_mmshare_version>
53161

> <i_f3d_flags>
0

> <r_lp_tautomer_probability>
0.999999999781369

> <s_lp_Force_Field>
OPLS_2005

> <r_lp_Energy>
25.523344

> <b_lp_Chiralities_Consistent>
1

> <s_lp_Variant>
CHEMBL1900_lig20-2

> <s_i_glide_gridfile>
glide-grid_2hv5

> <i_i_glide_lignum>
37

> <i_i_glide_rotatable_bonds>
5

> <r_i_docking_score>
-7.7918089889004

> <r_i_glide_ligand_efficiency>
-0.311672359556016

> <r_i_glide_ligand_efficiency_sa>
-0.911335506874624

> <r_i_glide_ligand_efficiency_ln>
-1.84689223204236

> <r_i_glide_gscore>
-7.7918089889004

> <r_i_glide_lipo>
-3.37674345870893

> <r_i_glide_hbond>
-0.312686476076489

> <r_i_glide_metal>
0

> <r_i_glide_rewards>
-2.25647485589094

> <r_i_glide_evdw>
-41.7190818786621

> <r_i_glide_ecoul>
-1.98460149765015

> <r_i_glide_erotb>
0.537740120356587

> <r_i_glide_esite>
0

> <r_i_glide_emodel>
-58.3322171494455

> <r_i_glide_energy>
-43.7036833763123

> <r_i_glide_einternal>
5.71669673919678

> <i_i_glide_confnum>
8

> <i_i_glide_posenum>
22

> <r_i_glide_eff_state_penalty>
0

> <s_user_duplicate_titles>
CHEMBL1900_lig20

> <s_m_subgroup_title>
dock_pv

> <s_m_subgroupid>
dock_pv

> <b_m_subgroup_collapsed>
1

$$$$
CHEMBL1900_lig114
                    3D
 Schrodinger Suite 2021-1.
 28 30  0  0  1  0            999 V2000
   16.2871   -9.6301   16.5708 C   0  0  2  0  0  0
   16.1422   -8.3004   17.2694 N   0  0  0  0  0  0
   17.1712   -9.4966   15.3226 C   0  0  0  0  0  0
   14.9343  -10.2048   16.1809 C   0  0  0  0  0  0
   16.0642   -7.1200   16.5720 C   0  0  0  0  0  0
   16.7409  -10.7286   17.3811 N   0  0  0  0  0  0
   14.7828  -11.3428   16.8722 N   0  0  0  0  0  0
   15.8085  -11.6368   17.6833 C   0  0  0  0  0  0
   16.7407   -7.1387   15.4084 N   0  0  0  0  0  0
   17.4232   -8.2059   14.8411 C   0  0  0  0  0  0
   17.8173  -10.5786   14.7034 C   0  0  0  0  0  0
   15.4331   -6.1150   16.9010 O   0  0  0  0  0  0
   14.1451   -9.7155   15.3811 O   0  0  0  0  0  0
   15.8490  -12.4753   18.5789 O   0  0  0  0  0  0
   18.3423   -7.9824   13.8233 C   0  0  0  0  0  0
   15.7154   -8.2570   18.6677 C   0  0  0  0  0  0
   18.7377  -10.3665   13.6868 C   0  0  0  0  0  0
   19.0156   -9.0689   13.2778 C   0  0  0  0  0  0
   19.3796  -11.4125   13.1209 F   0  0  0  0  0  0
   17.7259  -10.8790   17.5342 H   0  0  0  0  0  0
   13.9622  -11.9245   16.8009 H   0  0  0  0  0  0
   16.7814   -6.2409   14.9505 H   0  0  0  0  0  0
   17.6373  -11.5915   15.0327 H   0  0  0  0  0  0
   18.5524   -6.9826   13.4693 H   0  0  0  0  0  0
   15.3834   -7.2665   18.9812 H   0  0  0  0  0  0
   16.5448   -8.5147   19.3151 H   0  0  0  0  0  0
   14.8999   -8.9582   18.8471 H   0  0  0  0  0  0
   19.7452   -8.9150   12.5123 H   0  0  0  0  0  0
  1  2  1  0  0  0
  1  3  1  0  0  0
  1  4  1  0  0  0
  1  6  1  0  0  0
  2  5  1  0  0  0
  2 16  1  0  0  0
  3 10  1  0  0  0
  3 11  2  0  0  0
  4  7  1  0  0  0
  4 13  2  0  0  0
  5 12  2  0  0  0
  5  9  1  0  0  0
  6  8  1  0  0  0
  6 20  1  0  0  0
  7  8  1  0  0  0
  7 21  1  0  0  0
  8 14  2  0  0  0
  9 10  1  0  0  0
  9 22  1  0  0  0
 10 15  2  0  0  0
 11 17  1  0  0  0
 11 23  1  0  0  0
 15 18  1  0  0  0
 15 24  1  0  0  0
 16 25  1  0  0  0
 16 26  1  0  0  0
 16 27  1  0  0  0
 17 18  2  0  0  0
 17 19  1  0  0  0
 18 28  1  0  0  0
M  END
> <s_m_entry_id>
6574

> <s_m_entry_name>
dock_pv.409

> <s_m_Source_Path>
/home/csk/Desktop/cluster/DUD-E-result/aldr

> <s_m_Source_File>
dock_pv.maegz

> <i_m_Source_File_Index>
409

> <chembl_id>
CHEMBL66588

> <chembl_pref_name>
None

> <i_lp_mmshare_version>
53161

> <i_f3d_flags>
0

> <r_lp_tautomer_probability>
0.99999999978137

> <s_lp_Force_Field>
OPLS_2005

> <r_lp_Energy>
34.972132

> <b_lp_Chiralities_Consistent>
1

> <s_lp_Variant>
CHEMBL1900_lig114-1

> <s_i_glide_gridfile>
glide-grid_2hv5

> <i_i_glide_lignum>
168

> <i_i_glide_rotatable_bonds>
0

> <r_i_docking_score>
-7.7866790384408

> <r_i_glide_ligand_efficiency>
-0.409825212549516

> <r_i_glide_ligand_efficiency_sa>
-1.09357827178162

> <r_i_glide_ligand_efficiency_ln>
-1.97409037877582

> <r_i_glide_gscore>
-7.7866790384408

> <r_i_glide_lipo>
-1.51404709654366

> <r_i_glide_hbond>
-0.586277102594642

> <r_i_glide_metal>
0

> <r_i_glide_rewards>
-3.69224944296643

> <r_i_glide_evdw>
-24.0659942626953

> <r_i_glide_ecoul>
-5.19216918945312

> <r_i_glide_erotb>
0

> <r_i_glide_esite>
-0.0119803047833279

> <r_i_glide_emodel>
-40.3688898211167

> <r_i_glide_energy>
-29.2581634521484

> <r_i_glide_einternal>
0

> <i_i_glide_confnum>
1

> <i_i_glide_posenum>
21

> <r_i_glide_eff_state_penalty>
0

> <s_user_duplicate_titles>
CHEMBL1900_lig114,CHEMBL1900_lig121,102502,101687

> <s_m_subgroup_title>
dock_pv

> <s_m_subgroupid>
dock_pv

> <b_m_subgroup_collapsed>
1

$$$$
CHEMBL1900_lig615
                    3D
 Schrodinger Suite 2021-1.
 39 40  0  0  1  0            999 V2000
   16.9292   -8.0415   15.1130 C   0  0  2  0  0  0
   17.2496   -9.2998   14.5807 O   0  0  0  0  0  0
   17.6657  -10.2978   15.5094 C   0  0  1  0  0  0
   16.5139  -10.5720   16.5078 C   0  0  2  0  0  0
   16.0450   -9.2447   17.1490 C   0  0  1  0  0  0
   15.7265   -8.1844   16.0634 C   0  0  1  0  0  0
   18.0331  -11.5551   14.6835 C   0  0  0  0  0  0
   19.0905  -11.3030   13.7775 O   0  0  0  0  0  0
   16.5454   -7.1896   14.0612 O   0  0  0  0  0  0
   17.5382   -6.7277   13.2340 C   0  0  0  0  0  0
   17.0230   -5.8486   12.1311 C   0  0  0  0  0  0
   18.7433   -6.9372   13.4097 O   0  0  0  0  0  0
   15.6721   -5.7714   11.7813 C   0  0  0  0  0  0
   15.2312   -4.8852   10.8002 C   0  0  0  0  0  0
   16.1456   -4.0835   10.1034 C   0  0  0  0  0  0
   17.5007   -4.1752   10.4224 C   0  0  0  0  0  0
   17.9161   -5.0435   11.4244 C   0  0  0  0  0  0
   15.7450   -3.1934    9.1313 O   0  0  0  0  0  0
   13.8872   -4.7944   10.5810 O   0  0  0  0  0  0
   18.4252   -3.3937    9.7809 O   0  0  0  0  0  0
   15.3482   -6.9523   16.6590 O   0  0  0  0  0  0
   14.9449   -9.4235   18.0296 O   0  0  0  0  0  0
   16.8839  -11.5452   17.4754 O   0  0  0  0  0  0
   17.8183   -7.6681   15.6290 H   0  0  0  0  0  0
   18.5448   -9.9402   16.0477 H   0  0  0  0  0  0
   15.6720  -10.9974   15.9573 H   0  0  0  0  0  0
   16.8531   -8.8592   17.7755 H   0  0  0  0  0  0
   14.8745   -8.5184   15.4666 H   0  0  0  0  0  0
   18.3370  -12.3735   15.3366 H   0  0  0  0  0  0
   17.1669  -11.9040   14.1193 H   0  0  0  0  0  0
   19.1906  -12.0573   13.1914 H   0  0  0  0  0  0
   14.9450   -6.3730   12.2916 H   0  0  0  0  0  0
   18.9451   -5.0668   11.6868 H   0  0  0  0  0  0
   14.7929   -3.1442    8.9812 H   0  0  0  0  0  0
   13.6336   -4.0833    9.9831 H   0  0  0  0  0  0
   17.9696   -2.8213    9.1568 H   0  0  0  0  0  0
   14.9603   -7.1639   17.5146 H   0  0  0  0  0  0
   14.2300   -9.8572   17.5554 H   0  0  0  0  0  0
   16.7882  -12.4207   17.0907 H   0  0  0  0  0  0
  1  2  1  0  0  0
  1  6  1  0  0  0
  1  9  1  0  0  0
  1 24  1  0  0  0
  2  3  1  0  0  0
  3  4  1  0  0  0
  3  7  1  0  0  0
  3 25  1  0  0  0
  4  5  1  0  0  0
  4 23  1  0  0  0
  4 26  1  0  0  0
  5  6  1  0  0  0
  5 22  1  0  0  0
  5 27  1  0  0  0
  6 21  1  0  0  0
  6 28  1  0  0  0
  7  8  1  0  0  0
  7 29  1  0  0  0
  7 30  1  0  0  0
  8 31  1  0  0  0
  9 10  1  0  0  0
 10 11  1  0  0  0
 10 12  2  0  0  0
 11 13  1  0  0  0
 11 17  2  0  0  0
 13 14  2  0  0  0
 13 32  1  0  0  0
 14 15  1  0  0  0
 14 19  1  0  0  0
 15 16  2  0  0  0
 15 18  1  0  0  0
 16 17  1  0  0  0
 16 20  1  0  0  0
 17 33  1  0  0  0
 18 34  1  0  0  0
 19 35  1  0  0  0
 20 36  1  0  0  0
 21 37  1  0  0  0
 22 38  1  0  0  0
 23 39  1  0  0  0
M  END
> <s_m_entry_id>
6576

> <s_m_entry_name>
dock_pv.411

> <s_m_Source_Path>
/home/csk/Desktop/cluster/DUD-E-result/aldr

> <s_m_Source_File>
dock_pv.maegz

> <i_m_Source_File_Index>
411

> <chembl_id>
CHEMBL480283

> <chembl_pref_name>
None

> <i_lp_mmshare_version>
53161

> <i_f3d_flags>
0

> <r_lp_tautomer_probability>
1

> <s_lp_Force_Field>
OPLS_2005

> <r_lp_Energy>
24.280446

> <b_lp_Chiralities_Consistent>
1

> <s_lp_Variant>
CHEMBL1900_lig615-1

> <s_i_glide_gridfile>
glide-grid_2hv5

> <i_i_glide_lignum>
739

> <i_i_glide_rotatable_bonds>
11

> <r_i_docking_score>
-7.77024959683716

> <r_i_glide_ligand_efficiency>
-0.33783693899292

> <r_i_glide_ligand_efficiency_sa>
-0.960763314371937

> <r_i_glide_ligand_efficiency_ln>
-1.87891680924316

> <r_i_glide_gscore>
-7.77024959683716

> <r_i_glide_lipo>
-2.93858250446405

> <r_i_glide_hbond>
0

> <r_i_glide_metal>
0

> <r_i_glide_rewards>
-2.2115602822339

> <r_i_glide_evdw>
-37.1014976501465

> <r_i_glide_ecoul>
-9.64916515350342

> <r_i_glide_erotb>
0.682342845393629

> <r_i_glide_esite>
0

> <r_i_glide_emodel>
-66.5036409231155

> <r_i_glide_energy>
-46.7506628036499

> <r_i_glide_einternal>
1.09596621990204

> <i_i_glide_confnum>
5

> <i_i_glide_posenum>
357

> <r_i_glide_eff_state_penalty>
0

> <s_user_duplicate_titles>
CHEMBL1900_lig615

> <s_m_subgroup_title>
dock_pv

> <s_m_subgroupid>
dock_pv

> <b_m_subgroup_collapsed>
1

$$$$
CHEMBL1900_lig593
                    3D
 Schrodinger Suite 2021-1.
 34 35  0  0  1  0            999 V2000
   18.9540   -6.2124   13.3665 O   0  0  0  0  0  0
   15.2527   -1.7185    9.7810 O   0  0  0  0  0  0
   17.5414   -1.9007    9.7797 O   0  0  0  0  0  0
   17.2444   -5.0355   11.2859 N   0  0  0  0  0  0
   16.8622   -5.9614   12.2596 C   0  0  0  0  0  0
   17.7666   -6.5139   13.3058 C   0  0  0  0  0  0
   16.1437   -4.7453   10.4823 C   0  0  0  0  0  0
   17.2494   -7.5414   14.2658 C   0  0  0  0  0  0
   15.5310   -6.2219   12.0313 C   0  0  0  0  0  0
   15.0730   -5.4569   10.9799 C   0  0  0  0  0  0
   16.1906   -3.8417    9.2552 C   0  0  0  0  0  0
   16.0638   -7.3318   14.9766 C   0  0  0  0  0  0
   18.0124   -8.6840   14.5406 C   0  0  0  0  0  0
   18.5514   -4.4448   11.0676 C   0  0  0  0  0  0
   16.4257   -2.3807    9.6041 C   0  0  0  0  0  0
   16.3680   -9.4105   16.1562 C   0  0  0  0  0  0
   15.6190   -8.2616   15.9114 C   0  0  0  0  0  0
   17.5643   -9.6215   15.4701 C   0  0  0  0  0  0
   15.8797  -10.4176   17.1809 C   0  0  0  0  0  0
   14.4855   -2.2576    9.5449 H   0  0  0  0  0  0
   14.9450   -6.9150   12.5809 H   0  0  0  0  0  0
   14.0676   -5.4520   10.5813 H   0  0  0  0  0  0
   15.2824   -3.9392    8.6590 H   0  0  0  0  0  0
   16.9970   -4.1174    8.5826 H   0  0  0  0  0  0
   15.4741   -6.4471   14.8083 H   0  0  0  0  0  0
   18.9505   -8.8560   14.0301 H   0  0  0  0  0  0
   19.3432   -5.1071   11.3810 H   0  0  0  0  0  0
   18.7174   -4.2353   10.0125 H   0  0  0  0  0  0
   18.5970   -3.5154   11.6325 H   0  0  0  0  0  0
   14.6947   -8.0891   16.4438 H   0  0  0  0  0  0
   18.1473  -10.5097   15.6580 H   0  0  0  0  0  0
   16.6120  -11.2054   17.3668 H   0  0  0  0  0  0
   15.6771   -9.9174   18.1293 H   0  0  0  0  0  0
   14.9472  -10.8754   16.8455 H   0  0  0  0  0  0
  1  6  2  0  0  0
  2 15  1  0  0  0
  2 20  1  0  0  0
  3 15  2  0  0  0
  4  5  1  0  0  0
  4  7  1  0  0  0
  4 14  1  0  0  0
  5  6  1  0  0  0
  5  9  2  0  0  0
  6  8  1  0  0  0
  7 10  2  0  0  0
  7 11  1  0  0  0
  8 12  2  0  0  0
  8 13  1  0  0  0
  9 10  1  0  0  0
  9 21  1  0  0  0
 10 22  1  0  0  0
 11 15  1  0  0  0
 11 23  1  0  0  0
 11 24  1  0  0  0
 12 17  1  0  0  0
 12 25  1  0  0  0
 13 18  2  0  0  0
 13 26  1  0  0  0
 14 27  1  0  0  0
 14 28  1  0  0  0
 14 29  1  0  0  0
 16 17  2  0  0  0
 16 18  1  0  0  0
 16 19  1  0  0  0
 17 30  1  0  0  0
 18 31  1  0  0  0
 19 32  1  0  0  0
 19 33  1  0  0  0
 19 34  1  0  0  0
M  END
> <s_m_entry_id>
6577

> <s_m_entry_name>
dock_pv.412

> <s_m_Source_Path>
/home/csk/Desktop/cluster/DUD-E-result/aldr

> <s_m_Source_File>
dock_pv.maegz

> <i_m_Source_File_Index>
412

> <chembl_id>
CHEMBL1020

> <chembl_pref_name>
TOLMETIN

> <i_lp_mmshare_version>
53161

> <i_f3d_flags>
0

> <r_lp_tautomer_probability>
1

> <s_lp_Force_Field>
OPLS_2005

> <r_lp_Energy>
18.480073

> <b_lp_Chiralities_Consistent>
1

> <s_lp_Variant>
CHEMBL1900_lig593-1

> <s_i_glide_gridfile>
glide-grid_2hv5

> <i_i_glide_lignum>
716

> <i_i_glide_rotatable_bonds>
5

> <r_i_docking_score>
-7.76030295051906

> <r_i_glide_ligand_efficiency>
-0.40843699739574

> <r_i_glide_ligand_efficiency_sa>
-1.08987395618014

> <r_i_glide_ligand_efficiency_ln>
-1.96740347398124

> <r_i_glide_gscore>
-7.76030295051906

> <r_i_glide_lipo>
-3.16197749082154

> <r_i_glide_hbond>
0

> <r_i_glide_metal>
0

> <r_i_glide_rewards>
-3.69654507575758

> <r_i_glide_evdw>
-30.5302696228027

> <r_i_glide_ecoul>
-2.94245147705078

> <r_i_glide_erotb>
1.06610081875781

> <r_i_glide_esite>
0

> <r_i_glide_emodel>
-45.6276794740084

> <r_i_glide_energy>
-33.4727210998535

> <r_i_glide_einternal>
5.91456508636475

> <i_i_glide_confnum>
15

> <i_i_glide_posenum>
21

> <r_i_glide_eff_state_penalty>
0

> <s_user_duplicate_titles>
CHEMBL1900_lig593

> <s_m_subgroup_title>
dock_pv

> <s_m_subgroupid>
dock_pv

> <b_m_subgroup_collapsed>
1

$$$$
CHEMBL1900_lig433
                    3D
 Schrodinger Suite 2021-1.
 27 28  0  0  1  0            999 V2000
   18.4152   -7.0420   13.9064 S   0  0  0  0  0  0
   17.5188   -7.6739   15.3602 C   0  0  0  0  0  0
   16.9891   -8.8476   15.2415 N   0  0  0  0  0  0
   16.1736   -9.3405   16.2599 N   0  0  0  0  0  0
   16.9583   -6.8891   12.6972 C   0  0  0  0  0  0
   17.2705   -6.9179   16.5700 C   0  0  0  0  0  0
   15.7882   -8.7035   17.4044 C   0  0  0  0  0  0
   16.9412   -5.7445   11.6842 C   0  0  0  0  0  0
   16.4686   -7.4220   17.5424 C   0  0  0  0  0  0
   18.9436   -5.7187   14.2529 O   0  0  0  0  0  0
   19.3073   -8.1229   13.4725 O   0  0  0  0  0  0
   15.7275   -5.4002   11.0716 C   0  0  0  0  0  0
   14.9469   -9.1495   18.1808 O   0  0  0  0  0  0
   14.5909   -6.0671   11.3816 F   0  0  0  0  0  0
   18.0986   -5.0479   11.3274 C   0  0  0  0  0  0
   15.6769   -4.3706   10.1334 C   0  0  0  0  0  0
   18.0505   -4.0251   10.3778 C   0  0  0  0  0  0
   16.8380   -3.6850    9.7806 C   0  0  0  0  0  0
   16.9450   -7.8400   12.1811 H   0  0  0  0  0  0
   16.0505   -6.8271   13.2953 H   0  0  0  0  0  0
   17.7449   -5.9641   16.7350 H   0  0  0  0  0  0
   16.3077   -6.8660   18.4546 H   0  0  0  0  0  0
   15.7688  -10.2476   16.0800 H   0  0  0  0  0  0
   19.0402   -5.3079   11.7770 H   0  0  0  0  0  0
   14.7335   -4.1140    9.6750 H   0  0  0  0  0  0
   18.9491   -3.4908   10.1100 H   0  0  0  0  0  0
   16.7940   -2.8910    9.0497 H   0  0  0  0  0  0
  1  5  1  0  0  0
  1 10  2  0  0  0
  1 11  2  0  0  0
  1  2  1  0  0  0
  2  6  1  0  0  0
  2  3  2  0  0  0
  3  4  1  0  0  0
  4  7  1  0  0  0
  4 23  1  0  0  0
  5  8  1  0  0  0
  5 19  1  0  0  0
  5 20  1  0  0  0
  6  9  2  0  0  0
  6 21  1  0  0  0
  7 13  2  0  0  0
  7  9  1  0  0  0
  8 12  2  0  0  0
  8 15  1  0  0  0
  9 22  1  0  0  0
 12 14  1  0  0  0
 12 16  1  0  0  0
 15 17  2  0  0  0
 15 24  1  0  0  0
 16 18  2  0  0  0
 16 25  1  0  0  0
 17 18  1  0  0  0
 17 26  1  0  0  0
 18 27  1  0  0  0
M  END
> <s_m_entry_id>
6578

> <s_m_entry_name>
dock_pv.413

> <s_m_Source_Path>
/home/csk/Desktop/cluster/DUD-E-result/aldr

> <s_m_Source_File>
dock_pv.maegz

> <i_m_Source_File_Index>
413

> <chembl_id>
CHEMBL199069

> <chembl_pref_name>
None

> <i_lp_mmshare_version>
53161

> <i_f3d_flags>
0

> <r_lp_tautomer_probability>
0.998994762270461

> <s_lp_Force_Field>
OPLS_2005

> <r_lp_Energy>
17.306735

> <b_lp_Chiralities_Consistent>
1

> <s_lp_Variant>
CHEMBL1900_lig433-1

> <s_i_glide_gridfile>
glide-grid_2hv5

> <i_i_glide_lignum>
555

> <i_i_glide_rotatable_bonds>
3

> <r_i_docking_score>
-7.7566321909574

> <r_i_glide_ligand_efficiency>
-0.430924010608745

> <r_i_glide_ligand_efficiency_sa>
-1.12934039127278

> <r_i_glide_ligand_efficiency_ln>
-1.99380230827915

> <r_i_glide_gscore>
-7.7566321909574

> <r_i_glide_lipo>
-3.45223681315166

> <r_i_glide_hbond>
0

> <r_i_glide_metal>
0

> <r_i_glide_rewards>
-3.33234846345867

> <r_i_glide_evdw>
-39.5610122680664

> <r_i_glide_ecoul>
1.7468113899231

> <r_i_glide_erotb>
0.743981990567783

> <r_i_glide_esite>
0

> <r_i_glide_emodel>
-47.9280323224608

> <r_i_glide_energy>
-37.8142008781433

> <r_i_glide_einternal>
10.1720943450928

> <i_i_glide_confnum>
22

> <i_i_glide_posenum>
1

> <r_i_glide_eff_state_penalty>
0

> <s_user_duplicate_titles>
CHEMBL1900_lig433,331302

> <s_m_subgroup_title>
dock_pv

> <s_m_subgroupid>
dock_pv

> <b_m_subgroup_collapsed>
1

$$$$
CHEMBL1900_lig456
                    3D
 Schrodinger Suite 2021-1.
 33 35  0  0  1  0            999 V2000
   16.8948   -8.1495   15.2586 S   0  0  0  0  0  0
   16.9024   -7.0703   13.7971 C   0  0  0  0  0  0
   17.6885   -9.6735   14.6831 C   0  0  0  0  0  0
   17.9419   -6.3408   13.2461 C   0  0  0  0  0  0
   15.7452   -6.9149   13.0972 O   0  0  0  0  0  0
   18.7257   -9.5617   13.9207 N   0  0  0  0  0  0
   17.3840   -5.6892   12.0985 C   0  0  0  0  0  0
   16.0261   -6.0623   12.0747 C   0  0  0  0  0  0
   19.3020  -10.7119   13.3812 N   0  0  0  0  0  0
   17.1725  -10.9919   14.9809 C   0  0  0  0  0  0
   18.9199  -12.0098   13.5692 C   0  0  0  0  0  0
   15.5034   -8.4893   15.5815 O   0  0  0  0  0  0
   17.7890   -7.5683   16.2663 O   0  0  0  0  0  0
   17.7587  -12.0931   14.4466 C   0  0  0  0  0  0
   17.8544   -4.8063   11.1129 C   0  0  0  0  0  0
   15.1177   -5.5770   11.1284 C   0  0  0  0  0  0
   19.5020  -12.9695   13.0725 O   0  0  0  0  0  0
   16.9566   -4.2893   10.1758 C   0  0  0  0  0  0
   19.3468   -6.2255   13.7515 C   0  0  0  0  0  0
   15.6136   -4.6742   10.1842 C   0  0  0  0  0  0
   17.4561   -3.2852    9.1545 C   0  0  0  0  0  0
   16.3180  -11.1107   15.6323 H   0  0  0  0  0  0
   17.3710  -13.0763   14.6688 H   0  0  0  0  0  0
   18.8845   -4.4950   11.1006 H   0  0  0  0  0  0
   14.0767   -5.8647   11.1485 H   0  0  0  0  0  0
   20.1059  -10.5508   12.7929 H   0  0  0  0  0  0
   19.7452   -5.2778   13.4171 H   0  0  0  0  0  0
   19.4159   -6.2320   14.8382 H   0  0  0  0  0  0
   19.9873   -7.0244   13.3811 H   0  0  0  0  0  0
   14.9450   -4.2587    9.4456 H   0  0  0  0  0  0
   18.2767   -3.7142    8.5830 H   0  0  0  0  0  0
   16.6765   -2.9723    8.4591 H   0  0  0  0  0  0
   17.8404   -2.3978    9.6575 H   0  0  0  0  0  0
  1  2  1  0  0  0
  1 12  2  0  0  0
  1 13  2  0  0  0
  1  3  1  0  0  0
  2  4  2  0  0  0
  2  5  1  0  0  0
  3 10  1  0  0  0
  3  6  2  0  0  0
  4  7  1  0  0  0
  4 19  1  0  0  0
  5  8  1  0  0  0
  6  9  1  0  0  0
  7 15  1  0  0  0
  7  8  2  0  0  0
  8 16  1  0  0  0
  9 11  1  0  0  0
  9 26  1  0  0  0
 10 14  2  0  0  0
 10 22  1  0  0  0
 11 17  2  0  0  0
 11 14  1  0  0  0
 14 23  1  0  0  0
 15 18  2  0  0  0
 15 24  1  0  0  0
 16 20  2  0  0  0
 16 25  1  0  0  0
 18 21  1  0  0  0
 18 20  1  0  0  0
 19 27  1  0  0  0
 19 28  1  0  0  0
 19 29  1  0  0  0
 20 30  1  0  0  0
 21 31  1  0  0  0
 21 32  1  0  0  0
 21 33  1  0  0  0
M  END
> <s_m_entry_id>
6579

> <s_m_entry_name>
dock_pv.414

> <s_m_Source_Path>
/home/csk/Desktop/cluster/DUD-E-result/aldr

> <s_m_Source_File>
dock_pv.maegz

> <i_m_Source_File_Index>
414

> <chembl_id>
CHEMBL198148

> <chembl_pref_name>
None

> <i_lp_mmshare_version>
53161

> <i_f3d_flags>
0

> <r_lp_tautomer_probability>
0.998994762270461

> <s_lp_Force_Field>
OPLS_2005

> <r_lp_Energy>
22.439692

> <b_lp_Chiralities_Consistent>
1

> <s_lp_Variant>
CHEMBL1900_lig456-1

> <s_i_glide_gridfile>
glide-grid_2hv5

> <i_i_glide_lignum>
578

> <i_i_glide_rotatable_bonds>
2

> <r_i_docking_score>
-7.73874422870271

> <r_i_glide_ligand_efficiency>
-0.368511629938224

> <r_i_glide_ligand_efficiency_sa>
-1.0166956440824

> <r_i_glide_ligand_efficiency_ln>
-1.91338887294162

> <r_i_glide_gscore>
-7.73874422870271

> <r_i_glide_lipo>
-3.70812215607309

> <r_i_glide_hbond>
0

> <r_i_glide_metal>
0

> <r_i_glide_rewards>
-2.5514087106076

> <r_i_glide_evdw>
-36.52685546875

> <r_i_glide_ecoul>
-0.340677827596664

> <r_i_glide_erotb>
0.398231085554973

> <r_i_glide_esite>
0

> <r_i_glide_emodel>
-52.2842296587498

> <r_i_glide_energy>
-36.8675332963467

> <r_i_glide_einternal>
1.53364050388336

> <i_i_glide_confnum>
2

> <i_i_glide_posenum>
253

> <r_i_glide_eff_state_penalty>
0

> <s_user_duplicate_titles>
CHEMBL1900_lig456,331241

> <s_m_subgroup_title>
dock_pv

> <s_m_subgroupid>
dock_pv

> <b_m_subgroup_collapsed>
1

$$$$
CHEMBL1900_lig521
                    3D
 Schrodinger Suite 2021-1.
 44 46  0  0  1  0            999 V2000
   19.0352  -14.0215   13.6005 O   0  0  0  0  0  0
   18.8664  -12.9225   12.6465 S   0  0  0  0  0  0
   19.9738  -12.5153   11.7810 O   0  0  0  0  0  0
   16.0305  -12.4969   16.2627 C   0  0  0  0  0  0
   16.8524  -12.5712   15.1446 C   0  0  0  0  0  0
   17.5100  -11.4435   14.6421 C   0  0  0  0  0  0
   15.8315  -11.3034   16.9516 C   0  0  0  0  0  0
   16.4786  -10.1632   16.4581 C   0  0  0  0  0  0
   17.2988  -10.2075   15.2868 C   0  0  0  0  0  0
   17.7361   -8.8606   15.0390 C   0  0  0  0  0  0
   17.3682   -8.1282   16.1337 C   0  0  0  0  0  0
   16.4977   -8.8587   16.9284 N   0  0  0  0  0  0
   18.6939   -8.2247   13.7052 S   0  0  0  0  0  0
   17.6765   -6.9158   13.0223 C   0  0  0  0  0  0
   16.2846   -6.9741   12.9909 C   0  0  0  0  0  0
   15.5642   -6.1066   12.1718 C   0  0  0  0  0  0
   16.2370   -5.1407   11.4273 C   0  0  0  0  0  0
   17.6098   -4.9738   11.5739 C   0  0  0  0  0  0
   18.3118   -5.8496   12.4006 C   0  0  0  0  0  0
   15.8433   -8.4051   18.1719 C   0  0  0  0  0  0
   15.3489   -4.1119   10.3651 Cl  0  0  0  0  0  0
   17.7475   -6.7064   16.4154 C   0  0  0  0  0  0
   18.3878  -11.4807   13.5478 N   0  0  0  0  0  0
   17.3525  -13.2241   11.5784 C   0  0  0  0  0  0
   15.3559   -6.9588   18.1776 C   0  0  0  0  0  0
   14.5459   -6.7209   17.1055 O   0  0  0  0  0  0
   15.7407   -6.1210   18.9930 O   0  0  0  0  0  0
   15.5454  -13.3981   16.6123 H   0  0  0  0  0  0
   16.9675  -13.5380   14.6811 H   0  0  0  0  0  0
   15.2005  -11.2772   17.8267 H   0  0  0  0  0  0
   15.7538   -7.7149   13.5555 H   0  0  0  0  0  0
   14.4879   -6.1735   12.1060 H   0  0  0  0  0  0
   18.1243   -4.1838   11.0487 H   0  0  0  0  0  0
   19.3658   -5.7454   12.5432 H   0  0  0  0  0  0
   14.9919   -9.0472   18.3928 H   0  0  0  0  0  0
   16.5463   -8.5221   18.9822 H   0  0  0  0  0  0
   18.5537   -6.3488   15.7805 H   0  0  0  0  0  0
   16.8818   -6.1153   16.1679 H   0  0  0  0  0  0
   18.0395   -6.5195   17.4485 H   0  0  0  0  0  0
   18.7783  -10.6030   13.2338 H   0  0  0  0  0  0
   17.5891  -13.9914   10.8485 H   0  0  0  0  0  0
   17.0924  -12.2963   11.0709 H   0  0  0  0  0  0
   16.5371  -13.5476   12.2186 H   0  0  0  0  0  0
   14.3576   -7.5189   16.6067 H   0  0  0  0  0  0
  1  2  2  0  0  0
  2  3  2  0  0  0
  2 23  1  0  0  0
  2 24  1  0  0  0
  4  7  1  0  0  0
  4  5  2  0  0  0
  4 28  1  0  0  0
  5  6  1  0  0  0
  5 29  1  0  0  0
  6  9  2  0  0  0
  6 23  1  0  0  0
  7  8  2  0  0  0
  7 30  1  0  0  0
  8  9  1  0  0  0
  8 12  1  0  0  0
  9 10  1  0  0  0
 10 11  2  0  0  0
 10 13  1  0  0  0
 11 22  1  0  0  0
 11 12  1  0  0  0
 12 20  1  0  0  0
 13 14  1  0  0  0
 14 15  2  0  0  0
 14 19  1  0  0  0
 15 16  1  0  0  0
 15 31  1  0  0  0
 16 17  2  0  0  0
 16 32  1  0  0  0
 17 18  1  0  0  0
 17 21  1  0  0  0
 18 19  2  0  0  0
 18 33  1  0  0  0
 19 34  1  0  0  0
 20 25  1  0  0  0
 20 35  1  0  0  0
 20 36  1  0  0  0
 22 37  1  0  0  0
 22 38  1  0  0  0
 22 39  1  0  0  0
 23 40  1  0  0  0
 24 41  1  0  0  0
 24 42  1  0  0  0
 24 43  1  0  0  0
 25 26  1  0  0  0
 25 27  2  0  0  0
 26 44  1  0  0  0
M  END
> <s_m_entry_id>
6580

> <s_m_entry_name>
dock_pv.415

> <s_m_Source_Path>
/home/csk/Desktop/cluster/DUD-E-result/aldr

> <s_m_Source_File>
dock_pv.maegz

> <i_m_Source_File_Index>
415

> <chembl_id>
CHEMBL1917433

> <chembl_pref_name>
None

> <i_lp_mmshare_version>
53161

> <i_f3d_flags>
0

> <r_lp_tautomer_probability>
1

> <s_lp_Force_Field>
OPLS_2005

> <r_lp_Energy>
8.017442

> <b_lp_Chiralities_Consistent>
1

> <s_lp_Variant>
CHEMBL1900_lig521-1

> <s_i_glide_gridfile>
glide-grid_2hv5

> <i_i_glide_lignum>
644

> <i_i_glide_rotatable_bonds>
7

> <r_i_docking_score>
-7.73399487665681

> <r_i_glide_ligand_efficiency>
-0.286444254690993

> <r_i_glide_ligand_efficiency_sa>
-0.859332763128905

> <r_i_glide_ligand_efficiency_ln>
-1.80034650241512

> <r_i_glide_gscore>
-7.73399487665681

> <r_i_glide_lipo>
-4.09753155101829

> <r_i_glide_hbond>
0

> <r_i_glide_metal>
0

> <r_i_glide_rewards>
-2.13224764574949

> <r_i_glide_evdw>
-38.8293685913086

> <r_i_glide_ecoul>
-0.746308267116547

> <r_i_glide_erotb>
0.549198989743893

> <r_i_glide_esite>
0

> <r_i_glide_emodel>
-45.6763070757907

> <r_i_glide_energy>
-39.5756768584251

> <r_i_glide_einternal>
8.87650489807129

> <i_i_glide_confnum>
37

> <i_i_glide_posenum>
293

> <r_i_glide_eff_state_penalty>
0

> <s_user_duplicate_titles>
CHEMBL1900_lig521

> <s_m_subgroup_title>
dock_pv

> <s_m_subgroupid>
dock_pv

> <b_m_subgroup_collapsed>
1

$$$$
CHEMBL1900_lig323
                    3D
 Schrodinger Suite 2021-1.
 36 38  0  0  1  0            999 V2000
   16.0106   -9.5315   15.8677 C   0  0  0  0  0  0
   16.3230   -8.3794   16.7838 C   0  0  0  0  0  0
   17.0723   -7.2638   16.3707 C   0  0  0  0  0  0
   15.8101   -8.4045   18.0972 C   0  0  0  0  0  0
   16.7682   -6.2125   18.5743 C   0  0  0  0  0  0
   17.0856  -10.2250   15.0876 C   0  0  0  0  0  0
   17.7336   -7.1344   15.0562 C   0  0  0  0  0  0
   17.2308   -6.2053   17.2688 C   0  0  0  0  0  0
   16.1066   -7.3613   18.9810 C   0  0  0  0  0  0
   16.3859   -3.6773   18.9618 C   0  0  0  0  0  0
   18.1485   -8.0866   14.2031 C   0  0  0  0  0  0
   17.0350   -4.9883   19.4919 C   0  0  1  0  0  0
   18.0454   -9.5551   14.3038 C   0  0  0  0  0  0
   14.8978  -10.0658   15.9231 O   0  0  0  0  0  0
   16.1262   -3.4669   17.7810 O   0  0  0  0  0  0
   15.0458   -9.4364   18.5810 O   0  0  0  0  0  0
   16.1444   -2.7621   19.9425 O   0  0  0  0  0  0
   17.0368  -11.6307   15.0894 C   0  0  0  0  0  0
   16.7678   -5.2019   21.0071 C   0  0  0  0  0  0
   18.9495  -10.3192   13.5598 C   0  0  0  0  0  0
   17.9469  -12.3677   14.3355 C   0  0  0  0  0  0
   18.9055  -11.7116   13.5702 C   0  0  0  0  0  0
   17.9094   -6.1150   14.7423 H   0  0  0  0  0  0
   17.7450   -5.3150   16.9810 H   0  0  0  0  0  0
   15.7450   -7.4326   19.9925 H   0  0  0  0  0  0
   18.6080   -7.7345   13.2896 H   0  0  0  0  0  0
   18.1104   -4.8218   19.4122 H   0  0  0  0  0  0
   15.0038   -9.4315   19.5392 H   0  0  0  0  0  0
   16.4572   -3.0472   20.8018 H   0  0  0  0  0  0
   16.2958  -12.1689   15.6658 H   0  0  0  0  0  0
   15.7450   -4.9651   21.2813 H   0  0  0  0  0  0
   16.9450   -6.2169   21.3348 H   0  0  0  0  0  0
   17.4136   -4.5649   21.6140 H   0  0  0  0  0  0
   19.7153   -9.8275   12.9810 H   0  0  0  0  0  0
   17.9057  -13.4471   14.3414 H   0  0  0  0  0  0
   19.6159  -12.2796   12.9875 H   0  0  0  0  0  0
  1  2  1  0  0  0
  1  6  1  0  0  0
  1 14  2  0  0  0
  2  3  2  0  0  0
  2  4  1  0  0  0
  3  7  1  0  0  0
  3  8  1  0  0  0
  4  9  2  0  0  0
  4 16  1  0  0  0
  5  9  1  0  0  0
  5 12  1  0  0  0
  5  8  2  0  0  0
  6 13  1  0  0  0
  6 18  2  0  0  0
  7 11  2  0  0  0
  7 23  1  0  0  0
  8 24  1  0  0  0
  9 25  1  0  0  0
 10 12  1  0  0  0
 10 15  2  0  0  0
 10 17  1  0  0  0
 11 13  1  0  0  0
 11 26  1  0  0  0
 12 19  1  0  0  0
 12 27  1  0  0  0
 13 20  2  0  0  0
 16 28  1  0  0  0
 17 29  1  0  0  0
 18 21  1  0  0  0
 18 30  1  0  0  0
 19 31  1  0  0  0
 19 32  1  0  0  0
 19 33  1  0  0  0
 20 22  1  0  0  0
 20 34  1  0  0  0
 21 22  2  0  0  0
 21 35  1  0  0  0
 22 36  1  0  0  0
M  END
> <s_m_entry_id>
6581

> <s_m_entry_name>
dock_pv.416

> <s_m_Source_Path>
/home/csk/Desktop/cluster/DUD-E-result/aldr

> <s_m_Source_File>
dock_pv.maegz

> <i_m_Source_File_Index>
416

> <chembl_id>
CHEMBL75630

> <chembl_pref_name>
None

> <i_lp_mmshare_version>
53161

> <i_f3d_flags>
0

> <r_lp_tautomer_probability>
1

> <s_lp_Force_Field>
OPLS_2005

> <r_lp_Energy>
35.55663

> <b_lp_Chiralities_Consistent>
1

> <s_lp_Variant>
CHEMBL1900_lig323-1

> <s_i_glide_gridfile>
glide-grid_2hv5

> <i_i_glide_lignum>
441

> <i_i_glide_rotatable_bonds>
4

> <r_i_docking_score>
-7.72184893475791

> <r_i_glide_ligand_efficiency>
-0.350993133398087

> <r_i_glide_ligand_efficiency_sa>
-0.983496563558069

> <r_i_glide_ligand_efficiency_ln>
-1.88750154093832

> <r_i_glide_gscore>
-7.72184893475791

> <r_i_glide_lipo>
-3.72240151654472

> <r_i_glide_hbond>
-0.0756178844245582

> <r_i_glide_metal>
0

> <r_i_glide_rewards>
-2.75249072727273

> <r_i_glide_evdw>
-26.3742542266846

> <r_i_glide_ecoul>
-1.83254539966583

> <r_i_glide_erotb>
0.422255714768195

> <r_i_glide_esite>
0

> <r_i_glide_emodel>
-33.6727753367462

> <r_i_glide_energy>
-28.2067996263504

> <r_i_glide_einternal>
3.46847176551819

> <i_i_glide_confnum>
2

> <i_i_glide_posenum>
381

> <r_i_glide_eff_state_penalty>
0

> <s_user_duplicate_titles>
CHEMBL1900_lig323

> <s_m_subgroup_title>
dock_pv

> <s_m_subgroupid>
dock_pv

> <b_m_subgroup_collapsed>
1

$$$$
CHEMBL1900_lig364
                    3D
 Schrodinger Suite 2021-1.
 33 34  0  0  1  0            999 V2000
   15.6175   -8.1704   16.8339 C   0  0  2  0  0  0
   16.6545   -8.2271   15.7043 C   0  0  0  0  0  0
   17.1979   -9.4647   15.3007 C   0  0  0  0  0  0
   16.2938   -7.7514   18.1812 C   0  0  0  0  0  0
   16.7516  -10.6906   15.7515 O   0  0  0  0  0  0
   14.9553   -9.5599   16.9769 C   0  0  0  0  0  0
   16.4632   -6.2576   18.5142 C   0  0  0  0  0  0
   17.1311   -7.0751   15.0629 C   0  0  0  0  0  0
   15.9902  -10.7034   16.9584 C   0  0  1  0  0  0
   18.1837   -9.5350   14.3172 C   0  0  0  0  0  0
   16.1474   -5.3244   17.7812 O   0  0  0  0  0  0
   14.5454   -7.2927   16.5597 O   0  0  0  0  0  0
   18.1282   -7.1380   14.0894 C   0  0  0  0  0  0
   16.9449   -6.1137   19.7773 O   0  0  0  0  0  0
   18.6638   -8.3695   13.7264 C   0  0  0  0  0  0
   18.5770   -6.0080   13.4980 F   0  0  0  0  0  0
   15.3605  -12.1017   17.1117 C   0  0  0  0  0  0
   14.6664  -12.3506   18.4617 C   0  0  0  0  0  0
   16.6898  -10.5620   17.7811 H   0  0  0  0  0  0
   17.2835   -8.2049   18.2273 H   0  0  0  0  0  0
   15.7408   -8.1855   19.0111 H   0  0  0  0  0  0
   14.3576   -9.6012   17.8862 H   0  0  0  0  0  0
   14.2477   -9.7361   16.1629 H   0  0  0  0  0  0
   16.7200   -6.1155   15.3296 H   0  0  0  0  0  0
   18.5774  -10.4935   14.0114 H   0  0  0  0  0  0
   13.9315   -7.3145   17.2979 H   0  0  0  0  0  0
   17.1990   -6.9521   20.1699 H   0  0  0  0  0  0
   19.4429   -8.4186   12.9814 H   0  0  0  0  0  0
   14.6473  -12.2685   16.3025 H   0  0  0  0  0  0
   16.1390  -12.8541   16.9764 H   0  0  0  0  0  0
   14.2947  -13.3741   18.5208 H   0  0  0  0  0  0
   15.3456  -12.1993   19.3000 H   0  0  0  0  0  0
   13.8071  -11.6952   18.6060 H   0  0  0  0  0  0
  1  2  1  0  0  0
  1  4  1  0  0  0
  1  6  1  0  0  0
  1 12  1  0  0  0
  2  3  2  0  0  0
  2  8  1  0  0  0
  3 10  1  0  0  0
  3  5  1  0  0  0
  4  7  1  0  0  0
  4 20  1  0  0  0
  4 21  1  0  0  0
  5  9  1  0  0  0
  6  9  1  0  0  0
  6 22  1  0  0  0
  6 23  1  0  0  0
  7 11  2  0  0  0
  7 14  1  0  0  0
  8 13  2  0  0  0
  8 24  1  0  0  0
  9 17  1  0  0  0
  9 19  1  0  0  0
 10 15  2  0  0  0
 10 25  1  0  0  0
 12 26  1  0  0  0
 13 15  1  0  0  0
 13 16  1  0  0  0
 14 27  1  0  0  0
 15 28  1  0  0  0
 17 18  1  0  0  0
 17 29  1  0  0  0
 17 30  1  0  0  0
 18 31  1  0  0  0
 18 32  1  0  0  0
 18 33  1  0  0  0
M  END
> <s_m_entry_id>
6582

> <s_m_entry_name>
dock_pv.417

> <s_m_Source_Path>
/home/csk/Desktop/cluster/DUD-E-result/aldr

> <s_m_Source_File>
dock_pv.maegz

> <i_m_Source_File_Index>
417

> <chembl_id>
CHEMBL306591

> <chembl_pref_name>
None

> <i_lp_mmshare_version>
53161

> <i_f3d_flags>
0

> <r_lp_tautomer_probability>
1

> <s_lp_Force_Field>
OPLS_2005

> <r_lp_Energy>
12.568654

> <b_lp_Chiralities_Consistent>
1

> <s_lp_Variant>
CHEMBL1900_lig364-1

> <s_i_glide_gridfile>
glide-grid_2hv5

> <i_i_glide_lignum>
485

> <i_i_glide_rotatable_bonds>
5

> <r_i_docking_score>
-7.71861224640869

> <r_i_glide_ligand_efficiency>
-0.42881179146715

> <r_i_glide_ligand_efficiency_sa>
-1.12380481114009

> <r_i_glide_ligand_efficiency_ln>
-1.98402947757948

> <r_i_glide_gscore>
-7.71861224640869

> <r_i_glide_lipo>
-2.76100281133343

> <r_i_glide_hbond>
0

> <r_i_glide_metal>
0

> <r_i_glide_rewards>
-3.30170485047025

> <r_i_glide_evdw>
-31.8342018127441

> <r_i_glide_ecoul>
-4.05474710464478

> <r_i_glide_erotb>
0.54401757172891

> <r_i_glide_esite>
0

> <r_i_glide_emodel>
-49.685508945457

> <r_i_glide_energy>
-35.8889489173889

> <r_i_glide_einternal>
5.36954355239868

> <i_i_glide_confnum>
2

> <i_i_glide_posenum>
6

> <r_i_glide_eff_state_penalty>
0

> <s_user_duplicate_titles>
CHEMBL1900_lig364,108804

> <s_m_subgroup_title>
dock_pv

> <s_m_subgroupid>
dock_pv

> <b_m_subgroup_collapsed>
1

$$$$
CHEMBL1900_lig80
                    3D
 Schrodinger Suite 2021-1.
 30 32  0  0  1  0            999 V2000
   16.6908  -10.8952   15.3811 C   0  0  0  0  0  0
   17.3451   -9.6685   14.9811 C   0  0  0  0  0  0
   16.7557   -8.0294   15.4555 S   0  0  0  0  0  0
   15.3376   -8.1793   15.8021 O   0  0  0  0  0  0
   17.7251   -7.5095   16.4264 O   0  0  0  0  0  0
   16.8703   -7.0452   13.9298 C   0  0  0  0  0  0
   15.7450   -6.9148   13.1821 O   0  0  0  0  0  0
   16.0624   -6.1085   12.1371 C   0  0  0  0  0  0
   15.1778   -5.6542   11.1538 C   0  0  0  0  0  0
   15.6980   -4.7893   10.1886 C   0  0  0  0  0  0
   17.0429   -4.4170   10.1980 C   0  0  0  0  0  0
   17.6319   -3.3158    9.0052 Cl  0  0  0  0  0  0
   17.9171   -4.9002   11.1753 C   0  0  0  0  0  0
   17.4228   -5.7452   12.1835 C   0  0  0  0  0  0
   17.9459   -6.3734   13.3670 C   0  0  0  0  0  0
   19.3451   -6.2936   13.8995 C   0  0  0  0  0  0
   18.3867   -9.7285   14.2180 N   0  0  0  0  0  0
   18.8382  -10.9737   13.7804 N   0  0  0  0  0  0
   18.3341  -12.2054   14.0906 C   0  0  0  0  0  0
   18.8205  -13.2605   13.6932 O   0  0  0  0  0  0
   17.1685  -12.0933   14.9592 C   0  0  0  0  0  0
   15.8203  -10.8681   16.0221 H   0  0  0  0  0  0
   14.1339   -5.9340   11.1643 H   0  0  0  0  0  0
   15.0462   -4.3907    9.4240 H   0  0  0  0  0  0
   18.9437   -4.5835   11.1733 H   0  0  0  0  0  0
   19.7450   -5.2895   13.7839 H   0  0  0  0  0  0
   19.4256   -6.5278   14.9587 H   0  0  0  0  0  0
   20.0075   -6.9846   13.3811 H   0  0  0  0  0  0
   19.6520  -10.9468   13.1846 H   0  0  0  0  0  0
   16.6801  -13.0089   15.2586 H   0  0  0  0  0  0
  1  2  1  0  0  0
  1 21  2  0  0  0
  1 22  1  0  0  0
  2  3  1  0  0  0
  2 17  2  0  0  0
  3  4  2  0  0  0
  3  5  2  0  0  0
  3  6  1  0  0  0
  6  7  1  0  0  0
  6 15  2  0  0  0
  7  8  1  0  0  0
  8  9  2  0  0  0
  8 14  1  0  0  0
  9 10  1  0  0  0
  9 23  1  0  0  0
 10 11  2  0  0  0
 10 24  1  0  0  0
 11 12  1  0  0  0
 11 13  1  0  0  0
 13 14  2  0  0  0
 13 25  1  0  0  0
 14 15  1  0  0  0
 15 16  1  0  0  0
 16 26  1  0  0  0
 16 27  1  0  0  0
 16 28  1  0  0  0
 17 18  1  0  0  0
 18 19  1  0  0  0
 18 29  1  0  0  0
 19 20  2  0  0  0
 19 21  1  0  0  0
 21 30  1  0  0  0
M  END
> <s_m_entry_id>
6583

> <s_m_entry_name>
dock_pv.418

> <s_m_Source_Path>
/home/csk/Desktop/cluster/DUD-E-result/aldr

> <s_m_Source_File>
dock_pv.maegz

> <i_m_Source_File_Index>
418

> <chembl_id>
CHEMBL240725

> <chembl_pref_name>
None

> <i_lp_mmshare_version>
53161

> <i_f3d_flags>
0

> <r_lp_tautomer_probability>
0.998994762270461

> <s_lp_Force_Field>
OPLS_2005

> <r_lp_Energy>
21.57743

> <b_lp_Chiralities_Consistent>
1

> <s_lp_Variant>
CHEMBL1900_lig80-1

> <s_i_glide_gridfile>
glide-grid_2hv5

> <i_i_glide_lignum>
119

> <i_i_glide_rotatable_bonds>
2

> <r_i_docking_score>
-7.71469519005026

> <r_i_glide_ligand_efficiency>
-0.367366437621441

> <r_i_glide_ligand_efficiency_sa>
-1.01353614531622

> <r_i_glide_ligand_efficiency_ln>
-1.90744279673046

> <r_i_glide_gscore>
-7.71469519005026

> <r_i_glide_lipo>
-3.60641896080448

> <r_i_glide_hbond>
0

> <r_i_glide_metal>
0

> <r_i_glide_rewards>
-2.43261832174032

> <r_i_glide_evdw>
-36.6282196044922

> <r_i_glide_ecoul>
-1.32999277114868

> <r_i_glide_erotb>
0.355251988391458

> <r_i_glide_esite>
0

> <r_i_glide_emodel>
-53.7845141551738

> <r_i_glide_energy>
-37.9582123756409

> <r_i_glide_einternal>
1.73016893863678

> <i_i_glide_confnum>
1

> <i_i_glide_posenum>
48

> <r_i_glide_eff_state_penalty>
0

> <s_user_duplicate_titles>
CHEMBL1900_lig80,407189

> <s_m_subgroup_title>
dock_pv

> <s_m_subgroupid>
dock_pv

> <b_m_subgroup_collapsed>
1

$$$$
CHEMBL1900_lig473
                    3D
 Schrodinger Suite 2021-1.
 32 34  0  0  1  0            999 V2000
   15.7451   -6.5151   15.2977 O   0  0  0  0  0  0
   16.5769   -7.5009   14.8659 C   0  0  0  0  0  0
   17.2404   -7.4655   13.6869 C   0  0  0  0  0  0
   18.0426   -8.4734   13.2483 O   0  0  0  0  0  0
   18.0853   -9.6515   13.9704 C   0  0  0  0  0  0
   18.7689  -10.7102   13.3815 C   0  0  0  0  0  0
   18.7858  -11.9493   14.0058 C   0  0  0  0  0  0
   19.4461  -12.9943   13.4297 O   0  0  0  0  0  0
   18.1451  -12.1225   15.2263 C   0  0  0  0  0  0
   17.4871  -11.0594   15.8362 C   0  0  0  0  0  0
   16.8954  -11.2865   17.0508 O   0  0  0  0  0  0
   17.4315   -9.8034   15.2058 C   0  0  0  0  0  0
   16.6843   -8.6427   15.7877 C   0  0  0  0  0  0
   16.1717   -8.7101   16.9095 O   0  0  0  0  0  0
   17.0841   -6.4208   12.6430 C   0  0  0  0  0  0
   18.1947   -5.7159   12.1782 C   0  0  0  0  0  0
   18.0733   -4.7707   11.1571 C   0  0  0  0  0  0
   16.8277   -4.4910   10.5994 C   0  0  0  0  0  0
   16.7416   -3.5349    9.6171 O   0  0  0  0  0  0
   15.6975   -5.1664   11.0752 C   0  0  0  0  0  0
   14.4427   -4.9132   10.5819 O   0  0  0  0  0  0
   15.8331   -6.1153   12.0896 C   0  0  0  0  0  0
   15.7448   -5.7958   14.6546 H   0  0  0  0  0  0
   19.2717  -10.5615   12.4413 H   0  0  0  0  0  0
   19.8266  -12.7619   12.5816 H   0  0  0  0  0  0
   18.1704  -13.0880   15.7090 H   0  0  0  0  0  0
   16.4615  -10.4755   17.3480 H   0  0  0  0  0  0
   19.1692   -5.9241   12.5966 H   0  0  0  0  0  0
   18.9455   -4.2436   10.8022 H   0  0  0  0  0  0
   15.9160   -3.0443    9.6282 H   0  0  0  0  0  0
   14.4112   -4.3753    9.7861 H   0  0  0  0  0  0
   14.9452   -6.6165   12.4316 H   0  0  0  0  0  0
  1  2  1  0  0  0
  1 23  1  0  0  0
  2  3  2  0  0  0
  2 13  1  0  0  0
  3  4  1  0  0  0
  3 15  1  0  0  0
  4  5  1  0  0  0
  5  6  2  0  0  0
  5 12  1  0  0  0
  6  7  1  0  0  0
  6 24  1  0  0  0
  7  8  1  0  0  0
  7  9  2  0  0  0
  8 25  1  0  0  0
  9 10  1  0  0  0
  9 26  1  0  0  0
 10 11  1  0  0  0
 10 12  2  0  0  0
 11 27  1  0  0  0
 12 13  1  0  0  0
 13 14  2  0  0  0
 15 16  2  0  0  0
 15 22  1  0  0  0
 16 17  1  0  0  0
 16 28  1  0  0  0
 17 18  2  0  0  0
 17 29  1  0  0  0
 18 19  1  0  0  0
 18 20  1  0  0  0
 19 30  1  0  0  0
 20 21  1  0  0  0
 20 22  2  0  0  0
 21 31  1  0  0  0
 22 32  1  0  0  0
M  END
> <s_m_entry_id>
6584

> <s_m_entry_name>
dock_pv.419

> <s_m_Source_Path>
/home/csk/Desktop/cluster/DUD-E-result/aldr

> <s_m_Source_File>
dock_pv.maegz

> <i_m_Source_File_Index>
419

> <chembl_id>
CHEMBL50

> <chembl_pref_name>
QUERCETIN

> <i_lp_mmshare_version>
53161

> <i_f3d_flags>
0

> <r_lp_tautomer_probability>
0.999999999999776

> <s_lp_Force_Field>
OPLS_2005

> <r_lp_Energy>
20.019118

> <b_lp_Chiralities_Consistent>
1

> <s_lp_Variant>
CHEMBL1900_lig473-1

> <s_i_glide_gridfile>
glide-grid_2hv5

> <i_i_glide_lignum>
595

> <i_i_glide_rotatable_bonds>
6

> <r_i_docking_score>
-7.71461402792309

> <r_i_glide_ligand_efficiency>
-0.350664273996504

> <r_i_glide_ligand_efficiency_sa>
-0.982575086581527

> <r_i_glide_ligand_efficiency_ln>
-1.88573306580825

> <r_i_glide_gscore>
-7.71461402792309

> <r_i_glide_lipo>
-3.55430472054269

> <r_i_glide_hbond>
0

> <r_i_glide_metal>
0

> <r_i_glide_rewards>
-2.12339295454545

> <r_i_glide_evdw>
-31.9561805725098

> <r_i_glide_ecoul>
-4.27091550827026

> <r_i_glide_erotb>
0.20153000203109

> <r_i_glide_esite>
0

> <r_i_glide_emodel>
-48.3618976951859

> <r_i_glide_energy>
-36.22709608078

> <r_i_glide_einternal>
5.66359949111938

> <i_i_glide_confnum>
4

> <i_i_glide_posenum>
113

> <r_i_glide_eff_state_penalty>
0

> <s_user_duplicate_titles>
CHEMBL1900_lig473,3666

> <s_m_subgroup_title>
dock_pv

> <s_m_subgroupid>
dock_pv

> <b_m_subgroup_collapsed>
1

$$$$
CHEMBL1900_lig528
                    3D
 Schrodinger Suite 2021-1.
 41 43  0  0  1  0            999 V2000
   18.5453   -6.1361   14.9810 O   0  0  0  0  0  0
   18.4377   -7.1630   13.9516 S   0  0  0  0  0  0
   19.6420   -7.7658   13.3813 O   0  0  0  0  0  0
   17.7734  -12.7100   14.6652 C   0  0  0  0  0  0
   18.7096  -12.0505   13.8725 C   0  0  0  0  0  0
   18.7029  -10.6591   13.7808 C   0  0  0  0  0  0
   16.7938  -12.0230   15.3800 C   0  0  0  0  0  0
   16.7800  -10.6248   15.2681 C   0  0  0  0  0  0
   17.7456   -9.9194   14.4948 C   0  0  0  0  0  0
   17.4674   -8.5217   14.6572 C   0  0  0  0  0  0
   16.3516   -8.4071   15.4746 C   0  0  0  0  0  0
   15.8938   -9.6840   15.7711 N   0  0  0  0  0  0
   17.5109   -6.3917   12.6247 C   0  0  0  0  0  0
   18.1500   -5.4747   11.8190 C   0  0  0  0  0  0
   17.4916   -4.8152   10.7935 C   0  0  0  0  0  0
   16.1412   -5.0679   10.5957 C   0  0  0  0  0  0
   15.4585   -5.9615   11.4260 C   0  0  0  0  0  0
   16.1638   -6.6140   12.4417 C   0  0  0  0  0  0
   14.6818  -10.0272   16.5189 C   0  0  0  0  0  0
   15.6378   -7.1639   15.9701 C   0  0  0  0  0  0
   19.7418  -12.8512   13.1006 C   0  0  0  0  0  0
   15.3448   -4.2556    9.3062 Cl  0  0  0  0  0  0
   14.9449  -10.2295   17.9995 C   0  0  0  0  0  0
   15.3451   -9.0715   18.5812 O   0  0  0  0  0  0
   14.8299  -11.3065   18.5778 O   0  0  0  0  0  0
   17.7965  -13.7889   14.7226 H   0  0  0  0  0  0
   19.4379  -10.1586   13.1716 H   0  0  0  0  0  0
   16.0655  -12.5594   15.9709 H   0  0  0  0  0  0
   19.1794   -5.3147   12.0235 H   0  0  0  0  0  0
   18.0203   -4.1161   10.1632 H   0  0  0  0  0  0
   14.4039   -6.1460   11.2819 H   0  0  0  0  0  0
   15.7446   -7.3150   13.1174 H   0  0  0  0  0  0
   13.9175   -9.2641   16.3747 H   0  0  0  0  0  0
   14.2591  -10.9408   16.0987 H   0  0  0  0  0  0
   15.7773   -7.0208   17.0397 H   0  0  0  0  0  0
   16.0118   -6.2625   15.4883 H   0  0  0  0  0  0
   14.5666   -7.1947   15.7788 H   0  0  0  0  0  0
   19.2896  -13.7465   12.6729 H   0  0  0  0  0  0
   20.5548  -13.1610   13.7581 H   0  0  0  0  0  0
   20.1543  -12.2781   12.2689 H   0  0  0  0  0  0
   15.6213   -9.2458   19.4868 H   0  0  0  0  0  0
  1  2  2  0  0  0
  2 10  1  0  0  0
  2 13  1  0  0  0
  2  3  2  0  0  0
  4  7  1  0  0  0
  4  5  2  0  0  0
  4 26  1  0  0  0
  5  6  1  0  0  0
  5 21  1  0  0  0
  6  9  2  0  0  0
  6 27  1  0  0  0
  7  8  2  0  0  0
  7 28  1  0  0  0
  8  9  1  0  0  0
  8 12  1  0  0  0
  9 10  1  0  0  0
 10 11  2  0  0  0
 11 20  1  0  0  0
 11 12  1  0  0  0
 12 19  1  0  0  0
 13 14  2  0  0  0
 13 18  1  0  0  0
 14 15  1  0  0  0
 14 29  1  0  0  0
 15 16  2  0  0  0
 15 30  1  0  0  0
 16 17  1  0  0  0
 16 22  1  0  0  0
 17 18  2  0  0  0
 17 31  1  0  0  0
 18 32  1  0  0  0
 19 23  1  0  0  0
 19 33  1  0  0  0
 19 34  1  0  0  0
 20 35  1  0  0  0
 20 36  1  0  0  0
 20 37  1  0  0  0
 21 38  1  0  0  0
 21 39  1  0  0  0
 21 40  1  0  0  0
 23 24  1  0  0  0
 23 25  2  0  0  0
 24 41  1  0  0  0
M  END
> <s_m_entry_id>
6585

> <s_m_entry_name>
dock_pv.420

> <s_m_Source_Path>
/home/csk/Desktop/cluster/DUD-E-result/aldr

> <s_m_Source_File>
dock_pv.maegz

> <i_m_Source_File_Index>
420

> <chembl_id>
CHEMBL1917446

> <chembl_pref_name>
None

> <i_lp_mmshare_version>
53161

> <i_f3d_flags>
0

> <r_lp_tautomer_probability>
1

> <s_lp_Force_Field>
OPLS_2005

> <r_lp_Energy>
12.558221

> <b_lp_Chiralities_Consistent>
1

> <s_lp_Variant>
CHEMBL1900_lig528-1

> <s_i_glide_gridfile>
glide-grid_2hv5

> <i_i_glide_lignum>
651

> <i_i_glide_rotatable_bonds>
5

> <r_i_docking_score>
-7.70621681469629

> <r_i_glide_ligand_efficiency>
-0.308248672587852

> <r_i_glide_ligand_efficiency_sa>
-0.901324585460365

> <r_i_glide_ligand_efficiency_ln>
-1.82660432176551

> <r_i_glide_gscore>
-7.70621681469629

> <r_i_glide_lipo>
-3.81345753613487

> <r_i_glide_hbond>
0

> <r_i_glide_metal>
0

> <r_i_glide_rewards>
-2.77422266236297

> <r_i_glide_evdw>
-36.0454521179199

> <r_i_glide_ecoul>
0.939653515815735

> <r_i_glide_erotb>
0.542787962325185

> <r_i_glide_esite>
0

> <r_i_glide_emodel>
-41.1008164839275

> <r_i_glide_energy>
-35.1057986021042

> <r_i_glide_einternal>
7.71174192428589

> <i_i_glide_confnum>
20

> <i_i_glide_posenum>
184

> <r_i_glide_eff_state_penalty>
0

> <s_user_duplicate_titles>
CHEMBL1900_lig528

> <s_m_subgroup_title>
dock_pv

> <s_m_subgroupid>
dock_pv

> <b_m_subgroup_collapsed>
1

$$$$
CHEMBL1900_lig330
                    3D
 Schrodinger Suite 2021-1.
 30 31  0  0  1  0            999 V2000
   15.5053   -7.9948   16.9906 C   0  0  2  0  0  0
   16.5424   -8.1708   15.8828 C   0  0  0  0  0  0
   17.0573   -9.4489   15.5983 C   0  0  0  0  0  0
   16.2167   -7.6199   18.3424 C   0  0  0  0  0  0
   16.5297  -10.6280   16.0822 O   0  0  0  0  0  0
   17.0742   -7.0851   15.1765 C   0  0  0  0  0  0
   18.1450   -9.6055   14.7488 C   0  0  0  0  0  0
   14.7320   -9.3186   17.1540 C   0  0  0  0  0  0
   18.2073   -7.2217   14.3762 C   0  0  0  0  0  0
   18.7701   -8.4874   14.2054 C   0  0  0  0  0  0
   16.2730   -6.1428   18.7596 C   0  0  0  0  0  0
   15.6615  -10.5438   17.2097 C   0  0  1  0  0  0
   15.7450   -5.7150   19.7810 O   0  0  0  0  0  0
   14.5450   -7.0110   16.6664 O   0  0  0  0  0  0
   18.9284   -5.8140   13.6756 Cl  0  0  0  0  0  0
   20.4632   -8.7131   13.3810 Br  0  0  0  0  0  0
   16.9450   -5.3814   17.8625 O   0  0  0  0  0  0
   14.8936  -11.8642   17.3431 C   0  0  0  0  0  0
   16.2857  -10.4468   18.0977 H   0  0  0  0  0  0
   17.2365   -8.0058   18.3573 H   0  0  0  0  0  0
   15.7450   -8.1373   19.1771 H   0  0  0  0  0  0
   16.6215   -6.1154   15.2971 H   0  0  0  0  0  0
   18.5450  -10.5925   14.5725 H   0  0  0  0  0  0
   14.1450   -9.2866   18.0680 H   0  0  0  0  0  0
   14.0177   -9.4582   16.3395 H   0  0  0  0  0  0
   13.8657   -7.0168   17.3479 H   0  0  0  0  0  0
   17.3606   -5.9191   17.1869 H   0  0  0  0  0  0
   14.2116  -11.8473   18.1943 H   0  0  0  0  0  0
   14.3032  -12.0671   16.4490 H   0  0  0  0  0  0
   15.5772  -12.7018   17.4825 H   0  0  0  0  0  0
  1  2  1  0  0  0
  1  4  1  0  0  0
  1  8  1  0  0  0
  1 14  1  0  0  0
  2  3  2  0  0  0
  2  6  1  0  0  0
  3  7  1  0  0  0
  3  5  1  0  0  0
  4 11  1  0  0  0
  4 20  1  0  0  0
  4 21  1  0  0  0
  5 12  1  0  0  0
  6  9  2  0  0  0
  6 22  1  0  0  0
  7 10  2  0  0  0
  7 23  1  0  0  0
  8 12  1  0  0  0
  8 24  1  0  0  0
  8 25  1  0  0  0
  9 10  1  0  0  0
  9 15  1  0  0  0
 10 16  1  0  0  0
 11 13  2  0  0  0
 11 17  1  0  0  0
 12 18  1  0  0  0
 12 19  1  0  0  0
 14 26  1  0  0  0
 17 27  1  0  0  0
 18 28  1  0  0  0
 18 29  1  0  0  0
 18 30  1  0  0  0
M  END
> <s_m_entry_id>
6586

> <s_m_entry_name>
dock_pv.421

> <s_m_Source_Path>
/home/csk/Desktop/cluster/DUD-E-result/aldr

> <s_m_Source_File>
dock_pv.maegz

> <i_m_Source_File_Index>
421

> <chembl_id>
CHEMBL304302

> <chembl_pref_name>
None

> <i_lp_mmshare_version>
53161

> <i_f3d_flags>
0

> <r_lp_tautomer_probability>
1

> <s_lp_Force_Field>
OPLS_2005

> <r_lp_Energy>
15.140874

> <b_lp_Chiralities_Consistent>
1

> <s_lp_Variant>
CHEMBL1900_lig330-1

> <s_i_glide_gridfile>
glide-grid_2hv5

> <i_i_glide_lignum>
450

> <i_i_glide_rotatable_bonds>
4

> <r_i_docking_score>
-7.70599410805523

> <r_i_glide_ligand_efficiency>
-0.428110783780846

> <r_i_glide_ligand_efficiency_sa>
-1.12196765128071

> <r_i_glide_ligand_efficiency_ln>
-1.98078605018007

> <r_i_glide_gscore>
-7.70599410805523

> <r_i_glide_lipo>
-3.19250637779956

> <r_i_glide_hbond>
-0.32

> <r_i_glide_metal>
0

> <r_i_glide_rewards>
-2.20994410951611

> <r_i_glide_evdw>
-29.8066654205322

> <r_i_glide_ecoul>
-5.52290391921997

> <r_i_glide_erotb>
0.33522523817005

> <r_i_glide_esite>
0

> <r_i_glide_emodel>
-46.545192960356

> <r_i_glide_energy>
-35.3295693397522

> <r_i_glide_einternal>
5.23481607437134

> <i_i_glide_confnum>
6

> <i_i_glide_posenum>
82

> <r_i_glide_eff_state_penalty>
0

> <s_user_duplicate_titles>
CHEMBL1900_lig330,109143

> <s_m_subgroup_title>
dock_pv

> <s_m_subgroupid>
dock_pv

> <b_m_subgroup_collapsed>
1

$$$$
CHEMBL1900_lig551
                    3D
 Schrodinger Suite 2021-1.
 31 33  0  0  1  0            999 V2000
   18.1452  -12.1429   15.2765 C   0  0  0  0  0  0
   17.5059  -11.0598   15.8711 C   0  0  0  0  0  0
   17.4454   -9.8192   15.2106 C   0  0  0  0  0  0
   18.0721   -9.7045   13.9571 C   0  0  0  0  0  0
   18.7344  -10.7838   13.3814 C   0  0  0  0  0  0
   18.7604  -12.0054   14.0393 C   0  0  0  0  0  0
   16.7178   -8.6382   15.7792 C   0  0  0  0  0  0
   16.5936   -7.5214   14.8272 C   0  0  0  0  0  0
   17.2298   -7.5253   13.6325 C   0  0  0  0  0  0
   17.0588   -6.4982   12.5774 C   0  0  0  0  0  0
   18.1449   -5.7151   12.1819 C   0  0  0  0  0  0
   17.9979   -4.7449   11.1903 C   0  0  0  0  0  0
   16.7546   -4.5440   10.5967 C   0  0  0  0  0  0
   15.6632   -5.3163   10.9792 C   0  0  0  0  0  0
   15.8190   -6.2951   11.9556 C   0  0  0  0  0  0
   18.0201   -8.5459   13.2039 O   0  0  0  0  0  0
   16.2326   -8.6716   16.9147 O   0  0  0  0  0  0
   16.6029   -3.5799    9.6367 O   0  0  0  0  0  0
   15.7748   -6.5187   15.2494 O   0  0  0  0  0  0
   19.4048  -13.0688   13.4772 O   0  0  0  0  0  0
   16.9313  -11.2542   17.0999 O   0  0  0  0  0  0
   18.1765  -13.0955   15.7853 H   0  0  0  0  0  0
   19.2112  -10.6643   12.4242 H   0  0  0  0  0  0
   19.1087   -5.8604   12.6480 H   0  0  0  0  0  0
   18.8403   -4.1399   10.8922 H   0  0  0  0  0  0
   14.6965   -5.1719   10.5188 H   0  0  0  0  0  0
   14.9655   -6.9127   12.1818 H   0  0  0  0  0  0
   15.6925   -3.4984    9.3412 H   0  0  0  0  0  0
   15.7445   -5.8236   14.5808 H   0  0  0  0  0  0
   19.7740  -12.8572   12.6177 H   0  0  0  0  0  0
   16.5086  -10.4320   17.3808 H   0  0  0  0  0  0
  1  2  2  0  0  0
  1  6  1  0  0  0
  1 22  1  0  0  0
  2  3  1  0  0  0
  2 21  1  0  0  0
  3  4  2  0  0  0
  3  7  1  0  0  0
  4  5  1  0  0  0
  4 16  1  0  0  0
  5  6  2  0  0  0
  5 23  1  0  0  0
  6 20  1  0  0  0
  7  8  1  0  0  0
  7 17  2  0  0  0
  8  9  2  0  0  0
  8 19  1  0  0  0
  9 10  1  0  0  0
  9 16  1  0  0  0
 10 11  2  0  0  0
 10 15  1  0  0  0
 11 12  1  0  0  0
 11 24  1  0  0  0
 12 13  2  0  0  0
 12 25  1  0  0  0
 13 14  1  0  0  0
 13 18  1  0  0  0
 14 15  2  0  0  0
 14 26  1  0  0  0
 15 27  1  0  0  0
 18 28  1  0  0  0
 19 29  1  0  0  0
 20 30  1  0  0  0
 21 31  1  0  0  0
M  END
> <s_m_entry_id>
6587

> <s_m_entry_name>
dock_pv.422

> <s_m_Source_Path>
/home/csk/Desktop/cluster/DUD-E-result/aldr

> <s_m_Source_File>
dock_pv.maegz

> <i_m_Source_File_Index>
422

> <chembl_id>
CHEMBL150

> <chembl_pref_name>
KAEMPFEROL

> <i_lp_mmshare_version>
53161

> <i_f3d_flags>
0

> <r_lp_tautomer_probability>
0.999999999997365

> <s_lp_Force_Field>
OPLS_2005

> <r_lp_Energy>
20.880469

> <b_lp_Chiralities_Consistent>
1

> <s_lp_Variant>
CHEMBL1900_lig551-1

> <s_i_glide_gridfile>
glide-grid_2hv5

> <i_i_glide_lignum>
674

> <i_i_glide_rotatable_bonds>
5

> <r_i_docking_score>
-7.70103542909344

> <r_i_glide_ligand_efficiency>
-0.366715972813973

> <r_i_glide_ligand_efficiency_sa>
-1.01174156223484

> <r_i_glide_ligand_efficiency_ln>
-1.90406544843603

> <r_i_glide_gscore>
-7.70103542909344

> <r_i_glide_lipo>
-3.51949724909368

> <r_i_glide_hbond>
0

> <r_i_glide_metal>
0

> <r_i_glide_rewards>
-2.33247977272727

> <r_i_glide_evdw>
-30.3379096984863

> <r_i_glide_ecoul>
-3.6918158531189

> <r_i_glide_erotb>
0.22160945561966

> <r_i_glide_esite>
0

> <r_i_glide_emodel>
-46.8551389348593

> <r_i_glide_energy>
-34.0297255516052

> <r_i_glide_einternal>
3.48779153823853

> <i_i_glide_confnum>
3

> <i_i_glide_posenum>
179

> <r_i_glide_eff_state_penalty>
0

> <s_user_duplicate_titles>
CHEMBL1900_lig551

> <s_m_subgroup_title>
dock_pv

> <s_m_subgroupid>
dock_pv

> <b_m_subgroup_collapsed>
1

$$$$
CHEMBL1900_lig216
                    3D
 Schrodinger Suite 2021-1.
 34 35  0  0  1  0            999 V2000
   16.7900   -8.3089   15.7234 C   0  0  0  0  0  0
   17.9789   -7.1691   14.1285 N   0  0  0  0  0  0
   17.5575   -9.1635   15.0261 C   0  0  0  0  0  0
   18.3178   -8.4710   14.0059 C   0  0  0  0  0  0
   17.0467   -6.9266   15.2108 C   0  0  0  0  0  0
   15.8197   -8.5607   16.7868 C   0  0  0  0  0  0
   18.4438   -6.1342   13.1962 C   0  0  0  0  0  0
   19.1022   -8.9636   13.1944 O   0  0  0  0  0  0
   15.1569   -7.6575   17.3063 O   0  0  0  0  0  0
   17.7383  -10.5138   15.0518 O   0  0  0  0  0  0
   15.7173   -9.8717   17.1090 O   0  0  0  0  0  0
   17.4651   -5.6722   12.1115 C   0  0  0  0  0  0
   14.7342  -10.3261   18.0266 C   0  0  0  0  0  0
   17.9229   -4.7414   11.1740 C   0  0  0  0  0  0
   16.1380   -6.1149   12.0444 C   0  0  0  0  0  0
   14.8769  -11.8383   18.2215 C   0  0  0  0  0  0
   15.2765   -5.6004   11.0798 C   0  0  0  0  0  0
   17.0653   -4.2307   10.2036 C   0  0  0  0  0  0
   15.7399   -4.6514   10.1716 C   0  0  0  0  0  0
   16.1397   -6.4411   14.8488 H   0  0  0  0  0  0
   17.4945   -6.2674   15.9562 H   0  0  0  0  0  0
   18.7392   -5.2652   13.7824 H   0  0  0  0  0  0
   19.3460   -6.4788   12.6908 H   0  0  0  0  0  0
   18.3404  -10.7582   14.3423 H   0  0  0  0  0  0
   13.7454  -10.1151   17.6213 H   0  0  0  0  0  0
   14.8346   -9.8060   18.9817 H   0  0  0  0  0  0
   18.9442   -4.3946   11.2080 H   0  0  0  0  0  0
   15.7546   -6.8482   12.7370 H   0  0  0  0  0  0
   14.1449  -12.2049   18.9408 H   0  0  0  0  0  0
   15.8687  -12.1075   18.5822 H   0  0  0  0  0  0
   14.7088  -12.3677   17.2834 H   0  0  0  0  0  0
   14.2474   -5.9280   11.0396 H   0  0  0  0  0  0
   17.4210   -3.4991    9.4923 H   0  0  0  0  0  0
   15.0645   -4.2464    9.4301 H   0  0  0  0  0  0
  1  3  2  0  0  0
  1  5  1  0  0  0
  1  6  1  0  0  0
  2  5  1  0  0  0
  2  7  1  0  0  0
  2  4  1  0  0  0
  3  4  1  0  0  0
  3 10  1  0  0  0
  4  8  2  0  0  0
  5 20  1  0  0  0
  5 21  1  0  0  0
  6  9  2  0  0  0
  6 11  1  0  0  0
  7 12  1  0  0  0
  7 22  1  0  0  0
  7 23  1  0  0  0
 10 24  1  0  0  0
 11 13  1  0  0  0
 12 14  2  0  0  0
 12 15  1  0  0  0
 13 16  1  0  0  0
 13 25  1  0  0  0
 13 26  1  0  0  0
 14 18  1  0  0  0
 14 27  1  0  0  0
 15 17  2  0  0  0
 15 28  1  0  0  0
 16 29  1  0  0  0
 16 30  1  0  0  0
 16 31  1  0  0  0
 17 19  1  0  0  0
 17 32  1  0  0  0
 18 19  2  0  0  0
 18 33  1  0  0  0
 19 34  1  0  0  0
M  END
> <s_m_entry_id>
6588

> <s_m_entry_name>
dock_pv.423

> <s_m_Source_Path>
/home/csk/Desktop/cluster/DUD-E-result/aldr

> <s_m_Source_File>
dock_pv.maegz

> <i_m_Source_File_Index>
423

> <chembl_id>
CHEMBL269550

> <chembl_pref_name>
None

> <i_lp_mmshare_version>
53161

> <i_f3d_flags>
0

> <r_lp_tautomer_probability>
1

> <s_lp_Force_Field>
OPLS_2005

> <r_lp_Energy>
23.469203

> <b_lp_Chiralities_Consistent>
1

> <s_lp_Variant>
CHEMBL1900_lig216-1

> <s_i_glide_gridfile>
glide-grid_2hv5

> <i_i_glide_lignum>
292

> <i_i_glide_rotatable_bonds>
6

> <r_i_docking_score>
-7.69870619348866

> <r_i_glide_ligand_efficiency>
-0.405195062815193

> <r_i_glide_ligand_efficiency_sa>
-1.08122317260885

> <r_i_glide_ligand_efficiency_ln>
-1.951787373097

> <r_i_glide_gscore>
-7.69870619348866

> <r_i_glide_lipo>
-3.1749977340821

> <r_i_glide_hbond>
0

> <r_i_glide_metal>
0

> <r_i_glide_rewards>
-3.73179941500898

> <r_i_glide_evdw>
-38.0356788635254

> <r_i_glide_ecoul>
0.477602511644363

> <r_i_glide_erotb>
1.03823452203203

> <r_i_glide_esite>
0

> <r_i_glide_emodel>
-53.5639350668163

> <r_i_glide_energy>
-37.558076351881

> <r_i_glide_einternal>
2.72985744476318

> <i_i_glide_confnum>
24

> <i_i_glide_posenum>
132

> <r_i_glide_eff_state_penalty>
0

> <s_user_duplicate_titles>
CHEMBL1900_lig216,2156

> <s_m_subgroup_title>
dock_pv

> <s_m_subgroupid>
dock_pv

> <b_m_subgroup_collapsed>
1

$$$$
CHEMBL1900_lig22
                    3D
 Schrodinger Suite 2021-1.
 25 26  0  0  1  0            999 V2000
   14.9450   -7.1132   17.7808 N   0  0  0  0  0  0
   15.2444   -8.2450   17.1348 C   0  0  0  0  0  0
   15.9565   -6.5740   18.4876 C   0  0  0  0  0  0
   16.7296   -8.4388   17.3303 C   0  0  1  0  0  0
   17.4695   -8.4756   15.9879 C   0  0  0  0  0  0
   17.0244   -7.3140   18.1810 N   0  0  0  0  0  0
   17.7436   -9.7081   15.3674 C   0  0  0  0  0  0
   17.8578   -7.2826   15.3632 C   0  0  0  0  0  0
   14.4935   -8.9375   16.4528 O   0  0  0  0  0  0
   15.8708   -5.7151   19.3607 O   0  0  0  0  0  0
   18.4089   -9.7119   14.1297 C   0  0  0  0  0  0
   18.5089   -7.3007   14.1361 C   0  0  0  0  0  0
   18.7927   -8.5177   13.5251 C   0  0  0  0  0  0
   18.9450   -5.8135   13.3800 Cl  0  0  0  0  0  0
   17.3379  -10.8602   16.0176 O   0  0  0  0  0  0
   17.5042  -12.1218   15.3798 C   0  0  0  0  0  0
   13.9999   -6.7628   17.8242 H   0  0  0  0  0  0
   16.9046   -9.3436   17.9135 H   0  0  0  0  0  0
   17.9719   -6.9897   18.3115 H   0  0  0  0  0  0
   17.6488   -6.3294   15.8237 H   0  0  0  0  0  0
   18.6423  -10.6341   13.6205 H   0  0  0  0  0  0
   19.3107   -8.5450   12.5817 H   0  0  0  0  0  0
   17.0931  -12.9039   16.0179 H   0  0  0  0  0  0
   16.9729  -12.1616   14.4272 H   0  0  0  0  0  0
   18.5574  -12.3520   15.2142 H   0  0  0  0  0  0
  1  2  1  0  0  0
  1  3  1  0  0  0
  1 17  1  0  0  0
  2  4  1  0  0  0
  2  9  2  0  0  0
  3  6  1  0  0  0
  3 10  2  0  0  0
  4  5  1  0  0  0
  4  6  1  0  0  0
  4 18  1  0  0  0
  5  7  1  0  0  0
  5  8  2  0  0  0
  6 19  1  0  0  0
  7 11  2  0  0  0
  7 15  1  0  0  0
  8 12  1  0  0  0
  8 20  1  0  0  0
 11 13  1  0  0  0
 11 21  1  0  0  0
 12 13  2  0  0  0
 12 14  1  0  0  0
 13 22  1  0  0  0
 15 16  1  0  0  0
 16 23  1  0  0  0
 16 24  1  0  0  0
 16 25  1  0  0  0
M  END
> <s_m_entry_id>
6589

> <s_m_entry_name>
dock_pv.424

> <s_m_Source_Path>
/home/csk/Desktop/cluster/DUD-E-result/aldr

> <s_m_Source_File>
dock_pv.maegz

> <i_m_Source_File_Index>
424

> <chembl_id>
CHEMBL278565

> <chembl_pref_name>
None

> <i_lp_mmshare_version>
53161

> <i_f3d_flags>
0

> <r_lp_tautomer_probability>
0.999999999781369

> <s_lp_Force_Field>
OPLS_2005

> <r_lp_Energy>
22.25064

> <b_lp_Chiralities_Consistent>
1

> <s_lp_Variant>
CHEMBL1900_lig22-1

> <s_i_glide_gridfile>
glide-grid_2hv5

> <i_i_glide_lignum>
40

> <i_i_glide_rotatable_bonds>
2

> <r_i_docking_score>
-7.69665625071066

> <r_i_glide_ligand_efficiency>
-0.481041015669416

> <r_i_glide_ligand_efficiency_sa>
-1.21214740188915

> <r_i_glide_ligand_efficiency_ln>
-2.04015248344939

> <r_i_glide_gscore>
-7.69665625071066

> <r_i_glide_lipo>
-2.18177211800857

> <r_i_glide_hbond>
-0.177466515713599

> <r_i_glide_metal>
0

> <r_i_glide_rewards>
-3.64961050604707

> <r_i_glide_evdw>
-28.9518527984619

> <r_i_glide_ecoul>
-2.99619436264038

> <r_i_glide_erotb>
0.209214683377737

> <r_i_glide_esite>
0

> <r_i_glide_emodel>
-46.3029775771192

> <r_i_glide_energy>
-31.9480471611023

> <r_i_glide_einternal>
0.037317618727684

> <i_i_glide_confnum>
1

> <i_i_glide_posenum>
386

> <r_i_glide_eff_state_penalty>
0

> <s_user_duplicate_titles>
CHEMBL1900_lig22

> <s_m_subgroup_title>
dock_pv

> <s_m_subgroupid>
dock_pv

> <b_m_subgroup_collapsed>
1

$$$$
CHEMBL1900_lig517
                    3D
 Schrodinger Suite 2021-1.
 36 38  0  0  1  0            999 V2000
   14.9458   -9.6264   17.7904 C   0  0  0  0  0  0
   15.3425   -8.2951   17.8236 C   0  0  0  0  0  0
   16.2648   -7.7878   16.9169 C   0  0  0  0  0  0
   15.5017  -10.5266   16.8868 C   0  0  0  0  0  0
   16.4720  -10.0339   16.0014 C   0  0  0  0  0  0
   16.8545   -8.6569   15.9766 C   0  0  0  0  0  0
   17.8256   -8.5096   14.9235 C   0  0  0  0  0  0
   18.0799   -9.7804   14.4357 C   0  0  0  0  0  0
   17.2352  -10.6887   15.0497 N   0  0  0  0  0  0
   18.6615   -7.0377   14.4241 S   0  0  0  0  0  0
   17.6757   -6.4044   13.0874 C   0  0  0  0  0  0
   18.2978   -5.5419   12.1905 C   0  0  0  0  0  0
   17.5853   -4.9700   11.1424 C   0  0  0  0  0  0
   16.2320   -5.2566   11.0004 C   0  0  0  0  0  0
   15.5938   -6.1150   11.8950 C   0  0  0  0  0  0
   16.3157   -6.6900   12.9436 C   0  0  0  0  0  0
   17.2323  -12.1394   14.8218 C   0  0  0  0  0  0
   15.3443   -4.5147    9.7213 Cl  0  0  0  0  0  0
   19.0862  -10.2272   13.3968 C   0  0  0  0  0  0
   16.6678   -6.1152   17.0136 Cl  0  0  0  0  0  0
   18.2447  -12.9251   15.6646 C   0  0  0  0  0  0
   18.3366  -12.4886   16.9505 O   0  0  0  0  0  0
   18.8633  -13.8875   15.2268 O   0  0  0  0  0  0
   14.2072   -9.9769   18.4990 H   0  0  0  0  0  0
   14.9448   -7.6359   18.5793 H   0  0  0  0  0  0
   15.2057  -11.5654   16.8976 H   0  0  0  0  0  0
   19.3448   -5.3151   12.3190 H   0  0  0  0  0  0
   18.0758   -4.2992   10.4533 H   0  0  0  0  0  0
   14.5389   -6.3193   11.7831 H   0  0  0  0  0  0
   15.8071   -7.3273   13.6481 H   0  0  0  0  0  0
   16.2357  -12.5279   15.0273 H   0  0  0  0  0  0
   17.4045  -12.3323   13.7632 H   0  0  0  0  0  0
   19.6379   -9.3860   12.9786 H   0  0  0  0  0  0
   19.8265  -10.9193   13.7968 H   0  0  0  0  0  0
   18.5933  -10.7431   12.5793 H   0  0  0  0  0  0
   18.9500  -13.0459   17.4332 H   0  0  0  0  0  0
  1  2  2  0  0  0
  1  4  1  0  0  0
  1 24  1  0  0  0
  2  3  1  0  0  0
  2 25  1  0  0  0
  3  6  2  0  0  0
  3 20  1  0  0  0
  4  5  2  0  0  0
  4 26  1  0  0  0
  5  9  1  0  0  0
  5  6  1  0  0  0
  6  7  1  0  0  0
  7  8  2  0  0  0
  7 10  1  0  0  0
  8  9  1  0  0  0
  8 19  1  0  0  0
  9 17  1  0  0  0
 10 11  1  0  0  0
 11 12  2  0  0  0
 11 16  1  0  0  0
 12 13  1  0  0  0
 12 27  1  0  0  0
 13 14  2  0  0  0
 13 28  1  0  0  0
 14 15  1  0  0  0
 14 18  1  0  0  0
 15 16  2  0  0  0
 15 29  1  0  0  0
 16 30  1  0  0  0
 17 21  1  0  0  0
 17 31  1  0  0  0
 17 32  1  0  0  0
 19 33  1  0  0  0
 19 34  1  0  0  0
 19 35  1  0  0  0
 21 22  1  0  0  0
 21 23  2  0  0  0
 22 36  1  0  0  0
M  END
> <s_m_entry_id>
6590

> <s_m_entry_name>
dock_pv.425

> <s_m_Source_Path>
/home/csk/Desktop/cluster/DUD-E-result/aldr

> <s_m_Source_File>
dock_pv.maegz

> <i_m_Source_File_Index>
425

> <chembl_id>
CHEMBL1917425

> <chembl_pref_name>
None

> <i_lp_mmshare_version>
53161

> <i_f3d_flags>
0

> <r_lp_tautomer_probability>
1

> <s_lp_Force_Field>
OPLS_2005

> <r_lp_Energy>
13.299266

> <b_lp_Chiralities_Consistent>
1

> <s_lp_Variant>
CHEMBL1900_lig517-1

> <s_i_glide_gridfile>
glide-grid_2hv5

> <i_i_glide_lignum>
640

> <i_i_glide_rotatable_bonds>
5

> <r_i_docking_score>
-7.68482185991071

> <r_i_glide_ligand_efficiency>
-0.334122689561335

> <r_i_glide_ligand_efficiency_sa>
-0.950200483069561

> <r_i_glide_ligand_efficiency_ln>
-1.85825960783846

> <r_i_glide_gscore>
-7.68482185991071

> <r_i_glide_lipo>
-4.85070584607988

> <r_i_glide_hbond>
0

> <r_i_glide_metal>
0

> <r_i_glide_rewards>
-2.10550122752626

> <r_i_glide_evdw>
-39.0066833496094

> <r_i_glide_ecoul>
4.31907844543457

> <r_i_glide_erotb>
0.573857614360703

> <r_i_glide_esite>
0

> <r_i_glide_emodel>
-45.7663121238913

> <r_i_glide_energy>
-34.6876049041748

> <r_i_glide_einternal>
3.40822052955627

> <i_i_glide_confnum>
2

> <i_i_glide_posenum>
132

> <r_i_glide_eff_state_penalty>
0

> <s_user_duplicate_titles>
CHEMBL1900_lig517

> <s_m_subgroup_title>
dock_pv

> <s_m_subgroupid>
dock_pv

> <b_m_subgroup_collapsed>
1

$$$$
CHEMBL1900_lig450
                    3D
 Schrodinger Suite 2021-1.
 30 32  0  0  1  0            999 V2000
   16.7346   -7.3491   16.3228 S   0  0  0  0  0  0
   16.9047   -6.9150   14.5636 C   0  0  0  0  0  0
   16.2148   -9.0752   16.3402 C   0  0  0  0  0  0
   15.7460   -6.8261   13.8618 O   0  0  0  0  0  0
   18.0040   -6.5190   13.7998 C   0  0  0  0  0  0
   15.0009   -9.3365   15.9896 N   0  0  0  0  0  0
   17.4349   -6.0010   12.5810 C   0  0  0  0  0  0
   16.0524   -6.2556   12.6653 C   0  0  0  0  0  0
   14.5492  -10.6518   16.0577 N   0  0  0  0  0  0
   17.0847  -10.1592   16.7427 C   0  0  0  0  0  0
   15.2389  -11.7634   16.4538 C   0  0  0  0  0  0
   15.6132   -6.5628   16.8565 O   0  0  0  0  0  0
   18.0624   -7.3153   16.9446 O   0  0  0  0  0  0
   16.6178  -11.4321   16.7863 C   0  0  0  0  0  0
   14.7450  -12.8858   16.5186 O   0  0  0  0  0  0
   19.4627   -6.5141   14.1808 C   0  0  0  0  0  0
   17.9071   -5.3152   11.4502 C   0  0  0  0  0  0
   15.1346   -5.8753   11.6777 C   0  0  0  0  0  0
   17.0027   -4.9083   10.4672 C   0  0  0  0  0  0
   15.6410   -5.1788   10.5816 C   0  0  0  0  0  0
   18.1199   -9.9666   16.9809 H   0  0  0  0  0  0
   17.2733  -12.2433   17.0675 H   0  0  0  0  0  0
   13.5823  -10.7816   15.7978 H   0  0  0  0  0  0
   19.8595   -5.5001   14.1810 H   0  0  0  0  0  0
   19.6655   -6.9180   15.1687 H   0  0  0  0  0  0
   20.0555   -7.1022   13.4804 H   0  0  0  0  0  0
   18.9450   -5.0650   11.3595 H   0  0  0  0  0  0
   14.0763   -6.0610   11.7810 H   0  0  0  0  0  0
   17.3586   -4.3599    9.6067 H   0  0  0  0  0  0
   14.9677   -4.8197    9.8159 H   0  0  0  0  0  0
  1  2  1  0  0  0
  1 12  2  0  0  0
  1 13  2  0  0  0
  1  3  1  0  0  0
  2  4  1  0  0  0
  2  5  2  0  0  0
  3 10  1  0  0  0
  3  6  2  0  0  0
  4  8  1  0  0  0
  5  7  1  0  0  0
  5 16  1  0  0  0
  6  9  1  0  0  0
  7 17  1  0  0  0
  7  8  2  0  0  0
  8 18  1  0  0  0
  9 11  1  0  0  0
  9 23  1  0  0  0
 10 14  2  0  0  0
 10 21  1  0  0  0
 11 15  2  0  0  0
 11 14  1  0  0  0
 14 22  1  0  0  0
 16 24  1  0  0  0
 16 25  1  0  0  0
 16 26  1  0  0  0
 17 19  2  0  0  0
 17 27  1  0  0  0
 18 20  2  0  0  0
 18 28  1  0  0  0
 19 20  1  0  0  0
 19 29  1  0  0  0
 20 30  1  0  0  0
M  END
> <s_m_entry_id>
6591

> <s_m_entry_name>
dock_pv.426

> <s_m_Source_Path>
/home/csk/Desktop/cluster/DUD-E-result/aldr

> <s_m_Source_File>
dock_pv.maegz

> <i_m_Source_File_Index>
426

> <chembl_id>
CHEMBL198331

> <chembl_pref_name>
None

> <i_lp_mmshare_version>
53161

> <i_f3d_flags>
0

> <r_lp_tautomer_probability>
0.998994762270461

> <s_lp_Force_Field>
OPLS_2005

> <r_lp_Energy>
22.39143

> <b_lp_Chiralities_Consistent>
1

> <s_lp_Variant>
CHEMBL1900_lig450-1

> <s_i_glide_gridfile>
glide-grid_2hv5

> <i_i_glide_lignum>
572

> <i_i_glide_rotatable_bonds>
2

> <r_i_docking_score>
-7.67646842003047

> <r_i_glide_ligand_efficiency>
-0.383823421001524

> <r_i_glide_ligand_efficiency_sa>
-1.04185705458788

> <r_i_glide_ligand_efficiency_ln>
-1.92116685866009

> <r_i_glide_gscore>
-7.67646842003047

> <r_i_glide_lipo>
-3.43356538211344

> <r_i_glide_hbond>
0

> <r_i_glide_metal>
0

> <r_i_glide_rewards>
-2.6832572275037

> <r_i_glide_evdw>
-35.8132362365723

> <r_i_glide_ecoul>
-1.34306812286377

> <r_i_glide_erotb>
0.432476219844851

> <r_i_glide_esite>
0

> <r_i_glide_emodel>
-52.0034544754974

> <r_i_glide_energy>
-37.156304359436

> <r_i_glide_einternal>
0.769611716270447

> <i_i_glide_confnum>
5

> <i_i_glide_posenum>
177

> <r_i_glide_eff_state_penalty>
0

> <s_user_duplicate_titles>
CHEMBL1900_lig450,331224

> <s_m_subgroup_title>
dock_pv

> <s_m_subgroupid>
dock_pv

> <b_m_subgroup_collapsed>
1

$$$$
CHEMBL1900_lig28
                    3D
 Schrodinger Suite 2021-1.
 31 34  0  0  1  0            999 V2000
   16.5050   -8.6712   17.1294 N   0  0  0  0  0  0
   16.2121   -7.5556   18.1167 C   0  0  1  0  0  0
   17.3982   -8.4307   16.0930 C   0  0  0  0  0  0
   15.7898   -9.8292   17.3535 C   0  0  0  0  0  0
   17.3225   -6.9139   18.7647 N   0  0  0  0  0  0
   16.1409   -5.2994   18.0705 N   0  0  0  0  0  0
   15.5830   -6.3600   17.4625 C   0  0  0  0  0  0
   17.0841   -5.6177   18.9741 C   0  0  0  0  0  0
   17.6973   -9.6300   15.2084 C   0  0  0  0  0  0
   16.1033  -10.9865   16.4251 C   0  0  0  0  0  0
   17.0586  -10.8842   15.3894 C   0  0  0  0  0  0
   17.9226   -7.3274   15.8904 O   0  0  0  0  0  0
   14.9468   -9.9517   18.2468 O   0  0  0  0  0  0
   14.7394   -6.3727   16.5797 O   0  0  0  0  0  0
   17.7405   -4.8311   19.6403 O   0  0  0  0  0  0
   17.3618  -11.9972   14.5560 C   0  0  0  0  0  0
   15.4322  -12.2019   16.5961 C   0  0  0  0  0  0
   18.6301   -9.5060   14.1749 C   0  0  0  0  0  0
   18.9490  -10.6002   13.3651 C   0  0  0  0  0  0
   15.7135  -13.2932   15.7819 C   0  0  0  0  0  0
   16.6770  -13.2125   14.7806 C   0  0  0  0  0  0
   18.3264  -11.8314   13.5390 C   0  0  0  0  0  0
   15.5129   -7.8250   18.9235 H   0  0  0  0  0  0
   17.8232   -7.4510   19.4643 H   0  0  0  0  0  0
   15.9824   -4.3474   17.7757 H   0  0  0  0  0  0
   14.6822  -12.3162   17.3663 H   0  0  0  0  0  0
   19.1512   -8.5744   13.9908 H   0  0  0  0  0  0
   19.6876  -10.5078   12.5803 H   0  0  0  0  0  0
   15.1715  -14.2079   15.9351 H   0  0  0  0  0  0
   16.8888  -14.0567   14.1431 H   0  0  0  0  0  0
   18.5653  -12.6698   12.8978 H   0  0  0  0  0  0
  1  2  1  0  0  0
  1  3  1  0  0  0
  1  4  1  0  0  0
  2  5  1  0  0  0
  2  7  1  0  0  0
  2 23  1  0  0  0
  3  9  1  0  0  0
  3 12  2  0  0  0
  4 10  1  0  0  0
  4 13  2  0  0  0
  5  8  1  0  0  0
  5 24  1  0  0  0
  6  7  1  0  0  0
  6  8  1  0  0  0
  6 25  1  0  0  0
  7 14  2  0  0  0
  8 15  2  0  0  0
  9 18  1  0  0  0
  9 11  2  0  0  0
 10 11  1  0  0  0
 10 17  2  0  0  0
 11 16  1  0  0  0
 16 22  2  0  0  0
 16 21  1  0  0  0
 17 20  1  0  0  0
 17 26  1  0  0  0
 18 19  2  0  0  0
 18 27  1  0  0  0
 19 22  1  0  0  0
 19 28  1  0  0  0
 20 21  2  0  0  0
 20 29  1  0  0  0
 21 30  1  0  0  0
 22 31  1  0  0  0
M  END
> <s_m_entry_id>
6592

> <s_m_entry_name>
dock_pv.427

> <s_m_Source_Path>
/home/csk/Desktop/cluster/DUD-E-result/aldr

> <s_m_Source_File>
dock_pv.maegz

> <i_m_Source_File_Index>
427

> <chembl_id>
CHEMBL310274

> <chembl_pref_name>
None

> <i_lp_mmshare_version>
53161

> <i_f3d_flags>
0

> <r_lp_tautomer_probability>
0.999999999781369

> <s_lp_Force_Field>
OPLS_2005

> <r_lp_Energy>
47.032471

> <b_lp_Chiralities_Consistent>
1

> <s_lp_Variant>
CHEMBL1900_lig28-2

> <s_i_glide_gridfile>
glide-grid_2hv5

> <i_i_glide_lignum>
53

> <i_i_glide_rotatable_bonds>
1

> <r_i_docking_score>
-7.67454253447941

> <r_i_glide_ligand_efficiency>
-0.348842842476337

> <r_i_glide_ligand_efficiency_sa>
-0.977471363829183

> <r_i_glide_ligand_efficiency_ln>
-1.87593813116738

> <r_i_glide_gscore>
-7.67454253447941

> <r_i_glide_lipo>
-1.398971255551

> <r_i_glide_hbond>
-0.433183463261774

> <r_i_glide_metal>
0

> <r_i_glide_rewards>
-3.84286975916478

> <r_i_glide_evdw>
-28.9353733062744

> <r_i_glide_ecoul>
-5.08462810516357

> <r_i_glide_erotb>
0.209944824586393

> <r_i_glide_esite>
0

> <r_i_glide_emodel>
-40.0457164604007

> <r_i_glide_energy>
-34.020001411438

> <r_i_glide_einternal>
0.204340994358063

> <i_i_glide_confnum>
1

> <i_i_glide_posenum>
141

> <r_i_glide_eff_state_penalty>
0

> <s_user_duplicate_titles>
CHEMBL1900_lig28

> <s_m_subgroup_title>
dock_pv

> <s_m_subgroupid>
dock_pv

> <b_m_subgroup_collapsed>
1

$$$$
CHEMBL1900_lig436
                    3D
 Schrodinger Suite 2021-1.
 27 28  0  0  1  0            999 V2000
   18.2949   -7.7470   13.5182 S   0  0  0  0  0  0
   17.4594   -7.6155   15.1288 C   0  0  0  0  0  0
   18.1449   -7.1069   16.0911 N   0  0  0  0  0  0
   17.5511   -6.9150   17.3369 N   0  0  0  0  0  0
   17.1689   -5.5358   11.9845 C   0  0  0  0  0  0
   18.3231   -5.9582   12.9103 C   0  0  0  0  0  0
   16.0837   -7.9958   15.3859 C   0  0  0  0  0  0
   16.2378   -7.0742   17.6648 C   0  0  0  0  0  0
   17.3443   -4.6023   10.9374 C   0  0  0  0  0  0
   15.5185   -7.7596   16.5986 C   0  0  0  0  0  0
   19.6665   -8.1925   13.7811 O   0  0  0  0  0  0
   17.4130   -8.5150   12.6453 O   0  0  0  0  0  0
   16.2442   -4.2127   10.1588 C   0  0  0  0  0  0
   15.7450   -6.6237   18.6950 O   0  0  0  0  0  0
   18.8935   -3.9045   10.5837 Cl  0  0  0  0  0  0
   16.3973   -3.0325    8.9021 Cl  0  0  0  0  0  0
   15.8897   -6.0638   12.2010 C   0  0  0  0  0  0
   14.8127   -5.7050   11.4022 C   0  0  0  0  0  0
   14.9917   -4.7723   10.3931 C   0  0  0  0  0  0
   18.4875   -5.3150   13.7676 H   0  0  0  0  0  0
   19.2381   -5.9121   12.3521 H   0  0  0  0  0  0
   15.5038   -8.5132   14.6419 H   0  0  0  0  0  0
   14.5018   -8.0690   16.7958 H   0  0  0  0  0  0
   18.1453   -6.4715   18.0217 H   0  0  0  0  0  0
   15.7072   -6.7539   13.0050 H   0  0  0  0  0  0
   13.8337   -6.1265   11.5807 H   0  0  0  0  0  0
   14.1450   -4.5093    9.7805 H   0  0  0  0  0  0
  1  6  1  0  0  0
  1 11  2  0  0  0
  1 12  2  0  0  0
  1  2  1  0  0  0
  2  7  1  0  0  0
  2  3  2  0  0  0
  3  4  1  0  0  0
  4  8  1  0  0  0
  4 24  1  0  0  0
  5  6  1  0  0  0
  5  9  2  0  0  0
  5 17  1  0  0  0
  6 20  1  0  0  0
  6 21  1  0  0  0
  7 10  2  0  0  0
  7 22  1  0  0  0
  8 14  2  0  0  0
  8 10  1  0  0  0
  9 13  1  0  0  0
  9 15  1  0  0  0
 10 23  1  0  0  0
 13 16  1  0  0  0
 13 19  2  0  0  0
 17 18  2  0  0  0
 17 25  1  0  0  0
 18 19  1  0  0  0
 18 26  1  0  0  0
 19 27  1  0  0  0
M  END
> <s_m_entry_id>
6593

> <s_m_entry_name>
dock_pv.428

> <s_m_Source_Path>
/home/csk/Desktop/cluster/DUD-E-result/aldr

> <s_m_Source_File>
dock_pv.maegz

> <i_m_Source_File_Index>
428

> <chembl_id>
CHEMBL197805

> <chembl_pref_name>
None

> <i_lp_mmshare_version>
53161

> <i_f3d_flags>
0

> <r_lp_tautomer_probability>
0.998994762270461

> <s_lp_Force_Field>
OPLS_2005

> <r_lp_Energy>
20.048075

> <b_lp_Chiralities_Consistent>
1

> <s_lp_Variant>
CHEMBL1900_lig436-1

> <s_i_glide_gridfile>
glide-grid_2hv5

> <i_i_glide_lignum>
558

> <i_i_glide_rotatable_bonds>
3

> <r_i_docking_score>
-7.66710694353464

> <r_i_glide_ligand_efficiency>
-0.40353194439656

> <r_i_glide_ligand_efficiency_sa>
-1.07678530468291

> <r_i_glide_ligand_efficiency_ln>
-1.94377628454399

> <r_i_glide_gscore>
-7.66710694353464

> <r_i_glide_lipo>
-3.68504618939648

> <r_i_glide_hbond>
0

> <r_i_glide_metal>
0

> <r_i_glide_rewards>
-2.5485412143084

> <r_i_glide_evdw>
-31.6547756195068

> <r_i_glide_ecoul>
-2.6678740978241

> <r_i_glide_erotb>
0.549400355819195

> <r_i_glide_esite>
0

> <r_i_glide_emodel>
-42.8433715034729

> <r_i_glide_energy>
-34.3226497173309

> <r_i_glide_einternal>
10.2735900878906

> <i_i_glide_confnum>
17

> <i_i_glide_posenum>
300

> <r_i_glide_eff_state_penalty>
0

> <s_user_duplicate_titles>
CHEMBL1900_lig436,331312

> <s_m_subgroup_title>
dock_pv

> <s_m_subgroupid>
dock_pv

> <b_m_subgroup_collapsed>
1

$$$$
CHEMBL1900_lig420
                    3D
 Schrodinger Suite 2021-1.
 27 28  0  0  1  0            999 V2000
   18.1992   -7.6406   13.9909 S   0  0  0  0  0  0
   17.3770   -7.3806   15.5950 C   0  0  0  0  0  0
   18.0996   -7.2802   16.6600 N   0  0  0  0  0  0
   16.1378   -3.7779    9.7060 C   0  0  0  0  0  0
   17.4894   -6.9488   17.8754 N   0  0  0  0  0  0
   15.9491   -7.2710   15.7244 C   0  0  0  0  0  0
   16.1744   -6.6480   18.0947 C   0  0  0  0  0  0
   17.5438   -6.4127   12.8420 C   0  0  0  0  0  0
   15.3773   -6.9586   16.9154 C   0  0  0  0  0  0
   17.7463   -8.9580   13.5348 O   0  0  0  0  0  0
   19.6262   -7.3562   14.1814 O   0  0  0  0  0  0
   16.6274   -4.6624   10.8516 C   0  0  0  0  0  0
   15.7454   -6.1170   19.1187 O   0  0  0  0  0  0
   18.3597   -5.3893   12.3810 C   0  0  0  0  0  0
   16.2545   -6.5198   12.3380 C   0  0  0  0  0  0
   15.7873   -5.6546   11.3601 C   0  0  0  0  0  0
   17.9182   -4.5243   11.3753 C   0  0  0  0  0  0
   17.1522   -3.2978    8.9827 F   0  0  0  0  0  0
   15.4324   -2.7570   10.1788 F   0  0  0  0  0  0
   15.3452   -4.4804    8.8999 F   0  0  0  0  0  0
   15.3443   -7.5336   14.8837 H   0  0  0  0  0  0
   14.3012   -6.9367   17.0151 H   0  0  0  0  0  0
   18.1286   -6.8167   18.6455 H   0  0  0  0  0  0
   19.3395   -5.3153   12.8156 H   0  0  0  0  0  0
   15.6338   -7.3185   12.6653 H   0  0  0  0  0  0
   14.7834   -5.7775   10.9788 H   0  0  0  0  0  0
   18.5704   -3.7497   11.0026 H   0  0  0  0  0  0
  1  8  1  0  0  0
  1 10  2  0  0  0
  1 11  2  0  0  0
  1  2  1  0  0  0
  2  6  1  0  0  0
  2  3  2  0  0  0
  3  5  1  0  0  0
  4 12  1  0  0  0
  4 18  1  0  0  0
  4 19  1  0  0  0
  4 20  1  0  0  0
  5  7  1  0  0  0
  5 23  1  0  0  0
  6  9  2  0  0  0
  6 21  1  0  0  0
  7 13  2  0  0  0
  7  9  1  0  0  0
  8 14  1  0  0  0
  8 15  2  0  0  0
  9 22  1  0  0  0
 12 16  2  0  0  0
 12 17  1  0  0  0
 14 17  2  0  0  0
 14 24  1  0  0  0
 15 16  1  0  0  0
 15 25  1  0  0  0
 16 26  1  0  0  0
 17 27  1  0  0  0
M  END
> <s_m_entry_id>
6594

> <s_m_entry_name>
dock_pv.429

> <s_m_Source_Path>
/home/csk/Desktop/cluster/DUD-E-result/aldr

> <s_m_Source_File>
dock_pv.maegz

> <i_m_Source_File_Index>
429

> <chembl_id>
CHEMBL372861

> <chembl_pref_name>
None

> <i_lp_mmshare_version>
53161

> <i_f3d_flags>
0

> <r_lp_tautomer_probability>
0.998994762270461

> <s_lp_Force_Field>
OPLS_2005

> <r_lp_Energy>
22.685003

> <b_lp_Chiralities_Consistent>
1

> <s_lp_Variant>
CHEMBL1900_lig420-1

> <s_i_glide_gridfile>
glide-grid_2hv5

> <i_i_glide_lignum>
542

> <i_i_glide_rotatable_bonds>
3

> <r_i_docking_score>
-7.6623433869829

> <r_i_glide_ligand_efficiency>
-0.383117169349145

> <r_i_glide_ligand_efficiency_sa>
-1.03993999266283

> <r_i_glide_ligand_efficiency_ln>
-1.91763182876306

> <r_i_glide_gscore>
-7.6623433869829

> <r_i_glide_lipo>
-3.22985885384938

> <r_i_glide_hbond>
-0.0107224797230668

> <r_i_glide_metal>
0

> <r_i_glide_rewards>
-3.00884273139669

> <r_i_glide_evdw>
-33.1217155456543

> <r_i_glide_ecoul>
-0.890081465244293

> <r_i_glide_erotb>
0.398405430004173

> <r_i_glide_esite>
-0.0217267549485737

> <r_i_glide_emodel>
-45.0179547831425

> <r_i_glide_energy>
-34.0117970108986

> <r_i_glide_einternal>
1.52993929386139

> <i_i_glide_confnum>
4

> <i_i_glide_posenum>
242

> <r_i_glide_eff_state_penalty>
0

> <s_user_duplicate_titles>
CHEMBL1900_lig420,329783

> <s_m_subgroup_title>
dock_pv

> <s_m_subgroupid>
dock_pv

> <b_m_subgroup_collapsed>
1

$$$$
CHEMBL1900_lig81
                    3D
 Schrodinger Suite 2021-1.
 39 42  0  0  1  0            999 V2000
   15.6612  -10.4806   17.7810 C   0  0  0  0  0  0
   16.8421  -11.9576   15.7565 C   0  0  0  0  0  0
   16.4607   -9.8094   16.8396 C   0  0  0  0  0  0
   15.4817  -11.8597   17.7385 C   0  0  0  0  0  0
   16.0852  -12.6022   16.7314 C   0  0  0  0  0  0
   17.0122  -10.5638   15.7929 C   0  0  0  0  0  0
   16.6782   -8.2848   16.8590 C   0  0  1  0  0  0
   14.7369  -12.4733   18.6842 F   0  0  0  0  0  0
   17.7450   -9.9108   14.6386 C   0  0  0  0  0  0
   17.9654   -6.5269   15.7772 O   0  0  0  0  0  0
   15.1442   -6.6883   17.6059 N   0  0  0  0  0  0
   16.1606   -5.8407   19.4851 O   0  0  0  0  0  0
   18.2047  -10.5757   13.7047 O   0  0  0  0  0  0
   17.8442   -8.5416   14.6913 N   0  0  0  0  0  0
   17.0976   -7.7150   18.2103 C   0  0  0  0  0  0
   16.1079   -6.6175   18.5351 C   0  0  0  0  0  0
   17.5833   -7.6991   15.7384 C   0  0  0  0  0  0
   18.4368   -7.8658   13.5074 C   0  0  0  0  0  0
   17.5863   -6.7878   12.8123 C   0  0  0  0  0  0
   16.2344   -4.9724   11.1592 C   0  0  0  0  0  0
   16.2281   -6.9150   12.5810 C   0  0  0  0  0  0
   18.1870   -5.6214   12.3994 C   0  0  0  0  0  0
   17.5644   -4.7486   11.5083 C   0  0  0  0  0  0
   15.5423   -6.0338   11.7414 C   0  0  0  0  0  0
   19.3450   -5.3150   12.9811 F   0  0  0  0  0  0
   15.3450   -3.7750    9.9818 Br  0  0  0  0  0  0
   14.5450   -7.9262   15.7810 O   0  0  0  0  0  0
   15.3226   -7.6311   16.6678 C   0  0  0  0  0  0
   15.1712   -9.9262   18.5684 H   0  0  0  0  0  0
   17.2692  -12.5514   14.9591 H   0  0  0  0  0  0
   15.9482  -13.6730   16.6954 H   0  0  0  0  0  0
   14.3172   -6.1150   17.6377 H   0  0  0  0  0  0
   16.9450   -8.4519   18.9810 H   0  0  0  0  0  0
   18.1242   -7.3463   18.2776 H   0  0  0  0  0  0
   18.6887   -8.5684   12.7121 H   0  0  0  0  0  0
   19.4063   -7.4586   13.8033 H   0  0  0  0  0  0
   15.7450   -7.7150   13.0716 H   0  0  0  0  0  0
   18.0804   -3.8687   11.1564 H   0  0  0  0  0  0
   14.4893   -6.1691   11.5410 H   0  0  0  0  0  0
  1  3  2  0  0  0
  1  4  1  0  0  0
  1 29  1  0  0  0
  2  5  1  0  0  0
  2  6  2  0  0  0
  2 30  1  0  0  0
  3  6  1  0  0  0
  3  7  1  0  0  0
  4  5  2  0  0  0
  4  8  1  0  0  0
  5 31  1  0  0  0
  6  9  1  0  0  0
  7 15  1  0  0  0
  7 17  1  0  0  0
  7 28  1  0  0  0
  9 13  2  0  0  0
  9 14  1  0  0  0
 10 17  2  0  0  0
 11 16  1  0  0  0
 11 28  1  0  0  0
 11 32  1  0  0  0
 12 16  2  0  0  0
 14 17  1  0  0  0
 14 18  1  0  0  0
 15 16  1  0  0  0
 15 33  1  0  0  0
 15 34  1  0  0  0
 18 19  1  0  0  0
 18 35  1  0  0  0
 18 36  1  0  0  0
 19 21  2  0  0  0
 19 22  1  0  0  0
 20 23  1  0  0  0
 20 24  2  0  0  0
 20 26  1  0  0  0
 21 24  1  0  0  0
 21 37  1  0  0  0
 22 23  2  0  0  0
 22 25  1  0  0  0
 23 38  1  0  0  0
 24 39  1  0  0  0
 27 28  2  0  0  0
M  END
> <s_m_entry_id>
6595

> <s_m_entry_name>
dock_pv.430

> <s_m_Source_Path>
/home/csk/Desktop/cluster/DUD-E-result/aldr

> <s_m_Source_File>
dock_pv.maegz

> <i_m_Source_File_Index>
430

> <chembl_id>
CHEMBL292963

> <chembl_pref_name>
None

> <i_lp_mmshare_version>
53161

> <i_f3d_flags>
0

> <r_lp_tautomer_probability>
0.99999999995914

> <s_lp_Force_Field>
OPLS_2005

> <r_lp_Energy>
32.773417

> <b_lp_Chiralities_Consistent>
1

> <s_lp_Variant>
CHEMBL1900_lig81-1

> <s_i_glide_gridfile>
glide-grid_2hv5

> <i_i_glide_lignum>
120

> <i_i_glide_rotatable_bonds>
2

> <r_i_docking_score>
-7.66081502922418

> <r_i_glide_ligand_efficiency>
-0.273600536758006

> <r_i_glide_ligand_efficiency_sa>
-0.830812371695812

> <r_i_glide_ligand_efficiency_ln>
-1.76834104004807

> <r_i_glide_gscore>
-7.66081502922418

> <r_i_glide_lipo>
-3.38077259764833

> <r_i_glide_hbond>
-0.018310656555174

> <r_i_glide_metal>
0

> <r_i_glide_rewards>
-3.00988932723741

> <r_i_glide_evdw>
-30.8692760467529

> <r_i_glide_ecoul>
0.95175164937973

> <r_i_glide_erotb>
0.198619326456777

> <r_i_glide_esite>
-0.0497607193093557

> <r_i_glide_emodel>
-30.1458986875817

> <r_i_glide_energy>
-29.9175243973732

> <r_i_glide_einternal>
2.1483519077301

> <i_i_glide_confnum>
2

> <i_i_glide_posenum>
84

> <r_i_glide_eff_state_penalty>
0

> <s_user_duplicate_titles>
CHEMBL1900_lig81,CHEMBL1900_lig97,99299

> <s_m_subgroup_title>
dock_pv

> <s_m_subgroupid>
dock_pv

> <b_m_subgroup_collapsed>
1

$$$$
CHEMBL1900_lig31
                    3D
 Schrodinger Suite 2021-1.
 26 27  0  0  1  0            999 V2000
   14.7298   -7.3146   17.5515 N   0  0  0  0  0  0
   17.2439   -8.8501   15.8975 C   0  0  0  0  0  0
   14.9668   -8.4664   16.9132 C   0  0  0  0  0  0
   16.4170   -8.7889   17.1893 C   0  0  2  0  0  0
   15.7638   -6.8450   18.2776 C   0  0  0  0  0  0
   16.7531   -7.7138   18.0856 N   0  0  0  0  0  0
   17.4234  -10.0593   15.1966 C   0  0  0  0  0  0
   16.6806  -11.6312   15.7834 S   0  0  1  0  0  0
   18.1588  -10.0770   14.0081 C   0  0  0  0  0  0
   17.8318   -7.6811   15.3890 C   0  0  0  0  0  0
   14.1999   -9.0964   16.1894 O   0  0  0  0  0  0
   15.7452   -5.9386   19.1037 O   0  0  0  0  0  0
   16.6317  -12.5718   14.5807 O   0  0  0  0  0  0
   18.5927   -7.7098   14.2259 C   0  0  0  0  0  0
   18.7531   -8.9070   13.5332 C   0  0  0  0  0  0
   19.3442   -6.2611   13.6682 Cl  0  0  0  0  0  0
   18.1418  -12.1865   16.7739 C   0  0  0  0  0  0
   13.8115   -6.8992   17.5787 H   0  0  0  0  0  0
   16.4827   -9.7099   17.7701 H   0  0  0  0  0  0
   17.7160   -7.4872   18.2821 H   0  0  0  0  0  0
   18.2841  -10.9988   13.4618 H   0  0  0  0  0  0
   17.7164   -6.7363   15.8975 H   0  0  0  0  0  0
   19.3450   -8.9214   12.6322 H   0  0  0  0  0  0
   18.4950  -11.3887   17.4220 H   0  0  0  0  0  0
   17.8734  -13.0519   17.3773 H   0  0  0  0  0  0
   18.9481  -12.4813   16.1047 H   0  0  0  0  0  0
  1  3  1  0  0  0
  1  5  1  0  0  0
  1 18  1  0  0  0
  2  4  1  0  0  0
  2  7  2  0  0  0
  2 10  1  0  0  0
  3  4  1  0  0  0
  3 11  2  0  0  0
  4  6  1  0  0  0
  4 19  1  0  0  0
  5  6  1  0  0  0
  5 12  2  0  0  0
  6 20  1  0  0  0
  7  8  1  0  0  0
  7  9  1  0  0  0
  8 13  2  0  0  0
  8 17  1  0  0  0
  9 15  2  0  0  0
  9 21  1  0  0  0
 10 14  2  0  0  0
 10 22  1  0  0  0
 14 15  1  0  0  0
 14 16  1  0  0  0
 15 23  1  0  0  0
 17 24  1  0  0  0
 17 25  1  0  0  0
 17 26  1  0  0  0
M  END
> <s_m_entry_id>
6596

> <s_m_entry_name>
dock_pv.431

> <s_m_Source_Path>
/home/csk/Desktop/cluster/DUD-E-result/aldr

> <s_m_Source_File>
dock_pv.maegz

> <i_m_Source_File_Index>
431

> <chembl_id>
CHEMBL279274

> <chembl_pref_name>
None

> <i_lp_mmshare_version>
53161

> <i_f3d_flags>
0

> <r_lp_tautomer_probability>
0.999999999781369

> <s_lp_Force_Field>
OPLS_2005

> <r_lp_Energy>
17.865105

> <b_lp_Chiralities_Consistent>
1

> <s_lp_Variant>
CHEMBL1900_lig31-3

> <s_i_glide_gridfile>
glide-grid_2hv5

> <i_i_glide_lignum>
60

> <i_i_glide_rotatable_bonds>
2

> <r_i_docking_score>
-7.65728146032606

> <r_i_glide_ligand_efficiency>
-0.45042832119565

> <r_i_glide_ligand_efficiency_sa>
-1.15817804910768

> <r_i_glide_ligand_efficiency_ln>
-1.99761421372474

> <r_i_glide_gscore>
-7.65728146032606

> <r_i_glide_lipo>
-2.10671567196487

> <r_i_glide_hbond>
-0.0738109903864179

> <r_i_glide_metal>
0

> <r_i_glide_rewards>
-3.84580066054534

> <r_i_glide_evdw>
-30.8919219970703

> <r_i_glide_ecoul>
-1.70059502124786

> <r_i_glide_erotb>
0.168731215611264

> <r_i_glide_esite>
0

> <r_i_glide_emodel>
-47.1237740899288

> <r_i_glide_energy>
-32.5925170183182

> <r_i_glide_einternal>
0.0603538863360882

> <i_i_glide_confnum>
1

> <i_i_glide_posenum>
38

> <r_i_glide_eff_state_penalty>
0

> <s_user_duplicate_titles>
CHEMBL1900_lig31

> <s_m_subgroup_title>
dock_pv

> <s_m_subgroupid>
dock_pv

> <b_m_subgroup_collapsed>
1

$$$$
CHEMBL1900_lig69
                    3D
 Schrodinger Suite 2021-1.
 38 40  0  0  1  0            999 V2000
   18.0836   -7.7172   14.2481 N   0  0  0  0  0  0
   17.1909   -7.5908   15.2836 C   0  0  0  0  0  0
   18.6743   -8.8646   13.7810 C   0  0  0  0  0  0
   16.6750   -8.9039   15.9331 C   0  0  1  0  0  0
   17.2174  -10.2094   15.3775 C   0  0  0  0  0  0
   18.1450  -10.1727   14.3296 C   0  0  0  0  0  0
   18.4506   -6.4321   13.5487 C   0  0  0  0  0  0
   17.5430   -5.9349   12.3934 C   0  0  0  0  0  0
   16.2483   -6.4033   12.1804 C   0  0  0  0  0  0
   18.6381  -11.3680   13.7810 C   0  0  0  0  0  0
   16.7996   -8.7853   17.4879 C   0  0  0  0  0  0
   15.4639   -5.9552   11.1205 C   0  0  0  0  0  0
   15.7450   -7.8674   18.1239 C   0  0  0  0  0  0
   16.7439   -6.5150   15.6688 O   0  0  0  0  0  0
   19.6059   -8.8441   12.9810 O   0  0  0  0  0  0
   16.7713  -11.4562   15.8356 C   0  0  0  0  0  0
   18.0030   -4.9565   11.5124 C   0  0  0  0  0  0
   14.5656   -7.8767   17.7810 O   0  0  0  0  0  0
   15.9852   -5.0269   10.2279 C   0  0  0  0  0  0
   17.2563  -12.6405   15.2880 C   0  0  0  0  0  0
   15.7450   -7.3150   13.0013 F   0  0  0  0  0  0
   18.1936  -12.5974   14.2615 C   0  0  0  0  0  0
   16.2762   -7.0330   19.0607 O   0  0  0  0  0  0
   17.2537   -4.5090   10.4315 C   0  0  0  0  0  0
   15.0045   -4.5150    8.6943 Br  0  0  0  0  0  0
   16.8120  -13.8289   15.7516 F   0  0  0  0  0  0
   15.6171   -8.9236   15.6602 H   0  0  0  0  0  0
   18.5419   -5.6220   14.2747 H   0  0  0  0  0  0
   19.4596   -6.5104   13.1403 H   0  0  0  0  0  0
   19.3631  -11.3564   12.9782 H   0  0  0  0  0  0
   16.6534   -9.7531   17.9621 H   0  0  0  0  0  0
   17.8052   -8.4701   17.7652 H   0  0  0  0  0  0
   14.4691   -6.3507   10.9811 H   0  0  0  0  0  0
   16.0278  -11.5146   16.6167 H   0  0  0  0  0  0
   18.9450   -4.5150   11.6565 H   0  0  0  0  0  0
   18.5689  -13.5160   13.8354 H   0  0  0  0  0  0
   17.2166   -7.1734   19.1831 H   0  0  0  0  0  0
   17.6559   -3.7709    9.7535 H   0  0  0  0  0  0
  1  2  1  0  0  0
  1  3  1  0  0  0
  1  7  1  0  0  0
  2  4  1  0  0  0
  2 14  2  0  0  0
  3  6  1  0  0  0
  3 15  2  0  0  0
  4 11  1  0  0  0
  4  5  1  0  0  0
  4 27  1  0  0  0
  5  6  1  0  0  0
  5 16  2  0  0  0
  6 10  2  0  0  0
  7  8  1  0  0  0
  7 28  1  0  0  0
  7 29  1  0  0  0
  8  9  1  0  0  0
  8 17  2  0  0  0
  9 12  2  0  0  0
  9 21  1  0  0  0
 10 22  1  0  0  0
 10 30  1  0  0  0
 11 13  1  0  0  0
 11 31  1  0  0  0
 11 32  1  0  0  0
 12 19  1  0  0  0
 12 33  1  0  0  0
 13 18  2  0  0  0
 13 23  1  0  0  0
 16 20  1  0  0  0
 16 34  1  0  0  0
 17 24  1  0  0  0
 17 35  1  0  0  0
 19 24  2  0  0  0
 19 25  1  0  0  0
 20 22  2  0  0  0
 20 26  1  0  0  0
 22 36  1  0  0  0
 23 37  1  0  0  0
 24 38  1  0  0  0
M  END
> <s_m_entry_id>
6597

> <s_m_entry_name>
dock_pv.432

> <s_m_Source_Path>
/home/csk/Desktop/cluster/DUD-E-result/aldr

> <s_m_Source_File>
dock_pv.maegz

> <i_m_Source_File_Index>
432

> <chembl_id>
CHEMBL10350

> <chembl_pref_name>
None

> <i_lp_mmshare_version>
53161

> <i_f3d_flags>
0

> <r_lp_tautomer_probability>
0.99995

> <s_lp_Force_Field>
OPLS_2005

> <r_lp_Energy>
22.797353

> <b_lp_Chiralities_Consistent>
1

> <s_lp_Variant>
CHEMBL1900_lig69-1

> <s_i_glide_gridfile>
glide-grid_2hv5

> <i_i_glide_lignum>
105

> <i_i_glide_rotatable_bonds>
5

> <r_i_docking_score>
-7.65459578719908

> <r_i_glide_ligand_efficiency>
-0.294407530276888

> <r_i_glide_ligand_efficiency_sa>
-0.872181150007587

> <r_i_glide_ligand_efficiency_ln>
-1.79765670384631

> <r_i_glide_gscore>
-7.65459578719908

> <r_i_glide_lipo>
-3.54981065902465

> <r_i_glide_hbond>
0

> <r_i_glide_metal>
0

> <r_i_glide_rewards>
-2.95664861823101

> <r_i_glide_evdw>
-30.2209815979004

> <r_i_glide_ecoul>
-0.518774569034576

> <r_i_glide_erotb>
0.440728755306794

> <r_i_glide_esite>
0

> <r_i_glide_emodel>
-38.5615674099135

> <r_i_glide_energy>
-30.739756166935

> <r_i_glide_einternal>
7.68033885955811

> <i_i_glide_confnum>
11

> <i_i_glide_posenum>
127

> <r_i_glide_eff_state_penalty>
0

> <s_user_duplicate_titles>
CHEMBL1900_lig69

> <s_m_subgroup_title>
dock_pv

> <s_m_subgroupid>
dock_pv

> <b_m_subgroup_collapsed>
1

$$$$
CHEMBL1900_lig36
                    3D
 Schrodinger Suite 2021-1.
 25 26  0  0  1  0            999 V2000
   14.8420   -7.1246   17.7432 N   0  0  0  0  0  0
   15.1509   -8.2434   17.0787 C   0  0  0  0  0  0
   15.8426   -6.5932   18.4702 C   0  0  0  0  0  0
   16.6264   -8.4606   17.3194 C   0  0  1  0  0  0
   17.4225   -8.5043   16.0066 C   0  0  0  0  0  0
   16.9096   -7.3424   18.1852 N   0  0  0  0  0  0
   17.6654   -9.7119   15.3176 C   0  0  0  0  0  0
   17.9396   -7.3123   15.4824 C   0  0  0  0  0  0
   14.4112   -8.9163   16.3662 O   0  0  0  0  0  0
   15.7451   -5.7353   19.3445 O   0  0  0  0  0  0
   18.4183   -9.6927   14.1368 C   0  0  0  0  0  0
   18.7003   -7.3050   14.3229 C   0  0  0  0  0  0
   17.0337  -11.2584   15.9371 S   0  0  0  0  0  0
   18.9436   -8.4989   13.6490 C   0  0  0  0  0  0
   19.3450   -5.8090   13.7628 Cl  0  0  0  0  0  0
   17.4426  -12.5890   14.7716 C   0  0  0  0  0  0
   13.8965   -6.7750   17.7818 H   0  0  0  0  0  0
   16.7735   -9.3624   17.9134 H   0  0  0  0  0  0
   17.8562   -7.0287   18.3440 H   0  0  0  0  0  0
   17.7698   -6.3706   15.9822 H   0  0  0  0  0  0
   18.6261  -10.5985   13.5892 H   0  0  0  0  0  0
   19.5479   -8.5145   12.7562 H   0  0  0  0  0  0
   17.0206  -13.5307   15.1214 H   0  0  0  0  0  0
   17.0314  -12.3774   13.7845 H   0  0  0  0  0  0
   18.5227  -12.7080   14.6881 H   0  0  0  0  0  0
  1  2  1  0  0  0
  1  3  1  0  0  0
  1 17  1  0  0  0
  2  4  1  0  0  0
  2  9  2  0  0  0
  3  6  1  0  0  0
  3 10  2  0  0  0
  4  5  1  0  0  0
  4  6  1  0  0  0
  4 18  1  0  0  0
  5  7  1  0  0  0
  5  8  2  0  0  0
  6 19  1  0  0  0
  7 11  2  0  0  0
  7 13  1  0  0  0
  8 12  1  0  0  0
  8 20  1  0  0  0
 11 14  1  0  0  0
 11 21  1  0  0  0
 12 14  2  0  0  0
 12 15  1  0  0  0
 13 16  1  0  0  0
 14 22  1  0  0  0
 16 23  1  0  0  0
 16 24  1  0  0  0
 16 25  1  0  0  0
M  END
> <s_m_entry_id>
6598

> <s_m_entry_name>
dock_pv.433

> <s_m_Source_Path>
/home/csk/Desktop/cluster/DUD-E-result/aldr

> <s_m_Source_File>
dock_pv.maegz

> <i_m_Source_File_Index>
433

> <chembl_id>
CHEMBL278584

> <chembl_pref_name>
None

> <i_lp_mmshare_version>
53161

> <i_f3d_flags>
0

> <r_lp_tautomer_probability>
0.999999999781369

> <s_lp_Force_Field>
OPLS_2005

> <r_lp_Energy>
20.830931

> <b_lp_Chiralities_Consistent>
1

> <s_lp_Variant>
CHEMBL1900_lig36-1

> <s_i_glide_gridfile>
glide-grid_2hv5

> <i_i_glide_lignum>
70

> <i_i_glide_rotatable_bonds>
2

> <r_i_docking_score>
-7.65425412449761

> <r_i_glide_ligand_efficiency>
-0.4783908827811

> <r_i_glide_ligand_efficiency_sa>
-1.20546948547331

> <r_i_glide_ligand_efficiency_ln>
-2.02891295289493

> <r_i_glide_gscore>
-7.65425412449761

> <r_i_glide_lipo>
-2.33968801220179

> <r_i_glide_hbond>
-0.291139722433202

> <r_i_glide_metal>
0

> <r_i_glide_rewards>
-3.19271710491941

> <r_i_glide_evdw>
-29.5904655456543

> <r_i_glide_ecoul>
-3.58982086181641

> <r_i_glide_erotb>
0.187287121611973

> <r_i_glide_esite>
0

> <r_i_glide_emodel>
-48.1762031763228

> <r_i_glide_energy>
-33.1802864074707

> <r_i_glide_einternal>
0.0080855842679739

> <i_i_glide_confnum>
1

> <i_i_glide_posenum>
113

> <r_i_glide_eff_state_penalty>
0

> <s_user_duplicate_titles>
CHEMBL1900_lig36,23695

> <s_m_subgroup_title>
dock_pv

> <s_m_subgroupid>
dock_pv

> <b_m_subgroup_collapsed>
1

$$$$
CHEMBL1900_lig572
                    3D
 Schrodinger Suite 2021-1.
 44 47  0  0  1  0            999 V2000
   19.9205  -13.1993   14.1523 C   0  0  0  0  0  0
   19.3013  -13.5583   15.3455 C   0  0  0  0  0  0
   18.3574  -12.7468   15.9649 C   0  0  0  0  0  0
   19.6318  -11.9884   13.5395 C   0  0  0  0  0  0
   18.7473  -11.1073   14.1818 C   0  0  0  0  0  0
   18.0910  -11.5003   15.3789 C   0  0  0  0  0  0
   17.2194  -10.4695   15.7545 N   0  0  0  0  0  0
   18.3803   -9.7547   13.9880 C   0  0  0  0  0  0
   17.3930   -9.3697   14.8913 C   0  0  0  0  0  0
   16.7670   -8.0204   14.7814 C   0  0  0  0  0  0
   16.9496   -7.4009   13.5339 N   0  0  0  0  0  0
   17.6315   -8.1150   12.4480 C   0  0  0  0  0  0
   18.8911   -8.7865   12.9855 C   0  0  0  0  0  0
   15.8635   -7.2949   15.9925 S   0  0  0  0  0  0
   16.3182  -10.5976   16.9262 C   0  0  0  0  0  0
   15.3223  -11.7708   16.9273 C   0  0  0  0  0  0
   15.1840  -12.5741   16.0087 O   0  0  0  0  0  0
   14.5940  -11.7893   18.0805 O   0  0  0  0  0  0
   20.8346  -14.0366   13.5867 O   0  0  0  0  0  0
   16.0306   -6.3652   12.9911 C   0  0  0  0  0  0
   16.4491   -5.4384   11.8396 C   0  0  0  0  0  0
   17.7657   -5.0082   11.6505 C   0  0  0  0  0  0
   18.0657   -4.1332   10.6080 C   0  0  0  0  0  0
   17.0510   -3.7024    9.7567 C   0  0  0  0  0  0
   15.7408   -4.1394    9.9298 C   0  0  0  0  0  0
   15.4399   -5.0079   10.9704 C   0  0  0  0  0  0
   19.5573  -14.4971   15.8006 H   0  0  0  0  0  0
   17.8779  -13.0697   16.8752 H   0  0  0  0  0  0
   20.1447  -11.6831   12.6345 H   0  0  0  0  0  0
   17.8572   -7.4856   11.5986 H   0  0  0  0  0  0
   16.9451   -8.8658   12.0729 H   0  0  0  0  0  0
   19.6143   -8.0710   13.3842 H   0  0  0  0  0  0
   19.3714   -9.3180   12.1815 H   0  0  0  0  0  0
   15.6803   -9.7275   17.0412 H   0  0  0  0  0  0
   16.9496  -10.6450   17.8150 H   0  0  0  0  0  0
   13.9121  -12.4705   18.0601 H   0  0  0  0  0  0
   21.1910  -13.7063   12.7555 H   0  0  0  0  0  0
   15.6637   -5.7147   13.7718 H   0  0  0  0  0  0
   15.1831   -6.9092   12.5908 H   0  0  0  0  0  0
   18.5517   -5.3355   12.3148 H   0  0  0  0  0  0
   19.0765   -3.7905   10.4593 H   0  0  0  0  0  0
   17.2740   -3.0140    8.9557 H   0  0  0  0  0  0
   14.9634   -3.7955    9.2644 H   0  0  0  0  0  0
   14.4221   -5.3354   11.1094 H   0  0  0  0  0  0
  1  2  1  0  0  0
  1 19  1  0  0  0
  1  4  2  0  0  0
  2  3  2  0  0  0
  2 27  1  0  0  0
  3  6  1  0  0  0
  3 28  1  0  0  0
  4  5  1  0  0  0
  4 29  1  0  0  0
  5  8  1  0  0  0
  5  6  2  0  0  0
  6  7  1  0  0  0
  7 15  1  0  0  0
  7  9  1  0  0  0
  8  9  2  0  0  0
  8 13  1  0  0  0
  9 10  1  0  0  0
 10 11  1  0  0  0
 10 14  2  0  0  0
 11 12  1  0  0  0
 11 20  1  0  0  0
 12 13  1  0  0  0
 12 30  1  0  0  0
 12 31  1  0  0  0
 13 32  1  0  0  0
 13 33  1  0  0  0
 15 16  1  0  0  0
 15 34  1  0  0  0
 15 35  1  0  0  0
 16 17  2  0  0  0
 16 18  1  0  0  0
 18 36  1  0  0  0
 19 37  1  0  0  0
 20 21  1  0  0  0
 20 38  1  0  0  0
 20 39  1  0  0  0
 21 22  2  0  0  0
 21 26  1  0  0  0
 22 23  1  0  0  0
 22 40  1  0  0  0
 23 24  2  0  0  0
 23 41  1  0  0  0
 24 25  1  0  0  0
 24 42  1  0  0  0
 25 26  2  0  0  0
 25 43  1  0  0  0
 26 44  1  0  0  0
M  END
> <s_m_entry_id>
6599

> <s_m_entry_name>
dock_pv.434

> <s_m_Source_Path>
/home/csk/Desktop/cluster/DUD-E-result/aldr

> <s_m_Source_File>
dock_pv.maegz

> <i_m_Source_File_Index>
434

> <chembl_id>
CHEMBL1944861

> <chembl_pref_name>
None

> <i_lp_mmshare_version>
53161

> <i_f3d_flags>
0

> <r_lp_tautomer_probability>
1

> <s_lp_Force_Field>
OPLS_2005

> <r_lp_Energy>
38.134301

> <b_lp_Chiralities_Consistent>
1

> <s_lp_Variant>
CHEMBL1900_lig572-1

> <s_i_glide_gridfile>
glide-grid_2hv5

> <i_i_glide_lignum>
695

> <i_i_glide_rotatable_bonds>
6

> <r_i_docking_score>
-7.64864796338038

> <r_i_glide_ligand_efficiency>
-0.294178767822322

> <r_i_glide_ligand_efficiency_sa>
-0.871503442136074

> <r_i_glide_ligand_efficiency_ln>
-1.79625987693889

> <r_i_glide_gscore>
-7.64864796338038

> <r_i_glide_lipo>
-3.43869208522538

> <r_i_glide_hbond>
0

> <r_i_glide_metal>
0

> <r_i_glide_rewards>
-3.16093327220942

> <r_i_glide_evdw>
-30.0634307861328

> <r_i_glide_ecoul>
-0.794842720031738

> <r_i_glide_erotb>
0.573375341365825

> <r_i_glide_esite>
0

> <r_i_glide_emodel>
-33.035927835987

> <r_i_glide_energy>
-30.8582735061646

> <r_i_glide_einternal>
13.8483095169067

> <i_i_glide_confnum>
3

> <i_i_glide_posenum>
378

> <r_i_glide_eff_state_penalty>
0

> <s_user_duplicate_titles>
CHEMBL1900_lig572

> <s_m_subgroup_title>
dock_pv

> <s_m_subgroupid>
dock_pv

> <b_m_subgroup_collapsed>
1

$$$$
CHEMBL1900_lig345
                    3D
 Schrodinger Suite 2021-1.
 30 31  0  0  1  0            999 V2000
   16.3283   -7.5293   16.7584 C   0  0  2  0  0  0
   17.2464   -8.1381   15.6857 C   0  0  0  0  0  0
   17.2674   -9.5285   15.4508 C   0  0  0  0  0  0
   17.1999   -6.9187   17.9107 C   0  0  0  0  0  0
   16.4482  -10.4161   16.1200 O   0  0  0  0  0  0
   15.3203   -8.5861   17.2749 C   0  0  0  0  0  0
   16.5454   -5.8539   18.8109 C   0  0  0  0  0  0
   18.1092  -10.0840   14.4793 C   0  0  0  0  0  0
   15.9413   -9.9880   17.3803 C   0  0  1  0  0  0
   15.7577   -6.1148   19.7136 O   0  0  0  0  0  0
   15.5445   -6.5148   16.1798 O   0  0  0  0  0  0
   18.1318  -11.7871   14.1832 Cl  0  0  0  0  0  0
   16.9443   -4.5952   18.4801 O   0  0  0  0  0  0
   18.0995   -7.3352   14.9087 C   0  0  0  0  0  0
   18.9398   -7.8839   13.9424 C   0  0  0  0  0  0
   18.9435   -9.2586   13.7307 C   0  0  0  0  0  0
   14.9462  -11.0439   17.8761 C   0  0  0  0  0  0
   16.7673   -9.9485   18.0890 H   0  0  0  0  0  0
   18.1314   -6.5150   17.5162 H   0  0  0  0  0  0
   17.5341   -7.7155   18.5738 H   0  0  0  0  0  0
   14.8969   -8.2803   18.2286 H   0  0  0  0  0  0
   14.4626   -8.6632   16.6045 H   0  0  0  0  0  0
   16.1457   -5.9028   15.7494 H   0  0  0  0  0  0
   17.5890   -4.5989   17.7712 H   0  0  0  0  0  0
   18.1239   -6.2657   15.0563 H   0  0  0  0  0  0
   19.5925   -7.2463   13.3655 H   0  0  0  0  0  0
   19.5947   -9.6851   12.9820 H   0  0  0  0  0  0
   14.4987  -10.7592   18.8282 H   0  0  0  0  0  0
   14.1449  -11.1896   17.1521 H   0  0  0  0  0  0
   15.4385  -12.0066   18.0169 H   0  0  0  0  0  0
  1  2  1  0  0  0
  1  4  1  0  0  0
  1  6  1  0  0  0
  1 11  1  0  0  0
  2  3  2  0  0  0
  2 14  1  0  0  0
  3  8  1  0  0  0
  3  5  1  0  0  0
  4  7  1  0  0  0
  4 19  1  0  0  0
  4 20  1  0  0  0
  5  9  1  0  0  0
  6  9  1  0  0  0
  6 21  1  0  0  0
  6 22  1  0  0  0
  7 10  2  0  0  0
  7 13  1  0  0  0
  8 12  1  0  0  0
  8 16  2  0  0  0
  9 17  1  0  0  0
  9 18  1  0  0  0
 11 23  1  0  0  0
 13 24  1  0  0  0
 14 15  2  0  0  0
 14 25  1  0  0  0
 15 16  1  0  0  0
 15 26  1  0  0  0
 16 27  1  0  0  0
 17 28  1  0  0  0
 17 29  1  0  0  0
 17 30  1  0  0  0
M  END
> <s_m_entry_id>
6600

> <s_m_entry_name>
dock_pv.435

> <s_m_Source_Path>
/home/csk/Desktop/cluster/DUD-E-result/aldr

> <s_m_Source_File>
dock_pv.maegz

> <i_m_Source_File_Index>
435

> <chembl_id>
CHEMBL304782

> <chembl_pref_name>
None

> <i_lp_mmshare_version>
53161

> <i_f3d_flags>
0

> <r_lp_tautomer_probability>
1

> <s_lp_Force_Field>
OPLS_2005

> <r_lp_Energy>
15.759167

> <b_lp_Chiralities_Consistent>
1

> <s_lp_Variant>
CHEMBL1900_lig345-1

> <s_i_glide_gridfile>
glide-grid_2hv5

> <i_i_glide_lignum>
466

> <i_i_glide_rotatable_bonds>
4

> <r_i_docking_score>
-7.64341311072864

> <r_i_glide_ligand_efficiency>
-0.449612535925214

> <r_i_glide_ligand_efficiency_sa>
-1.15608043546186

> <r_i_glide_ligand_efficiency_ln>
-1.99399627014774

> <r_i_glide_gscore>
-7.64341311072864

> <r_i_glide_lipo>
-2.88965606905341

> <r_i_glide_hbond>
-0.307451450586154

> <r_i_glide_metal>
0

> <r_i_glide_rewards>
-2.65180483728212

> <r_i_glide_evdw>
-29.0766582489014

> <r_i_glide_ecoul>
-5.83914852142334

> <r_i_glide_erotb>
0.535204436851606

> <r_i_glide_esite>
0

> <r_i_glide_emodel>
-48.0140906159017

> <r_i_glide_energy>
-34.9158067703247

> <r_i_glide_einternal>
5.2418065071106

> <i_i_glide_confnum>
1

> <i_i_glide_posenum>
13

> <r_i_glide_eff_state_penalty>
0

> <s_user_duplicate_titles>
CHEMBL1900_lig345

> <s_m_subgroup_title>
dock_pv

> <s_m_subgroupid>
dock_pv

> <b_m_subgroup_collapsed>
1

$$$$
CHEMBL1900_lig322
                    3D
 Schrodinger Suite 2021-1.
 33 35  0  0  1  0            999 V2000
   16.0262   -9.8432   15.8435 C   0  0  0  0  0  0
   16.3045   -8.6752   16.7539 C   0  0  0  0  0  0
   17.0381   -7.5428   16.3432 C   0  0  0  0  0  0
   15.7856   -8.7114   18.0696 C   0  0  0  0  0  0
   17.1080  -10.4775   15.0147 C   0  0  0  0  0  0
   17.6448   -7.3664   15.0103 C   0  0  0  0  0  0
   18.0647   -8.2889   14.1296 C   0  0  0  0  0  0
   16.8263   -6.5801   18.5804 C   0  0  0  0  0  0
   17.2392   -6.5086   17.2595 C   0  0  0  0  0  0
   16.1447   -7.7149   18.9794 C   0  0  0  0  0  0
   18.0231   -9.7598   14.2174 C   0  0  0  0  0  0
   14.9619  -10.4590   15.9806 O   0  0  0  0  0  0
   16.5447   -4.0919   19.2846 C   0  0  0  0  0  0
   16.1639   -3.7133   18.1802 O   0  0  0  0  0  0
   17.1461   -5.4713   19.5875 C   0  0  0  0  0  0
   14.9450   -9.7001   18.5270 O   0  0  0  0  0  0
   16.5369   -3.3154   20.4005 O   0  0  0  0  0  0
   17.1243  -11.8847   14.9964 C   0  0  0  0  0  0
   18.9451  -10.4733   13.4452 C   0  0  0  0  0  0
   18.0494  -12.5717   14.2142 C   0  0  0  0  0  0
   18.9620  -11.8655   13.4382 C   0  0  0  0  0  0
   17.7623   -6.3355   14.7053 H   0  0  0  0  0  0
   18.4731   -7.9088   13.2030 H   0  0  0  0  0  0
   17.7448   -5.6095   16.9756 H   0  0  0  0  0  0
   15.8054   -7.8000   19.9997 H   0  0  0  0  0  0
   18.2284   -5.3447   19.6070 H   0  0  0  0  0  0
   16.8614   -5.7780   20.5949 H   0  0  0  0  0  0
   14.6703  -10.2717   17.8004 H   0  0  0  0  0  0
   16.2182   -2.4318   20.2036 H   0  0  0  0  0  0
   16.4250  -12.4673   15.5815 H   0  0  0  0  0  0
   19.6689   -9.9395   12.8517 H   0  0  0  0  0  0
   18.0564  -13.6520   14.2086 H   0  0  0  0  0  0
   19.6834  -12.3951   12.8334 H   0  0  0  0  0  0
  1  2  1  0  0  0
  1  5  1  0  0  0
  1 12  2  0  0  0
  2  3  2  0  0  0
  2  4  1  0  0  0
  3  6  1  0  0  0
  3  9  1  0  0  0
  4 10  2  0  0  0
  4 16  1  0  0  0
  5 11  1  0  0  0
  5 18  2  0  0  0
  6  7  2  0  0  0
  6 22  1  0  0  0
  7 11  1  0  0  0
  7 23  1  0  0  0
  8 10  1  0  0  0
  8 15  1  0  0  0
  8  9  2  0  0  0
  9 24  1  0  0  0
 10 25  1  0  0  0
 11 19  2  0  0  0
 13 15  1  0  0  0
 13 14  2  0  0  0
 13 17  1  0  0  0
 15 26  1  0  0  0
 15 27  1  0  0  0
 16 28  1  0  0  0
 17 29  1  0  0  0
 18 20  1  0  0  0
 18 30  1  0  0  0
 19 21  1  0  0  0
 19 31  1  0  0  0
 20 21  2  0  0  0
 20 32  1  0  0  0
 21 33  1  0  0  0
M  END
> <s_m_entry_id>
6601

> <s_m_entry_name>
dock_pv.436

> <s_m_Source_Path>
/home/csk/Desktop/cluster/DUD-E-result/aldr

> <s_m_Source_File>
dock_pv.maegz

> <i_m_Source_File_Index>
436

> <chembl_id>
CHEMBL77283

> <chembl_pref_name>
None

> <i_lp_mmshare_version>
53161

> <i_f3d_flags>
0

> <r_lp_tautomer_probability>
1

> <s_lp_Force_Field>
OPLS_2005

> <r_lp_Energy>
34.01505

> <b_lp_Chiralities_Consistent>
1

> <s_lp_Variant>
CHEMBL1900_lig322-1

> <s_i_glide_gridfile>
glide-grid_2hv5

> <i_i_glide_lignum>
440

> <i_i_glide_rotatable_bonds>
4

> <r_i_docking_score>
-7.6410235752274

> <r_i_glide_ligand_efficiency>
-0.363858265487019

> <r_i_glide_ligand_efficiency_sa>
-1.00385736440948

> <r_i_glide_ligand_efficiency_ln>
-1.88922763883302

> <r_i_glide_gscore>
-7.6410235752274

> <r_i_glide_lipo>
-3.51228936810386

> <r_i_glide_hbond>
0

> <r_i_glide_metal>
0

> <r_i_glide_rewards>
-2.82826469809686

> <r_i_glide_evdw>
-29.3811912536621

> <r_i_glide_ecoul>
-1.94101548194885

> <r_i_glide_erotb>
0.459742375948756

> <r_i_glide_esite>
0

> <r_i_glide_emodel>
-42.7534798910415

> <r_i_glide_energy>
-31.322206735611

> <r_i_glide_einternal>
0.754307925701141

> <i_i_glide_confnum>
3

> <i_i_glide_posenum>
70

> <r_i_glide_eff_state_penalty>
0

> <s_user_duplicate_titles>
CHEMBL1900_lig322,122874

> <s_m_subgroup_title>
dock_pv

> <s_m_subgroupid>
dock_pv

> <b_m_subgroup_collapsed>
1

$$$$
CHEMBL1900_lig30
                    3D
 Schrodinger Suite 2021-1.
 41 42  0  0  1  0            999 V2000
   18.8844   -7.8694   13.8990 S   0  0  0  0  0  0
   15.3404   -6.5150   17.8429 N   0  0  0  0  0  0
   17.3929   -8.7170   16.2312 C   0  0  0  0  0  0
   15.7153   -6.9137   16.6316 C   0  0  0  0  0  0
   17.1653   -7.2900   16.7604 C   0  0  1  0  0  0
   16.2945   -6.5369   18.7809 C   0  0  0  0  0  0
   18.0605   -9.0276   15.0193 C   0  0  0  0  0  0
   17.3456   -7.1044   18.1808 N   0  0  0  0  0  0
   20.0455   -8.5963   13.3810 O   0  0  0  0  0  0
   19.0804   -6.5548   14.5161 O   0  0  0  0  0  0
   18.1184  -10.3651   14.5948 C   0  0  0  0  0  0
   16.8541   -9.7777   16.9818 C   0  0  0  0  0  0
   17.7450   -7.6871   12.5811 N   0  0  3  0  0  0
   15.0182   -6.9781   15.6277 O   0  0  0  0  0  0
   16.1457   -6.2720   19.9686 O   0  0  0  0  0  0
   16.9453  -11.0984   16.5591 C   0  0  0  0  0  0
   17.5706  -11.3926   15.3562 C   0  0  0  0  0  0
   16.2767  -12.3585   17.5289 Cl  0  0  0  0  0  0
   16.6728   -6.6730   12.5838 C   0  0  0  0  0  0
   16.8125   -5.7249   11.3776 C   0  0  0  0  0  0
   18.4201   -4.1571   10.0678 C   0  0  0  0  0  0
   18.0919   -4.8608   11.3965 C   0  0  0  0  0  0
   17.3101   -3.2386    9.5343 C   0  0  0  0  0  0
   14.3738   -6.3276   18.0602 H   0  0  0  0  0  0
   17.7614   -6.5182   16.3003 H   0  0  0  0  0  0
   18.2750   -7.0669   18.5744 H   0  0  0  0  0  0
   18.6055  -10.6261   13.6663 H   0  0  0  0  0  0
   16.3405   -9.5751   17.9115 H   0  0  0  0  0  0
   17.8626   -8.2738   11.7503 H   0  0  0  0  0  0
   17.6392  -12.4142   15.0100 H   0  0  0  0  0  0
   16.6666   -6.1236   13.5260 H   0  0  0  0  0  0
   15.7219   -7.2006   12.5161 H   0  0  0  0  0  0
   15.9407   -5.0687   11.3493 H   0  0  0  0  0  0
   16.7710   -6.3084   10.4558 H   0  0  0  0  0  0
   18.6569   -4.9142    9.3244 H   0  0  0  0  0  0
   19.3308   -3.5708   10.1939 H   0  0  0  0  0  0
   18.9449   -5.4778   11.6732 H   0  0  0  0  0  0
   18.0100   -4.1151   12.1808 H   0  0  0  0  0  0
   17.6209   -2.7526    8.6102 H   0  0  0  0  0  0
   17.0617   -2.4572   10.2515 H   0  0  0  0  0  0
   16.3980   -3.7938    9.3160 H   0  0  0  0  0  0
  1  7  1  0  0  0
  1  9  2  0  0  0
  1 10  2  0  0  0
  1 13  1  0  0  0
  2  4  1  0  0  0
  2  6  1  0  0  0
  2 24  1  0  0  0
  3  7  1  0  0  0
  3  5  1  0  0  0
  3 12  2  0  0  0
  4  5  1  0  0  0
  4 14  2  0  0  0
  5  8  1  0  0  0
  5 25  1  0  0  0
  6  8  1  0  0  0
  6 15  2  0  0  0
  7 11  2  0  0  0
  8 26  1  0  0  0
 11 17  1  0  0  0
 11 27  1  0  0  0
 12 16  1  0  0  0
 12 28  1  0  0  0
 13 19  1  0  0  0
 13 29  1  0  0  0
 16 17  2  0  0  0
 16 18  1  0  0  0
 17 30  1  0  0  0
 19 20  1  0  0  0
 19 31  1  0  0  0
 19 32  1  0  0  0
 20 22  1  0  0  0
 20 33  1  0  0  0
 20 34  1  0  0  0
 21 22  1  0  0  0
 21 23  1  0  0  0
 21 35  1  0  0  0
 21 36  1  0  0  0
 22 37  1  0  0  0
 22 38  1  0  0  0
 23 39  1  0  0  0
 23 40  1  0  0  0
 23 41  1  0  0  0
M  END
> <s_m_entry_id>
6602

> <s_m_entry_name>
dock_pv.437

> <s_m_Source_Path>
/home/csk/Desktop/cluster/DUD-E-result/aldr

> <s_m_Source_File>
dock_pv.maegz

> <i_m_Source_File_Index>
437

> <chembl_id>
CHEMBL19532

> <chembl_pref_name>
None

> <i_lp_mmshare_version>
53161

> <i_f3d_flags>
0

> <r_lp_tautomer_probability>
0.999999999781369

> <s_lp_Force_Field>
OPLS_2005

> <r_lp_Energy>
20.44445

> <b_lp_Chiralities_Consistent>
1

> <s_lp_Variant>
CHEMBL1900_lig30-2

> <s_i_glide_gridfile>
glide-grid_2hv5

> <i_i_glide_lignum>
57

> <i_i_glide_rotatable_bonds>
7

> <r_i_docking_score>
-7.63134514770043

> <r_i_glide_ligand_efficiency>
-0.33179761511741

> <r_i_glide_ligand_efficiency_sa>
-0.943588280639696

> <r_i_glide_ligand_efficiency_ln>
-1.84532845392599

> <r_i_glide_gscore>
-7.63134514770043

> <r_i_glide_lipo>
-2.93198123732268

> <r_i_glide_hbond>
-0.344622277998079

> <r_i_glide_metal>
0

> <r_i_glide_rewards>
-2.9113290527737

> <r_i_glide_evdw>
-41.679573059082

> <r_i_glide_ecoul>
-1.65244448184967

> <r_i_glide_erotb>
0.888432745625579

> <r_i_glide_esite>
0

> <r_i_glide_emodel>
-58.9497588928833

> <r_i_glide_energy>
-43.3320175409317

> <r_i_glide_einternal>
6.51565456390381

> <i_i_glide_confnum>
42

> <i_i_glide_posenum>
142

> <r_i_glide_eff_state_penalty>
0

> <s_user_duplicate_titles>
CHEMBL1900_lig30,23083

> <s_m_subgroup_title>
dock_pv

> <s_m_subgroupid>
dock_pv

> <b_m_subgroup_collapsed>
1

$$$$
CHEMBL1900_lig432
                    3D
 Schrodinger Suite 2021-1.
 27 28  0  0  1  0            999 V2000
   18.2923   -6.9884   13.7124 S   0  0  0  0  0  0
   17.3425   -7.1097   15.2667 C   0  0  0  0  0  0
   18.0497   -7.3146   16.3282 N   0  0  0  0  0  0
   17.4477   -7.2600   17.5862 N   0  0  0  0  0  0
   17.0088   -6.9433   12.2977 C   0  0  0  0  0  0
   15.9122   -6.9173   15.4235 C   0  0  0  0  0  0
   16.1660   -6.8926   17.8726 C   0  0  0  0  0  0
   16.8573   -5.6579   11.4717 C   0  0  0  0  0  0
   15.3575   -6.8751   16.6617 C   0  0  0  0  0  0
   19.0157   -5.7152   13.7917 O   0  0  0  0  0  0
   19.0138   -8.2616   13.6118 O   0  0  0  0  0  0
   15.6021   -5.2348   10.9973 C   0  0  0  0  0  0
   15.7895   -6.5146   18.9785 O   0  0  0  0  0  0
   14.1442   -6.0834   11.3809 Cl  0  0  0  0  0  0
   17.9923   -4.9437   11.0697 C   0  0  0  0  0  0
   15.5080   -4.1163   10.1675 C   0  0  0  0  0  0
   17.8958   -3.8324   10.2331 C   0  0  0  0  0  0
   16.6480   -3.4151    9.7821 C   0  0  0  0  0  0
   17.3451   -7.7128   11.6073 H   0  0  0  0  0  0
   16.0712   -7.3130   12.6877 H   0  0  0  0  0  0
   15.2487   -6.8827   14.5785 H   0  0  0  0  0  0
   14.2864   -6.7916   16.7806 H   0  0  0  0  0  0
   18.0890   -7.3344   18.3628 H   0  0  0  0  0  0
   18.9634   -5.2721   11.3875 H   0  0  0  0  0  0
   14.5450   -3.7978    9.8040 H   0  0  0  0  0  0
   18.7861   -3.2974    9.9363 H   0  0  0  0  0  0
   16.5617   -2.5547    9.1342 H   0  0  0  0  0  0
  1  5  1  0  0  0
  1 10  2  0  0  0
  1 11  2  0  0  0
  1  2  1  0  0  0
  2  6  1  0  0  0
  2  3  2  0  0  0
  3  4  1  0  0  0
  4  7  1  0  0  0
  4 23  1  0  0  0
  5  8  1  0  0  0
  5 19  1  0  0  0
  5 20  1  0  0  0
  6  9  2  0  0  0
  6 21  1  0  0  0
  7 13  2  0  0  0
  7  9  1  0  0  0
  8 12  2  0  0  0
  8 15  1  0  0  0
  9 22  1  0  0  0
 12 14  1  0  0  0
 12 16  1  0  0  0
 15 17  2  0  0  0
 15 24  1  0  0  0
 16 18  2  0  0  0
 16 25  1  0  0  0
 17 18  1  0  0  0
 17 26  1  0  0  0
 18 27  1  0  0  0
M  END
> <s_m_entry_id>
6603

> <s_m_entry_name>
dock_pv.438

> <s_m_Source_Path>
/home/csk/Desktop/cluster/DUD-E-result/aldr

> <s_m_Source_File>
dock_pv.maegz

> <i_m_Source_File_Index>
438

> <chembl_id>
CHEMBL373040

> <chembl_pref_name>
None

> <i_lp_mmshare_version>
53161

> <i_f3d_flags>
0

> <r_lp_tautomer_probability>
0.998994762270461

> <s_lp_Force_Field>
OPLS_2005

> <r_lp_Energy>
18.988159

> <b_lp_Chiralities_Consistent>
1

> <s_lp_Variant>
CHEMBL1900_lig432-1

> <s_i_glide_gridfile>
glide-grid_2hv5

> <i_i_glide_lignum>
554

> <i_i_glide_rotatable_bonds>
3

> <r_i_docking_score>
-7.63059447382835

> <r_i_glide_ligand_efficiency>
-0.423921915212686

> <r_i_glide_ligand_efficiency_sa>
-1.11098971003981

> <r_i_glide_ligand_efficiency_ln>
-1.96140496299377

> <r_i_glide_gscore>
-7.63059447382835

> <r_i_glide_lipo>
-3.35332167991385

> <r_i_glide_hbond>
0

> <r_i_glide_metal>
0

> <r_i_glide_rewards>
-2.81782186363636

> <r_i_glide_evdw>
-40.9768409729004

> <r_i_glide_ecoul>
-0.544095396995544

> <r_i_glide_erotb>
0.671005427916223

> <r_i_glide_esite>
0

> <r_i_glide_emodel>
-51.3319100676898

> <r_i_glide_energy>
-41.5209363698959

> <r_i_glide_einternal>
11.8742208480835

> <i_i_glide_confnum>
11

> <i_i_glide_posenum>
363

> <r_i_glide_eff_state_penalty>
0

> <s_user_duplicate_titles>
CHEMBL1900_lig432,331295

> <s_m_subgroup_title>
dock_pv

> <s_m_subgroupid>
dock_pv

> <b_m_subgroup_collapsed>
1

$$$$
CHEMBL1900_lig614
                    3D
 Schrodinger Suite 2021-1.
 40 41  0  0  1  0            999 V2000
   16.6436   -7.3119   14.0833 N   0  0  0  0  0  0
   16.9405   -8.2740   15.1120 C   0  0  1  0  0  0
   15.7208   -8.4094   16.0466 C   0  0  2  0  0  0
   15.2697   -7.1721   16.5809 O   0  0  0  0  0  0
   16.0463   -9.4353   17.1623 C   0  0  1  0  0  0
   14.9450   -9.6053   18.0421 O   0  0  0  0  0  0
   16.5314  -10.7749   16.5535 C   0  0  2  0  0  0
   16.9237  -11.7145   17.5487 O   0  0  0  0  0  0
   17.6727  -10.5107   15.5367 C   0  0  2  0  0  0
   17.2670   -9.5293   14.5810 O   0  0  0  0  0  0
   18.0582  -11.7724   14.7307 C   0  0  0  0  0  0
   19.0663  -11.4826   13.7810 O   0  0  0  0  0  0
   17.5524   -6.7668   13.2516 C   0  0  0  0  0  0
   17.0312   -5.8691   12.1457 C   0  0  0  0  0  0
   17.9178   -5.0426   11.4542 C   0  0  0  0  0  0
   17.5012   -4.1799   10.4478 C   0  0  0  0  0  0
   18.4209   -3.3933    9.8054 O   0  0  0  0  0  0
   16.1479   -4.1009   10.1210 C   0  0  0  0  0  0
   15.7450   -3.2147    9.1466 O   0  0  0  0  0  0
   15.2382   -4.9150   10.8085 C   0  0  0  0  0  0
   13.8950   -4.8420   10.5810 O   0  0  0  0  0  0
   15.6807   -5.8089   11.7810 C   0  0  0  0  0  0
   18.7629   -6.9632   13.3810 O   0  0  0  0  0  0
   15.6748   -7.0696   13.9551 H   0  0  0  0  0  0
   17.8389   -7.8786   15.5993 H   0  0  0  0  0  0
   14.8931   -8.7932   15.4452 H   0  0  0  0  0  0
   14.8527   -7.3675   17.4265 H   0  0  0  0  0  0
   16.8463   -9.0218   17.7810 H   0  0  0  0  0  0
   14.2378  -10.0590   17.5757 H   0  0  0  0  0  0
   15.6926  -11.2286   16.0214 H   0  0  0  0  0  0
   16.8566  -12.6021   17.1853 H   0  0  0  0  0  0
   18.5450  -10.1333   16.0707 H   0  0  0  0  0  0
   18.4226  -12.5604   15.3906 H   0  0  0  0  0  0
   17.1888  -12.1687   14.2037 H   0  0  0  0  0  0
   18.7520  -10.7639   13.2234 H   0  0  0  0  0  0
   18.9450   -5.0556   11.7259 H   0  0  0  0  0  0
   17.9585   -2.8085    9.1980 H   0  0  0  0  0  0
   14.7944   -3.1873    8.9810 H   0  0  0  0  0  0
   13.6311   -4.0866   10.0456 H   0  0  0  0  0  0
   14.9450   -6.4306   12.2549 H   0  0  0  0  0  0
  1  2  1  0  0  0
  1 13  1  0  0  0
  1 24  1  0  0  0
  2  3  1  0  0  0
  2 10  1  0  0  0
  2 25  1  0  0  0
  3  4  1  0  0  0
  3  5  1  0  0  0
  3 26  1  0  0  0
  4 27  1  0  0  0
  5  6  1  0  0  0
  5  7  1  0  0  0
  5 28  1  0  0  0
  6 29  1  0  0  0
  7  8  1  0  0  0
  7  9  1  0  0  0
  7 30  1  0  0  0
  8 31  1  0  0  0
  9 10  1  0  0  0
  9 11  1  0  0  0
  9 32  1  0  0  0
 11 12  1  0  0  0
 11 33  1  0  0  0
 11 34  1  0  0  0
 12 35  1  0  0  0
 13 14  1  0  0  0
 13 23  2  0  0  0
 14 15  1  0  0  0
 14 22  2  0  0  0
 15 16  2  0  0  0
 15 36  1  0  0  0
 16 17  1  0  0  0
 16 18  1  0  0  0
 17 37  1  0  0  0
 18 19  1  0  0  0
 18 20  2  0  0  0
 19 38  1  0  0  0
 20 21  1  0  0  0
 20 22  1  0  0  0
 21 39  1  0  0  0
 22 40  1  0  0  0
M  END
> <s_m_entry_id>
6604

> <s_m_entry_name>
dock_pv.439

> <s_m_Source_Path>
/home/csk/Desktop/cluster/DUD-E-result/aldr

> <s_m_Source_File>
dock_pv.maegz

> <i_m_Source_File_Index>
439

> <chembl_id>
CHEMBL3109109

> <chembl_pref_name>
None

> <i_lp_mmshare_version>
53161

> <i_f3d_flags>
0

> <r_lp_tautomer_probability>
0.999999999957461

> <s_lp_Force_Field>
OPLS_2005

> <r_lp_Energy>
23.97196

> <b_lp_Chiralities_Consistent>
1

> <s_lp_Variant>
CHEMBL1900_lig614-1

> <s_i_glide_gridfile>
glide-grid_2hv5

> <i_i_glide_lignum>
738

> <i_i_glide_rotatable_bonds>
11

> <r_i_docking_score>
-7.62905290356558

> <r_i_glide_ligand_efficiency>
-0.331697952328938

> <r_i_glide_ligand_efficiency_sa>
-0.943304852926737

> <r_i_glide_ligand_efficiency_ln>
-1.84477416850927

> <r_i_glide_gscore>
-7.62905290356558

> <r_i_glide_lipo>
-2.8968248740612

> <r_i_glide_hbond>
0

> <r_i_glide_metal>
0

> <r_i_glide_rewards>
-2.19597376119528

> <r_i_glide_evdw>
-37.3685150146484

> <r_i_glide_ecoul>
-9.0250825881958

> <r_i_glide_erotb>
0.685933870652701

> <r_i_glide_esite>
0

> <r_i_glide_emodel>
-63.4192291069451

> <r_i_glide_energy>
-46.3935976028442

> <r_i_glide_einternal>
5.72973728179932

> <i_i_glide_confnum>
2

> <i_i_glide_posenum>
138

> <r_i_glide_eff_state_penalty>
0

> <s_user_duplicate_titles>
CHEMBL1900_lig614

> <s_m_subgroup_title>
dock_pv

> <s_m_subgroupid>
dock_pv

> <b_m_subgroup_collapsed>
1

$$$$
CHEMBL1900_lig328
                    3D
 Schrodinger Suite 2021-1.
 38 40  0  0  1  0            999 V2000
   15.9446   -9.5798   15.8077 C   0  0  0  0  0  0
   16.2153   -8.4400   16.7384 C   0  0  0  0  0  0
   16.8239   -7.2521   16.3037 C   0  0  0  0  0  0
   15.8128   -8.5651   18.0804 C   0  0  0  0  0  0
   16.6706   -6.3466   18.5806 C   0  0  0  0  0  0
   17.0456  -10.2540   15.0369 C   0  0  0  0  0  0
   17.0281   -6.2283   17.2439 C   0  0  0  0  0  0
   16.1272   -7.5526   18.9810 C   0  0  0  0  0  0
   16.1464   -3.9120   19.2969 C   0  0  0  0  0  0
   16.9023   -5.2252   19.6140 C   0  0  2  0  0  0
   14.8315  -10.1155   15.8450 O   0  0  0  0  0  0
   18.0736   -9.5942   14.3203 C   0  0  0  0  0  0
   17.2534   -7.1117   14.8462 C   0  0  0  0  0  0
   16.1449   -3.3625   18.1970 O   0  0  0  0  0  0
   18.3418   -8.0870   14.3688 C   0  0  0  0  0  0
   15.1420   -9.6557   18.5786 O   0  0  0  0  0  0
   15.5264   -3.4041   20.3980 O   0  0  0  0  0  0
   16.9454  -11.6576   14.9808 C   0  0  0  0  0  0
   18.4013   -4.9419   19.8308 C   0  0  0  0  0  0
   18.9448  -10.3760   13.5507 C   0  0  0  0  0  0
   17.8347  -12.4039   14.2138 C   0  0  0  0  0  0
   18.8306  -11.7616   13.4894 C   0  0  0  0  0  0
   17.5208   -5.3152   16.9810 H   0  0  0  0  0  0
   15.8717   -7.6851   20.0202 H   0  0  0  0  0  0
   16.5199   -5.5916   20.5686 H   0  0  0  0  0  0
   16.3734   -7.1546   14.2022 H   0  0  0  0  0  0
   17.6540   -6.1149   14.6992 H   0  0  0  0  0  0
   18.6342   -7.7786   13.3631 H   0  0  0  0  0  0
   19.2326   -7.9319   14.9755 H   0  0  0  0  0  0
   15.1918   -9.6998   19.5371 H   0  0  0  0  0  0
   15.1443   -2.5445   20.2071 H   0  0  0  0  0  0
   16.1701  -12.1929   15.5133 H   0  0  0  0  0  0
   18.7192   -4.0126   19.3806 H   0  0  0  0  0  0
   18.6498   -4.8826   20.8909 H   0  0  0  0  0  0
   19.0207   -5.7150   19.3810 H   0  0  0  0  0  0
   19.7419   -9.9001   12.9973 H   0  0  0  0  0  0
   17.7430  -13.4792   14.1715 H   0  0  0  0  0  0
   19.5201  -12.3359   12.8879 H   0  0  0  0  0  0
  1  2  1  0  0  0
  1  6  1  0  0  0
  1 11  2  0  0  0
  2  3  2  0  0  0
  2  4  1  0  0  0
  3  7  1  0  0  0
  3 13  1  0  0  0
  4  8  2  0  0  0
  4 16  1  0  0  0
  5  8  1  0  0  0
  5 10  1  0  0  0
  5  7  2  0  0  0
  6 12  1  0  0  0
  6 18  2  0  0  0
  7 23  1  0  0  0
  8 24  1  0  0  0
  9 10  1  0  0  0
  9 14  2  0  0  0
  9 17  1  0  0  0
 10 19  1  0  0  0
 10 25  1  0  0  0
 12 15  1  0  0  0
 12 20  2  0  0  0
 13 15  1  0  0  0
 13 26  1  0  0  0
 13 27  1  0  0  0
 15 28  1  0  0  0
 15 29  1  0  0  0
 16 30  1  0  0  0
 17 31  1  0  0  0
 18 21  1  0  0  0
 18 32  1  0  0  0
 19 33  1  0  0  0
 19 34  1  0  0  0
 19 35  1  0  0  0
 20 22  1  0  0  0
 20 36  1  0  0  0
 21 22  2  0  0  0
 21 37  1  0  0  0
 22 38  1  0  0  0
M  END
> <s_m_entry_id>
6605

> <s_m_entry_name>
dock_pv.440

> <s_m_Source_Path>
/home/csk/Desktop/cluster/DUD-E-result/aldr

> <s_m_Source_File>
dock_pv.maegz

> <i_m_Source_File_Index>
440

> <chembl_id>
CHEMBL77692

> <chembl_pref_name>
None

> <i_lp_mmshare_version>
53161

> <i_f3d_flags>
0

> <r_lp_tautomer_probability>
1

> <s_lp_Force_Field>
OPLS_2005

> <r_lp_Energy>
32.625241

> <b_lp_Chiralities_Consistent>
1

> <s_lp_Variant>
CHEMBL1900_lig328-2

> <s_i_glide_gridfile>
glide-grid_2hv5

> <i_i_glide_lignum>
448

> <i_i_glide_rotatable_bonds>
4

> <r_i_docking_score>
-7.62804613866582

> <r_i_glide_ligand_efficiency>
-0.346729369939355

> <r_i_glide_ligand_efficiency_sa>
-0.971549330662402

> <r_i_glide_ligand_efficiency_ln>
-1.86457271603329

> <r_i_glide_gscore>
-7.62804613866582

> <r_i_glide_lipo>
-3.42594433532852

> <r_i_glide_hbond>
-0.0233464155935132

> <r_i_glide_metal>
0

> <r_i_glide_rewards>
-2.96315407218471

> <r_i_glide_evdw>
-25.8377723693848

> <r_i_glide_ecoul>
-2.27308368682861

> <r_i_glide_erotb>
0.417249855934455

> <r_i_glide_esite>
0

> <r_i_glide_emodel>
-28.9218589663928

> <r_i_glide_energy>
-28.1108560562134

> <r_i_glide_einternal>
1.17858862876892

> <i_i_glide_confnum>
11

> <i_i_glide_posenum>
345

> <r_i_glide_eff_state_penalty>
0

> <s_user_duplicate_titles>
CHEMBL1900_lig328,123037

> <s_m_subgroup_title>
dock_pv

> <s_m_subgroupid>
dock_pv

> <b_m_subgroup_collapsed>
1

$$$$
CHEMBL1900_lig97
                    3D
 Schrodinger Suite 2021-1.
 39 42  0  0  1  0            999 V2000
   16.2247   -9.2582   15.7654 C   0  0  2  0  0  0
   17.3038   -7.7149   14.1604 N   0  0  0  0  0  0
   16.2123   -7.9122   14.9812 C   0  0  0  0  0  0
   16.7363   -8.8567   17.1504 C   0  0  0  0  0  0
   18.3222   -8.5824   13.8517 C   0  0  0  0  0  0
   17.1313  -10.3704   15.1963 C   0  0  0  0  0  0
   15.8903   -9.3661   18.0605 N   0  0  0  0  0  0
   18.0856  -10.0249   14.2306 C   0  0  0  0  0  0
   17.4916   -6.3196   13.6904 C   0  0  0  0  0  0
   14.8753  -10.0809   17.5584 C   0  0  0  0  0  0
   16.8531   -5.8797   12.3652 C   0  0  0  0  0  0
   14.8173   -9.7829   16.0701 C   0  0  0  0  0  0
   17.6401   -5.3155   11.3675 C   0  0  0  0  0  0
   18.9478  -10.9963   13.7013 C   0  0  0  0  0  0
   15.3458   -7.0597   15.2127 O   0  0  0  0  0  0
   17.0895   -4.8476   10.1809 C   0  0  0  0  0  0
   17.0808  -11.7134   15.6156 C   0  0  0  0  0  0
   17.7355   -8.1750   17.3810 O   0  0  0  0  0  0
   19.3985   -8.2111   13.3810 O   0  0  0  0  0  0
   14.1450  -10.8446   18.1802 O   0  0  0  0  0  0
   15.4733   -5.8622   12.1812 C   0  0  0  0  0  0
   15.7148   -4.9136    9.9926 C   0  0  0  0  0  0
   17.9256  -12.6785   15.0770 C   0  0  0  0  0  0
   18.9449   -5.1581   11.5782 F   0  0  0  0  0  0
   18.8565  -12.3225   14.1108 C   0  0  0  0  0  0
   14.8972   -5.3911   11.0080 C   0  0  0  0  0  0
   14.9451   -4.3959    8.3387 Br  0  0  0  0  0  0
   17.8477  -13.9563   15.5046 F   0  0  0  0  0  0
   16.0796   -9.3120   19.0518 H   0  0  0  0  0  0
   18.5463   -6.0359   13.6960 H   0  0  0  0  0  0
   17.0834   -5.7150   14.4764 H   0  0  0  0  0  0
   14.0129   -9.0620   15.9068 H   0  0  0  0  0  0
   14.5478  -10.6731   15.4997 H   0  0  0  0  0  0
   19.7059  -10.7293   12.9812 H   0  0  0  0  0  0
   17.7263   -4.4359    9.4136 H   0  0  0  0  0  0
   16.3777  -12.0349   16.3679 H   0  0  0  0  0  0
   14.8389   -6.1149   12.9950 H   0  0  0  0  0  0
   19.5212  -13.0678   13.6991 H   0  0  0  0  0  0
   13.8223   -5.3807   10.9029 H   0  0  0  0  0  0
  1  3  1  0  0  0
  1  4  1  0  0  0
  1  6  1  0  0  0
  1 12  1  0  0  0
  2  3  1  0  0  0
  2  9  1  0  0  0
  2  5  1  0  0  0
  3 15  2  0  0  0
  4  7  1  0  0  0
  4 18  2  0  0  0
  5  8  1  0  0  0
  5 19  2  0  0  0
  6  8  1  0  0  0
  6 17  2  0  0  0
  7 10  1  0  0  0
  7 29  1  0  0  0
  8 14  2  0  0  0
  9 11  1  0  0  0
  9 30  1  0  0  0
  9 31  1  0  0  0
 10 12  1  0  0  0
 10 20  2  0  0  0
 11 13  1  0  0  0
 11 21  2  0  0  0
 12 32  1  0  0  0
 12 33  1  0  0  0
 13 16  2  0  0  0
 13 24  1  0  0  0
 14 25  1  0  0  0
 14 34  1  0  0  0
 16 22  1  0  0  0
 16 35  1  0  0  0
 17 23  1  0  0  0
 17 36  1  0  0  0
 21 26  1  0  0  0
 21 37  1  0  0  0
 22 26  2  0  0  0
 22 27  1  0  0  0
 23 25  2  0  0  0
 23 28  1  0  0  0
 25 38  1  0  0  0
 26 39  1  0  0  0
M  END
> <s_m_entry_id>
6606

> <s_m_entry_name>
dock_pv.441

> <s_m_Source_Path>
/home/csk/Desktop/cluster/DUD-E-result/aldr

> <s_m_Source_File>
dock_pv.maegz

> <i_m_Source_File_Index>
441

> <chembl_id>
CHEMBL273910

> <chembl_pref_name>
MINALRESTAT

> <i_lp_mmshare_version>
53161

> <i_f3d_flags>
0

> <r_lp_tautomer_probability>
0.99999999995914

> <s_lp_Force_Field>
OPLS_2005

> <r_lp_Energy>
32.772082

> <b_lp_Chiralities_Consistent>
1

> <s_lp_Variant>
CHEMBL1900_lig97-2

> <s_i_glide_gridfile>
glide-grid_2hv5

> <i_i_glide_lignum>
137

> <i_i_glide_rotatable_bonds>
2

> <r_i_docking_score>
-7.62389412779967

> <r_i_glide_ligand_efficiency>
-0.272281933135703

> <r_i_glide_ligand_efficiency_sa>
-0.826808314482496

> <r_i_glide_ligand_efficiency_ln>
-1.75981861195453

> <r_i_glide_gscore>
-7.62389412779967

> <r_i_glide_lipo>
-3.42055378210131

> <r_i_glide_hbond>
-0.0638321697369063

> <r_i_glide_metal>
0

> <r_i_glide_rewards>
-3.04634695909091

> <r_i_glide_evdw>
-23.3613910675049

> <r_i_glide_ecoul>
-0.824739933013916

> <r_i_glide_erotb>
0.198619326456777

> <r_i_glide_esite>
0

> <r_i_glide_emodel>
-25.3272573948255

> <r_i_glide_energy>
-24.1861310005188

> <r_i_glide_einternal>
1.46036076545715

> <i_i_glide_confnum>
6

> <i_i_glide_posenum>
19

> <r_i_glide_eff_state_penalty>
0

> <s_user_duplicate_titles>
CHEMBL1900_lig97,99296

> <s_m_subgroup_title>
dock_pv

> <s_m_subgroupid>
dock_pv

> <b_m_subgroup_collapsed>
1

$$$$
CHEMBL1900_lig145
                    3D
 Schrodinger Suite 2021-1.
 46 48  0  0  1  0            999 V2000
   18.1450   -8.2723   15.3573 N   0  0  0  0  0  0
   17.7105   -7.5144   16.4328 N   0  0  0  0  0  0
   17.7225   -9.5448   15.0221 C   0  0  0  0  0  0
   16.8798   -7.9907   17.2784 C   0  0  0  0  0  0
   16.6676  -10.0676   15.9925 C   0  0  0  0  0  0
   17.9764   -2.8454    9.8776 C   0  0  0  0  0  0
   13.9591   -5.6271   11.0735 C   0  0  0  0  0  0
   19.3450   -7.7317   14.6694 C   0  0  0  0  0  0
   16.2043   -9.2811   17.0678 C   0  0  0  0  0  0
   16.7537   -7.2039   18.5866 C   0  0  0  0  0  0
   15.4082   -5.3354   11.1194 C   0  0  0  0  0  0
   17.3600   -4.0376   10.5743 C   0  0  0  0  0  0
   18.9450   -6.5820   13.7810 C   0  0  0  0  0  0
   15.9860   -4.2507   10.4623 C   0  0  0  0  0  0
   17.5167   -6.0028   11.9677 C   0  0  0  0  0  0
   16.2410   -5.7675   18.4117 C   0  0  0  0  0  0
   18.1450   -6.9150   12.7727 N   0  0  0  0  0  0
   16.1681   -6.1998   11.8730 C   0  0  0  0  0  0
   18.1357   -4.9339   11.3144 C   0  0  0  0  0  0
   18.1450  -10.1766   14.0488 O   0  0  0  0  0  0
   19.3450   -5.4456   14.0230 O   0  0  0  0  0  0
   15.7450   -5.3150   17.3810 O   0  0  0  0  0  0
   17.3450   -1.7150   10.1810 F   0  0  0  0  0  0
   17.8203   -3.0735    8.5810 F   0  0  0  0  0  0
   19.2696   -2.6999   10.1810 F   0  0  0  0  0  0
   13.4250   -5.3150   12.1810 F   0  0  0  0  0  0
   13.3450   -4.9150   10.1810 F   0  0  0  0  0  0
   13.7450   -6.9150   10.9810 F   0  0  0  0  0  0
   16.3864   -5.0571   19.5632 O   0  0  0  0  0  0
   16.1252  -11.3412   15.7810 C   0  0  0  0  0  0
   15.1138   -9.7304   17.8251 C   0  0  0  0  0  0
   15.0849  -11.8038   16.5862 C   0  0  0  0  0  0
   14.5700  -10.9934   17.5958 C   0  0  0  0  0  0
   19.9301   -8.4612   14.1056 H   0  0  0  0  0  0
   20.0292   -7.2824   15.3810 H   0  0  0  0  0  0
   16.1448   -7.7143   19.3278 H   0  0  0  0  0  0
   17.7450   -7.1340   19.0328 H   0  0  0  0  0  0
   15.3742   -3.5704    9.8843 H   0  0  0  0  0  0
   17.8246   -7.8713   12.7232 H   0  0  0  0  0  0
   15.6993   -7.0169   12.4049 H   0  0  0  0  0  0
   19.2001   -4.8106   11.3819 H   0  0  0  0  0  0
   16.1450   -4.1395   19.4220 H   0  0  0  0  0  0
   16.4860  -11.9658   14.9749 H   0  0  0  0  0  0
   14.6865   -9.1287   18.6114 H   0  0  0  0  0  0
   14.6587  -12.7812   16.4114 H   0  0  0  0  0  0
   13.7450  -11.3454   18.1988 H   0  0  0  0  0  0
  1  2  1  0  0  0
  1  3  1  0  0  0
  1  8  1  0  0  0
  2  4  2  0  0  0
  3  5  1  0  0  0
  3 20  2  0  0  0
  4 10  1  0  0  0
  4  9  1  0  0  0
  5  9  2  0  0  0
  5 30  1  0  0  0
  6 12  1  0  0  0
  6 23  1  0  0  0
  6 24  1  0  0  0
  6 25  1  0  0  0
  7 11  1  0  0  0
  7 26  1  0  0  0
  7 27  1  0  0  0
  7 28  1  0  0  0
  8 13  1  0  0  0
  8 34  1  0  0  0
  8 35  1  0  0  0
  9 31  1  0  0  0
 10 16  1  0  0  0
 10 36  1  0  0  0
 10 37  1  0  0  0
 11 18  2  0  0  0
 11 14  1  0  0  0
 12 19  1  0  0  0
 12 14  2  0  0  0
 13 17  1  0  0  0
 13 21  2  0  0  0
 14 38  1  0  0  0
 15 17  1  0  0  0
 15 18  1  0  0  0
 15 19  2  0  0  0
 16 22  2  0  0  0
 16 29  1  0  0  0
 17 39  1  0  0  0
 18 40  1  0  0  0
 19 41  1  0  0  0
 29 42  1  0  0  0
 30 32  2  0  0  0
 30 43  1  0  0  0
 31 33  2  0  0  0
 31 44  1  0  0  0
 32 33  1  0  0  0
 32 45  1  0  0  0
 33 46  1  0  0  0
M  END
> <s_m_entry_id>
6607

> <s_m_entry_name>
dock_pv.442

> <s_m_Source_Path>
/home/csk/Desktop/cluster/DUD-E-result/aldr

> <s_m_Source_File>
dock_pv.maegz

> <i_m_Source_File_Index>
442

> <chembl_id>
CHEMBL356789

> <chembl_pref_name>
None

> <i_lp_mmshare_version>
53161

> <i_f3d_flags>
0

> <r_lp_tautomer_probability>
1

> <s_lp_Force_Field>
OPLS_2005

> <r_lp_Energy>
33.891713

> <b_lp_Chiralities_Consistent>
1

> <s_lp_Variant>
CHEMBL1900_lig145-1

> <s_i_glide_gridfile>
glide-grid_2hv5

> <i_i_glide_lignum>
221

> <i_i_glide_rotatable_bonds>
9

> <r_i_docking_score>
-7.62120442970197

> <r_i_glide_ligand_efficiency>
-0.230945588778848

> <r_i_glide_ligand_efficiency_sa>
-0.740765903505888

> <r_i_glide_ligand_efficiency_ln>
-1.69491640468106

> <r_i_glide_gscore>
-7.62120442970197

> <r_i_glide_lipo>
-4.58067613832825

> <r_i_glide_hbond>
-0.0649133387909994

> <r_i_glide_metal>
0

> <r_i_glide_rewards>
-2.2189959946818

> <r_i_glide_evdw>
-20.5441150665283

> <r_i_glide_ecoul>
-1.79654955863953

> <r_i_glide_erotb>
0.541697018572987

> <r_i_glide_esite>
-0.00162778935156818

> <r_i_glide_emodel>
-18.1919917069588

> <r_i_glide_energy>
-22.3406646251678

> <r_i_glide_einternal>
8.22181415557861

> <i_i_glide_confnum>
24

> <i_i_glide_posenum>
224

> <r_i_glide_eff_state_penalty>
0

> <s_user_duplicate_titles>
CHEMBL1900_lig145

> <s_m_subgroup_title>
dock_pv

> <s_m_subgroupid>
dock_pv

> <b_m_subgroup_collapsed>
1

$$$$
CHEMBL1900_lig616
                    3D
 Schrodinger Suite 2021-1.
 30 31  0  0  1  0            999 V2000
   16.0769  -10.2408   16.3228 C   0  0  0  0  0  0
   15.6122   -9.7479   17.5355 C   0  0  0  0  0  0
   15.7022   -8.3869   17.8109 C   0  0  0  0  0  0
   16.2387   -7.4844   16.8754 C   0  0  0  0  0  0
   16.6704   -7.9861   15.6275 C   0  0  0  0  0  0
   16.6067   -9.3647   15.3810 C   0  0  0  0  0  0
   16.2709   -6.1149   17.1016 O   0  0  0  0  0  0
   16.5450   -5.5443   18.3147 C   0  0  0  0  0  0
   16.5448   -4.0229   18.2440 C   0  0  0  0  0  0
   16.7737   -6.1136   19.3812 O   0  0  0  0  0  0
   17.1954   -7.0701   14.5517 C   0  0  0  0  0  0
   16.3496   -6.9158   13.5075 N   0  0  0  0  0  0
   18.2829   -6.5151   14.6921 O   0  0  0  0  0  0
   16.4904   -6.1086   12.3837 C   0  0  0  0  0  0
   17.9649   -5.3202   11.8827 S   0  0  0  0  0  0
   17.0700   -4.5215   10.6185 C   0  0  0  0  0  0
   15.7497   -4.9723   10.6684 C   0  0  0  0  0  0
   15.4569   -5.8400   11.6215 N   0  0  0  0  0  0
   17.6571   -3.5538    9.7496 N   0  3  0  0  0  0
   16.9111   -2.9560    8.9807 O   0  0  0  0  0  0
   18.8691   -3.3753    9.8187 O   0  5  0  0  0  0
   16.0219  -11.2995   16.1101 H   0  0  0  0  0  0
   15.1929  -10.4207   18.2698 H   0  0  0  0  0  0
   15.3451   -8.0402   18.7646 H   0  0  0  0  0  0
   16.9554   -9.7722   14.4440 H   0  0  0  0  0  0
   15.6044   -3.6586   17.8338 H   0  0  0  0  0  0
   16.6817   -3.5932   19.2372 H   0  0  0  0  0  0
   17.3522   -3.6692   17.6067 H   0  0  0  0  0  0
   15.4486   -7.3539   13.6085 H   0  0  0  0  0  0
   14.9619   -4.6442   10.0032 H   0  0  0  0  0  0
  1  6  1  0  0  0
  1  2  2  0  0  0
  1 22  1  0  0  0
  2  3  1  0  0  0
  2 23  1  0  0  0
  3  4  2  0  0  0
  3 24  1  0  0  0
  4  7  1  0  0  0
  4  5  1  0  0  0
  5 11  1  0  0  0
  5  6  2  0  0  0
  6 25  1  0  0  0
  7  8  1  0  0  0
  8  9  1  0  0  0
  8 10  2  0  0  0
  9 26  1  0  0  0
  9 27  1  0  0  0
  9 28  1  0  0  0
 11 12  1  0  0  0
 11 13  2  0  0  0
 12 14  1  0  0  0
 12 29  1  0  0  0
 14 15  1  0  0  0
 14 18  2  0  0  0
 15 16  1  0  0  0
 16 17  2  0  0  0
 16 19  1  0  0  0
 17 18  1  0  0  0
 17 30  1  0  0  0
 19 20  2  0  0  0
 19 21  1  0  0  0
M  CHG  2  19   1  21  -1
M  END
> <s_m_entry_id>
6608

> <s_m_entry_name>
dock_pv.443

> <s_m_Source_Path>
/home/csk/Desktop/cluster/DUD-E-result/aldr

> <s_m_Source_File>
dock_pv.maegz

> <i_m_Source_File_Index>
443

> <chembl_id>
CHEMBL1401

> <chembl_pref_name>
NITAZOXANIDE

> <i_lp_mmshare_version>
53161

> <i_f3d_flags>
0

> <r_lp_tautomer_probability>
0.999000488399163

> <s_lp_Force_Field>
OPLS_2005

> <r_lp_Energy>
15.534185

> <b_lp_Chiralities_Consistent>
1

> <s_lp_Variant>
CHEMBL1900_lig616-1

> <s_i_glide_gridfile>
glide-grid_2hv5

> <i_i_glide_lignum>
740

> <i_i_glide_rotatable_bonds>
6

> <r_i_docking_score>
-7.60622572703087

> <r_i_glide_ligand_efficiency>
-0.362201225096708

> <r_i_glide_ligand_efficiency_sa>
-0.999285715620052

> <r_i_glide_ligand_efficiency_ln>
-1.8806239411821

> <r_i_glide_gscore>
-7.60622572703087

> <r_i_glide_lipo>
-3.10448778170563

> <r_i_glide_hbond>
0

> <r_i_glide_metal>
0

> <r_i_glide_rewards>
-2.99816122815338

> <r_i_glide_evdw>
-44.4966354370117

> <r_i_glide_ecoul>
-0.411988705396652

> <r_i_glide_erotb>
0.783053360488227

> <r_i_glide_esite>
0

> <r_i_glide_emodel>
-63.1146340037205

> <r_i_glide_energy>
-44.9086241424084

> <r_i_glide_einternal>
6.79690170288086

> <i_i_glide_confnum>
7

> <i_i_glide_posenum>
258

> <r_i_glide_eff_state_penalty>
0

> <s_user_duplicate_titles>
CHEMBL1900_lig616

> <s_m_subgroup_title>
dock_pv

> <s_m_subgroupid>
dock_pv

> <b_m_subgroup_collapsed>
1

$$$$
CHEMBL1900_lig6
                    3D
 Schrodinger Suite 2021-1.
 42 43  0  0  1  0            999 V2000
   14.9243  -11.8409   17.0096 N   0  0  0  0  0  0
   16.8677   -9.0920   16.4643 C   0  0  0  0  0  0
   15.0337  -10.7925   16.1810 C   0  0  0  0  0  0
   18.4337   -8.5117   14.0782 S   0  0  0  0  0  0
   16.5099  -10.5263   16.0394 C   0  0  2  0  0  0
   16.0897  -12.2291   17.5629 C   0  0  0  0  0  0
   17.6207   -8.1930   15.6674 C   0  0  0  0  0  0
   17.0329  -11.5400   16.9132 N   0  0  0  0  0  0
   17.8137   -6.8980   16.1348 C   0  0  0  0  0  0
   16.4060   -8.6485   17.7250 C   0  0  0  0  0  0
   18.4861   -9.9539   13.8291 O   0  0  0  0  0  0
   19.6861   -7.7473   14.0868 O   0  0  0  0  0  0
   14.1450  -10.1385   15.6466 O   0  0  0  0  0  0
   16.2478  -12.9136   18.5685 O   0  0  0  0  0  0
   16.6484   -7.3591   18.1790 C   0  0  0  0  0  0
   17.2837   -7.7091   12.8062 C   0  0  0  0  0  0
   17.3335   -6.4815   17.3680 C   0  0  0  0  0  0
   16.1450   -6.8413   19.7435 Cl  0  0  0  0  0  0
   17.7145   -6.2719   12.4714 C   0  0  0  0  0  0
   16.5466   -3.5961    9.8458 C   0  0  0  0  0  0
   17.4783   -4.3532   10.8075 C   0  0  0  0  0  0
   16.8682   -5.6562   11.3443 C   0  0  0  0  0  0
   17.1402   -2.2596    9.3799 C   0  0  0  0  0  0
   14.0341  -12.2241   17.2899 H   0  0  0  0  0  0
   16.7481  -10.7825   15.0148 H   0  0  0  0  0  0
   18.0027  -11.8181   16.8821 H   0  0  0  0  0  0
   18.3757   -6.1858   15.5474 H   0  0  0  0  0  0
   15.8582   -9.3144   18.3761 H   0  0  0  0  0  0
   16.2685   -7.7150   13.1998 H   0  0  0  0  0  0
   17.3449   -8.3342   11.9192 H   0  0  0  0  0  0
   17.5159   -5.4738   17.7092 H   0  0  0  0  0  0
   18.7649   -6.2549   12.1824 H   0  0  0  0  0  0
   17.6451   -5.6499   13.3633 H   0  0  0  0  0  0
   15.5849   -3.4090   10.3266 H   0  0  0  0  0  0
   16.3333   -4.2245    8.9809 H   0  0  0  0  0  0
   18.4202   -4.5772   10.3036 H   0  0  0  0  0  0
   17.7359   -3.7150   11.6490 H   0  0  0  0  0  0
   15.8593   -5.4699   11.7171 H   0  0  0  0  0  0
   16.7655   -6.3632   10.5192 H   0  0  0  0  0  0
   16.5252   -1.8067    8.6014 H   0  0  0  0  0  0
   18.1445   -2.3931    8.9805 H   0  0  0  0  0  0
   17.2088   -1.5472   10.2016 H   0  0  0  0  0  0
  1  3  1  0  0  0
  1  6  1  0  0  0
  1 24  1  0  0  0
  2  5  1  0  0  0
  2  7  1  0  0  0
  2 10  2  0  0  0
  3  5  1  0  0  0
  3 13  2  0  0  0
  4  7  1  0  0  0
  4 11  2  0  0  0
  4 12  2  0  0  0
  4 16  1  0  0  0
  5  8  1  0  0  0
  5 25  1  0  0  0
  6  8  1  0  0  0
  6 14  2  0  0  0
  7  9  2  0  0  0
  8 26  1  0  0  0
  9 17  1  0  0  0
  9 27  1  0  0  0
 10 15  1  0  0  0
 10 28  1  0  0  0
 15 17  2  0  0  0
 15 18  1  0  0  0
 16 19  1  0  0  0
 16 29  1  0  0  0
 16 30  1  0  0  0
 17 31  1  0  0  0
 19 22  1  0  0  0
 19 32  1  0  0  0
 19 33  1  0  0  0
 20 21  1  0  0  0
 20 23  1  0  0  0
 20 34  1  0  0  0
 20 35  1  0  0  0
 21 22  1  0  0  0
 21 36  1  0  0  0
 21 37  1  0  0  0
 22 38  1  0  0  0
 22 39  1  0  0  0
 23 40  1  0  0  0
 23 41  1  0  0  0
 23 42  1  0  0  0
M  END
> <s_m_entry_id>
6609

> <s_m_entry_name>
dock_pv.444

> <s_m_Source_Path>
/home/csk/Desktop/cluster/DUD-E-result/aldr

> <s_m_Source_File>
dock_pv.maegz

> <i_m_Source_File_Index>
444

> <chembl_id>
CHEMBL18854

> <chembl_pref_name>
None

> <i_lp_mmshare_version>
53161

> <i_f3d_flags>
0

> <r_lp_tautomer_probability>
0.999999999781369

> <s_lp_Force_Field>
OPLS_2005

> <r_lp_Energy>
20.163978

> <b_lp_Chiralities_Consistent>
1

> <s_lp_Variant>
CHEMBL1900_lig6-1

> <s_i_glide_gridfile>
glide-grid_2hv5

> <i_i_glide_lignum>
7

> <i_i_glide_rotatable_bonds>
7

> <r_i_docking_score>
-7.60594368785184

> <r_i_glide_ligand_efficiency>
-0.330693203819645

> <r_i_glide_ligand_efficiency_sa>
-0.94044748182109

> <r_i_glide_ligand_efficiency_ln>
-1.8391861506069

> <r_i_glide_gscore>
-7.60594368785184

> <r_i_glide_lipo>
-3.74252040174209

> <r_i_glide_hbond>
-0.258695239331734

> <r_i_glide_metal>
0

> <r_i_glide_rewards>
-2.5103740944173

> <r_i_glide_evdw>
-36.0255393981934

> <r_i_glide_ecoul>
-1.17775762081146

> <r_i_glide_erotb>
0.892797425956491

> <r_i_glide_esite>
-0.0092107652858265

> <r_i_glide_emodel>
-51.7509755753609

> <r_i_glide_energy>
-37.2032970190048

> <r_i_glide_einternal>
5.37728977203369

> <i_i_glide_confnum>
77

> <i_i_glide_posenum>
226

> <r_i_glide_eff_state_penalty>
0

> <s_user_duplicate_titles>
CHEMBL1900_lig6

> <s_m_subgroup_title>
dock_pv

> <s_m_subgroupid>
dock_pv

> <b_m_subgroup_collapsed>
1

$$$$
CHEMBL1900_lig210
                    3D
 Schrodinger Suite 2021-1.
 37 38  0  0  1  0            999 V2000
   17.8403   -6.4055   13.4984 N   0  0  0  0  0  0
   17.2921   -5.3142   11.5661 C   0  0  0  0  0  0
   16.5064   -6.5156   13.3554 C   0  0  0  0  0  0
   16.1918   -5.8672   12.0964 C   0  0  0  0  0  0
   18.4416   -5.5840   12.4705 C   0  0  0  0  0  0
   17.4477   -4.4814   10.3895 C   0  0  0  0  0  0
   18.5317   -6.9431   14.6807 C   0  0  1  0  0  0
   15.7542   -7.0302   14.1805 O   0  0  0  0  0  0
   18.5476   -4.1143    9.9735 O   0  0  0  0  0  0
   18.2627   -8.4360   14.9191 C   0  0  0  0  0  0
   14.8858   -5.8849   11.7141 O   0  0  0  0  0  0
   16.2684   -4.1316    9.8415 O   0  0  0  0  0  0
   20.0229   -6.6132   14.6697 C   0  0  0  0  0  0
   17.7407   -8.8596   16.1460 C   0  0  0  0  0  0
   18.4717   -9.3634   13.8925 C   0  0  0  0  0  0
   16.2142   -3.2115    8.7673 C   0  0  0  0  0  0
   16.1311   -1.7724    9.2730 C   0  0  0  0  0  0
   18.1454  -10.7028   14.0853 C   0  0  0  0  0  0
   17.4153  -10.1996   16.3397 C   0  0  0  0  0  0
   17.6176  -11.1144   15.3066 C   0  0  0  0  0  0
   19.2528   -6.1150   11.9850 H   0  0  0  0  0  0
   18.8662   -4.6802   12.9078 H   0  0  0  0  0  0
   18.1107   -6.4052   15.5328 H   0  0  0  0  0  0
   14.7844   -5.3269   10.9379 H   0  0  0  0  0  0
   20.4885   -6.8313   15.6224 H   0  0  0  0  0  0
   20.5453   -7.1669   13.8926 H   0  0  0  0  0  0
   20.1460   -5.5456   14.5092 H   0  0  0  0  0  0
   17.5646   -8.1492   16.9405 H   0  0  0  0  0  0
   18.8686   -9.0403   12.9419 H   0  0  0  0  0  0
   15.3315   -3.4542    8.1807 H   0  0  0  0  0  0
   17.0793   -3.3147    8.1123 H   0  0  0  0  0  0
   16.1451   -1.1018    8.4194 H   0  0  0  0  0  0
   16.9678   -1.5196    9.9232 H   0  0  0  0  0  0
   15.2020   -1.6040    9.8163 H   0  0  0  0  0  0
   18.2950  -11.4171   13.2887 H   0  0  0  0  0  0
   16.9997  -10.5243   17.2824 H   0  0  0  0  0  0
   17.3618  -12.1517   15.4552 H   0  0  0  0  0  0
  1  3  1  0  0  0
  1  5  1  0  0  0
  1  7  1  0  0  0
  2  5  1  0  0  0
  2  6  1  0  0  0
  2  4  2  0  0  0
  3  4  1  0  0  0
  3  8  2  0  0  0
  4 11  1  0  0  0
  5 21  1  0  0  0
  5 22  1  0  0  0
  6  9  2  0  0  0
  6 12  1  0  0  0
  7 10  1  0  0  0
  7 13  1  0  0  0
  7 23  1  0  0  0
 10 14  2  0  0  0
 10 15  1  0  0  0
 11 24  1  0  0  0
 12 16  1  0  0  0
 13 25  1  0  0  0
 13 26  1  0  0  0
 13 27  1  0  0  0
 14 19  1  0  0  0
 14 28  1  0  0  0
 15 18  2  0  0  0
 15 29  1  0  0  0
 16 17  1  0  0  0
 16 30  1  0  0  0
 16 31  1  0  0  0
 17 32  1  0  0  0
 17 33  1  0  0  0
 17 34  1  0  0  0
 18 20  1  0  0  0
 18 35  1  0  0  0
 19 20  2  0  0  0
 19 36  1  0  0  0
 20 37  1  0  0  0
M  END
> <s_m_entry_id>
6610

> <s_m_entry_name>
dock_pv.445

> <s_m_Source_Path>
/home/csk/Desktop/cluster/DUD-E-result/aldr

> <s_m_Source_File>
dock_pv.maegz

> <i_m_Source_File_Index>
445

> <chembl_id>
CHEMBL269089

> <chembl_pref_name>
None

> <i_lp_mmshare_version>
53161

> <i_f3d_flags>
0

> <r_lp_tautomer_probability>
1

> <s_lp_Force_Field>
OPLS_2005

> <r_lp_Energy>
28.765144

> <b_lp_Chiralities_Consistent>
1

> <s_lp_Variant>
CHEMBL1900_lig210-1

> <s_i_glide_gridfile>
glide-grid_2hv5

> <i_i_glide_lignum>
286

> <i_i_glide_rotatable_bonds>
6

> <r_i_docking_score>
-7.60568370884265

> <r_i_glide_ligand_efficiency>
-0.380284185442132

> <r_i_glide_ligand_efficiency_sa>
-1.03225009124579

> <r_i_glide_ligand_efficiency_ln>
-1.90345178008581

> <r_i_glide_gscore>
-7.60568370884265

> <r_i_glide_lipo>
-3.18157396488564

> <r_i_glide_hbond>
-0.00466338364580477

> <r_i_glide_metal>
0

> <r_i_glide_rewards>
-3.25800320388248

> <r_i_glide_evdw>
-32.4658546447754

> <r_i_glide_ecoul>
-3.24440264701843

> <r_i_glide_erotb>
0.948509972862813

> <r_i_glide_esite>
0

> <r_i_glide_emodel>
-50.2345164297976

> <r_i_glide_energy>
-35.7102572917938

> <r_i_glide_einternal>
2.99293875694275

> <i_i_glide_confnum>
11

> <i_i_glide_posenum>
122

> <r_i_glide_eff_state_penalty>
0

> <s_user_duplicate_titles>
CHEMBL1900_lig210,2019

> <s_m_subgroup_title>
dock_pv

> <s_m_subgroupid>
dock_pv

> <b_m_subgroup_collapsed>
1

$$$$
CHEMBL1900_lig439
                    3D
 Schrodinger Suite 2021-1.
 27 28  0  0  1  0            999 V2000
   18.0766   -7.5090   13.8795 S   0  0  0  0  0  0
   17.3034   -8.3513   15.2861 C   0  0  0  0  0  0
   16.6916   -7.6132   16.1539 N   0  0  0  0  0  0
   15.9614   -8.2246   17.1740 N   0  0  0  0  0  0
   16.5580   -6.6675   13.1247 C   0  0  0  0  0  0
   17.2484   -9.7910   15.4234 C   0  0  0  0  0  0
   16.7433   -5.7402   11.9332 C   0  0  0  0  0  0
   15.7364   -9.5595   17.3574 C   0  0  0  0  0  0
   15.6237   -5.4527   11.1435 C   0  0  0  0  0  0
   16.5177  -10.3548   16.4185 C   0  0  0  0  0  0
   18.9947   -6.5154   14.4467 O   0  0  0  0  0  0
   18.5529   -8.5646   12.9816 O   0  0  0  0  0  0
   15.7086   -4.5126   10.1251 C   0  0  0  0  0  0
   14.9449  -10.0114   18.1805 O   0  0  0  0  0  0
   17.9567   -5.1005   11.6602 C   0  0  0  0  0  0
   16.9005   -3.8406    9.8896 C   0  0  0  0  0  0
   14.4385   -6.0604   11.3814 F   0  0  0  0  0  0
   18.0333   -4.1486   10.6396 C   0  0  0  0  0  0
   16.9449   -2.4679    8.5811 Br  0  0  0  0  0  0
   15.8533   -7.4387   12.8545 H   0  0  0  0  0  0
   16.0973   -6.1151   13.9328 H   0  0  0  0  0  0
   17.8149  -10.4282   14.7578 H   0  0  0  0  0  0
   16.4894  -11.4288   16.5270 H   0  0  0  0  0  0
   14.8405   -4.2840    9.5342 H   0  0  0  0  0  0
   15.4809   -7.5898   17.7934 H   0  0  0  0  0  0
   18.8280   -5.3067   12.2611 H   0  0  0  0  0  0
   18.9528   -3.6171   10.4553 H   0  0  0  0  0  0
  1  5  1  0  0  0
  1 11  2  0  0  0
  1 12  2  0  0  0
  1  2  1  0  0  0
  2  6  1  0  0  0
  2  3  2  0  0  0
  3  4  1  0  0  0
  4  8  1  0  0  0
  4 25  1  0  0  0
  5  7  1  0  0  0
  5 20  1  0  0  0
  5 21  1  0  0  0
  6 10  2  0  0  0
  6 22  1  0  0  0
  7  9  2  0  0  0
  7 15  1  0  0  0
  8 14  2  0  0  0
  8 10  1  0  0  0
  9 13  1  0  0  0
  9 17  1  0  0  0
 10 23  1  0  0  0
 13 16  2  0  0  0
 13 24  1  0  0  0
 15 18  2  0  0  0
 15 26  1  0  0  0
 16 18  1  0  0  0
 16 19  1  0  0  0
 18 27  1  0  0  0
M  END
> <s_m_entry_id>
6611

> <s_m_entry_name>
dock_pv.446

> <s_m_Source_Path>
/home/csk/Desktop/cluster/DUD-E-result/aldr

> <s_m_Source_File>
dock_pv.maegz

> <i_m_Source_File_Index>
446

> <chembl_id>
CHEMBL197628

> <chembl_pref_name>
None

> <i_lp_mmshare_version>
53161

> <i_f3d_flags>
0

> <r_lp_tautomer_probability>
0.998994762270461

> <s_lp_Force_Field>
OPLS_2005

> <r_lp_Energy>
16.717201

> <b_lp_Chiralities_Consistent>
1

> <s_lp_Variant>
CHEMBL1900_lig439-1

> <s_i_glide_gridfile>
glide-grid_2hv5

> <i_i_glide_lignum>
561

> <i_i_glide_rotatable_bonds>
3

> <r_i_docking_score>
-7.60379062778785

> <r_i_glide_ligand_efficiency>
-0.400199506725676

> <r_i_glide_ligand_efficiency_sa>
-1.06789302251639

> <r_i_glide_ligand_efficiency_ln>
-1.92772423859241

> <r_i_glide_gscore>
-7.60379062778785

> <r_i_glide_lipo>
-3.46689176051388

> <r_i_glide_hbond>
0

> <r_i_glide_metal>
0

> <r_i_glide_rewards>
-2.78769059700002

> <r_i_glide_evdw>
-40.4980545043945

> <r_i_glide_ecoul>
1.34816646575928

> <r_i_glide_erotb>
0.473469485081885

> <r_i_glide_esite>
0

> <r_i_glide_emodel>
-50.9004299678196

> <r_i_glide_energy>
-39.1498880386353

> <r_i_glide_einternal>
5.67596292495728

> <i_i_glide_confnum>
6

> <i_i_glide_posenum>
303

> <r_i_glide_eff_state_penalty>
0

> <s_user_duplicate_titles>
CHEMBL1900_lig439,331321

> <s_m_subgroup_title>
dock_pv

> <s_m_subgroupid>
dock_pv

> <b_m_subgroup_collapsed>
1

$$$$
CHEMBL1900_lig139
                    3D
 Schrodinger Suite 2021-1.
 31 33  0  0  1  0            999 V2000
   16.3042   -9.6233   16.5435 C   0  0  2  0  0  0
   16.1229   -8.3110   17.2724 N   0  0  0  0  0  0
   14.9363  -10.1870   16.1856 C   0  0  0  0  0  0
   16.0990   -7.1135   16.6052 C   0  0  0  0  0  0
   16.7417  -10.7082   17.3808 N   0  0  0  0  0  0
   14.7182  -11.2149   17.0170 N   0  0  0  0  0  0
   17.2339   -9.4701   15.3018 C   0  0  0  0  0  0
   15.7721  -11.5394   17.7802 C   0  0  0  0  0  0
   16.8646   -7.0991   15.5044 N   0  0  0  0  0  0
   17.5407   -8.1541   14.9169 C   0  0  0  0  0  0
   15.4451   -6.1144   16.9065 O   0  0  0  0  0  0
   14.1459   -9.7166   15.3808 O   0  0  0  0  0  0
   17.8770  -10.5198   14.5922 C   0  0  0  0  0  0
   15.8903  -12.5154   18.5138 O   0  0  0  0  0  0
   15.4550   -8.3001   18.5781 C   0  0  0  0  0  0
   18.4986   -7.8669   13.9514 C   0  0  0  0  0  0
   19.1712   -8.9081   13.3339 C   0  0  0  0  0  0
   18.8376  -10.2244   13.6221 C   0  0  0  0  0  0
   17.5695  -11.9953   14.8191 C   0  0  0  0  0  0
   17.5892  -10.5742   17.9094 H   0  0  0  0  0  0
   13.8830  -11.7782   16.9813 H   0  0  0  0  0  0
   16.9505   -6.1857   15.0873 H   0  0  0  0  0  0
   15.4088   -7.2933   18.9941 H   0  0  0  0  0  0
   14.4383   -8.6804   18.4803 H   0  0  0  0  0  0
   15.9851   -8.9148   19.2973 H   0  0  0  0  0  0
   18.7355   -6.8462   13.6852 H   0  0  0  0  0  0
   19.9219   -8.6911   12.5900 H   0  0  0  0  0  0
   19.3431  -11.0188   13.0919 H   0  0  0  0  0  0
   16.4988  -12.1610   14.9217 H   0  0  0  0  0  0
   18.0699  -12.3676   15.7128 H   0  0  0  0  0  0
   17.8802  -12.6072   13.9713 H   0  0  0  0  0  0
  1  2  1  0  0  0
  1  3  1  0  0  0
  1  5  1  0  0  0
  1  7  1  0  0  0
  2  4  1  0  0  0
  2 15  1  0  0  0
  3  6  1  0  0  0
  3 12  2  0  0  0
  4 11  2  0  0  0
  4  9  1  0  0  0
  5  8  1  0  0  0
  5 20  1  0  0  0
  6  8  1  0  0  0
  6 21  1  0  0  0
  7 10  1  0  0  0
  7 13  2  0  0  0
  8 14  2  0  0  0
  9 10  1  0  0  0
  9 22  1  0  0  0
 10 16  2  0  0  0
 13 18  1  0  0  0
 13 19  1  0  0  0
 15 23  1  0  0  0
 15 24  1  0  0  0
 15 25  1  0  0  0
 16 17  1  0  0  0
 16 26  1  0  0  0
 17 18  2  0  0  0
 17 27  1  0  0  0
 18 28  1  0  0  0
 19 29  1  0  0  0
 19 30  1  0  0  0
 19 31  1  0  0  0
M  END
> <s_m_entry_id>
6612

> <s_m_entry_name>
dock_pv.447

> <s_m_Source_Path>
/home/csk/Desktop/cluster/DUD-E-result/aldr

> <s_m_Source_File>
dock_pv.maegz

> <i_m_Source_File_Index>
447

> <chembl_id>
CHEMBL63812

> <chembl_pref_name>
None

> <i_lp_mmshare_version>
53161

> <i_f3d_flags>
0

> <r_lp_tautomer_probability>
0.99999999978137

> <s_lp_Force_Field>
OPLS_2005

> <r_lp_Energy>
40.63962

> <b_lp_Chiralities_Consistent>
1

> <s_lp_Variant>
CHEMBL1900_lig139-1

> <s_i_glide_gridfile>
glide-grid_2hv5

> <i_i_glide_lignum>
214

> <i_i_glide_rotatable_bonds>
0

> <r_i_docking_score>
-7.6032385201695

> <r_i_glide_ligand_efficiency>
-0.400170448429974

> <r_i_glide_ligand_efficiency_sa>
-1.0678154833123

> <r_i_glide_ligand_efficiency_ln>
-1.92758426745297

> <r_i_glide_gscore>
-7.6032385201695

> <r_i_glide_lipo>
-1.68620192840628

> <r_i_glide_hbond>
-0.581035303416137

> <r_i_glide_metal>
0

> <r_i_glide_rewards>
-3.32091713399415

> <r_i_glide_evdw>
-24.6071472167969

> <r_i_glide_ecoul>
-5.13767099380493

> <r_i_glide_erotb>
0

> <r_i_glide_esite>
-0.0140761444423453

> <r_i_glide_emodel>
-37.3372973871989

> <r_i_glide_energy>
-29.7448182106018

> <r_i_glide_einternal>
0

> <i_i_glide_confnum>
1

> <i_i_glide_posenum>
25

> <r_i_glide_eff_state_penalty>
0

> <s_user_duplicate_titles>
CHEMBL1900_lig139,101688

> <s_m_subgroup_title>
dock_pv

> <s_m_subgroupid>
dock_pv

> <b_m_subgroup_collapsed>
1

$$$$
CHEMBL1900_lig99
                    3D
 Schrodinger Suite 2021-1.
 27 29  0  0  1  0            999 V2000
   16.7467   -8.0295   16.9575 C   0  0  1  0  0  0
   16.1046   -9.3209   17.4069 N   0  0  0  0  0  0
   15.6982   -6.9642   16.6803 C   0  0  0  0  0  0
   17.4576   -7.3132   17.9955 N   0  0  0  0  0  0
   15.8766  -10.3892   16.5786 C   0  0  0  0  0  0
   15.7455   -6.1150   17.7124 N   0  0  0  0  0  0
   17.5983   -8.2167   15.6853 C   0  0  0  0  0  0
   16.7485   -6.3387   18.5729 C   0  0  0  0  0  0
   16.6822  -10.4314   15.5037 N   0  0  0  0  0  0
   17.5423   -9.4525   15.0308 C   0  0  0  0  0  0
   14.9451   -6.9152   15.7183 O   0  0  0  0  0  0
   15.0891  -11.3115   16.7937 O   0  0  0  0  0  0
   15.3397   -9.2672   18.5810 N   0  0  0  0  0  0
   17.0724   -5.6149   19.5075 O   0  0  0  0  0  0
   18.4383   -7.2256   15.1526 C   0  0  0  0  0  0
   18.3032   -9.7051   13.8927 C   0  0  0  0  0  0
   19.2044   -7.4681   14.0174 C   0  0  0  0  0  0
   19.1409   -8.7127   13.3987 C   0  0  0  0  0  0
   18.1739   -7.8058   18.5085 H   0  0  0  0  0  0
   15.2011   -5.2711   17.7421 H   0  0  0  0  0  0
   16.5834  -11.2801   14.9678 H   0  0  0  0  0  0
   14.5696   -9.9101   18.4369 H   0  0  0  0  0  0
   15.9086   -9.6642   19.3242 H   0  0  0  0  0  0
   18.5029   -6.2578   15.6272 H   0  0  0  0  0  0
   18.2528  -10.6611   13.3910 H   0  0  0  0  0  0
   19.8544   -6.6987   13.6281 H   0  0  0  0  0  0
   19.7450   -8.9152   12.5385 H   0  0  0  0  0  0
  1  2  1  0  0  0
  1  3  1  0  0  0
  1  4  1  0  0  0
  1  7  1  0  0  0
  2  5  1  0  0  0
  2 13  1  0  0  0
  3  6  1  0  0  0
  3 11  2  0  0  0
  4  8  1  0  0  0
  4 19  1  0  0  0
  5 12  2  0  0  0
  5  9  1  0  0  0
  6  8  1  0  0  0
  6 20  1  0  0  0
  7 10  1  0  0  0
  7 15  2  0  0  0
  8 14  2  0  0  0
  9 10  1  0  0  0
  9 21  1  0  0  0
 10 16  2  0  0  0
 13 22  1  0  0  0
 13 23  1  0  0  0
 15 17  1  0  0  0
 15 24  1  0  0  0
 16 18  1  0  0  0
 16 25  1  0  0  0
 17 18  2  0  0  0
 17 26  1  0  0  0
 18 27  1  0  0  0
M  END
> <s_m_entry_id>
6613

> <s_m_entry_name>
dock_pv.448

> <s_m_Source_Path>
/home/csk/Desktop/cluster/DUD-E-result/aldr

> <s_m_Source_File>
dock_pv.maegz

> <i_m_Source_File_Index>
448

> <chembl_id>
CHEMBL65472

> <chembl_pref_name>
None

> <i_lp_mmshare_version>
53161

> <i_f3d_flags>
0

> <r_lp_tautomer_probability>
0.99999999978137

> <s_lp_Force_Field>
OPLS_2005

> <r_lp_Energy>
35.016178

> <b_lp_Chiralities_Consistent>
1

> <s_lp_Variant>
CHEMBL1900_lig99-2

> <s_i_glide_gridfile>
glide-grid_2hv5

> <i_i_glide_lignum>
141

> <i_i_glide_rotatable_bonds>
0

> <r_i_docking_score>
-7.59877649370749

> <r_i_glide_ligand_efficiency>
-0.422154249650416

> <r_i_glide_ligand_efficiency_sa>
-1.10635711573411

> <r_i_glide_ligand_efficiency_ln>
-1.95322631527038

> <r_i_glide_gscore>
-7.59877649370749

> <r_i_glide_lipo>
-1.48822156821378

> <r_i_glide_hbond>
-0.240369290744722

> <r_i_glide_metal>
0

> <r_i_glide_rewards>
-3.93498093809371

> <r_i_glide_evdw>
-27.8986682891846

> <r_i_glide_ecoul>
-3.60180854797363

> <r_i_glide_erotb>
0

> <r_i_glide_esite>
0

> <r_i_glide_emodel>
-43.0647450970775

> <r_i_glide_energy>
-31.5004768371582

> <r_i_glide_einternal>
0

> <i_i_glide_confnum>
1

> <i_i_glide_posenum>
8

> <r_i_glide_eff_state_penalty>
0

> <s_user_duplicate_titles>
CHEMBL1900_lig99

> <s_m_subgroup_title>
dock_pv

> <s_m_subgroupid>
dock_pv

> <b_m_subgroup_collapsed>
1

$$$$
CHEMBL1900_lig212
                    3D
 Schrodinger Suite 2021-1.
 33 34  0  0  1  0            999 V2000
   16.5738   -4.1667   21.3901 C   0  0  0  0  0  0
   17.0081   -4.9773   19.3009 N   0  0  0  0  0  0
   16.0516   -3.3397   20.4730 C   0  0  0  0  0  0
   16.3334   -3.8172   19.1238 C   0  0  0  0  0  0
   17.2422   -5.2918   20.6829 C   0  0  0  0  0  0
   16.5242   -4.0865   22.8429 C   0  0  0  0  0  0
   17.5045   -5.8432   18.2237 C   0  0  0  0  0  0
   16.0296   -3.3096   18.0407 O   0  0  0  0  0  0
   15.2791   -6.6484   17.5911 N   0  0  0  0  0  0
   15.7659   -3.3162   23.4245 O   0  0  0  0  0  0
   15.3333   -2.1866   20.5780 O   0  0  0  0  0  0
   16.5956   -6.9412   17.7003 C   0  0  0  0  0  0
   17.3880   -4.9191   23.4614 O   0  0  0  0  0  0
   14.4634   -7.5958   17.0701 C   0  0  0  0  0  0
   17.4777   -4.9888   24.8811 C   0  0  0  0  0  0
   17.1238   -8.1741   17.3055 C   0  0  0  0  0  0
   18.3777   -3.8802   25.4434 C   0  0  0  0  0  0
   14.9069   -8.8533   16.6583 C   0  0  0  0  0  0
   16.2651   -9.1434   16.7829 C   0  0  0  0  0  0
   18.3145   -5.3132   20.8755 H   0  0  0  0  0  0
   16.8198   -6.2667   20.9303 H   0  0  0  0  0  0
   17.7439   -5.2363   17.3554 H   0  0  0  0  0  0
   18.4354   -6.2988   18.5659 H   0  0  0  0  0  0
   15.1896   -1.9753   21.5105 H   0  0  0  0  0  0
   13.4256   -7.3197   16.9912 H   0  0  0  0  0  0
   17.9074   -5.9564   25.1367 H   0  0  0  0  0  0
   16.4857   -4.9573   25.3403 H   0  0  0  0  0  0
   18.1761   -8.3815   17.3888 H   0  0  0  0  0  0
   18.5721   -4.0549   26.5006 H   0  0  0  0  0  0
   17.8975   -2.9035   25.3531 H   0  0  0  0  0  0
   19.3350   -3.8450   24.9210 H   0  0  0  0  0  0
   14.2157   -9.5788   16.2524 H   0  0  0  0  0  0
   16.6493  -10.1021   16.4676 H   0  0  0  0  0  0
  1  3  2  0  0  0
  1  5  1  0  0  0
  1  6  1  0  0  0
  2  5  1  0  0  0
  2  7  1  0  0  0
  2  4  1  0  0  0
  3  4  1  0  0  0
  3 11  1  0  0  0
  4  8  2  0  0  0
  5 20  1  0  0  0
  5 21  1  0  0  0
  6 10  2  0  0  0
  6 13  1  0  0  0
  7 12  1  0  0  0
  7 22  1  0  0  0
  7 23  1  0  0  0
  9 12  2  0  0  0
  9 14  1  0  0  0
 11 24  1  0  0  0
 12 16  1  0  0  0
 13 15  1  0  0  0
 14 18  2  0  0  0
 14 25  1  0  0  0
 15 17  1  0  0  0
 15 26  1  0  0  0
 15 27  1  0  0  0
 16 19  2  0  0  0
 16 28  1  0  0  0
 17 29  1  0  0  0
 17 30  1  0  0  0
 17 31  1  0  0  0
 18 19  1  0  0  0
 18 32  1  0  0  0
 19 33  1  0  0  0
M  END
> <s_m_entry_id>
6614

> <s_m_entry_name>
dock_pv.449

> <s_m_Source_Path>
/home/csk/Desktop/cluster/DUD-E-result/aldr

> <s_m_Source_File>
dock_pv.maegz

> <i_m_Source_File_Index>
449

> <chembl_id>
CHEMBL6828

> <chembl_pref_name>
None

> <i_lp_mmshare_version>
53161

> <i_f3d_flags>
0

> <r_lp_tautomer_probability>
1

> <s_lp_Force_Field>
OPLS_2005

> <r_lp_Energy>
18.997255

> <b_lp_Chiralities_Consistent>
1

> <s_lp_Variant>
CHEMBL1900_lig212-1

> <s_i_glide_gridfile>
glide-grid_2hv5

> <i_i_glide_lignum>
288

> <i_i_glide_rotatable_bonds>
6

> <r_i_docking_score>
-7.59157961613003

> <r_i_glide_ligand_efficiency>
-0.399556821901581

> <r_i_glide_ligand_efficiency_sa>
-1.06617808127385

> <r_i_glide_ligand_efficiency_ln>
-1.92462848486867

> <r_i_glide_gscore>
-7.59157961613003

> <r_i_glide_lipo>
-2.30467681518726

> <r_i_glide_hbond>
-0.132182589467136

> <r_i_glide_metal>
0

> <r_i_glide_rewards>
-3.71261597009879

> <r_i_glide_evdw>
-37.1998596191406

> <r_i_glide_ecoul>
-4.09075450897217

> <r_i_glide_erotb>
1.03150191592601

> <r_i_glide_esite>
0

> <r_i_glide_emodel>
-57.2742605942048

> <r_i_glide_energy>
-41.2906141281128

> <r_i_glide_einternal>
2.709068775177

> <i_i_glide_confnum>
7

> <i_i_glide_posenum>
399

> <r_i_glide_eff_state_penalty>
0

> <s_user_duplicate_titles>
CHEMBL1900_lig212,2089

> <s_m_subgroup_title>
dock_pv

> <s_m_subgroupid>
dock_pv

> <b_m_subgroup_collapsed>
1

$$$$
CHEMBL1900_lig350
                    3D
 Schrodinger Suite 2021-1.
 30 31  0  0  1  0            999 V2000
   15.6338   -8.1215   16.8816 C   0  0  2  0  0  0
   16.6489   -8.2191   15.7323 C   0  0  0  0  0  0
   17.1716   -9.4720   15.3471 C   0  0  0  0  0  0
   16.3292   -7.6186   18.1912 C   0  0  0  0  0  0
   16.7157  -10.6811   15.8282 O   0  0  0  0  0  0
   14.9899   -9.5091   17.1164 C   0  0  0  0  0  0
   16.5904   -6.1101   18.3709 C   0  0  0  0  0  0
   17.1243   -7.0880   15.0516 C   0  0  0  0  0  0
   16.0157  -10.6545   17.0673 C   0  0  1  0  0  0
   18.1446   -9.5749   14.3538 C   0  0  0  0  0  0
   16.1450   -5.2288   17.6481 O   0  0  0  0  0  0
   14.5450   -7.2747   16.5807 O   0  0  0  0  0  0
   18.1082   -7.1846   14.0688 C   0  0  0  0  0  0
   17.3450   -5.8663   19.4726 O   0  0  0  0  0  0
   18.6296   -8.4294   13.7311 C   0  0  0  0  0  0
   18.5598   -6.0729   13.4460 F   0  0  0  0  0  0
   15.3613  -12.0235   17.2896 C   0  0  0  0  0  0
   16.7515  -10.5032   17.8553 H   0  0  0  0  0  0
   17.2885   -8.1287   18.2846 H   0  0  0  0  0  0
   15.7490   -7.9239   19.0612 H   0  0  0  0  0  0
   14.4533   -9.5330   18.0648 H   0  0  0  0  0  0
   14.2315   -9.7160   16.3570 H   0  0  0  0  0  0
   16.7281   -6.1150   15.2943 H   0  0  0  0  0  0
   18.5237  -10.5445   14.0658 H   0  0  0  0  0  0
   13.9214   -7.3084   17.3095 H   0  0  0  0  0  0
   17.6485   -6.6726   19.8946 H   0  0  0  0  0  0
   19.3993   -8.5059   12.9784 H   0  0  0  0  0  0
   14.8127  -12.0541   18.2315 H   0  0  0  0  0  0
   14.6600  -12.2575   16.4884 H   0  0  0  0  0  0
   16.1114  -12.8142   17.3125 H   0  0  0  0  0  0
  1  2  1  0  0  0
  1  4  1  0  0  0
  1  6  1  0  0  0
  1 12  1  0  0  0
  2  3  2  0  0  0
  2  8  1  0  0  0
  3 10  1  0  0  0
  3  5  1  0  0  0
  4  7  1  0  0  0
  4 19  1  0  0  0
  4 20  1  0  0  0
  5  9  1  0  0  0
  6  9  1  0  0  0
  6 21  1  0  0  0
  6 22  1  0  0  0
  7 11  2  0  0  0
  7 14  1  0  0  0
  8 13  2  0  0  0
  8 23  1  0  0  0
  9 17  1  0  0  0
  9 18  1  0  0  0
 10 15  2  0  0  0
 10 24  1  0  0  0
 12 25  1  0  0  0
 13 15  1  0  0  0
 13 16  1  0  0  0
 14 26  1  0  0  0
 15 27  1  0  0  0
 17 28  1  0  0  0
 17 29  1  0  0  0
 17 30  1  0  0  0
M  END
> <s_m_entry_id>
6615

> <s_m_entry_name>
dock_pv.450

> <s_m_Source_Path>
/home/csk/Desktop/cluster/DUD-E-result/aldr

> <s_m_Source_File>
dock_pv.maegz

> <i_m_Source_File_Index>
450

> <chembl_id>
CHEMBL71701

> <chembl_pref_name>
None

> <i_lp_mmshare_version>
53161

> <i_f3d_flags>
0

> <r_lp_tautomer_probability>
1

> <s_lp_Force_Field>
OPLS_2005

> <r_lp_Energy>
14.878244

> <b_lp_Chiralities_Consistent>
1

> <s_lp_Variant>
CHEMBL1900_lig350-1

> <s_i_glide_gridfile>
glide-grid_2hv5

> <i_i_glide_lignum>
471

> <i_i_glide_rotatable_bonds>
4

> <r_i_docking_score>
-7.58434674069001

> <r_i_glide_ligand_efficiency>
-0.44613804357

> <r_i_glide_ligand_efficiency_sa>
-1.14714653724045

> <r_i_glide_ligand_efficiency_ln>
-1.97858716954805

> <r_i_glide_gscore>
-7.58434674069001

> <r_i_glide_lipo>
-2.75173465554214

> <r_i_glide_hbond>
0

> <r_i_glide_metal>
0

> <r_i_glide_rewards>
-3.33964760112433

> <r_i_glide_evdw>
-29.3618507385254

> <r_i_glide_ecoul>
-4.16261196136475

> <r_i_glide_erotb>
0.599519847107451

> <r_i_glide_esite>
0

> <r_i_glide_emodel>
-47.3191215009177

> <r_i_glide_energy>
-33.5244626998901

> <r_i_glide_einternal>
3.11189603805542

> <i_i_glide_confnum>
6

> <i_i_glide_posenum>
311

> <r_i_glide_eff_state_penalty>
0

> <s_user_duplicate_titles>
CHEMBL1900_lig350,108497

> <s_m_subgroup_title>
dock_pv

> <s_m_subgroupid>
dock_pv

> <b_m_subgroup_collapsed>
1

$$$$
CHEMBL1900_lig71
                    3D
 Schrodinger Suite 2021-1.
 29 31  0  0  1  0            999 V2000
   16.3189   -8.9751   16.8514 C   0  0  2  0  0  0
   16.0423  -10.4766   17.2232 C   0  0  0  0  0  0
   16.5636  -11.4179   16.3752 N   0  0  0  0  0  0
   14.9493   -8.3873   16.5233 C   0  0  0  0  0  0
   17.3836  -11.2548   15.2884 C   0  0  0  0  0  0
   17.2759   -8.7292   15.6804 C   0  0  0  0  0  0
   14.7824   -7.2312   17.1928 N   0  0  0  0  0  0
   17.7797   -9.8294   14.9701 C   0  0  0  0  0  0
   15.7451   -6.9542   18.0786 C   0  0  0  0  0  0
   16.7032   -8.1153   18.0510 C   0  0  0  0  0  0
   18.7093   -9.6387   13.9397 C   0  0  0  0  0  0
   15.3298  -10.7747   18.1809 O   0  0  0  0  0  0
   17.7156   -7.4438   15.3108 C   0  0  0  0  0  0
   14.1450   -8.9131   15.7782 O   0  0  0  0  0  0
   17.7910  -12.2101   14.6174 O   0  0  0  0  0  0
   15.8396   -5.9682   18.8002 O   0  0  0  0  0  0
   16.1442  -12.8183   16.6564 C   0  0  0  0  0  0
   18.6919   -7.2641   14.3366 C   0  0  0  0  0  0
   19.1966   -8.3696   13.6676 C   0  0  0  0  0  0
   19.3222   -5.6943   14.0009 Cl  0  0  0  0  0  0
   13.9556   -6.6648   17.0855 H   0  0  0  0  0  0
   16.5405   -8.6308   18.9843 H   0  0  0  0  0  0
   17.7334   -7.7572   18.0433 H   0  0  0  0  0  0
   19.1275  -10.4752   13.3955 H   0  0  0  0  0  0
   17.3551   -6.5691   15.8286 H   0  0  0  0  0  0
   15.1447  -12.8833   17.0828 H   0  0  0  0  0  0
   16.0848  -13.4241   15.7484 H   0  0  0  0  0  0
   16.8382  -13.3014   17.3457 H   0  0  0  0  0  0
   20.0099   -8.2454   12.9810 H   0  0  0  0  0  0
  1  2  1  0  0  0
  1  4  1  0  0  0
  1  6  1  0  0  0
  1 10  1  0  0  0
  2  3  1  0  0  0
  2 12  2  0  0  0
  3 17  1  0  0  0
  3  5  1  0  0  0
  4  7  1  0  0  0
  4 14  2  0  0  0
  5  8  1  0  0  0
  5 15  2  0  0  0
  6  8  1  0  0  0
  6 13  2  0  0  0
  7  9  1  0  0  0
  7 21  1  0  0  0
  8 11  2  0  0  0
  9 10  1  0  0  0
  9 16  2  0  0  0
 10 22  1  0  0  0
 10 23  1  0  0  0
 11 19  1  0  0  0
 11 24  1  0  0  0
 13 18  1  0  0  0
 13 25  1  0  0  0
 17 26  1  0  0  0
 17 27  1  0  0  0
 17 28  1  0  0  0
 18 19  2  0  0  0
 18 20  1  0  0  0
 19 29  1  0  0  0
M  END
> <s_m_entry_id>
6616

> <s_m_entry_name>
dock_pv.451

> <s_m_Source_Path>
/home/csk/Desktop/cluster/DUD-E-result/aldr

> <s_m_Source_File>
dock_pv.maegz

> <i_m_Source_File_Index>
451

> <chembl_id>
CHEMBL10382

> <chembl_pref_name>
None

> <i_lp_mmshare_version>
53161

> <i_f3d_flags>
0

> <r_lp_tautomer_probability>
0.99999999995914

> <s_lp_Force_Field>
OPLS_2005

> <r_lp_Energy>
30.650995

> <b_lp_Chiralities_Consistent>
1

> <s_lp_Variant>
CHEMBL1900_lig71-2

> <s_i_glide_gridfile>
glide-grid_2hv5

> <i_i_glide_lignum>
109

> <i_i_glide_rotatable_bonds>
0

> <r_i_docking_score>
-7.5840608611506

> <r_i_glide_ligand_efficiency>
-0.37920304305753

> <r_i_glide_ligand_efficiency_sa>
-1.02931541931391

> <r_i_glide_ligand_efficiency_ln>
-1.89804029447773

> <r_i_glide_gscore>
-7.5840608611506

> <r_i_glide_lipo>
-2.31929622385056

> <r_i_glide_hbond>
-0.0176195189107772

> <r_i_glide_metal>
0

> <r_i_glide_rewards>
-3.50691946950926

> <r_i_glide_evdw>
-31.1237754821777

> <r_i_glide_ecoul>
-1.22691249847412

> <r_i_glide_erotb>
0

> <r_i_glide_esite>
0

> <r_i_glide_emodel>
-41.3807598782353

> <r_i_glide_energy>
-32.3506879806519

> <r_i_glide_einternal>
0

> <i_i_glide_confnum>
1

> <i_i_glide_posenum>
14

> <r_i_glide_eff_state_penalty>
0

> <s_user_duplicate_titles>
CHEMBL1900_lig71,7503

> <s_m_subgroup_title>
dock_pv

> <s_m_subgroupid>
dock_pv

> <b_m_subgroup_collapsed>
1

$$$$
CHEMBL1900_lig131
                    3D
 Schrodinger Suite 2021-1.
 28 30  0  0  1  0            999 V2000
   16.2981   -9.6155   16.5446 C   0  0  2  0  0  0
   16.0798   -8.3120   17.2779 N   0  0  0  0  0  0
   14.9464  -10.2139   16.1810 C   0  0  0  0  0  0
   16.0757   -7.1042   16.6281 C   0  0  0  0  0  0
   16.7674  -10.6874   17.3810 N   0  0  0  0  0  0
   14.7615  -11.2555   17.0054 N   0  0  0  0  0  0
   17.2351   -9.4326   15.3153 C   0  0  0  0  0  0
   15.8197  -11.5457   17.7788 C   0  0  0  0  0  0
   16.8973   -7.0656   15.5693 N   0  0  0  0  0  0
   17.5713   -8.1142   14.9701 C   0  0  0  0  0  0
   15.4013   -6.1149   16.9172 O   0  0  0  0  0  0
   14.1453   -9.7561   15.3810 O   0  0  0  0  0  0
   17.8435  -10.4679   14.5650 C   0  0  0  0  0  0
   15.9607  -12.5147   18.5177 O   0  0  0  0  0  0
   15.4080   -8.3161   18.5804 C   0  0  0  0  0  0
   17.4406  -12.1388   14.7676 Cl  0  0  0  0  0  0
   18.5471   -7.8210   14.0232 C   0  0  0  0  0  0
   19.2041   -8.8588   13.3809 C   0  0  0  0  0  0
   18.8240  -10.1746   13.6172 C   0  0  0  0  0  0
   17.6085  -10.5321   17.9138 H   0  0  0  0  0  0
   13.9465  -11.8473   16.9610 H   0  0  0  0  0  0
   17.0040   -6.1435   15.1763 H   0  0  0  0  0  0
   15.3456   -7.3063   18.9845 H   0  0  0  0  0  0
   14.3982   -8.7172   18.4927 H   0  0  0  0  0  0
   15.9518   -8.9146   19.3037 H   0  0  0  0  0  0
   18.8110   -6.7984   13.7929 H   0  0  0  0  0  0
   19.9838   -8.6345   12.6699 H   0  0  0  0  0  0
   19.3056  -10.9731   13.0717 H   0  0  0  0  0  0
  1  2  1  0  0  0
  1  3  1  0  0  0
  1  5  1  0  0  0
  1  7  1  0  0  0
  2  4  1  0  0  0
  2 15  1  0  0  0
  3  6  1  0  0  0
  3 12  2  0  0  0
  4 11  2  0  0  0
  4  9  1  0  0  0
  5  8  1  0  0  0
  5 20  1  0  0  0
  6  8  1  0  0  0
  6 21  1  0  0  0
  7 10  1  0  0  0
  7 13  2  0  0  0
  8 14  2  0  0  0
  9 10  1  0  0  0
  9 22  1  0  0  0
 10 17  2  0  0  0
 13 16  1  0  0  0
 13 19  1  0  0  0
 15 23  1  0  0  0
 15 24  1  0  0  0
 15 25  1  0  0  0
 17 18  1  0  0  0
 17 26  1  0  0  0
 18 19  2  0  0  0
 18 27  1  0  0  0
 19 28  1  0  0  0
M  END
> <s_m_entry_id>
6617

> <s_m_entry_name>
dock_pv.452

> <s_m_Source_Path>
/home/csk/Desktop/cluster/DUD-E-result/aldr

> <s_m_Source_File>
dock_pv.maegz

> <i_m_Source_File_Index>
452

> <chembl_id>
CHEMBL63866

> <chembl_pref_name>
None

> <i_lp_mmshare_version>
53161

> <i_f3d_flags>
0

> <r_lp_tautomer_probability>
0.99999999978137

> <s_lp_Force_Field>
OPLS_2005

> <r_lp_Energy>
39.859832

> <b_lp_Chiralities_Consistent>
1

> <s_lp_Variant>
CHEMBL1900_lig131-1

> <s_i_glide_gridfile>
glide-grid_2hv5

> <i_i_glide_lignum>
199

> <i_i_glide_rotatable_bonds>
0

> <r_i_docking_score>
-7.55080754652927

> <r_i_glide_ligand_efficiency>
-0.397410923501541

> <r_i_glide_ligand_efficiency_sa>
-1.06045196245081

> <r_i_glide_ligand_efficiency_ln>
-1.91429188952112

> <r_i_glide_gscore>
-7.55080754652927

> <r_i_glide_lipo>
-1.71371005227317

> <r_i_glide_hbond>
-0.590885839532868

> <r_i_glide_metal>
0

> <r_i_glide_rewards>
-3.17307805616643

> <r_i_glide_evdw>
-24.8627605438232

> <r_i_glide_ecoul>
-5.42398977279663

> <r_i_glide_erotb>
0

> <r_i_glide_esite>
-0.0163971054461542

> <r_i_glide_emodel>
-38.5651537981575

> <r_i_glide_energy>
-30.2867503166199

> <r_i_glide_einternal>
0

> <i_i_glide_confnum>
1

> <i_i_glide_posenum>
2

> <r_i_glide_eff_state_penalty>
0

> <s_user_duplicate_titles>
CHEMBL1900_lig131,101689

> <s_m_subgroup_title>
dock_pv

> <s_m_subgroupid>
dock_pv

> <b_m_subgroup_collapsed>
1

$$$$
CHEMBL1900_lig67
                    3D
 Schrodinger Suite 2021-1.
 29 31  0  0  1  0            999 V2000
   16.9174   -7.8898   16.4825 C   0  0  1  0  0  0
   17.8746   -7.6448   15.2660 C   0  0  0  0  0  0
   18.1905   -8.7529   14.5187 N   0  0  0  0  0  0
   15.7359   -6.9293   16.3211 C   0  0  0  0  0  0
   17.7629  -10.0509   14.6416 C   0  0  0  0  0  0
   16.3606   -9.3187   16.6458 C   0  0  0  0  0  0
   15.6958   -6.1035   17.3799 N   0  0  0  0  0  0
   16.7813  -10.3222   15.7602 C   0  0  0  0  0  0
   16.6682   -6.2615   18.2842 C   0  0  0  0  0  0
   17.5646   -7.3653   17.7734 C   0  0  0  0  0  0
   16.3052  -11.6361   15.8912 C   0  0  0  0  0  0
   18.3127   -6.5155   15.0110 O   0  0  0  0  0  0
   15.4491   -9.6797   17.6566 C   0  0  0  0  0  0
   14.9508   -6.9160   15.3817 O   0  0  0  0  0  0
   18.1612  -10.9529   13.8973 O   0  0  0  0  0  0
   16.8055   -5.6407   19.3333 O   0  0  0  0  0  0
   19.1053   -8.4784   13.3816 C   0  0  0  0  0  0
   14.9823  -10.9862   17.7847 C   0  0  0  0  0  0
   15.4061  -11.9640   16.8977 C   0  0  0  0  0  0
   14.1449  -11.3148   18.7899 F   0  0  0  0  0  0
   14.9843   -5.4030   17.4885 H   0  0  0  0  0  0
   17.6135   -8.1150   18.5569 H   0  0  0  0  0  0
   18.5739   -6.9652   17.6569 H   0  0  0  0  0  0
   16.6239  -12.4168   15.2123 H   0  0  0  0  0  0
   15.1072   -8.9443   18.3678 H   0  0  0  0  0  0
   18.8117   -7.5648   12.8618 H   0  0  0  0  0  0
   20.1268   -8.3364   13.7446 H   0  0  0  0  0  0
   19.1258   -9.2554   12.6142 H   0  0  0  0  0  0
   15.0390  -12.9747   16.9951 H   0  0  0  0  0  0
  1  2  1  0  0  0
  1  4  1  0  0  0
  1  6  1  0  0  0
  1 10  1  0  0  0
  2  3  1  0  0  0
  2 12  2  0  0  0
  3 17  1  0  0  0
  3  5  1  0  0  0
  4  7  1  0  0  0
  4 14  2  0  0  0
  5  8  1  0  0  0
  5 15  2  0  0  0
  6  8  1  0  0  0
  6 13  2  0  0  0
  7  9  1  0  0  0
  7 21  1  0  0  0
  8 11  2  0  0  0
  9 10  1  0  0  0
  9 16  2  0  0  0
 10 22  1  0  0  0
 10 23  1  0  0  0
 11 19  1  0  0  0
 11 24  1  0  0  0
 13 18  1  0  0  0
 13 25  1  0  0  0
 17 26  1  0  0  0
 17 27  1  0  0  0
 17 28  1  0  0  0
 18 19  2  0  0  0
 18 20  1  0  0  0
 19 29  1  0  0  0
M  END
> <s_m_entry_id>
6618

> <s_m_entry_name>
dock_pv.453

> <s_m_Source_Path>
/home/csk/Desktop/cluster/DUD-E-result/aldr

> <s_m_Source_File>
dock_pv.maegz

> <i_m_Source_File_Index>
453

> <chembl_id>
CHEMBL10615

> <chembl_pref_name>
None

> <i_lp_mmshare_version>
53161

> <i_f3d_flags>
0

> <r_lp_tautomer_probability>
0.99999999995914

> <s_lp_Force_Field>
OPLS_2005

> <r_lp_Energy>
30.939939

> <b_lp_Chiralities_Consistent>
1

> <s_lp_Variant>
CHEMBL1900_lig67-1

> <s_i_glide_gridfile>
glide-grid_2hv5

> <i_i_glide_lignum>
102

> <i_i_glide_rotatable_bonds>
0

> <r_i_docking_score>
-7.54599891713439

> <r_i_glide_ligand_efficiency>
-0.377299945856719

> <r_i_glide_ligand_efficiency_sa>
-1.02414961875109

> <r_i_glide_ligand_efficiency_ln>
-1.88851464525741

> <r_i_glide_gscore>
-7.54599891713439

> <r_i_glide_lipo>
-1.96171645200138

> <r_i_glide_hbond>
-0.182445125631076

> <r_i_glide_metal>
0

> <r_i_glide_rewards>
-3.9625648910814

> <r_i_glide_evdw>
-30.3458671569824

> <r_i_glide_ecoul>
0.520139396190643

> <r_i_glide_erotb>
0

> <r_i_glide_esite>
0

> <r_i_glide_emodel>
-41.9331785888091

> <r_i_glide_energy>
-29.8257277607918

> <r_i_glide_einternal>
0

> <i_i_glide_confnum>
1

> <i_i_glide_posenum>
37

> <r_i_glide_eff_state_penalty>
0

> <s_user_duplicate_titles>
CHEMBL1900_lig67,7496

> <s_m_subgroup_title>
dock_pv

> <s_m_subgroupid>
dock_pv

> <b_m_subgroup_collapsed>
1

$$$$
CHEMBL1900_lig561
                    3D
 Schrodinger Suite 2021-1.
 43 46  0  0  1  0            999 V2000
   14.5455  -12.2059   18.6950 C   0  0  0  0  0  0
   15.3102  -13.2984   18.3161 C   0  0  0  0  0  0
   16.3345  -13.1842   17.3828 C   0  0  0  0  0  0
   14.7873  -10.9379   18.1735 C   0  0  0  0  0  0
   15.8029  -10.7850   17.2248 C   0  0  0  0  0  0
   16.5636  -11.9167   16.8281 C   0  0  0  0  0  0
   17.4701  -11.4989   15.8582 N   0  0  0  0  0  0
   16.3158   -9.6750   16.5006 C   0  0  0  0  0  0
   17.3320  -10.1152   15.6511 C   0  0  0  0  0  0
   18.0068   -9.1875   14.7297 C   0  0  0  0  0  0
   17.8303   -7.8434   15.0485 N   0  0  0  0  0  0
   17.1457   -7.3836   16.2813 C   0  0  0  0  0  0
   15.8860   -8.2283   16.5475 C   0  0  0  0  0  0
   18.8990   -9.6588   13.3816 S   0  0  0  0  0  0
   18.4311   -6.7439   14.2647 C   0  0  0  0  0  0
   17.6287   -6.2511   13.0605 C   0  0  0  0  0  0
   18.2991   -5.4456   12.1517 C   0  0  0  0  0  0
   17.6308   -4.8506   11.0983 C   0  0  0  0  0  0
   16.2684   -5.0643   10.9632 C   0  0  0  0  0  0
   15.5838   -5.9189   11.8236 C   0  0  0  0  0  0
   16.2720   -6.5149   12.8771 C   0  0  0  0  0  0
   18.4069  -12.4467   15.2271 C   0  0  0  0  0  0
   17.8155  -13.1999   14.0242 C   0  0  0  0  0  0
   16.6346  -13.5140   13.9301 O   0  0  0  0  0  0
   18.7743  -13.4947   13.1024 O   0  0  0  0  0  0
   15.3452   -4.1163    9.6125 Br  0  0  0  0  0  0
   13.7380  -12.3499   19.3905 H   0  0  0  0  0  0
   15.0854  -14.2521   18.7638 H   0  0  0  0  0  0
   16.9123  -14.0467   17.0902 H   0  0  0  0  0  0
   14.1910  -10.0956   18.4836 H   0  0  0  0  0  0
   16.8563   -6.3367   16.2061 H   0  0  0  0  0  0
   17.8418   -7.4613   17.1192 H   0  0  0  0  0  0
   15.1040   -8.0105   15.8158 H   0  0  0  0  0  0
   15.4752   -7.9617   17.5188 H   0  0  0  0  0  0
   19.4542   -6.9908   13.9641 H   0  0  0  0  0  0
   18.5632   -5.8777   14.9172 H   0  0  0  0  0  0
   19.3449   -5.2705   12.2906 H   0  0  0  0  0  0
   18.1471   -4.1984   10.4102 H   0  0  0  0  0  0
   14.5238   -6.0757   11.7115 H   0  0  0  0  0  0
   15.7427   -7.1359   13.5724 H   0  0  0  0  0  0
   18.7000  -13.1881   15.9656 H   0  0  0  0  0  0
   19.3407  -11.9647   14.9794 H   0  0  0  0  0  0
   18.3628  -13.9149   12.3453 H   0  0  0  0  0  0
  1  2  1  0  0  0
  1  4  2  0  0  0
  1 27  1  0  0  0
  2  3  2  0  0  0
  2 28  1  0  0  0
  3  6  1  0  0  0
  3 29  1  0  0  0
  4  5  1  0  0  0
  4 30  1  0  0  0
  5  8  1  0  0  0
  5  6  2  0  0  0
  6  7  1  0  0  0
  7  9  1  0  0  0
  7 22  1  0  0  0
  8  9  2  0  0  0
  8 13  1  0  0  0
  9 10  1  0  0  0
 10 11  1  0  0  0
 10 14  2  0  0  0
 11 12  1  0  0  0
 11 15  1  0  0  0
 12 13  1  0  0  0
 12 31  1  0  0  0
 12 32  1  0  0  0
 13 33  1  0  0  0
 13 34  1  0  0  0
 15 16  1  0  0  0
 15 35  1  0  0  0
 15 36  1  0  0  0
 16 17  2  0  0  0
 16 21  1  0  0  0
 17 18  1  0  0  0
 17 37  1  0  0  0
 18 19  2  0  0  0
 18 38  1  0  0  0
 19 20  1  0  0  0
 19 26  1  0  0  0
 20 21  2  0  0  0
 20 39  1  0  0  0
 21 40  1  0  0  0
 22 23  1  0  0  0
 22 41  1  0  0  0
 22 42  1  0  0  0
 23 24  2  0  0  0
 23 25  1  0  0  0
 25 43  1  0  0  0
M  END
> <s_m_entry_id>
6619

> <s_m_entry_name>
dock_pv.454

> <s_m_Source_Path>
/home/csk/Desktop/cluster/DUD-E-result/aldr

> <s_m_Source_File>
dock_pv.maegz

> <i_m_Source_File_Index>
454

> <chembl_id>
CHEMBL1946964

> <chembl_pref_name>
None

> <i_lp_mmshare_version>
53161

> <i_f3d_flags>
0

> <r_lp_tautomer_probability>
1

> <s_lp_Force_Field>
OPLS_2005

> <r_lp_Energy>
38.117984

> <b_lp_Chiralities_Consistent>
1

> <s_lp_Variant>
CHEMBL1900_lig561-1

> <s_i_glide_gridfile>
glide-grid_2hv5

> <i_i_glide_lignum>
684

> <i_i_glide_rotatable_bonds>
5

> <r_i_docking_score>
-7.54331993689211

> <r_i_glide_ligand_efficiency>
-0.290127689880466

> <r_i_glide_ligand_efficiency_sa>
-0.859502139673546

> <r_i_glide_ligand_efficiency_ln>
-1.77152393552756

> <r_i_glide_gscore>
-7.54331993689211

> <r_i_glide_lipo>
-3.59249515219233

> <r_i_glide_hbond>
0

> <r_i_glide_metal>
0

> <r_i_glide_rewards>
-2.52778013017184

> <r_i_glide_evdw>
-35.6591110229492

> <r_i_glide_ecoul>
-0.475442171096802

> <r_i_glide_erotb>
0.431227222284035

> <r_i_glide_esite>
0

> <r_i_glide_emodel>
-37.4924322053878

> <r_i_glide_energy>
-36.134553194046

> <r_i_glide_einternal>
3.17232799530029

> <i_i_glide_confnum>
18

> <i_i_glide_posenum>
355

> <r_i_glide_eff_state_penalty>
0

> <s_user_duplicate_titles>
CHEMBL1900_lig561

> <s_m_subgroup_title>
dock_pv

> <s_m_subgroupid>
dock_pv

> <b_m_subgroup_collapsed>
1

$$$$
CHEMBL1900_lig105
                    3D
 Schrodinger Suite 2021-1.
 28 30  0  0  1  0            999 V2000
   16.2865   -9.6444   16.5758 C   0  0  2  0  0  0
   16.1414   -8.3203   17.2851 N   0  0  0  0  0  0
   17.1742   -9.5076   15.3304 C   0  0  0  0  0  0
   14.9348  -10.2136   16.1754 C   0  0  0  0  0  0
   16.1063   -7.1264   16.6076 C   0  0  0  0  0  0
   16.7361  -10.7466   17.3810 N   0  0  0  0  0  0
   14.7809  -11.3579   16.8571 N   0  0  0  0  0  0
   15.8044  -11.6598   17.6692 C   0  0  0  0  0  0
   16.7675   -7.1473   15.4369 N   0  0  0  0  0  0
   17.4346   -8.2154   14.8588 C   0  0  0  0  0  0
   17.8178  -10.5887   14.7090 C   0  0  0  0  0  0
   15.5230   -6.1032   16.9641 O   0  0  0  0  0  0
   14.1451   -9.7162   15.3820 O   0  0  0  0  0  0
   15.8431  -12.5091   18.5554 O   0  0  0  0  0  0
   18.3536   -7.9904   13.8418 C   0  0  0  0  0  0
   15.7020   -8.2835   18.6797 C   0  0  0  0  0  0
   18.7400  -10.3752   13.6935 C   0  0  0  0  0  0
   19.0196   -9.0760   13.2888 C   0  0  0  0  0  0
   19.5617  -11.7088   12.9710 Cl  0  0  0  0  0  0
   17.7211  -10.8943   17.5394 H   0  0  0  0  0  0
   13.9581  -11.9348   16.7790 H   0  0  0  0  0  0
   16.8307   -6.2425   14.9955 H   0  0  0  0  0  0
   17.6287  -11.6000   15.0387 H   0  0  0  0  0  0
   18.5680   -6.9908   13.4924 H   0  0  0  0  0  0
   15.3458   -7.2981   18.9810 H   0  0  0  0  0  0
   16.5368   -8.5149   19.3330 H   0  0  0  0  0  0
   14.8983   -8.9956   18.8616 H   0  0  0  0  0  0
   19.7435   -8.9148   12.5205 H   0  0  0  0  0  0
  1  2  1  0  0  0
  1  3  1  0  0  0
  1  4  1  0  0  0
  1  6  1  0  0  0
  2  5  1  0  0  0
  2 16  1  0  0  0
  3 10  1  0  0  0
  3 11  2  0  0  0
  4  7  1  0  0  0
  4 13  2  0  0  0
  5 12  2  0  0  0
  5  9  1  0  0  0
  6  8  1  0  0  0
  6 20  1  0  0  0
  7  8  1  0  0  0
  7 21  1  0  0  0
  8 14  2  0  0  0
  9 10  1  0  0  0
  9 22  1  0  0  0
 10 15  2  0  0  0
 11 17  1  0  0  0
 11 23  1  0  0  0
 15 18  1  0  0  0
 15 24  1  0  0  0
 16 25  1  0  0  0
 16 26  1  0  0  0
 16 27  1  0  0  0
 17 18  2  0  0  0
 17 19  1  0  0  0
 18 28  1  0  0  0
M  END
> <s_m_entry_id>
6620

> <s_m_entry_name>
dock_pv.455

> <s_m_Source_Path>
/home/csk/Desktop/cluster/DUD-E-result/aldr

> <s_m_Source_File>
dock_pv.maegz

> <i_m_Source_File_Index>
455

> <chembl_id>
CHEMBL292723

> <chembl_pref_name>
None

> <i_lp_mmshare_version>
53161

> <i_f3d_flags>
0

> <r_lp_tautomer_probability>
0.99999999978137

> <s_lp_Force_Field>
OPLS_2005

> <r_lp_Energy>
34.786127

> <b_lp_Chiralities_Consistent>
1

> <s_lp_Variant>
CHEMBL1900_lig105-1

> <s_i_glide_gridfile>
glide-grid_2hv5

> <i_i_glide_lignum>
151

> <i_i_glide_rotatable_bonds>
0

> <r_i_docking_score>
-7.5412458064807

> <r_i_glide_ligand_efficiency>
-0.3969076740253

> <r_i_glide_ligand_efficiency_sa>
-1.05910909072001

> <r_i_glide_ligand_efficiency_ln>
-1.91186778305146

> <r_i_glide_gscore>
-7.5412458064807

> <r_i_glide_lipo>
-1.69377207681753

> <r_i_glide_hbond>
-0.527015594223214

> <r_i_glide_metal>
0

> <r_i_glide_rewards>
-3.35260972530408

> <r_i_glide_evdw>
-25.1788749694824

> <r_i_glide_ecoul>
-4.65003395080566

> <r_i_glide_erotb>
0

> <r_i_glide_esite>
-0.0113995690408942

> <r_i_glide_emodel>
-41.311871025087

> <r_i_glide_energy>
-29.8289089202881

> <r_i_glide_einternal>
0

> <i_i_glide_confnum>
1

> <i_i_glide_posenum>
3

> <r_i_glide_eff_state_penalty>
0

> <s_user_duplicate_titles>
CHEMBL1900_lig105,CHEMBL1900_lig134,102541,102259

> <s_m_subgroup_title>
dock_pv

> <s_m_subgroupid>
dock_pv

> <b_m_subgroup_collapsed>
1

$$$$
CHEMBL1900_lig203
                    3D
 Schrodinger Suite 2021-1.
 31 32  0  0  1  0            999 V2000
   16.5875   -7.2156   17.5915 C   0  0  0  0  0  0
   17.2718   -8.1878   15.6352 N   0  0  0  0  0  0
   15.9890   -8.4064   17.4450 C   0  0  0  0  0  0
   16.4065   -9.0518   16.2128 C   0  0  0  0  0  0
   17.4965   -7.0002   16.4273 C   0  0  0  0  0  0
   16.4615   -6.2309   18.6539 C   0  0  0  0  0  0
   17.9570   -8.4272   14.3644 C   0  0  0  0  0  0
   17.7383   -7.2802   13.3993 C   0  0  0  0  0  0
   16.0528  -10.1492   15.7803 O   0  0  0  0  0  0
   16.5356   -7.2222   12.7742 O   0  0  0  0  0  0
   16.1459   -6.5152   19.8083 O   0  0  0  0  0  0
   18.4994   -6.1858   13.0208 C   0  0  0  0  0  0
   16.5381   -6.1220   11.9781 C   0  0  0  0  0  0
   17.7463   -5.4627   12.0929 C   0  0  0  0  0  0
   15.0720   -9.0941   18.1804 O   0  0  0  0  0  0
   16.7042   -4.9791   18.2216 O   0  0  0  0  0  0
   16.5375   -3.8568   19.0736 C   0  0  0  0  0  0
   16.1452   -2.6807   18.1811 C   0  0  0  0  0  0
   17.2389   -6.1150   15.8485 H   0  0  0  0  0  0
   18.5479   -6.9140   16.7045 H   0  0  0  0  0  0
   19.0235   -8.5058   14.5822 H   0  0  0  0  0  0
   17.6729   -9.3799   13.9153 H   0  0  0  0  0  0
   19.4854   -5.9488   13.3822 H   0  0  0  0  0  0
   15.6393   -5.9390   11.4045 H   0  0  0  0  0  0
   18.0343   -4.5536   11.5865 H   0  0  0  0  0  0
   14.8655   -9.9174   17.7285 H   0  0  0  0  0  0
   17.4661   -3.6518   19.6082 H   0  0  0  0  0  0
   15.7582   -4.0222   19.8222 H   0  0  0  0  0  0
   15.9605   -1.7838   18.7732 H   0  0  0  0  0  0
   15.2349   -2.9125   17.6223 H   0  0  0  0  0  0
   16.9446   -2.4741   17.4645 H   0  0  0  0  0  0
  1  3  2  0  0  0
  1  5  1  0  0  0
  1  6  1  0  0  0
  2  5  1  0  0  0
  2  7  1  0  0  0
  2  4  1  0  0  0
  3  4  1  0  0  0
  3 15  1  0  0  0
  4  9  2  0  0  0
  5 19  1  0  0  0
  5 20  1  0  0  0
  6 11  2  0  0  0
  6 16  1  0  0  0
  7  8  1  0  0  0
  7 21  1  0  0  0
  7 22  1  0  0  0
  8 10  1  0  0  0
  8 12  2  0  0  0
 10 13  1  0  0  0
 12 14  1  0  0  0
 12 23  1  0  0  0
 13 14  2  0  0  0
 13 24  1  0  0  0
 14 25  1  0  0  0
 15 26  1  0  0  0
 16 17  1  0  0  0
 17 18  1  0  0  0
 17 27  1  0  0  0
 17 28  1  0  0  0
 18 29  1  0  0  0
 18 30  1  0  0  0
 18 31  1  0  0  0
M  END
> <s_m_entry_id>
6621

> <s_m_entry_name>
dock_pv.456

> <s_m_Source_Path>
/home/csk/Desktop/cluster/DUD-E-result/aldr

> <s_m_Source_File>
dock_pv.maegz

> <i_m_Source_File_Index>
456

> <chembl_id>
CHEMBL7304

> <chembl_pref_name>
None

> <i_lp_mmshare_version>
53161

> <i_f3d_flags>
0

> <r_lp_tautomer_probability>
1

> <s_lp_Force_Field>
OPLS_2005

> <r_lp_Energy>
16.782721

> <b_lp_Chiralities_Consistent>
1

> <s_lp_Variant>
CHEMBL1900_lig203-1

> <s_i_glide_gridfile>
glide-grid_2hv5

> <i_i_glide_lignum>
279

> <i_i_glide_rotatable_bonds>
6

> <r_i_docking_score>
-7.5283762688819

> <r_i_glide_ligand_efficiency>
-0.418243126048995

> <r_i_glide_ligand_efficiency_sa>
-1.09610707222388

> <r_i_glide_ligand_efficiency_ln>
-1.93513030049167

> <r_i_glide_gscore>
-7.5283762688819

> <r_i_glide_lipo>
-2.81763327274441

> <r_i_glide_hbond>
-0.0171642299195702

> <r_i_glide_metal>
0

> <r_i_glide_rewards>
-3.67727262180722

> <r_i_glide_evdw>
-35.8356704711914

> <r_i_glide_ecoul>
-2.2339723110199

> <r_i_glide_erotb>
1.11057322580186

> <r_i_glide_esite>
0

> <r_i_glide_emodel>
-52.2597670553301

> <r_i_glide_energy>
-38.0696427822113

> <r_i_glide_einternal>
4.66270780563354

> <i_i_glide_confnum>
1

> <i_i_glide_posenum>
8

> <r_i_glide_eff_state_penalty>
0

> <s_user_duplicate_titles>
CHEMBL1900_lig203

> <s_m_subgroup_title>
dock_pv

> <s_m_subgroupid>
dock_pv

> <b_m_subgroup_collapsed>
1

$$$$
CHEMBL1900_lig31
                    3D
 Schrodinger Suite 2021-1.
 26 27  0  0  1  0            999 V2000
   18.2981   -6.3125   12.9016 N   0  0  0  0  0  0
   17.1540   -8.5941   15.3257 C   0  0  0  0  0  0
   18.6247   -6.8123   14.0974 C   0  0  0  0  0  0
   17.3101   -7.1726   14.7546 C   0  0  1  0  0  0
   16.9988   -6.4252   12.5770 C   0  0  0  0  0  0
   16.4064   -6.9139   13.6700 N   0  0  0  0  0  0
   16.3015   -8.8607   16.4215 C   0  0  0  0  0  0
   15.2799   -7.5923   17.2675 S   0  0  2  0  0  0
   16.1617  -10.1637   16.9057 C   0  0  0  0  0  0
   17.8397   -9.6731   14.7418 C   0  0  0  0  0  0
   19.7466   -6.9151   14.5807 O   0  0  0  0  0  0
   16.5010   -6.2646   11.4689 O   0  0  0  0  0  0
   14.9333   -6.5151   16.2402 O   0  0  0  0  0  0
   17.6928  -10.9702   15.2294 C   0  0  0  0  0  0
   16.8564  -11.2151   16.3143 C   0  0  0  0  0  0
   18.5453  -12.2729   14.4865 Cl  0  0  0  0  0  0
   16.6295   -6.9221   18.3467 C   0  0  0  0  0  0
   18.9904   -5.9951   12.2438 H   0  0  0  0  0  0
   17.1581   -6.4265   15.5276 H   0  0  0  0  0  0
   15.4188   -6.8058   13.8501 H   0  0  0  0  0  0
   15.5011  -10.3666   17.7370 H   0  0  0  0  0  0
   18.4885   -9.5165   13.8923 H   0  0  0  0  0  0
   16.7371  -12.2211   16.6895 H   0  0  0  0  0  0
   17.0231   -7.7136   18.9819 H   0  0  0  0  0  0
   17.4500   -6.5157   17.7569 H   0  0  0  0  0  0
   16.2405   -6.1260   18.9798 H   0  0  0  0  0  0
  1  3  1  0  0  0
  1  5  1  0  0  0
  1 18  1  0  0  0
  2  4  1  0  0  0
  2  7  2  0  0  0
  2 10  1  0  0  0
  3  4  1  0  0  0
  3 11  2  0  0  0
  4  6  1  0  0  0
  4 19  1  0  0  0
  5  6  1  0  0  0
  5 12  2  0  0  0
  6 20  1  0  0  0
  7  8  1  0  0  0
  7  9  1  0  0  0
  8 13  2  0  0  0
  8 17  1  0  0  0
  9 15  2  0  0  0
  9 21  1  0  0  0
 10 14  2  0  0  0
 10 22  1  0  0  0
 14 15  1  0  0  0
 14 16  1  0  0  0
 15 23  1  0  0  0
 17 24  1  0  0  0
 17 25  1  0  0  0
 17 26  1  0  0  0
M  END
> <s_m_entry_id>
6622

> <s_m_entry_name>
dock_pv.457

> <s_m_Source_Path>
/home/csk/Desktop/cluster/DUD-E-result/aldr

> <s_m_Source_File>
dock_pv.maegz

> <i_m_Source_File_Index>
457

> <chembl_id>
CHEMBL279274

> <chembl_pref_name>
None

> <i_lp_mmshare_version>
53161

> <i_f3d_flags>
0

> <r_lp_tautomer_probability>
0.999999999781369

> <s_lp_Force_Field>
OPLS_2005

> <r_lp_Energy>
17.865105

> <b_lp_Chiralities_Consistent>
1

> <s_lp_Variant>
CHEMBL1900_lig31-2

> <s_i_glide_gridfile>
glide-grid_2hv5

> <i_i_glide_lignum>
59

> <i_i_glide_rotatable_bonds>
2

> <r_i_docking_score>
-7.52808260631796

> <r_i_glide_ligand_efficiency>
-0.442828388606939

> <r_i_glide_ligand_efficiency_sa>
-1.13863648237054

> <r_i_glide_ligand_efficiency_ln>
-1.96390910983105

> <r_i_glide_gscore>
-7.52808260631796

> <r_i_glide_lipo>
-1.74754080820589

> <r_i_glide_hbond>
-0.32

> <r_i_glide_metal>
0

> <r_i_glide_rewards>
-3.51524169675121

> <r_i_glide_evdw>
-35.0701065063477

> <r_i_glide_ecoul>
-2.88559579849243

> <r_i_glide_erotb>
0.241044593730377

> <r_i_glide_esite>
0

> <r_i_glide_emodel>
-53.8097065343348

> <r_i_glide_energy>
-37.9557023048401

> <r_i_glide_einternal>
1.285311460495

> <i_i_glide_confnum>
1

> <i_i_glide_posenum>
69

> <r_i_glide_eff_state_penalty>
0

> <s_user_duplicate_titles>
CHEMBL1900_lig31

> <s_m_subgroup_title>
dock_pv

> <s_m_subgroupid>
dock_pv

> <b_m_subgroup_collapsed>
1

$$$$
CHEMBL1900_lig427
                    3D
 Schrodinger Suite 2021-1.
 24 25  0  0  1  0            999 V2000
   18.2167   -6.9710   13.4969 S   0  0  0  0  0  0
   17.1960   -7.2746   14.9521 C   0  0  0  0  0  0
   16.0127   -7.7150   14.7313 N   0  0  0  0  0  0
   17.2566   -6.0346   12.2585 C   0  0  0  0  0  0
   15.1347   -7.9086   15.7810 N   0  0  0  0  0  0
   17.6053   -7.0654   16.3233 C   0  0  0  0  0  0
   15.3078   -7.5051   17.0603 C   0  0  0  0  0  0
   16.7089   -7.2099   17.3340 C   0  0  0  0  0  0
   17.9068   -5.0756   11.4848 C   0  0  0  0  0  0
   18.4791   -8.3172   12.9810 O   0  0  0  0  0  0
   19.3171   -6.1150   13.9559 O   0  0  0  0  0  0
   14.3472   -7.3150   17.7810 O   0  0  0  0  0  0
   17.2352   -4.3258   10.5198 C   0  0  0  0  0  0
   18.0931   -3.1590    9.5813 Cl  0  0  0  0  0  0
   15.8909   -6.2235   12.0321 C   0  0  0  0  0  0
   15.1937   -5.4608   11.0963 C   0  0  0  0  0  0
   15.8688   -4.5150   10.3279 C   0  0  0  0  0  0
   18.6427   -6.9150   16.5604 H   0  0  0  0  0  0
   17.0203   -7.1144   18.3643 H   0  0  0  0  0  0
   18.9450   -4.9145   11.6425 H   0  0  0  0  0  0
   14.2010   -8.1796   15.5093 H   0  0  0  0  0  0
   15.3450   -6.9629   12.5693 H   0  0  0  0  0  0
   14.1297   -5.6066   10.9810 H   0  0  0  0  0  0
   15.3369   -3.9275    9.5940 H   0  0  0  0  0  0
  1  4  1  0  0  0
  1 10  2  0  0  0
  1 11  2  0  0  0
  1  2  1  0  0  0
  2  6  1  0  0  0
  2  3  2  0  0  0
  3  5  1  0  0  0
  4  9  2  0  0  0
  4 15  1  0  0  0
  5  7  1  0  0  0
  5 21  1  0  0  0
  6  8  2  0  0  0
  6 18  1  0  0  0
  7 12  2  0  0  0
  7  8  1  0  0  0
  8 19  1  0  0  0
  9 13  1  0  0  0
  9 20  1  0  0  0
 13 14  1  0  0  0
 13 17  2  0  0  0
 15 16  2  0  0  0
 15 22  1  0  0  0
 16 17  1  0  0  0
 16 23  1  0  0  0
 17 24  1  0  0  0
M  END
> <s_m_entry_id>
6623

> <s_m_entry_name>
dock_pv.458

> <s_m_Source_Path>
/home/csk/Desktop/cluster/DUD-E-result/aldr

> <s_m_Source_File>
dock_pv.maegz

> <i_m_Source_File_Index>
458

> <chembl_id>
CHEMBL197924

> <chembl_pref_name>
None

> <i_lp_mmshare_version>
53161

> <i_f3d_flags>
0

> <r_lp_tautomer_probability>
0.998994762270461

> <s_lp_Force_Field>
OPLS_2005

> <r_lp_Energy>
20.033272

> <b_lp_Chiralities_Consistent>
1

> <s_lp_Variant>
CHEMBL1900_lig427-1

> <s_i_glide_gridfile>
glide-grid_2hv5

> <i_i_glide_lignum>
549

> <i_i_glide_rotatable_bonds>
2

> <r_i_docking_score>
-7.52031259921202

> <r_i_glide_ligand_efficiency>
-0.442371329365413

> <r_i_glide_ligand_efficiency_sa>
-1.13746125435807

> <r_i_glide_ligand_efficiency_ln>
-1.96188208800667

> <r_i_glide_gscore>
-7.52031259921202

> <r_i_glide_lipo>
-3.26912107582749

> <r_i_glide_hbond>
0

> <r_i_glide_metal>
0

> <r_i_glide_rewards>
-2.91345763636364

> <r_i_glide_evdw>
-34.9803848266602

> <r_i_glide_ecoul>
-0.513567984104156

> <r_i_glide_erotb>
0.488320551927739

> <r_i_glide_esite>
0

> <r_i_glide_emodel>
-49.3344916201721

> <r_i_glide_energy>
-35.4939528107643

> <r_i_glide_einternal>
2.76897287368774

> <i_i_glide_confnum>
4

> <i_i_glide_posenum>
210

> <r_i_glide_eff_state_penalty>
0

> <s_user_duplicate_titles>
CHEMBL1900_lig427,331198

> <s_m_subgroup_title>
dock_pv

> <s_m_subgroupid>
dock_pv

> <b_m_subgroup_collapsed>
1

$$$$
CHEMBL1900_lig90
                    3D
 Schrodinger Suite 2021-1.
 29 31  0  0  1  0            999 V2000
   17.0935   -7.6381   14.5847 C   0  0  1  0  0  0
   17.3647   -9.1302   14.8769 C   0  0  0  0  0  0
   17.0591   -9.6827   16.1436 C   0  0  0  0  0  0
   17.2459  -11.0101   16.3787 N   0  3  0  0  0  0
   18.3765   -6.2444   13.2848 N   0  0  0  0  0  0
   18.4258   -6.9165   14.4386 C   0  0  0  0  0  0
   17.2831   -6.4863   12.5474 C   0  0  0  0  0  0
   16.5450   -7.3150   13.2895 N   0  0  0  0  0  0
   16.5540   -8.9476   17.2057 O   0  0  0  0  0  0
   17.7450  -11.8460   15.4484 C   0  0  0  0  0  0
   16.2062   -7.0589   15.7170 C   0  0  0  0  0  0
   17.9371   -9.9955   13.9342 C   0  0  0  0  0  0
   16.9646  -11.5053   17.5066 O   0  5  0  0  0  0
   19.3450   -6.9150   15.2405 O   0  0  0  0  0  0
   18.1215  -11.3494   14.2044 C   0  0  0  0  0  0
   16.6627   -7.5261   17.1115 C   0  0  1  0  0  0
   17.0947   -6.1604   11.3810 O   0  0  0  0  0  0
   18.8088  -12.3913   13.0146 Cl  0  0  0  0  0  0
   15.8127   -6.9150   18.2289 C   0  0  0  0  0  0
   19.1518   -5.7003   12.9447 H   0  0  0  0  0  0
   15.5518   -7.3904   13.1366 H   0  0  0  0  0  0
   17.8526  -12.8797   15.7437 H   0  0  0  0  0  0
   15.1815   -7.4156   15.5938 H   0  0  0  0  0  0
   16.1450   -5.9771   15.6775 H   0  0  0  0  0  0
   18.2382   -9.6009   12.9810 H   0  0  0  0  0  0
   17.6999   -7.2326   17.2862 H   0  0  0  0  0  0
   15.8882   -5.8275   18.2330 H   0  0  0  0  0  0
   14.7610   -7.1814   18.1181 H   0  0  0  0  0  0
   16.1451   -7.2731   19.2043 H   0  0  0  0  0  0
  1  2  1  0  0  0
  1  6  1  0  0  0
  1  8  1  0  0  0
  1 11  1  0  0  0
  2  3  1  0  0  0
  2 12  2  0  0  0
  3  4  2  0  0  0
  3  9  1  0  0  0
  4 13  1  0  0  0
  4 10  1  0  0  0
  5  6  1  0  0  0
  5  7  1  0  0  0
  5 20  1  0  0  0
  6 14  2  0  0  0
  7  8  1  0  0  0
  7 17  2  0  0  0
  8 21  1  0  0  0
  9 16  1  0  0  0
 10 15  2  0  0  0
 10 22  1  0  0  0
 11 16  1  0  0  0
 11 23  1  0  0  0
 11 24  1  0  0  0
 12 15  1  0  0  0
 12 25  1  0  0  0
 15 18  1  0  0  0
 16 19  1  0  0  0
 16 26  1  0  0  0
 19 27  1  0  0  0
 19 28  1  0  0  0
 19 29  1  0  0  0
M  CHG  2   4   1  13  -1
M  END
> <s_m_entry_id>
6624

> <s_m_entry_name>
dock_pv.459

> <s_m_Source_Path>
/home/csk/Desktop/cluster/DUD-E-result/aldr

> <s_m_Source_File>
dock_pv.maegz

> <i_m_Source_File_Index>
459

> <chembl_id>
CHEMBL56424

> <chembl_pref_name>
None

> <i_lp_mmshare_version>
53161

> <i_f3d_flags>
0

> <r_lp_tautomer_probability>
0.99999999978137

> <s_lp_Force_Field>
OPLS_2005

> <r_lp_Energy>
23.653402

> <b_lp_Chiralities_Consistent>
1

> <s_lp_Variant>
CHEMBL1900_lig90-1

> <s_i_glide_gridfile>
glide-grid_2hv5

> <i_i_glide_lignum>
129

> <i_i_glide_rotatable_bonds>
0

> <r_i_docking_score>
-7.5161390842689

> <r_i_glide_ligand_efficiency>
-0.3955862675931

> <r_i_glide_ligand_efficiency_sa>
-1.05558304762116

> <r_i_glide_ligand_efficiency_ln>
-1.90550268972782

> <r_i_glide_gscore>
-7.5161390842689

> <r_i_glide_lipo>
-1.9358901074718

> <r_i_glide_hbond>
-0.0760779018123304

> <r_i_glide_metal>
0

> <r_i_glide_rewards>
-3.47937532818149

> <r_i_glide_evdw>
-27.157958984375

> <r_i_glide_ecoul>
-4.44598531723022

> <r_i_glide_erotb>
0

> <r_i_glide_esite>
0

> <r_i_glide_emodel>
-43.0794857005571

> <r_i_glide_energy>
-31.6039443016052

> <r_i_glide_einternal>
0

> <i_i_glide_confnum>
1

> <i_i_glide_posenum>
84

> <r_i_glide_eff_state_penalty>
0

> <s_user_duplicate_titles>
CHEMBL1900_lig90,83646

> <s_m_subgroup_title>
dock_pv

> <s_m_subgroupid>
dock_pv

> <b_m_subgroup_collapsed>
1

$$$$
CHEMBL1900_lig560
                    3D
 Schrodinger Suite 2021-1.
 43 46  0  0  1  0            999 V2000
   20.0069  -13.4253   13.6535 C   0  0  0  0  0  0
   19.0306  -14.0302   14.4314 C   0  0  0  0  0  0
   17.9446  -13.3289   14.9540 C   0  0  0  0  0  0
   19.9557  -12.0655   13.3814 C   0  0  0  0  0  0
   18.9213  -11.3104   13.9560 C   0  0  0  0  0  0
   17.9070  -11.9480   14.7205 C   0  0  0  0  0  0
   16.9983  -10.9719   15.1148 N   0  0  0  0  0  0
   18.6590   -9.9231   14.0280 C   0  0  0  0  0  0
   17.4710   -9.7164   14.7222 C   0  0  0  0  0  0
   16.9452   -8.3629   14.9118 C   0  0  0  0  0  0
   17.4042   -7.4690   13.9384 N   0  0  0  0  0  0
   18.4818   -7.7588   12.9828 C   0  0  0  0  0  0
   19.4756   -8.7519   13.5521 C   0  0  0  0  0  0
   15.8824   -7.9060   16.1359 S   0  0  0  0  0  0
   16.8928   -6.1150   13.7470 C   0  0  0  0  0  0
   16.4445   -5.7112   12.3342 C   0  0  0  0  0  0
   15.0866   -5.7331   12.0121 C   0  0  0  0  0  0
   14.6329   -5.1995   10.8121 C   0  0  0  0  0  0
   15.5415   -4.6802    9.8972 C   0  0  0  0  0  0
   16.8929   -4.6193   10.2086 C   0  0  0  0  0  0
   17.3298   -5.1085   11.4314 C   0  0  0  0  0  0
   15.7193  -11.2902   15.7817 C   0  0  0  0  0  0
   15.8153  -11.5271   17.2861 C   0  0  0  0  0  0
   16.8422  -11.8899   17.8530 O   0  0  0  0  0  0
   14.6084  -11.3564   17.8932 O   0  0  0  0  0  0
   21.0444  -14.1495   13.1797 F   0  0  0  0  0  0
   14.9507   -4.1166    8.1778 Br  0  0  0  0  0  0
   18.6135   -4.9208   11.7646 F   0  0  0  0  0  0
   19.1245  -15.0761   14.6515 H   0  0  0  0  0  0
   17.1998  -13.8267   15.5585 H   0  0  0  0  0  0
   20.7385  -11.5966   12.8121 H   0  0  0  0  0  0
   18.0310   -8.1154   12.0556 H   0  0  0  0  0  0
   19.0449   -6.8528   12.7686 H   0  0  0  0  0  0
   20.0549   -8.2990   14.3533 H   0  0  0  0  0  0
   20.1790   -8.9735   12.7691 H   0  0  0  0  0  0
   17.7438   -5.4818   13.9879 H   0  0  0  0  0  0
   16.1322   -5.8252   14.4548 H   0  0  0  0  0  0
   14.3697   -6.1150   12.7189 H   0  0  0  0  0  0
   13.5785   -5.2260   10.5796 H   0  0  0  0  0  0
   17.5946   -4.1879    9.5096 H   0  0  0  0  0  0
   15.3419  -12.2244   15.3810 H   0  0  0  0  0  0
   14.9731  -10.5369   15.5411 H   0  0  0  0  0  0
   14.6492  -11.5377   18.8331 H   0  0  0  0  0  0
  1  2  1  0  0  0
  1  4  2  0  0  0
  1 26  1  0  0  0
  2  3  2  0  0  0
  2 29  1  0  0  0
  3  6  1  0  0  0
  3 30  1  0  0  0
  4  5  1  0  0  0
  4 31  1  0  0  0
  5  8  1  0  0  0
  5  6  2  0  0  0
  6  7  1  0  0  0
  7  9  1  0  0  0
  7 22  1  0  0  0
  8  9  2  0  0  0
  8 13  1  0  0  0
  9 10  1  0  0  0
 10 14  2  0  0  0
 10 11  1  0  0  0
 11 15  1  0  0  0
 11 12  1  0  0  0
 12 13  1  0  0  0
 12 32  1  0  0  0
 12 33  1  0  0  0
 13 34  1  0  0  0
 13 35  1  0  0  0
 15 16  1  0  0  0
 15 36  1  0  0  0
 15 37  1  0  0  0
 16 17  2  0  0  0
 16 21  1  0  0  0
 17 18  1  0  0  0
 17 38  1  0  0  0
 18 19  2  0  0  0
 18 39  1  0  0  0
 19 20  1  0  0  0
 19 27  1  0  0  0
 20 21  2  0  0  0
 20 40  1  0  0  0
 21 28  1  0  0  0
 22 23  1  0  0  0
 22 41  1  0  0  0
 22 42  1  0  0  0
 23 24  2  0  0  0
 23 25  1  0  0  0
 25 43  1  0  0  0
M  END
> <s_m_entry_id>
6625

> <s_m_entry_name>
dock_pv.460

> <s_m_Source_Path>
/home/csk/Desktop/cluster/DUD-E-result/aldr

> <s_m_Source_File>
dock_pv.maegz

> <i_m_Source_File_Index>
460

> <chembl_id>
CHEMBL1946962

> <chembl_pref_name>
None

> <i_lp_mmshare_version>
53161

> <i_f3d_flags>
0

> <r_lp_tautomer_probability>
1

> <s_lp_Force_Field>
OPLS_2005

> <r_lp_Energy>
37.407738

> <b_lp_Chiralities_Consistent>
1

> <s_lp_Variant>
CHEMBL1900_lig560-1

> <s_i_glide_gridfile>
glide-grid_2hv5

> <i_i_glide_lignum>
683

> <i_i_glide_rotatable_bonds>
5

> <r_i_docking_score>
-7.51401200116628

> <r_i_glide_ligand_efficiency>
-0.268357571470224

> <r_i_glide_ligand_efficiency_sa>
-0.814891641140689

> <r_i_glide_ligand_efficiency_ln>
-1.73445459084811

> <r_i_glide_gscore>
-7.51401200116628

> <r_i_glide_lipo>
-3.42855210020288

> <r_i_glide_hbond>
-0.302262896273878

> <r_i_glide_metal>
0

> <r_i_glide_rewards>
-2.78457015770421

> <r_i_glide_evdw>
-19.5732345581055

> <r_i_glide_ecoul>
-2.61681818962097

> <r_i_glide_erotb>
0.372557609363101

> <r_i_glide_esite>
0

> <r_i_glide_emodel>
-44.4292713898927

> <r_i_glide_energy>
-22.1900527477264

> <r_i_glide_einternal>
3.34027028083801

> <i_i_glide_confnum>
5

> <i_i_glide_posenum>
286

> <r_i_glide_eff_state_penalty>
0

> <s_user_duplicate_titles>
CHEMBL1900_lig560

> <s_m_subgroup_title>
dock_pv

> <s_m_subgroupid>
dock_pv

> <b_m_subgroup_collapsed>
1

$$$$
CHEMBL1900_lig16
                    3D
 Schrodinger Suite 2021-1.
 33 34  0  0  1  0            999 V2000
   17.2289  -11.4402   16.2591 S   0  0  0  0  0  0
   14.9451   -6.9152   17.9496 N   0  0  0  0  0  0
   17.2830   -8.5608   16.1682 C   0  0  0  0  0  0
   17.4817   -9.7977   15.5065 C   0  0  0  0  0  0
   15.1284   -8.0513   17.2790 C   0  0  0  0  0  0
   16.5719   -8.4295   17.5145 C   0  0  2  0  0  0
   16.0318   -6.4315   18.5810 C   0  0  0  0  0  0
   16.9954   -7.3153   18.3309 N   0  0  0  0  0  0
   17.8239  -12.4057   15.3274 O   0  0  0  0  0  0
   17.7455  -11.3888   17.6293 O   0  0  0  0  0  0
   17.9672   -9.7733   14.1904 C   0  0  0  0  0  0
   17.6635   -7.3687   15.5291 C   0  0  0  0  0  0
   14.3094   -8.6436   16.5810 O   0  0  0  0  0  0
   16.1445   -5.3439   19.1360 O   0  0  0  0  0  0
   15.3435  -11.7703   16.3310 C   0  0  0  0  0  0
   18.1364   -7.3647   14.2305 C   0  0  0  0  0  0
   18.2513   -8.5650   13.5592 C   0  0  0  0  0  0
   18.5458   -5.8841   13.4440 Cl  0  0  0  0  0  0
   14.8156  -11.6676   17.7783 C   0  0  0  0  0  0
   15.0465  -13.1803   15.7813 C   0  0  0  0  0  0
   14.0431   -6.4647   17.9768 H   0  0  0  0  0  0
   16.6539   -9.3142   18.1351 H   0  0  0  0  0  0
   17.8373   -7.3758   18.8861 H   0  0  0  0  0  0
   18.1117  -10.6900   13.6353 H   0  0  0  0  0  0
   17.5462   -6.4237   16.0290 H   0  0  0  0  0  0
   14.8710  -11.0208   15.6963 H   0  0  0  0  0  0
   18.5555   -8.5228   12.5408 H   0  0  0  0  0  0
   13.7446  -11.8623   17.8174 H   0  0  0  0  0  0
   15.3015  -12.3941   18.4305 H   0  0  0  0  0  0
   14.9674  -10.6898   18.2212 H   0  0  0  0  0  0
   13.9752  -13.3836   15.7672 H   0  0  0  0  0  0
   15.4165  -13.3145   14.7646 H   0  0  0  0  0  0
   15.5244  -13.9433   16.3960 H   0  0  0  0  0  0
  1  4  1  0  0  0
  1  9  2  0  0  0
  1 10  2  0  0  0
  1 15  1  0  0  0
  2  5  1  0  0  0
  2  7  1  0  0  0
  2 21  1  0  0  0
  3  4  1  0  0  0
  3  6  1  0  0  0
  3 12  2  0  0  0
  4 11  2  0  0  0
  5  6  1  0  0  0
  5 13  2  0  0  0
  6  8  1  0  0  0
  6 22  1  0  0  0
  7  8  1  0  0  0
  7 14  2  0  0  0
  8 23  1  0  0  0
 11 17  1  0  0  0
 11 24  1  0  0  0
 12 16  1  0  0  0
 12 25  1  0  0  0
 15 19  1  0  0  0
 15 20  1  0  0  0
 15 26  1  0  0  0
 16 17  2  0  0  0
 16 18  1  0  0  0
 17 27  1  0  0  0
 19 28  1  0  0  0
 19 29  1  0  0  0
 19 30  1  0  0  0
 20 31  1  0  0  0
 20 32  1  0  0  0
 20 33  1  0  0  0
M  END
> <s_m_entry_id>
6626

> <s_m_entry_name>
dock_pv.461

> <s_m_Source_Path>
/home/csk/Desktop/cluster/DUD-E-result/aldr

> <s_m_Source_File>
dock_pv.maegz

> <i_m_Source_File_Index>
461

> <chembl_id>
CHEMBL18865

> <chembl_pref_name>
None

> <i_lp_mmshare_version>
53161

> <i_f3d_flags>
0

> <r_lp_tautomer_probability>
0.999999999781369

> <s_lp_Force_Field>
OPLS_2005

> <r_lp_Energy>
18.633502

> <b_lp_Chiralities_Consistent>
1

> <s_lp_Variant>
CHEMBL1900_lig16-1

> <s_i_glide_gridfile>
glide-grid_2hv5

> <i_i_glide_lignum>
28

> <i_i_glide_rotatable_bonds>
3

> <r_i_docking_score>
-7.51216976017575

> <r_i_glide_ligand_efficiency>
-0.375608488008787

> <r_i_glide_ligand_efficiency_sa>
-1.01955829577552

> <r_i_glide_ligand_efficiency_ln>
-1.88004832303093

> <r_i_glide_gscore>
-7.51216976017575

> <r_i_glide_lipo>
-2.39319587997956

> <r_i_glide_hbond>
-0.138485947068665

> <r_i_glide_metal>
0

> <r_i_glide_rewards>
-3.00208958279868

> <r_i_glide_evdw>
-32.5122947692871

> <r_i_glide_ecoul>
-4.64582681655884

> <r_i_glide_erotb>
0.371173131588809

> <r_i_glide_esite>
-0.0270827209694674

> <r_i_glide_emodel>
-49.0827230140647

> <r_i_glide_energy>
-37.1581215858459

> <r_i_glide_einternal>
1.21858358383179

> <i_i_glide_confnum>
3

> <i_i_glide_posenum>
260

> <r_i_glide_eff_state_penalty>
0

> <s_user_duplicate_titles>
CHEMBL1900_lig16,22189

> <s_m_subgroup_title>
dock_pv

> <s_m_subgroupid>
dock_pv

> <b_m_subgroup_collapsed>
1

$$$$
CHEMBL1900_lig647
                    3D
 Schrodinger Suite 2021-1.
 44 46  0  0  1  0            999 V2000
   16.4585   -5.3127   19.0865 C   0  0  0  0  0  0
   16.1450   -6.5148   19.6834 C   0  0  0  0  0  0
   16.1448   -7.7132   18.9810 C   0  0  0  0  0  0
   16.9450   -5.3237   17.7810 C   0  0  0  0  0  0
   17.1408   -6.5486   17.0836 C   0  0  0  0  0  0
   16.6771   -7.7305   17.7065 C   0  0  0  0  0  0
   16.8648   -8.8030   16.8555 N   0  0  0  0  0  0
   16.4547  -10.1806   17.1488 C   0  0  0  0  0  0
   14.9463  -10.4109   17.0289 C   0  0  0  0  0  0
   14.1940   -9.6819   16.3890 O   0  0  0  0  0  0
   14.5513  -11.5240   17.7085 O   0  0  0  0  0  0
   17.7504   -6.9900   15.8441 C   0  0  0  0  0  0
   17.5013   -8.3520   15.7252 C   0  0  0  0  0  0
   17.9704   -9.2247   14.5605 C   0  0  0  0  0  0
   18.9423   -8.4428   13.6317 C   0  0  0  0  0  0
   18.4975   -7.0439   13.5185 N   0  0  0  0  0  0
   18.5556   -6.2762   14.7661 C   0  0  0  0  0  0
   17.6955   -6.6532   12.4298 C   0  0  0  0  0  0
   17.4236   -5.3191   12.4060 O   0  0  0  0  0  0
   17.3450   -7.3978   11.5218 O   0  0  0  0  0  0
   16.7547   -4.7242   11.2921 C   0  0  0  0  0  0
   15.2571   -5.0771   11.2235 C   0  0  0  0  0  0
   16.2494   -4.1791   19.8457 O   0  0  0  0  0  0
   16.0775   -2.9210   19.1968 C   0  0  0  0  0  0
   15.8025   -6.5141   20.7046 H   0  0  0  0  0  0
   15.7450   -8.6137   19.4002 H   0  0  0  0  0  0
   17.2669   -4.3840   17.3812 H   0  0  0  0  0  0
   16.9717  -10.8729   16.4887 H   0  0  0  0  0  0
   16.7645  -10.4038   18.1697 H   0  0  0  0  0  0
   13.6008  -11.6579   17.6453 H   0  0  0  0  0  0
   18.4555  -10.1397   14.8981 H   0  0  0  0  0  0
   17.1127   -9.5455   13.9795 H   0  0  0  0  0  0
   19.9151   -8.4215   14.1254 H   0  0  0  0  0  0
   19.1120   -8.9172   12.6637 H   0  0  0  0  0  0
   18.1450   -5.3149   14.5802 H   0  0  0  0  0  0
   19.5921   -6.1055   15.0552 H   0  0  0  0  0  0
   16.8671   -3.6470   11.3804 H   0  0  0  0  0  0
   17.2517   -5.0017   10.3604 H   0  0  0  0  0  0
   14.7476   -4.4677   10.4765 H   0  0  0  0  0  0
   15.1045   -6.1215   10.9514 H   0  0  0  0  0  0
   14.7648   -4.9150   12.1811 H   0  0  0  0  0  0
   15.9093   -2.1535   19.9525 H   0  0  0  0  0  0
   15.2107   -2.9188   18.5350 H   0  0  0  0  0  0
   16.9450   -2.6176   18.6190 H   0  0  0  0  0  0
  1  2  2  0  0  0
  1  4  1  0  0  0
  1 23  1  0  0  0
  2  3  1  0  0  0
  2 25  1  0  0  0
  3  6  2  0  0  0
  3 26  1  0  0  0
  4  5  2  0  0  0
  4 27  1  0  0  0
  5  6  1  0  0  0
  5 12  1  0  0  0
  6  7  1  0  0  0
  7 13  1  0  0  0
  7  8  1  0  0  0
  8  9  1  0  0  0
  8 28  1  0  0  0
  8 29  1  0  0  0
  9 10  2  0  0  0
  9 11  1  0  0  0
 11 30  1  0  0  0
 12 13  2  0  0  0
 12 17  1  0  0  0
 13 14  1  0  0  0
 14 15  1  0  0  0
 14 31  1  0  0  0
 14 32  1  0  0  0
 15 16  1  0  0  0
 15 33  1  0  0  0
 15 34  1  0  0  0
 16 17  1  0  0  0
 16 18  1  0  0  0
 17 35  1  0  0  0
 17 36  1  0  0  0
 18 19  1  0  0  0
 18 20  2  0  0  0
 19 21  1  0  0  0
 21 22  1  0  0  0
 21 37  1  0  0  0
 21 38  1  0  0  0
 22 39  1  0  0  0
 22 40  1  0  0  0
 22 41  1  0  0  0
 23 24  1  0  0  0
 24 42  1  0  0  0
 24 43  1  0  0  0
 24 44  1  0  0  0
M  END
> <s_m_entry_id>
6627

> <s_m_entry_name>
dock_pv.462

> <s_m_Source_Path>
/home/csk/Desktop/cluster/DUD-E-result/aldr

> <s_m_Source_File>
dock_pv.maegz

> <i_m_Source_File_Index>
462

> <chembl_id>
CHEMBL4206601

> <chembl_pref_name>
None

> <i_lp_mmshare_version>
53161

> <i_f3d_flags>
0

> <r_lp_tautomer_probability>
1

> <s_lp_Force_Field>
OPLS_2005

> <r_lp_Energy>
24.264708

> <b_lp_Chiralities_Consistent>
1

> <s_lp_Variant>
CHEMBL1900_lig647-1

> <s_i_glide_gridfile>
glide-grid_2hv5

> <i_i_glide_lignum>
773

> <i_i_glide_rotatable_bonds>
7

> <r_i_docking_score>
-7.51023696306994

> <r_i_glide_ligand_efficiency>
-0.312926540127914

> <r_i_glide_ligand_efficiency_sa>
-0.902636335118328

> <r_i_glide_ligand_efficiency_ln>
-1.79754432758098

> <r_i_glide_gscore>
-7.51023696306994

> <r_i_glide_lipo>
-3.52777399811103

> <r_i_glide_hbond>
0

> <r_i_glide_metal>
0

> <r_i_glide_rewards>
-3.17497228280254

> <r_i_glide_evdw>
-23.0785503387451

> <r_i_glide_ecoul>
-2.23717164993286

> <r_i_glide_erotb>
0.682012582270821

> <r_i_glide_esite>
0

> <r_i_glide_emodel>
-23.6967762913224

> <r_i_glide_energy>
-25.315721988678

> <r_i_glide_einternal>
6.53730392456055

> <i_i_glide_confnum>
16

> <i_i_glide_posenum>
104

> <r_i_glide_eff_state_penalty>
0

> <s_user_duplicate_titles>
CHEMBL1900_lig647

> <s_m_subgroup_title>
dock_pv

> <s_m_subgroupid>
dock_pv

> <b_m_subgroup_collapsed>
1

$$$$
CHEMBL1900_lig356
                    3D
 Schrodinger Suite 2021-1.
 32 33  0  0  1  0            999 V2000
   15.5684   -8.6423   16.8516 C   0  0  2  0  0  0
   16.6053   -8.7053   15.7200 C   0  0  0  0  0  0
   18.5524   -6.3890   13.4639 N   0  3  0  0  0  0
   17.1624   -9.9432   15.3272 C   0  0  0  0  0  0
   16.2001   -8.0226   18.1428 C   0  0  0  0  0  0
   17.0670   -7.5565   15.0653 C   0  0  0  0  0  0
   18.0620   -7.6185   14.0882 C   0  0  0  0  0  0
   16.7397  -11.1637   15.8087 O   0  0  0  0  0  0
   15.0137  -10.0604   17.1387 C   0  0  0  0  0  0
   16.3377   -6.4895   18.2501 C   0  0  0  0  0  0
   19.3439   -5.7150   14.1123 O   0  5  0  0  0  0
   18.1452   -6.1134   12.3388 O   0  0  0  0  0  0
   16.1014  -11.1470   17.0819 C   0  0  1  0  0  0
   18.1415  -10.0149   14.3379 C   0  0  0  0  0  0
   18.6025   -8.8526   13.7281 C   0  0  0  0  0  0
   15.8713   -5.6880   17.4475 O   0  0  0  0  0  0
   14.4284   -7.8923   16.4971 O   0  0  0  0  0  0
   17.0062   -6.1333   19.3808 O   0  0  0  0  0  0
   15.5306  -12.5432   17.3584 C   0  0  0  0  0  0
   16.8595  -10.9354   17.8382 H   0  0  0  0  0  0
   17.1977   -8.4467   18.2541 H   0  0  0  0  0  0
   15.6422   -8.3439   19.0211 H   0  0  0  0  0  0
   16.6544   -6.5923   15.3222 H   0  0  0  0  0  0
   14.5007  -10.0928   18.0998 H   0  0  0  0  0  0
   14.2519  -10.3288   16.4023 H   0  0  0  0  0  0
   18.5403  -10.9752   14.0424 H   0  0  0  0  0  0
   19.3804   -8.9105   12.9813 H   0  0  0  0  0  0
   13.8268   -7.8734   17.2436 H   0  0  0  0  0  0
   17.3456   -6.8915   19.8603 H   0  0  0  0  0  0
   15.0425  -12.5877   18.3327 H   0  0  0  0  0  0
   14.7934  -12.8226   16.6033 H   0  0  0  0  0  0
   16.3189  -13.2966   17.3451 H   0  0  0  0  0  0
  1  2  1  0  0  0
  1  5  1  0  0  0
  1  9  1  0  0  0
  1 17  1  0  0  0
  2  4  2  0  0  0
  2  6  1  0  0  0
  3  7  1  0  0  0
  3 11  1  0  0  0
  3 12  2  0  0  0
  4 14  1  0  0  0
  4  8  1  0  0  0
  5 10  1  0  0  0
  5 21  1  0  0  0
  5 22  1  0  0  0
  6  7  2  0  0  0
  6 23  1  0  0  0
  7 15  1  0  0  0
  8 13  1  0  0  0
  9 13  1  0  0  0
  9 24  1  0  0  0
  9 25  1  0  0  0
 10 16  2  0  0  0
 10 18  1  0  0  0
 13 19  1  0  0  0
 13 20  1  0  0  0
 14 15  2  0  0  0
 14 26  1  0  0  0
 15 27  1  0  0  0
 17 28  1  0  0  0
 18 29  1  0  0  0
 19 30  1  0  0  0
 19 31  1  0  0  0
 19 32  1  0  0  0
M  CHG  2   3   1  11  -1
M  END
> <s_m_entry_id>
6628

> <s_m_entry_name>
dock_pv.463

> <s_m_Source_Path>
/home/csk/Desktop/cluster/DUD-E-result/aldr

> <s_m_Source_File>
dock_pv.maegz

> <i_m_Source_File_Index>
463

> <chembl_id>
CHEMBL69546

> <chembl_pref_name>
None

> <i_lp_mmshare_version>
53161

> <i_f3d_flags>
0

> <r_lp_tautomer_probability>
1

> <s_lp_Force_Field>
OPLS_2005

> <r_lp_Energy>
17.694351

> <b_lp_Chiralities_Consistent>
1

> <s_lp_Variant>
CHEMBL1900_lig356-1

> <s_i_glide_gridfile>
glide-grid_2hv5

> <i_i_glide_lignum>
477

> <i_i_glide_rotatable_bonds>
5

> <r_i_docking_score>
-7.50865675031871

> <r_i_glide_ligand_efficiency>
-0.39519246054309

> <r_i_glide_ligand_efficiency_sa>
-1.05453221224066

> <r_i_glide_ligand_efficiency_ln>
-1.90360575736565

> <r_i_glide_gscore>
-7.50865675031871

> <r_i_glide_lipo>
-2.46958199064048

> <r_i_glide_hbond>
0

> <r_i_glide_metal>
0

> <r_i_glide_rewards>
-3.30867252754129

> <r_i_glide_evdw>
-34.6274032592773

> <r_i_glide_ecoul>
-3.32219767570496

> <r_i_glide_erotb>
0.499297582182662

> <r_i_glide_esite>
0

> <r_i_glide_emodel>
-51.5165596511285

> <r_i_glide_energy>
-37.9496009349823

> <r_i_glide_einternal>
8.22946357727051

> <i_i_glide_confnum>
3

> <i_i_glide_posenum>
205

> <r_i_glide_eff_state_penalty>
0

> <s_user_duplicate_titles>
CHEMBL1900_lig356,109260

> <s_m_subgroup_title>
dock_pv

> <s_m_subgroupid>
dock_pv

> <b_m_subgroup_collapsed>
1

$$$$
CHEMBL1900_lig27
                    3D
 Schrodinger Suite 2021-1.
 39 40  0  0  1  0            999 V2000
   15.3450   -6.5150   17.9899 N   0  0  0  0  0  0
   17.3054   -8.7112   16.2925 C   0  0  0  0  0  0
   15.6793   -6.8709   16.7525 C   0  0  0  0  0  0
   18.8467   -7.9655   13.9577 S   0  0  0  0  0  0
   17.1297   -7.2631   16.7957 C   0  0  1  0  0  0
   16.3644   -6.4900   18.8595 C   0  0  0  0  0  0
   17.9468   -9.0727   15.0790 C   0  0  0  0  0  0
   17.3901   -7.0396   18.1964 N   0  0  0  0  0  0
   17.9384  -10.4196   14.6813 C   0  0  0  0  0  0
   16.7308   -9.7328   17.0702 C   0  0  0  0  0  0
   19.9143   -8.7859   13.3805 O   0  0  0  0  0  0
   19.2174   -6.7212   14.6320 O   0  0  0  0  0  0
   14.9450   -6.9150   15.7815 O   0  0  0  0  0  0
   16.2903   -6.1865   20.0453 O   0  0  0  0  0  0
   16.7486  -11.0623   16.6665 C   0  0  0  0  0  0
   17.6178   -7.5638   12.5784 C   0  0  0  0  0  0
   17.3464  -11.4065   15.4621 C   0  0  0  0  0  0
   16.0305  -12.2732   17.6643 Cl  0  0  0  0  0  0
   16.3819   -6.8289   13.1100 C   0  0  0  0  0  0
   16.2827   -4.9901   11.2882 C   0  0  0  0  0  0
   15.5309   -6.1011   12.0514 C   0  0  0  0  0  0
   15.3660   -4.1394   10.4010 C   0  0  0  0  0  0
   14.3888   -6.3450   18.2564 H   0  0  0  0  0  0
   17.6890   -6.5111   16.2598 H   0  0  0  0  0  0
   18.3416   -6.9873   18.5315 H   0  0  0  0  0  0
   18.4092  -10.7211   13.7568 H   0  0  0  0  0  0
   16.2388   -9.4891   18.0018 H   0  0  0  0  0  0
   17.3465   -8.5153   12.1293 H   0  0  0  0  0  0
   18.1449   -6.9638   11.8441 H   0  0  0  0  0  0
   17.3600  -12.4371   15.1378 H   0  0  0  0  0  0
   16.6824   -6.1147   13.8759 H   0  0  0  0  0  0
   15.7494   -7.5605   13.6071 H   0  0  0  0  0  0
   17.0634   -5.4199   10.6601 H   0  0  0  0  0  0
   16.7907   -4.3408   12.0009 H   0  0  0  0  0  0
   14.6765   -5.6618   12.5697 H   0  0  0  0  0  0
   15.1051   -6.8152   11.3459 H   0  0  0  0  0  0
   15.9154   -3.3121    9.9523 H   0  0  0  0  0  0
   14.5432   -3.7139   10.9762 H   0  0  0  0  0  0
   14.9405   -4.7283    9.5894 H   0  0  0  0  0  0
  1  3  1  0  0  0
  1  6  1  0  0  0
  1 23  1  0  0  0
  2  5  1  0  0  0
  2  7  1  0  0  0
  2 10  2  0  0  0
  3  5  1  0  0  0
  3 13  2  0  0  0
  4  7  1  0  0  0
  4 11  2  0  0  0
  4 12  2  0  0  0
  4 16  1  0  0  0
  5  8  1  0  0  0
  5 24  1  0  0  0
  6  8  1  0  0  0
  6 14  2  0  0  0
  7  9  2  0  0  0
  8 25  1  0  0  0
  9 17  1  0  0  0
  9 26  1  0  0  0
 10 15  1  0  0  0
 10 27  1  0  0  0
 15 17  2  0  0  0
 15 18  1  0  0  0
 16 19  1  0  0  0
 16 28  1  0  0  0
 16 29  1  0  0  0
 17 30  1  0  0  0
 19 21  1  0  0  0
 19 31  1  0  0  0
 19 32  1  0  0  0
 20 21  1  0  0  0
 20 22  1  0  0  0
 20 33  1  0  0  0
 20 34  1  0  0  0
 21 35  1  0  0  0
 21 36  1  0  0  0
 22 37  1  0  0  0
 22 38  1  0  0  0
 22 39  1  0  0  0
M  END
> <s_m_entry_id>
6629

> <s_m_entry_name>
dock_pv.464

> <s_m_Source_Path>
/home/csk/Desktop/cluster/DUD-E-result/aldr

> <s_m_Source_File>
dock_pv.maegz

> <i_m_Source_File_Index>
464

> <chembl_id>
CHEMBL19427

> <chembl_pref_name>
None

> <i_lp_mmshare_version>
53161

> <i_f3d_flags>
0

> <r_lp_tautomer_probability>
0.999999999781369

> <s_lp_Force_Field>
OPLS_2005

> <r_lp_Energy>
17.345951

> <b_lp_Chiralities_Consistent>
1

> <s_lp_Variant>
CHEMBL1900_lig27-2

> <s_i_glide_gridfile>
glide-grid_2hv5

> <i_i_glide_lignum>
51

> <i_i_glide_rotatable_bonds>
6

> <r_i_docking_score>
-7.50606379303553

> <r_i_glide_ligand_efficiency>
-0.341184717865251

> <r_i_glide_ligand_efficiency_sa>
-0.95601299749197

> <r_i_glide_ligand_efficiency_ln>
-1.83475578134708

> <r_i_glide_gscore>
-7.50606379303553

> <r_i_glide_lipo>
-2.74665600065352

> <r_i_glide_hbond>
-0.329184285543086

> <r_i_glide_metal>
0

> <r_i_glide_rewards>
-3.10503166019721

> <r_i_glide_evdw>
-38.0413398742676

> <r_i_glide_ecoul>
-1.47868514060974

> <r_i_glide_erotb>
0.798677918163132

> <r_i_glide_esite>
0

> <r_i_glide_emodel>
-55.0549794313442

> <r_i_glide_energy>
-39.5200250148773

> <r_i_glide_einternal>
2.61672616004944

> <i_i_glide_confnum>
106

> <i_i_glide_posenum>
2

> <r_i_glide_eff_state_penalty>
0

> <s_user_duplicate_titles>
CHEMBL1900_lig27,23736

> <s_m_subgroup_title>
dock_pv

> <s_m_subgroupid>
dock_pv

> <b_m_subgroup_collapsed>
1

$$$$
CHEMBL1900_lig333
                    3D
 Schrodinger Suite 2021-1.
 37 38  0  0  1  0            999 V2000
   17.3652   -8.7114   15.0312 C   0  0  0  0  0  0
   16.4811   -7.8404   15.9517 C   0  0  2  0  0  0
   17.3451  -10.0636   15.2208 C   0  0  0  0  0  0
   18.2246   -8.1281   13.8414 C   0  0  1  0  0  0
   18.9196   -6.8277   14.2404 N   0  3  0  0  0  0
   16.6925  -10.7534   16.1983 O   0  0  0  0  0  0
   17.3292   -7.1660   17.0737 C   0  0  0  0  0  0
   15.3382   -8.7160   16.5259 C   0  0  0  0  0  0
   16.5467   -6.2894   18.0639 C   0  0  0  0  0  0
   18.0470  -10.9867   14.3597 C   0  0  0  0  0  0
   18.5451   -5.7492   13.7875 O   0  5  0  0  0  0
   19.8848   -6.8964   14.9809 O   0  0  0  0  0  0
   15.8857  -10.0209   17.1190 C   0  0  1  0  0  0
   18.9681  -10.5831   13.4824 C   0  0  0  0  0  0
   16.1464   -5.1635   17.7855 O   0  0  0  0  0  0
   15.8353   -6.8540   15.1942 O   0  0  0  0  0  0
   19.3567   -9.1226   13.3809 C   0  0  0  0  0  0
   16.3442   -6.9111   19.2589 O   0  0  0  0  0  0
   17.3449   -7.7752   12.6125 C   0  0  0  0  0  0
   14.7765  -10.9470   17.6256 C   0  0  0  0  0  0
   16.5088   -9.7716   17.9777 H   0  0  0  0  0  0
   18.0810   -6.5130   16.6450 H   0  0  0  0  0  0
   17.9050   -7.9140   17.6173 H   0  0  0  0  0  0
   14.6256   -8.9744   15.7388 H   0  0  0  0  0  0
   14.7440   -8.1770   17.2644 H   0  0  0  0  0  0
   17.7963  -12.0369   14.4065 H   0  0  0  0  0  0
   19.4619  -11.3184   12.8624 H   0  0  0  0  0  0
   16.4980   -6.2529   14.8416 H   0  0  0  0  0  0
   19.6201   -8.9151   12.3545 H   0  0  0  0  0  0
   20.2867   -9.0086   13.9348 H   0  0  0  0  0  0
   16.7722   -7.7675   19.3124 H   0  0  0  0  0  0
   16.9451   -8.6823   12.1810 H   0  0  0  0  0  0
   16.4978   -7.1319   12.8407 H   0  0  0  0  0  0
   17.9015   -7.2760   11.8213 H   0  0  0  0  0  0
   14.1450  -10.4479   18.3594 H   0  0  0  0  0  0
   14.1455  -11.2839   16.8041 H   0  0  0  0  0  0
   15.1937  -11.8342   18.1021 H   0  0  0  0  0  0
  1  2  1  0  0  0
  1  3  2  0  0  0
  1  4  1  0  0  0
  2  7  1  0  0  0
  2  8  1  0  0  0
  2 16  1  0  0  0
  3  6  1  0  0  0
  3 10  1  0  0  0
  4  5  1  0  0  0
  4 17  1  0  0  0
  4 19  1  0  0  0
  5 11  1  0  0  0
  5 12  2  0  0  0
  6 13  1  0  0  0
  7  9  1  0  0  0
  7 22  1  0  0  0
  7 23  1  0  0  0
  8 13  1  0  0  0
  8 24  1  0  0  0
  8 25  1  0  0  0
  9 15  2  0  0  0
  9 18  1  0  0  0
 10 14  2  0  0  0
 10 26  1  0  0  0
 13 20  1  0  0  0
 13 21  1  0  0  0
 14 17  1  0  0  0
 14 27  1  0  0  0
 16 28  1  0  0  0
 17 29  1  0  0  0
 17 30  1  0  0  0
 18 31  1  0  0  0
 19 32  1  0  0  0
 19 33  1  0  0  0
 19 34  1  0  0  0
 20 35  1  0  0  0
 20 36  1  0  0  0
 20 37  1  0  0  0
M  CHG  2   5   1  11  -1
M  END
> <s_m_entry_id>
6630

> <s_m_entry_name>
dock_pv.465

> <s_m_Source_Path>
/home/csk/Desktop/cluster/DUD-E-result/aldr

> <s_m_Source_File>
dock_pv.maegz

> <i_m_Source_File_Index>
465

> <chembl_id>
CHEMBL308882

> <chembl_pref_name>
None

> <i_lp_mmshare_version>
53161

> <i_f3d_flags>
0

> <r_lp_tautomer_probability>
1

> <s_lp_Force_Field>
OPLS_2005

> <r_lp_Energy>
22.726897

> <b_lp_Chiralities_Consistent>
1

> <s_lp_Variant>
CHEMBL1900_lig333-2

> <s_i_glide_gridfile>
glide-grid_2hv5

> <i_i_glide_lignum>
454

> <i_i_glide_rotatable_bonds>
5

> <r_i_docking_score>
-7.49143281237812

> <r_i_glide_ligand_efficiency>
-0.374571640618906

> <r_i_glide_ligand_efficiency_sa>
-1.01674385895752

> <r_i_glide_ligand_efficiency_ln>
-1.8748585489475

> <r_i_glide_gscore>
-7.49143281237812

> <r_i_glide_lipo>
-2.98457794469486

> <r_i_glide_hbond>
0

> <r_i_glide_metal>
0

> <r_i_glide_rewards>
-2.90163840994841

> <r_i_glide_evdw>
-27.5216217041016

> <r_i_glide_ecoul>
-4.53627872467041

> <r_i_glide_erotb>
0.451306436170795

> <r_i_glide_esite>
0

> <r_i_glide_emodel>
-41.9410872843273

> <r_i_glide_energy>
-32.057900428772

> <r_i_glide_einternal>
2.57214307785034

> <i_i_glide_confnum>
7

> <i_i_glide_posenum>
361

> <r_i_glide_eff_state_penalty>
0

> <s_user_duplicate_titles>
CHEMBL1900_lig333

> <s_m_subgroup_title>
dock_pv

> <s_m_subgroupid>
dock_pv

> <b_m_subgroup_collapsed>
1

$$$$
CHEMBL1900_lig75
                    3D
 Schrodinger Suite 2021-1.
 28 29  0  0  1  0            999 V2000
   18.2169   -7.6441   14.1093 S   0  0  0  0  0  0
   17.3434   -7.3813   15.6858 C   0  0  0  0  0  0
   18.0604   -7.3089   16.7570 N   0  0  0  0  0  0
   17.4547   -6.9807   17.9717 N   0  0  0  0  0  0
   15.9100   -7.2428   15.8082 C   0  0  0  0  0  0
   16.1492   -6.6532   18.1885 C   0  0  0  0  0  0
   17.5824   -6.4594   12.9127 C   0  0  0  0  0  0
   15.3462   -6.9406   17.0069 C   0  0  0  0  0  0
   17.8135   -8.9829   13.6639 O   0  0  0  0  0  0
   19.6288   -7.3151   14.3383 O   0  0  0  0  0  0
   15.7450   -6.1152   19.2182 O   0  0  0  0  0  0
   18.3846   -5.4338   12.4423 C   0  0  0  0  0  0
   16.3157   -6.6198   12.3828 C   0  0  0  0  0  0
   16.6569   -4.7752   10.8696 C   0  0  0  0  0  0
   15.8410   -5.7830   11.3787 C   0  0  0  0  0  0
   17.9440   -4.6066   11.4029 C   0  0  0  0  0  0
   16.1191   -3.9948    9.8644 O   0  0  0  0  0  0
   16.8805   -2.9137    9.3379 C   0  0  0  0  0  0
   15.2717   -7.4805   14.9805 H   0  0  0  0  0  0
   14.2720   -6.9160   17.1110 H   0  0  0  0  0  0
   18.0959   -6.8640   18.7433 H   0  0  0  0  0  0
   19.3450   -5.3150   12.9081 H   0  0  0  0  0  0
   15.7416   -7.4353   12.7466 H   0  0  0  0  0  0
   14.8456   -5.9235   10.9825 H   0  0  0  0  0  0
   18.5870   -3.8238   11.0422 H   0  0  0  0  0  0
   16.2916   -2.3954    8.5821 H   0  0  0  0  0  0
   17.7975   -3.2657    8.8601 H   0  0  0  0  0  0
   17.1323   -2.1867   10.1131 H   0  0  0  0  0  0
  1  7  1  0  0  0
  1  9  2  0  0  0
  1 10  2  0  0  0
  1  2  1  0  0  0
  2  5  1  0  0  0
  2  3  2  0  0  0
  3  4  1  0  0  0
  4  6  1  0  0  0
  4 21  1  0  0  0
  5  8  2  0  0  0
  5 19  1  0  0  0
  6 11  2  0  0  0
  6  8  1  0  0  0
  7 12  1  0  0  0
  7 13  2  0  0  0
  8 20  1  0  0  0
 12 16  2  0  0  0
 12 22  1  0  0  0
 13 15  1  0  0  0
 13 23  1  0  0  0
 14 15  2  0  0  0
 14 17  1  0  0  0
 14 16  1  0  0  0
 15 24  1  0  0  0
 16 25  1  0  0  0
 17 18  1  0  0  0
 18 26  1  0  0  0
 18 27  1  0  0  0
 18 28  1  0  0  0
M  END
> <s_m_entry_id>
6631

> <s_m_entry_name>
dock_pv.466

> <s_m_Source_Path>
/home/csk/Desktop/cluster/DUD-E-result/aldr

> <s_m_Source_File>
dock_pv.maegz

> <i_m_Source_File_Index>
466

> <chembl_id>
CHEMBL74785

> <chembl_pref_name>
None

> <i_lp_mmshare_version>
53161

> <i_f3d_flags>
0

> <r_lp_tautomer_probability>
0.998994762270461

> <s_lp_Force_Field>
OPLS_2005

> <r_lp_Energy>
24.438182

> <b_lp_Chiralities_Consistent>
1

> <s_lp_Variant>
CHEMBL1900_lig75-1

> <s_i_glide_gridfile>
glide-grid_2hv5

> <i_i_glide_lignum>
114

> <i_i_glide_rotatable_bonds>
3

> <r_i_docking_score>
-7.47930118939298

> <r_i_glide_ligand_efficiency>
-0.415516732744054

> <r_i_glide_ligand_efficiency_sa>
-1.08896190043961

> <r_i_glide_ligand_efficiency_ln>
-1.92251580436046

> <r_i_glide_gscore>
-7.47930118939298

> <r_i_glide_lipo>
-3.30456438101852

> <r_i_glide_hbond>
-0.0702193440981081

> <r_i_glide_metal>
0

> <r_i_glide_rewards>
-2.81394826046853

> <r_i_glide_evdw>
-34.5965270996094

> <r_i_glide_ecoul>
-0.421039581298828

> <r_i_glide_erotb>
0.502413088367477

> <r_i_glide_esite>
0

> <r_i_glide_emodel>
-49.8916209161506

> <r_i_glide_energy>
-35.0175666809082

> <r_i_glide_einternal>
1.03614175319672

> <i_i_glide_confnum>
3

> <i_i_glide_posenum>
171

> <r_i_glide_eff_state_penalty>
0

> <s_user_duplicate_titles>
CHEMBL1900_lig75

> <s_m_subgroup_title>
dock_pv

> <s_m_subgroupid>
dock_pv

> <b_m_subgroup_collapsed>
1

$$$$
CHEMBL1900_lig328
                    3D
 Schrodinger Suite 2021-1.
 38 40  0  0  1  0            999 V2000
   16.0484   -9.5333   15.9182 C   0  0  0  0  0  0
   16.3325   -8.3409   16.7981 C   0  0  0  0  0  0
   17.0984   -7.2281   16.3913 C   0  0  0  0  0  0
   15.7877   -8.3410   18.1014 C   0  0  0  0  0  0
   16.6996   -6.1261   18.5671 C   0  0  0  0  0  0
   17.1216  -10.1976   15.1269 C   0  0  0  0  0  0
   17.1939   -6.1500   17.2757 C   0  0  0  0  0  0
   16.0673   -7.2870   18.9810 C   0  0  0  0  0  0
   16.1808   -3.6079   19.0159 C   0  0  0  0  0  0
   16.9465   -4.8836   19.4726 C   0  0  1  0  0  0
   14.9670  -10.1245   16.0006 O   0  0  0  0  0  0
   17.8562   -9.5250   14.1400 C   0  0  0  0  0  0
   17.9318   -7.1421   15.1038 C   0  0  0  0  0  0
   15.3449   -3.0351   19.7107 O   0  0  0  0  0  0
   17.6278   -8.0392   13.8991 C   0  0  0  0  0  0
   15.0123   -9.3653   18.5810 O   0  0  0  0  0  0
   16.5450   -3.1630   17.7814 O   0  0  0  0  0  0
   17.2777  -11.5800   15.3169 C   0  0  0  0  0  0
   16.7535   -5.1032   20.9991 C   0  0  0  0  0  0
   18.7752  -10.2569   13.3810 C   0  0  0  0  0  0
   18.1947  -12.2890   14.5438 C   0  0  0  0  0  0
   18.9450  -11.6270   13.5751 C   0  0  0  0  0  0
   17.7450   -5.2958   16.9810 H   0  0  0  0  0  0
   15.7450   -7.3620   20.0038 H   0  0  0  0  0  0
   18.0078   -4.6626   19.3502 H   0  0  0  0  0  0
   17.8981   -6.1150   14.7479 H   0  0  0  0  0  0
   18.9720   -7.3057   15.3859 H   0  0  0  0  0  0
   16.6126   -7.8691   13.5391 H   0  0  0  0  0  0
   18.2665   -7.7218   13.0728 H   0  0  0  0  0  0
   14.8895   -9.3150   19.5306 H   0  0  0  0  0  0
   17.2917   -3.6392   17.4183 H   0  0  0  0  0  0
   16.6903  -12.1167   16.0502 H   0  0  0  0  0  0
   15.7450   -4.8811   21.3361 H   0  0  0  0  0  0
   16.9450   -6.1163   21.3219 H   0  0  0  0  0  0
   17.4149   -4.4499   21.5706 H   0  0  0  0  0  0
   19.3450   -9.7605   12.6113 H   0  0  0  0  0  0
   18.3161  -13.3526   14.6880 H   0  0  0  0  0  0
   19.6511  -12.1750   12.9685 H   0  0  0  0  0  0
  1  2  1  0  0  0
  1  6  1  0  0  0
  1 11  2  0  0  0
  2  3  2  0  0  0
  2  4  1  0  0  0
  3  7  1  0  0  0
  3 13  1  0  0  0
  4  8  2  0  0  0
  4 16  1  0  0  0
  5  8  1  0  0  0
  5 10  1  0  0  0
  5  7  2  0  0  0
  6 12  1  0  0  0
  6 18  2  0  0  0
  7 23  1  0  0  0
  8 24  1  0  0  0
  9 10  1  0  0  0
  9 14  2  0  0  0
  9 17  1  0  0  0
 10 19  1  0  0  0
 10 25  1  0  0  0
 12 15  1  0  0  0
 12 20  2  0  0  0
 13 15  1  0  0  0
 13 26  1  0  0  0
 13 27  1  0  0  0
 15 28  1  0  0  0
 15 29  1  0  0  0
 16 30  1  0  0  0
 17 31  1  0  0  0
 18 21  1  0  0  0
 18 32  1  0  0  0
 19 33  1  0  0  0
 19 34  1  0  0  0
 19 35  1  0  0  0
 20 22  1  0  0  0
 20 36  1  0  0  0
 21 22  2  0  0  0
 21 37  1  0  0  0
 22 38  1  0  0  0
M  END
> <s_m_entry_id>
6632

> <s_m_entry_name>
dock_pv.467

> <s_m_Source_Path>
/home/csk/Desktop/cluster/DUD-E-result/aldr

> <s_m_Source_File>
dock_pv.maegz

> <i_m_Source_File_Index>
467

> <chembl_id>
CHEMBL77692

> <chembl_pref_name>
None

> <i_lp_mmshare_version>
53161

> <i_f3d_flags>
0

> <r_lp_tautomer_probability>
1

> <s_lp_Force_Field>
OPLS_2005

> <r_lp_Energy>
32.409108

> <b_lp_Chiralities_Consistent>
1

> <s_lp_Variant>
CHEMBL1900_lig328-1

> <s_i_glide_gridfile>
glide-grid_2hv5

> <i_i_glide_lignum>
447

> <i_i_glide_rotatable_bonds>
4

> <r_i_docking_score>
-7.46032229992473

> <r_i_glide_ligand_efficiency>
-0.339105559087488

> <r_i_glide_ligand_efficiency_sa>
-0.950187112828002

> <r_i_glide_ligand_efficiency_ln>
-1.8235748919693

> <r_i_glide_gscore>
-7.46032229992473

> <r_i_glide_lipo>
-3.38220774580086

> <r_i_glide_hbond>
0

> <r_i_glide_metal>
0

> <r_i_glide_rewards>
-3.02881241478092

> <r_i_glide_evdw>
-25.5046291351318

> <r_i_glide_ecoul>
-1.27547025680542

> <r_i_glide_erotb>
0.417249855934455

> <r_i_glide_esite>
0

> <r_i_glide_emodel>
-29.1610690726437

> <r_i_glide_energy>
-26.7800993919373

> <r_i_glide_einternal>
2.49998021125793

> <i_i_glide_confnum>
24

> <i_i_glide_posenum>
305

> <r_i_glide_eff_state_penalty>
0

> <s_user_duplicate_titles>
CHEMBL1900_lig328

> <s_m_subgroup_title>
dock_pv

> <s_m_subgroupid>
dock_pv

> <b_m_subgroup_collapsed>
1

$$$$
CHEMBL1900_lig10
                    3D
 Schrodinger Suite 2021-1.
 25 26  0  0  1  0            999 V2000
   14.9454   -7.1532   17.7778 N   0  0  0  0  0  0
   15.2632   -8.2795   17.1322 C   0  0  0  0  0  0
   15.9557   -6.5825   18.4621 C   0  0  0  0  0  0
   16.7533   -8.4405   17.3151 C   0  0  1  0  0  0
   17.4860   -8.5026   15.9691 C   0  0  0  0  0  0
   17.0376   -7.2962   18.1414 N   0  0  0  0  0  0
   17.7436   -9.7519   15.3736 C   0  0  0  0  0  0
   17.8956   -7.3256   15.3216 C   0  0  0  0  0  0
   14.5191   -8.9940   16.4649 O   0  0  0  0  0  0
   15.8656   -5.7178   19.3270 O   0  0  0  0  0  0
   18.4141   -9.7915   14.1400 C   0  0  0  0  0  0
   18.5601   -7.3819   14.1008 C   0  0  0  0  0  0
   18.8246   -8.6162   13.5169 C   0  0  0  0  0  0
   18.9451   -6.2407   13.4870 F   0  0  0  0  0  0
   17.3232  -10.8853   16.0478 O   0  0  0  0  0  0
   17.4899  -12.1644   15.4458 C   0  0  0  0  0  0
   13.9928   -6.8230   17.8336 H   0  0  0  0  0  0
   16.9464   -9.3292   17.9165 H   0  0  0  0  0  0
   17.9780   -6.9455   18.2482 H   0  0  0  0  0  0
   17.7028   -6.3585   15.7571 H   0  0  0  0  0  0
   18.6363  -10.7264   13.6492 H   0  0  0  0  0  0
   19.3545   -8.6697   12.5813 H   0  0  0  0  0  0
   17.0801  -12.9290   16.1059 H   0  0  0  0  0  0
   16.9577  -12.2311   14.4958 H   0  0  0  0  0  0
   18.5441  -12.3994   15.2867 H   0  0  0  0  0  0
  1  2  1  0  0  0
  1  3  1  0  0  0
  1 17  1  0  0  0
  2  4  1  0  0  0
  2  9  2  0  0  0
  3  6  1  0  0  0
  3 10  2  0  0  0
  4  5  1  0  0  0
  4  6  1  0  0  0
  4 18  1  0  0  0
  5  7  1  0  0  0
  5  8  2  0  0  0
  6 19  1  0  0  0
  7 11  2  0  0  0
  7 15  1  0  0  0
  8 12  1  0  0  0
  8 20  1  0  0  0
 11 13  1  0  0  0
 11 21  1  0  0  0
 12 13  2  0  0  0
 12 14  1  0  0  0
 13 22  1  0  0  0
 15 16  1  0  0  0
 16 23  1  0  0  0
 16 24  1  0  0  0
 16 25  1  0  0  0
M  END
> <s_m_entry_id>
6633

> <s_m_entry_name>
dock_pv.468

> <s_m_Source_Path>
/home/csk/Desktop/cluster/DUD-E-result/aldr

> <s_m_Source_File>
dock_pv.maegz

> <i_m_Source_File_Index>
468

> <chembl_id>
CHEMBL19746

> <chembl_pref_name>
None

> <i_lp_mmshare_version>
53161

> <i_f3d_flags>
0

> <r_lp_tautomer_probability>
0.999999999781369

> <s_lp_Force_Field>
OPLS_2005

> <r_lp_Energy>
22.432542

> <b_lp_Chiralities_Consistent>
1

> <s_lp_Variant>
CHEMBL1900_lig10-1

> <s_i_glide_gridfile>
glide-grid_2hv5

> <i_i_glide_lignum>
15

> <i_i_glide_rotatable_bonds>
2

> <r_i_docking_score>
-7.45069981263602

> <r_i_glide_ligand_efficiency>
-0.465668738289751

> <r_i_glide_ligand_efficiency_sa>
-1.17341169021403

> <r_i_glide_ligand_efficiency_ln>
-1.97495681644633

> <r_i_glide_gscore>
-7.45069981263602

> <r_i_glide_lipo>
-1.83239143926293

> <r_i_glide_hbond>
-0.145061302791312

> <r_i_glide_metal>
0

> <r_i_glide_rewards>
-3.8971146484085

> <r_i_glide_evdw>
-27.3866024017334

> <r_i_glide_ecoul>
-2.9518027305603

> <r_i_glide_erotb>
0.235968107497444

> <r_i_glide_esite>
0

> <r_i_glide_emodel>
-44.0281859600311

> <r_i_glide_energy>
-30.3384051322937

> <r_i_glide_einternal>
0.0296576470136642

> <i_i_glide_confnum>
1

> <i_i_glide_posenum>
31

> <r_i_glide_eff_state_penalty>
0

> <s_user_duplicate_titles>
CHEMBL1900_lig10

> <s_m_subgroup_title>
dock_pv

> <s_m_subgroupid>
dock_pv

> <b_m_subgroup_collapsed>
1

$$$$
CHEMBL1900_lig550
                    3D
 Schrodinger Suite 2021-1.
 35 37  0  0  1  0            999 V2000
   16.3184   -7.7507   15.1490 C   0  0  0  0  0  0
   17.0660   -7.5816   14.0280 C   0  0  0  0  0  0
   16.4602   -8.9438   15.9975 C   0  0  0  0  0  0
   17.2818  -10.0292   15.3829 C   0  0  0  0  0  0
   17.9408   -8.5283   13.5846 O   0  0  0  0  0  0
   17.9666   -9.7655   14.1912 C   0  0  0  0  0  0
   17.3647  -11.3241   15.9194 C   0  0  0  0  0  0
   16.9661   -6.5294   12.9766 C   0  0  0  0  0  0
   18.6763  -10.7574   13.5299 C   0  0  0  0  0  0
   18.0814  -12.3158   15.2547 C   0  0  0  0  0  0
   15.7408   -6.0181   12.5331 C   0  0  0  0  0  0
   15.6389   -5.2387   11.3827 C   0  0  0  0  0  0
   15.8876   -9.0964   17.0810 O   0  0  0  0  0  0
   18.7360  -12.0518   14.0541 C   0  0  0  0  0  0
   16.8001   -4.8348   10.7172 C   0  0  0  0  0  0
   18.1209   -6.0656   12.3318 C   0  0  0  0  0  0
   15.3455   -6.9107   15.5973 O   0  0  0  0  0  0
   18.0395   -5.2161   11.2260 C   0  0  0  0  0  0
   16.7351  -11.6575   17.0890 O   0  0  0  0  0  0
   14.3861   -4.8597   10.9702 O   0  0  0  0  0  0
   16.7484   -4.0538    9.5893 O   0  0  0  0  0  0
   19.4167  -13.0982   13.4670 O   0  0  0  0  0  0
   20.1131  -12.8725   12.2451 C   0  0  0  0  0  0
   19.1525  -10.5028   12.5952 H   0  0  0  0  0  0
   18.1271  -13.3112   15.6717 H   0  0  0  0  0  0
   14.8323   -6.1167   13.0981 H   0  0  0  0  0  0
   19.0939   -6.3899   12.6690 H   0  0  0  0  0  0
   14.9718   -7.2747   16.4111 H   0  0  0  0  0  0
   18.9429   -4.8915   10.7331 H   0  0  0  0  0  0
   16.2366  -10.8927   17.4046 H   0  0  0  0  0  0
   14.3679   -4.0497   10.4534 H   0  0  0  0  0  0
   15.9505   -4.1952    9.0728 H   0  0  0  0  0  0
   20.5792  -13.7999   11.9177 H   0  0  0  0  0  0
   19.4397  -12.5452   11.4516 H   0  0  0  0  0  0
   20.9038  -12.1336   12.3701 H   0  0  0  0  0  0
  1  2  2  0  0  0
  1  3  1  0  0  0
  1 17  1  0  0  0
  2  5  1  0  0  0
  2  8  1  0  0  0
  3  4  1  0  0  0
  3 13  2  0  0  0
  4  6  1  0  0  0
  4  7  2  0  0  0
  5  6  1  0  0  0
  6  9  2  0  0  0
  7 10  1  0  0  0
  7 19  1  0  0  0
  8 11  1  0  0  0
  8 16  2  0  0  0
  9 14  1  0  0  0
  9 24  1  0  0  0
 10 14  2  0  0  0
 10 25  1  0  0  0
 11 12  2  0  0  0
 11 26  1  0  0  0
 12 20  1  0  0  0
 12 15  1  0  0  0
 14 22  1  0  0  0
 15 18  2  0  0  0
 15 21  1  0  0  0
 16 18  1  0  0  0
 16 27  1  0  0  0
 17 28  1  0  0  0
 18 29  1  0  0  0
 19 30  1  0  0  0
 20 31  1  0  0  0
 21 32  1  0  0  0
 22 23  1  0  0  0
 23 33  1  0  0  0
 23 34  1  0  0  0
 23 35  1  0  0  0
M  END
> <s_m_entry_id>
6634

> <s_m_entry_name>
dock_pv.469

> <s_m_Source_Path>
/home/csk/Desktop/cluster/DUD-E-result/aldr

> <s_m_Source_File>
dock_pv.maegz

> <i_m_Source_File_Index>
469

> <chembl_id>
CHEMBL312163

> <chembl_pref_name>
RHAMNETIN

> <i_lp_mmshare_version>
53161

> <i_f3d_flags>
0

> <r_lp_tautomer_probability>
0.999999999999776

> <s_lp_Force_Field>
OPLS_2005

> <r_lp_Energy>
23.508671

> <b_lp_Chiralities_Consistent>
1

> <s_lp_Variant>
CHEMBL1900_lig550-1

> <s_i_glide_gridfile>
glide-grid_2hv5

> <i_i_glide_lignum>
673

> <i_i_glide_rotatable_bonds>
6

> <r_i_docking_score>
-7.44588349938238

> <r_i_glide_ligand_efficiency>
-0.323734065190538

> <r_i_glide_ligand_efficiency_sa>
-0.920656617286248

> <r_i_glide_ligand_efficiency_ln>
-1.80048214568944

> <r_i_glide_gscore>
-7.44588349938238

> <r_i_glide_lipo>
-3.49265020896865

> <r_i_glide_hbond>
0

> <r_i_glide_metal>
0

> <r_i_glide_rewards>
-2.03609049851597

> <r_i_glide_evdw>
-32.7987213134766

> <r_i_glide_ecoul>
-3.08872652053833

> <r_i_glide_erotb>
0.186102251856818

> <r_i_glide_esite>
0

> <r_i_glide_emodel>
-45.4088157407299

> <r_i_glide_energy>
-35.8874478340149

> <r_i_glide_einternal>
5.56808137893677

> <i_i_glide_confnum>
1

> <i_i_glide_posenum>
7

> <r_i_glide_eff_state_penalty>
0

> <s_user_duplicate_titles>
CHEMBL1900_lig550

> <s_m_subgroup_title>
dock_pv

> <s_m_subgroupid>
dock_pv

> <b_m_subgroup_collapsed>
1

$$$$
CHEMBL1900_lig33
                    3D
 Schrodinger Suite 2021-1.
 30 31  0  0  1  0            999 V2000
   14.9455   -6.9156   17.7805 N   0  0  0  0  0  0
   17.1881   -8.7713   15.9906 C   0  0  0  0  0  0
   15.0224   -8.0535   17.0894 C   0  0  0  0  0  0
   16.8757  -11.5883   16.2139 S   0  0  0  0  0  0
   16.4221   -8.5824   17.3148 C   0  0  2  0  0  0
   16.0512   -6.5908   18.4762 C   0  0  0  0  0  0
   17.4356  -10.0406   15.3948 C   0  0  0  0  0  0
   16.9371   -7.5488   18.1807 N   0  0  0  0  0  0
   18.1523  -10.0757   14.1688 C   0  0  0  0  0  0
   17.6573   -7.6068   15.3598 C   0  0  0  0  0  0
   17.1468  -12.7447   15.3563 O   0  0  0  0  0  0
   17.4166  -11.5850   17.5777 O   0  0  0  0  0  0
   18.6118   -8.8909   13.5894 C   0  0  0  0  0  0
   14.1484   -8.5458   16.3822 O   0  0  0  0  0  0
   16.1440   -5.7196   19.3335 O   0  0  0  0  0  0
   18.3660   -7.6615   14.1735 C   0  0  0  0  0  0
   15.0011  -11.4772   16.3259 C   0  0  0  0  0  0
   18.9445   -6.2126   13.4355 Cl  0  0  0  0  0  0
   18.5101  -11.3509   13.4153 C   0  0  0  0  0  0
   14.0747   -6.4137   17.8616 H   0  0  0  0  0  0
   16.3722   -9.4753   17.9288 H   0  0  0  0  0  0
   17.9304   -7.4392   18.3278 H   0  0  0  0  0  0
   17.4768   -6.6347   15.7936 H   0  0  0  0  0  0
   19.1820   -8.9152   12.6730 H   0  0  0  0  0  0
   14.6066  -12.4901   16.4161 H   0  0  0  0  0  0
   14.7183  -10.9148   17.2128 H   0  0  0  0  0  0
   14.6118  -11.0034   15.4242 H   0  0  0  0  0  0
   19.1159  -11.1662   12.5279 H   0  0  0  0  0  0
   17.6056  -11.8648   13.0876 H   0  0  0  0  0  0
   19.0870  -12.0218   14.0509 H   0  0  0  0  0  0
  1  3  1  0  0  0
  1  6  1  0  0  0
  1 20  1  0  0  0
  2  5  1  0  0  0
  2  7  1  0  0  0
  2 10  2  0  0  0
  3  5  1  0  0  0
  3 14  2  0  0  0
  4  7  1  0  0  0
  4 11  2  0  0  0
  4 12  2  0  0  0
  4 17  1  0  0  0
  5  8  1  0  0  0
  5 21  1  0  0  0
  6  8  1  0  0  0
  6 15  2  0  0  0
  7  9  2  0  0  0
  8 22  1  0  0  0
  9 19  1  0  0  0
  9 13  1  0  0  0
 10 16  1  0  0  0
 10 23  1  0  0  0
 13 16  2  0  0  0
 13 24  1  0  0  0
 16 18  1  0  0  0
 17 25  1  0  0  0
 17 26  1  0  0  0
 17 27  1  0  0  0
 19 28  1  0  0  0
 19 29  1  0  0  0
 19 30  1  0  0  0
M  END
> <s_m_entry_id>
6635

> <s_m_entry_name>
dock_pv.470

> <s_m_Source_Path>
/home/csk/Desktop/cluster/DUD-E-result/aldr

> <s_m_Source_File>
dock_pv.maegz

> <i_m_Source_File_Index>
470

> <chembl_id>
CHEMBL19502

> <chembl_pref_name>
None

> <i_lp_mmshare_version>
53161

> <i_f3d_flags>
0

> <r_lp_tautomer_probability>
0.999999999781369

> <s_lp_Force_Field>
OPLS_2005

> <r_lp_Energy>
25.659138

> <b_lp_Chiralities_Consistent>
1

> <s_lp_Variant>
CHEMBL1900_lig33-1

> <s_i_glide_gridfile>
glide-grid_2hv5

> <i_i_glide_lignum>
64

> <i_i_glide_rotatable_bonds>
2

> <r_i_docking_score>
-7.44397684152288

> <r_i_glide_ligand_efficiency>
-0.391788254816994

> <r_i_glide_ligand_efficiency_sa>
-1.04544842407747

> <r_i_glide_ligand_efficiency_ln>
-1.88720801128884

> <r_i_glide_gscore>
-7.44397684152288

> <r_i_glide_lipo>
-2.43229243571485

> <r_i_glide_hbond>
-0.107497824040173

> <r_i_glide_metal>
0

> <r_i_glide_rewards>
-2.90306980410539

> <r_i_glide_evdw>
-33.0855941772461

> <r_i_glide_ecoul>
-3.40555739402771

> <r_i_glide_erotb>
0.20094848207998

> <r_i_glide_esite>
-0.0369519417759924

> <r_i_glide_emodel>
-52.1061909178444

> <r_i_glide_energy>
-36.4911515712738

> <r_i_glide_einternal>
1.2447075843811

> <i_i_glide_confnum>
1

> <i_i_glide_posenum>
106

> <r_i_glide_eff_state_penalty>
0

> <s_user_duplicate_titles>
CHEMBL1900_lig33,22832

> <s_m_subgroup_title>
dock_pv

> <s_m_subgroupid>
dock_pv

> <b_m_subgroup_collapsed>
1

$$$$
CHEMBL1900_lig323
                    3D
 Schrodinger Suite 2021-1.
 36 38  0  0  1  0            999 V2000
   16.5004   -9.1507   16.8837 C   0  0  0  0  0  0
   16.7319   -8.5213   15.5404 C   0  0  0  0  0  0
   17.5634   -9.0855   14.5472 C   0  0  0  0  0  0
   16.0588   -7.3139   15.2767 C   0  0  0  0  0  0
   16.9620   -7.2792   13.0241 C   0  0  0  0  0  0
   16.0522  -10.5729   17.0087 C   0  0  0  0  0  0
   18.1500  -10.4360   14.6377 C   0  0  0  0  0  0
   17.7440   -8.3983   13.3351 C   0  0  0  0  0  0
   16.1467   -6.7560   14.0143 C   0  0  0  0  0  0
   17.9225   -5.4056   11.6012 C   0  0  0  0  0  0
   17.7465  -11.5033   15.3531 C   0  0  0  0  0  0
   16.9690   -6.6080   11.6350 C   0  0  2  0  0  0
   16.6318  -11.6494   16.3113 C   0  0  0  0  0  0
   16.3797   -8.4052   17.8633 O   0  0  0  0  0  0
   18.5444   -5.0163   12.5781 O   0  0  0  0  0  0
   15.2501   -6.6670   16.1813 O   0  0  0  0  0  0
   18.0165   -4.8555   10.3568 O   0  0  0  0  0  0
   15.0103  -10.8078   17.9248 C   0  0  0  0  0  0
   15.5533   -6.1543   11.1642 C   0  0  0  0  0  0
   16.1392  -12.9399   16.5400 C   0  0  0  0  0  0
   14.5452  -12.1008   18.1399 C   0  0  0  0  0  0
   15.1041  -13.1644   17.4435 C   0  0  0  0  0  0
   19.0242  -10.5839   14.0206 H   0  0  0  0  0  0
   18.3900   -8.8188   12.5809 H   0  0  0  0  0  0
   15.5574   -5.8898   13.7803 H   0  0  0  0  0  0
   18.3484  -12.3946   15.2426 H   0  0  0  0  0  0
   17.3432   -7.3413   10.9204 H   0  0  0  0  0  0
   15.3276   -7.0826   17.0500 H   0  0  0  0  0  0
   17.4224   -5.2868    9.7400 H   0  0  0  0  0  0
   14.5505  -10.0022   18.4830 H   0  0  0  0  0  0
   15.2130   -5.2529   11.6803 H   0  0  0  0  0  0
   15.5360   -5.9309   10.0966 H   0  0  0  0  0  0
   14.7941   -6.9143   11.3451 H   0  0  0  0  0  0
   16.5606  -13.7863   16.0152 H   0  0  0  0  0  0
   13.7462  -12.2780   18.8446 H   0  0  0  0  0  0
   14.7316  -14.1639   17.6041 H   0  0  0  0  0  0
  1  2  1  0  0  0
  1  6  1  0  0  0
  1 14  2  0  0  0
  2  3  2  0  0  0
  2  4  1  0  0  0
  3  7  1  0  0  0
  3  8  1  0  0  0
  4  9  2  0  0  0
  4 16  1  0  0  0
  5  9  1  0  0  0
  5 12  1  0  0  0
  5  8  2  0  0  0
  6 13  1  0  0  0
  6 18  2  0  0  0
  7 11  2  0  0  0
  7 23  1  0  0  0
  8 24  1  0  0  0
  9 25  1  0  0  0
 10 12  1  0  0  0
 10 15  2  0  0  0
 10 17  1  0  0  0
 11 13  1  0  0  0
 11 26  1  0  0  0
 12 19  1  0  0  0
 12 27  1  0  0  0
 13 20  2  0  0  0
 16 28  1  0  0  0
 17 29  1  0  0  0
 18 21  1  0  0  0
 18 30  1  0  0  0
 19 31  1  0  0  0
 19 32  1  0  0  0
 19 33  1  0  0  0
 20 22  1  0  0  0
 20 34  1  0  0  0
 21 22  2  0  0  0
 21 35  1  0  0  0
 22 36  1  0  0  0
M  END
> <s_m_entry_id>
6636

> <s_m_entry_name>
dock_pv.471

> <s_m_Source_Path>
/home/csk/Desktop/cluster/DUD-E-result/aldr

> <s_m_Source_File>
dock_pv.maegz

> <i_m_Source_File_Index>
471

> <chembl_id>
CHEMBL75630

> <chembl_pref_name>
None

> <i_lp_mmshare_version>
53161

> <i_f3d_flags>
0

> <r_lp_tautomer_probability>
1

> <s_lp_Force_Field>
OPLS_2005

> <r_lp_Energy>
35.063859

> <b_lp_Chiralities_Consistent>
1

> <s_lp_Variant>
CHEMBL1900_lig323-2

> <s_i_glide_gridfile>
glide-grid_2hv5

> <i_i_glide_lignum>
442

> <i_i_glide_rotatable_bonds>
4

> <r_i_docking_score>
-7.44389621064378

> <r_i_glide_ligand_efficiency>
-0.338358918665627

> <r_i_glide_ligand_efficiency_sa>
-0.948094997002246

> <r_i_glide_ligand_efficiency_ln>
-1.81955975659288

> <r_i_glide_gscore>
-7.44389621064378

> <r_i_glide_lipo>
-2.92777078580863

> <r_i_glide_hbond>
0

> <r_i_glide_metal>
0

> <r_i_glide_rewards>
-2.75249072727273

> <r_i_glide_evdw>
-27.9751224517822

> <r_i_glide_ecoul>
-5.24756193161011

> <r_i_glide_erotb>
0.422255714768195

> <r_i_glide_esite>
0

> <r_i_glide_emodel>
-40.4329719426366

> <r_i_glide_energy>
-33.2226843833923

> <r_i_glide_einternal>
0.632542312145233

> <i_i_glide_confnum>
5

> <i_i_glide_posenum>
251

> <r_i_glide_eff_state_penalty>
0

> <s_user_duplicate_titles>
CHEMBL1900_lig323

> <s_m_subgroup_title>
dock_pv

> <s_m_subgroupid>
dock_pv

> <b_m_subgroup_collapsed>
1

$$$$
CHEMBL1900_lig233
                    3D
 Schrodinger Suite 2021-1.
 23 24  0  0  1  0            999 V2000
   17.9182   -7.8315   14.8727 C   0  0  0  0  0  0
   16.8362   -7.0803   15.2166 C   0  0  0  0  0  0
   16.9583   -9.7486   15.8450 C   0  0  2  0  0  0
   18.1450   -9.0949   15.3713 O   0  0  0  0  0  0
   16.2294   -8.8377   16.8825 C   0  0  1  0  0  0
   15.8632   -7.5146   16.2055 C   0  0  0  0  0  0
   17.2540  -11.1111   16.4682 C   0  0  0  0  0  0
   15.0886   -9.6011   17.5511 C   0  0  0  0  0  0
   18.9097   -7.3011   13.9454 C   0  0  0  0  0  0
   16.4112  -11.6607   17.3709 C   0  0  0  0  0  0
   15.2225  -10.9215   17.7810 C   0  0  0  0  0  0
   14.8830   -6.8363   16.5049 O   0  0  0  0  0  0
   18.8281   -6.2103   13.3816 O   0  0  0  0  0  0
   19.9907   -8.1149   13.7763 O   0  0  0  0  0  0
   16.7035  -12.8495   17.9548 O   0  0  0  0  0  0
   16.6938   -6.1150   14.7594 H   0  0  0  0  0  0
   16.3166   -9.9464   14.9812 H   0  0  0  0  0  0
   16.9360   -8.5672   17.6675 H   0  0  0  0  0  0
   18.1447  -11.6427   16.1690 H   0  0  0  0  0  0
   14.1977   -9.0873   17.8858 H   0  0  0  0  0  0
   14.4173  -11.4537   18.2685 H   0  0  0  0  0  0
   20.6470   -7.6874   13.2130 H   0  0  0  0  0  0
   17.4703  -13.2369   17.5253 H   0  0  0  0  0  0
  1  2  2  0  0  0
  1  4  1  0  0  0
  1  9  1  0  0  0
  2  6  1  0  0  0
  2 16  1  0  0  0
  3  4  1  0  0  0
  3  5  1  0  0  0
  3  7  1  0  0  0
  3 17  1  0  0  0
  5  8  1  0  0  0
  5  6  1  0  0  0
  5 18  1  0  0  0
  6 12  2  0  0  0
  7 10  2  0  0  0
  7 19  1  0  0  0
  8 11  2  0  0  0
  8 20  1  0  0  0
  9 13  2  0  0  0
  9 14  1  0  0  0
 10 11  1  0  0  0
 10 15  1  0  0  0
 11 21  1  0  0  0
 14 22  1  0  0  0
 15 23  1  0  0  0
M  END
> <s_m_entry_id>
6637

> <s_m_entry_name>
dock_pv.472

> <s_m_Source_Path>
/home/csk/Desktop/cluster/DUD-E-result/aldr

> <s_m_Source_File>
dock_pv.maegz

> <i_m_Source_File_Index>
472

> <chembl_id>
CHEMBL422920

> <chembl_pref_name>
None

> <i_lp_mmshare_version>
53161

> <i_f3d_flags>
0

> <r_lp_tautomer_probability>
1

> <s_lp_Force_Field>
OPLS_2005

> <r_lp_Energy>
7.988295

> <b_lp_Chiralities_Consistent>
1

> <s_lp_Variant>
CHEMBL1900_lig233-1

> <s_i_glide_gridfile>
glide-grid_2hv5

> <i_i_glide_lignum>
341

> <i_i_glide_rotatable_bonds>
3

> <r_i_docking_score>
-7.44064749046989

> <r_i_glide_ligand_efficiency>
-0.496043166031326

> <r_i_glide_ligand_efficiency_sa>
-1.22334764435127

> <r_i_glide_ligand_efficiency_ln>
-2.00661994496681

> <r_i_glide_gscore>
-7.44064749046989

> <r_i_glide_lipo>
-1.62628646069274

> <r_i_glide_hbond>
-0.334992525770579

> <r_i_glide_metal>
0

> <r_i_glide_rewards>
-3.58591814932536

> <r_i_glide_evdw>
-26.2986469268799

> <r_i_glide_ecoul>
-6.40288400650024

> <r_i_glide_erotb>
0.381914592637822

> <r_i_glide_esite>
0

> <r_i_glide_emodel>
-46.4855383572857

> <r_i_glide_energy>
-32.7015309333801

> <r_i_glide_einternal>
0.0716120153665543

> <i_i_glide_confnum>
1

> <i_i_glide_posenum>
333

> <r_i_glide_eff_state_penalty>
0

> <s_user_duplicate_titles>
CHEMBL1900_lig233

> <s_m_subgroup_title>
dock_pv

> <s_m_subgroupid>
dock_pv

> <b_m_subgroup_collapsed>
1

$$$$
CHEMBL1900_lig228
                    3D
 Schrodinger Suite 2021-1.
 27 28  0  0  1  0            999 V2000
   16.4489   -7.1163   17.8533 C   0  0  0  0  0  0
   15.8488   -8.3123   18.0542 C   0  0  0  0  0  0
   17.4994   -7.8648   15.8900 C   0  0  0  0  0  0
   17.1708   -6.8274   16.7362 O   0  0  0  0  0  0
   15.9231   -9.3940   17.0892 C   0  0  0  0  0  0
   16.8985   -9.1288   15.9949 C   0  0  0  0  0  0
   16.4161   -6.0533   18.8734 C   0  0  0  0  0  0
   18.5127   -7.6240   14.9697 C   0  0  0  0  0  0
   17.2814  -10.1352   15.0994 C   0  0  0  0  0  0
   15.3166  -10.4567   17.2032 O   0  0  0  0  0  0
   16.1450   -6.2546   20.0605 O   0  0  0  0  0  0
   18.9437   -8.6642   14.1548 C   0  0  0  0  0  0
   18.3015   -9.8981   14.1813 C   0  0  0  0  0  0
   16.7212   -4.8331   18.3762 O   0  0  0  0  0  0
   20.0527   -8.5143   13.3810 O   0  0  0  0  0  0
   16.9408   -3.7147   19.2271 C   0  0  0  0  0  0
   15.6576   -3.0733   19.7804 C   0  0  0  0  0  0
   15.3449   -8.5185   18.9801 H   0  0  0  0  0  0
   18.9953   -6.6593   14.9519 H   0  0  0  0  0  0
   16.8305  -11.1181   15.1405 H   0  0  0  0  0  0
   18.6365  -10.6924   13.5296 H   0  0  0  0  0  0
   20.4662   -7.6481   13.4281 H   0  0  0  0  0  0
   17.4512   -2.9680   18.6209 H   0  0  0  0  0  0
   17.6235   -3.9764   20.0382 H   0  0  0  0  0  0
   15.8952   -2.1779   20.3552 H   0  0  0  0  0  0
   15.1171   -3.7472   20.4436 H   0  0  0  0  0  0
   14.9861   -2.7762   18.9746 H   0  0  0  0  0  0
  1  2  2  0  0  0
  1  4  1  0  0  0
  1  7  1  0  0  0
  2  5  1  0  0  0
  2 18  1  0  0  0
  3  4  1  0  0  0
  3  6  1  0  0  0
  3  8  2  0  0  0
  5 10  2  0  0  0
  5  6  1  0  0  0
  6  9  2  0  0  0
  7 11  2  0  0  0
  7 14  1  0  0  0
  8 12  1  0  0  0
  8 19  1  0  0  0
  9 13  1  0  0  0
  9 20  1  0  0  0
 12 13  2  0  0  0
 12 15  1  0  0  0
 13 21  1  0  0  0
 14 16  1  0  0  0
 15 22  1  0  0  0
 16 17  1  0  0  0
 16 23  1  0  0  0
 16 24  1  0  0  0
 17 25  1  0  0  0
 17 26  1  0  0  0
 17 27  1  0  0  0
M  END
> <s_m_entry_id>
6638

> <s_m_entry_name>
dock_pv.473

> <s_m_Source_Path>
/home/csk/Desktop/cluster/DUD-E-result/aldr

> <s_m_Source_File>
dock_pv.maegz

> <i_m_Source_File_Index>
473

> <chembl_id>
CHEMBL82749

> <chembl_pref_name>
None

> <i_lp_mmshare_version>
53161

> <i_f3d_flags>
0

> <r_lp_tautomer_probability>
1

> <s_lp_Force_Field>
OPLS_2005

> <r_lp_Energy>
6.145824

> <b_lp_Chiralities_Consistent>
1

> <s_lp_Variant>
CHEMBL1900_lig228-1

> <s_i_glide_gridfile>
glide-grid_2hv5

> <i_i_glide_lignum>
304

> <i_i_glide_rotatable_bonds>
4

> <r_i_docking_score>
-7.4393451732348

> <r_i_glide_ligand_efficiency>
-0.437608539602047

> <r_i_glide_ligand_efficiency_sa>
-1.12521478073092

> <r_i_glide_ligand_efficiency_ln>
-1.94075948962514

> <r_i_glide_gscore>
-7.4393451732348

> <r_i_glide_lipo>
-2.68112321779342

> <r_i_glide_hbond>
-0.316805788807791

> <r_i_glide_metal>
0

> <r_i_glide_rewards>
-2.98507536363452

> <r_i_glide_evdw>
-30.4468631744385

> <r_i_glide_ecoul>
-3.7334451675415

> <r_i_glide_erotb>
0.626019130854076

> <r_i_glide_esite>
0

> <r_i_glide_emodel>
-46.7356743862841

> <r_i_glide_energy>
-34.18030834198

> <r_i_glide_einternal>
1.60169112682343

> <i_i_glide_confnum>
1

> <i_i_glide_posenum>
144

> <r_i_glide_eff_state_penalty>
0

> <s_user_duplicate_titles>
CHEMBL1900_lig228

> <s_m_subgroup_title>
dock_pv

> <s_m_subgroupid>
dock_pv

> <b_m_subgroup_collapsed>
1

$$$$
CHEMBL1900_lig87
                    3D
 Schrodinger Suite 2021-1.
 27 28  0  0  1  0            999 V2000
   18.0690   -7.5578   13.9562 S   0  0  0  0  0  0
   17.2216   -7.3482   15.5615 C   0  0  0  0  0  0
   17.9839   -7.2200   16.5951 N   0  0  0  0  0  0
   17.4296   -6.9186   17.8371 N   0  0  0  0  0  0
   15.7856   -7.2921   15.7598 C   0  0  0  0  0  0
   16.1239   -6.6497   18.1186 C   0  0  0  0  0  0
   17.3491   -6.4055   12.7664 C   0  0  0  0  0  0
   15.2741   -6.9932   16.9832 C   0  0  0  0  0  0
   17.7465   -8.9169   13.5116 O   0  0  0  0  0  0
   19.4647   -7.1568   14.1761 O   0  0  0  0  0  0
   15.7502   -6.1166   19.1624 O   0  0  0  0  0  0
   18.1453   -5.4207   12.1832 C   0  0  0  0  0  0
   16.0262   -6.5387   12.3518 C   0  0  0  0  0  0
   15.4993   -5.7116   11.3669 C   0  0  0  0  0  0
   17.6329   -4.5934   11.1856 C   0  0  0  0  0  0
   16.3044   -4.7353   10.7825 C   0  0  0  0  0  0
   15.7232   -3.8269    9.7158 C   0  0  0  0  0  0
   15.1021   -7.5791   14.9807 H   0  0  0  0  0  0
   14.2055   -7.0078   17.1448 H   0  0  0  0  0  0
   18.1037   -6.7587   18.5713 H   0  0  0  0  0  0
   19.1717   -5.3134   12.4946 H   0  0  0  0  0  0
   15.4088   -7.3202   12.7516 H   0  0  0  0  0  0
   14.4719   -5.8313   11.0539 H   0  0  0  0  0  0
   18.2628   -3.8370   10.7417 H   0  0  0  0  0  0
   15.2240   -4.4213    8.9489 H   0  0  0  0  0  0
   16.4855   -3.2224    9.2233 H   0  0  0  0  0  0
   14.9750   -3.1670   10.1584 H   0  0  0  0  0  0
  1  7  1  0  0  0
  1  9  2  0  0  0
  1 10  2  0  0  0
  1  2  1  0  0  0
  2  5  1  0  0  0
  2  3  2  0  0  0
  3  4  1  0  0  0
  4  6  1  0  0  0
  4 20  1  0  0  0
  5  8  2  0  0  0
  5 18  1  0  0  0
  6 11  2  0  0  0
  6  8  1  0  0  0
  7 12  1  0  0  0
  7 13  2  0  0  0
  8 19  1  0  0  0
 12 15  2  0  0  0
 12 21  1  0  0  0
 13 14  1  0  0  0
 13 22  1  0  0  0
 14 16  2  0  0  0
 14 23  1  0  0  0
 15 16  1  0  0  0
 15 24  1  0  0  0
 16 17  1  0  0  0
 17 25  1  0  0  0
 17 26  1  0  0  0
 17 27  1  0  0  0
M  END
> <s_m_entry_id>
6639

> <s_m_entry_name>
dock_pv.474

> <s_m_Source_Path>
/home/csk/Desktop/cluster/DUD-E-result/aldr

> <s_m_Source_File>
dock_pv.maegz

> <i_m_Source_File_Index>
474

> <chembl_id>
CHEMBL72368

> <chembl_pref_name>
None

> <i_lp_mmshare_version>
53161

> <i_f3d_flags>
0

> <r_lp_tautomer_probability>
0.998994762270461

> <s_lp_Force_Field>
OPLS_2005

> <r_lp_Energy>
21.287341

> <b_lp_Chiralities_Consistent>
1

> <s_lp_Variant>
CHEMBL1900_lig87-1

> <s_i_glide_gridfile>
glide-grid_2hv5

> <i_i_glide_lignum>
126

> <i_i_glide_rotatable_bonds>
2

> <r_i_docking_score>
-7.42153808287066

> <r_i_glide_ligand_efficiency>
-0.436561063698274

> <r_i_glide_ligand_efficiency_sa>
-1.12252142522543

> <r_i_glide_ligand_efficiency_ln>
-1.93611401629354

> <r_i_glide_gscore>
-7.42153808287066

> <r_i_glide_lipo>
-2.93869315020548

> <r_i_glide_hbond>
-0.0344651967250326

> <r_i_glide_metal>
0

> <r_i_glide_rewards>
-3.03369426896036

> <r_i_glide_evdw>
-35.7901382446289

> <r_i_glide_ecoul>
-1.2275013923645

> <r_i_glide_erotb>
0.558946654106347

> <r_i_glide_esite>
0

> <r_i_glide_emodel>
-51.0079381375595

> <r_i_glide_energy>
-37.0176396369934

> <r_i_glide_einternal>
1.72023057937622

> <i_i_glide_confnum>
2

> <i_i_glide_posenum>
367

> <r_i_glide_eff_state_penalty>
0

> <s_user_duplicate_titles>
CHEMBL1900_lig87

> <s_m_subgroup_title>
dock_pv

> <s_m_subgroupid>
dock_pv

> <b_m_subgroup_collapsed>
1

$$$$
CHEMBL1900_lig233
                    3D
 Schrodinger Suite 2021-1.
 23 24  0  0  1  0            999 V2000
   17.7140   -7.8517   14.7883 C   0  0  0  0  0  0
   16.6858   -7.0473   15.1375 C   0  0  0  0  0  0
   17.3441   -9.3358   16.6204 C   0  0  1  0  0  0
   17.9555   -9.0734   15.3500 O   0  0  0  0  0  0
   15.9075   -8.7290   16.8424 C   0  0  1  0  0  0
   15.7694   -7.3447   16.2077 C   0  0  0  0  0  0
   17.3468  -10.8557   16.7856 C   0  0  0  0  0  0
   14.7847   -9.6698   16.4044 C   0  0  0  0  0  0
   18.6621   -7.4092   13.7781 C   0  0  0  0  0  0
   16.2476  -11.6202   16.6470 C   0  0  0  0  0  0
   14.9744  -10.9986   16.3449 C   0  0  0  0  0  0
   14.9421   -6.5157   16.5818 O   0  0  0  0  0  0
   18.5457   -6.3840   13.1077 O   0  0  0  0  0  0
   19.7451   -8.2272   13.6560 O   0  0  0  0  0  0
   16.3306  -12.9627   16.8178 O   0  0  0  0  0  0
   16.5560   -6.1126   14.6203 H   0  0  0  0  0  0
   18.0022   -8.9126   17.3803 H   0  0  0  0  0  0
   15.7648   -8.5672   17.9115 H   0  0  0  0  0  0
   18.2836  -11.3524   16.9913 H   0  0  0  0  0  0
   13.7988   -9.2774   16.1865 H   0  0  0  0  0  0
   14.1473  -11.6255   16.0447 H   0  0  0  0  0  0
   20.3797   -7.8534   13.0368 H   0  0  0  0  0  0
   15.4670  -13.3552   16.6743 H   0  0  0  0  0  0
  1  2  2  0  0  0
  1  4  1  0  0  0
  1  9  1  0  0  0
  2  6  1  0  0  0
  2 16  1  0  0  0
  3  4  1  0  0  0
  3  5  1  0  0  0
  3  7  1  0  0  0
  3 17  1  0  0  0
  5  8  1  0  0  0
  5  6  1  0  0  0
  5 18  1  0  0  0
  6 12  2  0  0  0
  7 10  2  0  0  0
  7 19  1  0  0  0
  8 11  2  0  0  0
  8 20  1  0  0  0
  9 13  2  0  0  0
  9 14  1  0  0  0
 10 11  1  0  0  0
 10 15  1  0  0  0
 11 21  1  0  0  0
 14 22  1  0  0  0
 15 23  1  0  0  0
M  END
> <s_m_entry_id>
6640

> <s_m_entry_name>
dock_pv.475

> <s_m_Source_Path>
/home/csk/Desktop/cluster/DUD-E-result/aldr

> <s_m_Source_File>
dock_pv.maegz

> <i_m_Source_File_Index>
475

> <chembl_id>
CHEMBL422920

> <chembl_pref_name>
None

> <i_lp_mmshare_version>
53161

> <i_f3d_flags>
0

> <r_lp_tautomer_probability>
1

> <s_lp_Force_Field>
OPLS_2005

> <r_lp_Energy>
6.871306

> <b_lp_Chiralities_Consistent>
1

> <s_lp_Variant>
CHEMBL1900_lig233-2

> <s_i_glide_gridfile>
glide-grid_2hv5

> <i_i_glide_lignum>
342

> <i_i_glide_rotatable_bonds>
3

> <r_i_docking_score>
-7.4182132655332

> <r_i_glide_ligand_efficiency>
-0.494547551035546

> <r_i_glide_ligand_efficiency_sa>
-1.21965914059346

> <r_i_glide_ligand_efficiency_ln>
-2.00056980440236

> <r_i_glide_gscore>
-7.4182132655332

> <r_i_glide_lipo>
-1.76491205081508

> <r_i_glide_hbond>
-0.309319830882501

> <r_i_glide_metal>
0

> <r_i_glide_rewards>
-3.55382575934087

> <r_i_glide_evdw>
-26.658260345459

> <r_i_glide_ecoul>
-5.59438133239746

> <r_i_glide_erotb>
0.381914592637822

> <r_i_glide_esite>
0

> <r_i_glide_emodel>
-45.7269470463957

> <r_i_glide_energy>
-32.2526416778564

> <r_i_glide_einternal>
0.204752862453461

> <i_i_glide_confnum>
1

> <i_i_glide_posenum>
201

> <r_i_glide_eff_state_penalty>
0

> <s_user_duplicate_titles>
CHEMBL1900_lig233

> <s_m_subgroup_title>
dock_pv

> <s_m_subgroupid>
dock_pv

> <b_m_subgroup_collapsed>
1

$$$$
CHEMBL1900_lig236
                    3D
 Schrodinger Suite 2021-1.
 21 22  0  0  1  0            999 V2000
   17.9137   -7.8810   14.6762 C   0  0  0  0  0  0
   16.8552   -7.1050   15.0041 C   0  0  0  0  0  0
   17.1137   -9.6488   16.0370 C   0  0  0  0  0  0
   18.0797   -9.1374   15.1884 O   0  0  0  0  0  0
   15.8459   -7.4978   15.9615 C   0  0  0  0  0  0
   16.0106   -8.8908   16.4526 C   0  0  0  0  0  0
   18.9442   -7.3722   13.7812 C   0  0  0  0  0  0
   17.2900  -10.9554   16.4833 C   0  0  0  0  0  0
   15.0854   -9.4642   17.3318 C   0  0  0  0  0  0
   14.9450   -6.7541   16.3407 O   0  0  0  0  0  0
   18.9450   -6.2409   13.2937 O   0  0  0  0  0  0
   16.3640  -11.5104   17.3604 C   0  0  0  0  0  0
   19.9567   -8.2555   13.5523 O   0  0  0  0  0  0
   15.2625  -10.7709   17.7806 C   0  0  0  0  0  0
   16.5478  -12.7778   17.8350 O   0  0  0  0  0  0
   16.7520   -6.1334   14.5509 H   0  0  0  0  0  0
   18.1445  -11.5202   16.1471 H   0  0  0  0  0  0
   14.2283   -8.8964   17.6692 H   0  0  0  0  0  0
   20.6445   -7.8372   13.0203 H   0  0  0  0  0  0
   14.5446  -11.2075   18.4606 H   0  0  0  0  0  0
   17.2724  -13.2311   17.3983 H   0  0  0  0  0  0
  1  2  2  0  0  0
  1  4  1  0  0  0
  1  7  1  0  0  0
  2  5  1  0  0  0
  2 16  1  0  0  0
  3  4  1  0  0  0
  3  6  1  0  0  0
  3  8  2  0  0  0
  5 10  2  0  0  0
  5  6  1  0  0  0
  6  9  2  0  0  0
  7 11  2  0  0  0
  7 13  1  0  0  0
  8 12  1  0  0  0
  8 17  1  0  0  0
  9 14  1  0  0  0
  9 18  1  0  0  0
 12 14  2  0  0  0
 12 15  1  0  0  0
 13 19  1  0  0  0
 14 20  1  0  0  0
 15 21  1  0  0  0
M  END
> <s_m_entry_id>
6641

> <s_m_entry_name>
dock_pv.476

> <s_m_Source_Path>
/home/csk/Desktop/cluster/DUD-E-result/aldr

> <s_m_Source_File>
dock_pv.maegz

> <i_m_Source_File_Index>
476

> <chembl_id>
CHEMBL171055

> <chembl_pref_name>
None

> <i_lp_mmshare_version>
53161

> <i_f3d_flags>
0

> <r_lp_tautomer_probability>
1

> <s_lp_Force_Field>
OPLS_2005

> <r_lp_Energy>
6.192647

> <b_lp_Chiralities_Consistent>
1

> <s_lp_Variant>
CHEMBL1900_lig236-1

> <s_i_glide_gridfile>
glide-grid_2hv5

> <i_i_glide_lignum>
347

> <i_i_glide_rotatable_bonds>
3

> <r_i_docking_score>
-7.40098329794192

> <r_i_glide_ligand_efficiency>
-0.493398886529462

> <r_i_glide_ligand_efficiency_sa>
-1.21682629032176

> <r_i_glide_ligand_efficiency_ln>
-1.99592316623491

> <r_i_glide_gscore>
-7.40098329794192

> <r_i_glide_lipo>
-1.91754146872719

> <r_i_glide_hbond>
-0.322797755537674

> <r_i_glide_metal>
0

> <r_i_glide_rewards>
-3.25351154545455

> <r_i_glide_evdw>
-24.6036720275879

> <r_i_glide_ecoul>
-7.10091638565063

> <r_i_glide_erotb>
0.38818853100448

> <r_i_glide_esite>
0

> <r_i_glide_emodel>
-45.659659134177

> <r_i_glide_energy>
-31.7045884132385

> <r_i_glide_einternal>
0.10713142156601

> <i_i_glide_confnum>
3

> <i_i_glide_posenum>
255

> <r_i_glide_eff_state_penalty>
0

> <s_user_duplicate_titles>
CHEMBL1900_lig236

> <s_m_subgroup_title>
dock_pv

> <s_m_subgroupid>
dock_pv

> <b_m_subgroup_collapsed>
1

$$$$
CHEMBL1900_lig66
                    3D
 Schrodinger Suite 2021-1.
 34 36  0  0  1  0            999 V2000
   18.0336   -7.9011   14.9954 S   0  0  0  0  0  0
   17.4003   -6.9150   13.6196 C   0  0  0  0  0  0
   16.1450   -6.9150   13.3422 N   0  0  0  0  0  0
   16.7145   -8.8558   15.8095 C   0  0  0  0  0  0
   15.6860   -6.1638   12.2497 N   0  0  0  0  0  0
   18.2925   -6.1149   12.8141 C   0  0  0  0  0  0
   15.9416   -8.4158   16.9159 C   0  0  0  0  0  0
   16.4191   -5.4060   11.3810 C   0  0  0  0  0  0
   18.5450   -6.9150   15.9452 O   0  0  0  0  0  0
   18.9430   -8.8548   14.3479 O   0  0  0  0  0  0
   17.8224   -5.3955   11.7641 C   0  0  0  0  0  0
   16.1174   -7.1249   17.6388 C   0  0  0  0  0  0
   15.9488   -4.8240   10.4074 O   0  0  0  0  0  0
   16.5673  -10.1793   15.3743 C   0  0  0  0  0  0
   14.9990   -9.2994   17.4661 C   0  0  0  0  0  0
   15.9672   -5.8810   17.0377 C   0  0  0  0  0  0
   16.4002   -7.1604   19.0011 C   0  0  0  0  0  0
   15.6541  -11.0468   15.9617 C   0  0  0  0  0  0
   14.8577  -10.6017   17.0046 C   0  0  0  0  0  0
   16.5455   -6.0022   19.7577 C   0  0  0  0  0  0
   16.1450   -4.7064   17.7810 C   0  0  0  0  0  0
   16.4420   -4.7682   19.1361 C   0  0  0  0  0  0
   19.3450   -6.0766   13.0557 H   0  0  0  0  0  0
   18.4968   -4.7946   11.1730 H   0  0  0  0  0  0
   14.6915   -6.2122   12.0838 H   0  0  0  0  0  0
   17.1708  -10.5557   14.5605 H   0  0  0  0  0  0
   14.3938   -8.9857   18.3038 H   0  0  0  0  0  0
   15.7450   -5.8297   15.9847 H   0  0  0  0  0  0
   16.5007   -8.1150   19.4867 H   0  0  0  0  0  0
   15.5635  -12.0625   15.6052 H   0  0  0  0  0  0
   14.1449  -11.2686   17.4672 H   0  0  0  0  0  0
   16.7643   -6.0648   20.8133 H   0  0  0  0  0  0
   16.0456   -3.7389   17.3133 H   0  0  0  0  0  0
   16.5776   -3.8590   19.7045 H   0  0  0  0  0  0
  1  4  1  0  0  0
  1  9  2  0  0  0
  1 10  2  0  0  0
  1  2  1  0  0  0
  2  6  1  0  0  0
  2  3  2  0  0  0
  3  5  1  0  0  0
  4  7  2  0  0  0
  4 14  1  0  0  0
  5  8  1  0  0  0
  5 25  1  0  0  0
  6 11  2  0  0  0
  6 23  1  0  0  0
  7 12  1  0  0  0
  7 15  1  0  0  0
  8 13  2  0  0  0
  8 11  1  0  0  0
 11 24  1  0  0  0
 12 16  2  0  0  0
 12 17  1  0  0  0
 14 18  2  0  0  0
 14 26  1  0  0  0
 15 19  2  0  0  0
 15 27  1  0  0  0
 16 21  1  0  0  0
 16 28  1  0  0  0
 17 20  2  0  0  0
 17 29  1  0  0  0
 18 19  1  0  0  0
 18 30  1  0  0  0
 19 31  1  0  0  0
 20 22  1  0  0  0
 20 32  1  0  0  0
 21 22  2  0  0  0
 21 33  1  0  0  0
 22 34  1  0  0  0
M  END
> <s_m_entry_id>
6642

> <s_m_entry_name>
dock_pv.477

> <s_m_Source_Path>
/home/csk/Desktop/cluster/DUD-E-result/aldr

> <s_m_Source_File>
dock_pv.maegz

> <i_m_Source_File_Index>
477

> <chembl_id>
CHEMBL72752

> <chembl_pref_name>
None

> <i_lp_mmshare_version>
53161

> <i_f3d_flags>
0

> <r_lp_tautomer_probability>
0.998994762270461

> <s_lp_Force_Field>
OPLS_2005

> <r_lp_Energy>
30.08606

> <b_lp_Chiralities_Consistent>
1

> <s_lp_Variant>
CHEMBL1900_lig66-1

> <s_i_glide_gridfile>
glide-grid_2hv5

> <i_i_glide_lignum>
101

> <i_i_glide_rotatable_bonds>
3

> <r_i_docking_score>
-7.40072947395717

> <r_i_glide_ligand_efficiency>
-0.33639679427078

> <r_i_glide_ligand_efficiency_sa>
-0.942597047281913

> <r_i_glide_ligand_efficiency_ln>
-1.80900823160169

> <r_i_glide_gscore>
-7.40072947395717

> <r_i_glide_lipo>
-3.97458889589905

> <r_i_glide_hbond>
0

> <r_i_glide_metal>
0

> <r_i_glide_rewards>
-2.49814498358879

> <r_i_glide_evdw>
-33.7765312194824

> <r_i_glide_ecoul>
1.26765871047974

> <r_i_glide_erotb>
0.57068215993284

> <r_i_glide_esite>
0

> <r_i_glide_emodel>
-40.243335578447

> <r_i_glide_energy>
-32.5088725090027

> <r_i_glide_einternal>
1.90671873092651

> <i_i_glide_confnum>
12

> <i_i_glide_posenum>
264

> <r_i_glide_eff_state_penalty>
0

> <s_user_duplicate_titles>
CHEMBL1900_lig66

> <s_m_subgroup_title>
dock_pv

> <s_m_subgroupid>
dock_pv

> <b_m_subgroup_collapsed>
1

$$$$
CHEMBL1900_lig19
                    3D
 Schrodinger Suite 2021-1.
 38 39  0  0  1  0            999 V2000
   18.8099   -8.0738   14.0757 S   0  0  0  0  0  0
   15.3450   -6.5150   18.0286 N   0  0  0  0  0  0
   17.2585   -8.7054   16.4161 C   0  0  0  0  0  0
   15.6810   -6.8334   16.7792 C   0  0  0  0  0  0
   17.1281   -7.2286   16.8315 C   0  0  1  0  0  0
   16.3726   -6.4405   18.8868 C   0  0  0  0  0  0
   17.8698   -9.1305   15.2131 C   0  0  0  0  0  0
   17.4195   -6.9232   18.2096 N   0  0  0  0  0  0
   19.7316   -8.9709   13.3769 O   0  0  0  0  0  0
   19.3542   -6.9150   14.7879 O   0  0  0  0  0  0
   17.7981  -10.4873   14.8586 C   0  0  0  0  0  0
   16.6613   -9.6746   17.2438 C   0  0  0  0  0  0
   17.6508   -7.4864   12.8949 N   0  0  1  0  0  0
   14.9449   -6.9150   15.8055 O   0  0  0  0  0  0
   16.3568   -5.9321   20.0024 O   0  0  0  0  0  0
   16.6281  -11.0181   16.8894 C   0  0  0  0  0  0
   17.1877  -11.4240   15.6859 C   0  0  0  0  0  0
   15.8845  -12.1678   17.9392 Cl  0  0  0  0  0  0
   16.9779   -6.1886   13.0788 C   0  0  0  0  0  0
   15.9825   -5.8669   11.9500 C   0  0  0  0  0  0
   16.5906   -5.7741   10.5375 C   0  0  0  0  0  0
   17.7195   -4.7389   10.4097 C   0  0  0  0  0  0
   14.3943   -6.3147   18.2926 H   0  0  0  0  0  0
   17.6670   -6.5136   16.2261 H   0  0  0  0  0  0
   18.2426   -7.2934   18.6643 H   0  0  0  0  0  0
   18.2378  -10.8376   13.9356 H   0  0  0  0  0  0
   16.1920   -9.3795   18.1710 H   0  0  0  0  0  0
   17.6964   -7.8762   11.9513 H   0  0  0  0  0  0
   17.1569  -12.4640   15.3946 H   0  0  0  0  0  0
   17.7294   -5.4058   13.1904 H   0  0  0  0  0  0
   16.4453   -6.2180   14.0241 H   0  0  0  0  0  0
   15.4963   -4.9187   12.1807 H   0  0  0  0  0  0
   15.1773   -6.6027   11.9559 H   0  0  0  0  0  0
   15.7965   -5.5134    9.8360 H   0  0  0  0  0  0
   16.9494   -6.7535   10.2179 H   0  0  0  0  0  0
   18.0736   -4.6735    9.3819 H   0  0  0  0  0  0
   18.5741   -5.0020   11.0317 H   0  0  0  0  0  0
   17.3804   -3.7458   10.7070 H   0  0  0  0  0  0
  1  7  1  0  0  0
  1  9  2  0  0  0
  1 10  2  0  0  0
  1 13  1  0  0  0
  2  4  1  0  0  0
  2  6  1  0  0  0
  2 23  1  0  0  0
  3  7  1  0  0  0
  3  5  1  0  0  0
  3 12  2  0  0  0
  4  5  1  0  0  0
  4 14  2  0  0  0
  5  8  1  0  0  0
  5 24  1  0  0  0
  6  8  1  0  0  0
  6 15  2  0  0  0
  7 11  2  0  0  0
  8 25  1  0  0  0
 11 17  1  0  0  0
 11 26  1  0  0  0
 12 16  1  0  0  0
 12 27  1  0  0  0
 13 19  1  0  0  0
 13 28  1  0  0  0
 16 17  2  0  0  0
 16 18  1  0  0  0
 17 29  1  0  0  0
 19 20  1  0  0  0
 19 30  1  0  0  0
 19 31  1  0  0  0
 20 21  1  0  0  0
 20 32  1  0  0  0
 20 33  1  0  0  0
 21 22  1  0  0  0
 21 34  1  0  0  0
 21 35  1  0  0  0
 22 36  1  0  0  0
 22 37  1  0  0  0
 22 38  1  0  0  0
M  END
> <s_m_entry_id>
6643

> <s_m_entry_name>
dock_pv.478

> <s_m_Source_Path>
/home/csk/Desktop/cluster/DUD-E-result/aldr

> <s_m_Source_File>
dock_pv.maegz

> <i_m_Source_File_Index>
478

> <chembl_id>
CHEMBL19064

> <chembl_pref_name>
None

> <i_lp_mmshare_version>
53161

> <i_f3d_flags>
0

> <r_lp_tautomer_probability>
0.999999999781369

> <s_lp_Force_Field>
OPLS_2005

> <r_lp_Energy>
20.252296

> <b_lp_Chiralities_Consistent>
1

> <s_lp_Variant>
CHEMBL1900_lig19-2

> <s_i_glide_gridfile>
glide-grid_2hv5

> <i_i_glide_lignum>
35

> <i_i_glide_rotatable_bonds>
6

> <r_i_docking_score>
-7.39652412007096

> <r_i_glide_ligand_efficiency>
-0.336205641821407

> <r_i_glide_ligand_efficiency_sa>
-0.94206143060117

> <r_i_glide_ligand_efficiency_ln>
-1.80798028971789

> <r_i_glide_gscore>
-7.39652412007096

> <r_i_glide_lipo>
-2.46377150030928

> <r_i_glide_hbond>
-0.327387321990718

> <r_i_glide_metal>
0

> <r_i_glide_rewards>
-3.0586858045884

> <r_i_glide_evdw>
-39.289176940918

> <r_i_glide_ecoul>
-2.51234269142151

> <r_i_glide_erotb>
0.794630757576567

> <r_i_glide_esite>
0

> <r_i_glide_emodel>
-57.0672598608614

> <r_i_glide_energy>
-41.8015196323395

> <r_i_glide_einternal>
5.13610124588013

> <i_i_glide_confnum>
101

> <i_i_glide_posenum>
20

> <r_i_glide_eff_state_penalty>
0

> <s_user_duplicate_titles>
CHEMBL1900_lig19,23086

> <s_m_subgroup_title>
dock_pv

> <s_m_subgroupid>
dock_pv

> <b_m_subgroup_collapsed>
1

$$$$
CHEMBL1900_lig362
                    3D
 Schrodinger Suite 2021-1.
 30 31  0  0  1  0            999 V2000
   16.9843  -10.2447   15.4883 C   0  0  0  0  0  0
   16.2523   -7.9133   16.2813 C   0  0  2  0  0  0
   17.1012   -8.8402   15.3894 C   0  0  0  0  0  0
   17.7452  -11.1043   14.6888 C   0  0  0  0  0  0
   17.1837   -7.1919   17.3140 C   0  0  0  0  0  0
   16.0948  -10.8688   16.3382 O   0  0  0  0  0  0
   15.1116   -8.7400   16.9345 C   0  0  0  0  0  0
   18.0301   -8.3368   14.4660 C   0  0  0  0  0  0
   16.5317   -6.1889   18.2865 C   0  0  0  0  0  0
   18.6585  -10.5669   13.7792 C   0  0  0  0  0  0
   15.6234  -10.1001   17.4338 C   0  0  1  0  0  0
   18.8001   -9.1848   13.6746 C   0  0  0  0  0  0
   15.7458   -6.5134   19.1659 O   0  0  0  0  0  0
   15.6234   -6.9150   15.5067 O   0  0  0  0  0  0
   17.5555  -12.8235   14.8313 Cl  0  0  0  0  0  0
   19.6366  -11.5904   12.7850 Cl  0  0  0  0  0  0
   16.9449   -4.9091   18.0839 O   0  0  0  0  0  0
   14.5582  -10.9419   18.1337 C   0  0  0  0  0  0
   16.4348   -9.9373   18.1425 H   0  0  0  0  0  0
   18.0014   -6.6976   16.7903 H   0  0  0  0  0  0
   17.6750   -7.9391   17.9367 H   0  0  0  0  0  0
   14.6156   -8.1960   17.7358 H   0  0  0  0  0  0
   14.3169   -8.9304   16.2098 H   0  0  0  0  0  0
   18.1685   -7.2699   14.3603 H   0  0  0  0  0  0
   19.5156   -8.7680   12.9822 H   0  0  0  0  0  0
   16.2979   -6.4163   15.0420 H   0  0  0  0  0  0
   17.6233   -4.8462   17.4087 H   0  0  0  0  0  0
   14.1451  -10.4075   18.9809 H   0  0  0  0  0  0
   13.7450  -11.1903   17.4588 H   0  0  0  0  0  0
   14.9751  -11.8782   18.5040 H   0  0  0  0  0  0
  1  3  2  0  0  0
  1  4  1  0  0  0
  1  6  1  0  0  0
  2  3  1  0  0  0
  2  5  1  0  0  0
  2 14  1  0  0  0
  2  7  1  0  0  0
  3  8  1  0  0  0
  4 10  2  0  0  0
  4 15  1  0  0  0
  5  9  1  0  0  0
  5 20  1  0  0  0
  5 21  1  0  0  0
  6 11  1  0  0  0
  7 11  1  0  0  0
  7 22  1  0  0  0
  7 23  1  0  0  0
  8 12  2  0  0  0
  8 24  1  0  0  0
  9 13  2  0  0  0
  9 17  1  0  0  0
 10 12  1  0  0  0
 10 16  1  0  0  0
 11 18  1  0  0  0
 11 19  1  0  0  0
 12 25  1  0  0  0
 14 26  1  0  0  0
 17 27  1  0  0  0
 18 28  1  0  0  0
 18 29  1  0  0  0
 18 30  1  0  0  0
M  END
> <s_m_entry_id>
6644

> <s_m_entry_name>
dock_pv.479

> <s_m_Source_Path>
/home/csk/Desktop/cluster/DUD-E-result/aldr

> <s_m_Source_File>
dock_pv.maegz

> <i_m_Source_File_Index>
479

> <chembl_id>
CHEMBL65967

> <chembl_pref_name>
None

> <i_lp_mmshare_version>
53161

> <i_f3d_flags>
0

> <r_lp_tautomer_probability>
1

> <s_lp_Force_Field>
OPLS_2005

> <r_lp_Energy>
16.472779

> <b_lp_Chiralities_Consistent>
1

> <s_lp_Variant>
CHEMBL1900_lig362-1

> <s_i_glide_gridfile>
glide-grid_2hv5

> <i_i_glide_lignum>
483

> <i_i_glide_rotatable_bonds>
4

> <r_i_docking_score>
-7.38259102872097

> <r_i_glide_ligand_efficiency>
-0.410143946040054

> <r_i_glide_ligand_efficiency_sa>
-1.07488121593575

> <r_i_glide_ligand_efficiency_ln>
-1.89765695623735

> <r_i_glide_gscore>
-7.38259102872097

> <r_i_glide_lipo>
-2.90649158295095

> <r_i_glide_hbond>
-0.0745207206610529

> <r_i_glide_metal>
0

> <r_i_glide_rewards>
-2.68348470767917

> <r_i_glide_evdw>
-28.0400886535645

> <r_i_glide_ecoul>
-4.97609758377075

> <r_i_glide_erotb>
0.430325052814046

> <r_i_glide_esite>
0

> <r_i_glide_emodel>
-45.540944011587

> <r_i_glide_energy>
-33.0161862373352

> <r_i_glide_einternal>
2.73072862625122

> <i_i_glide_confnum>
2

> <i_i_glide_posenum>
60

> <r_i_glide_eff_state_penalty>
0

> <s_user_duplicate_titles>
CHEMBL1900_lig362,108012

> <s_m_subgroup_title>
dock_pv

> <s_m_subgroupid>
dock_pv

> <b_m_subgroup_collapsed>
1

$$$$
CHEMBL1900_lig428
                    3D
 Schrodinger Suite 2021-1.
 24 25  0  0  1  0            999 V2000
   18.1934   -7.6523   13.9716 S   0  0  0  0  0  0
   17.3693   -7.3909   15.5721 C   0  0  0  0  0  0
   18.0890   -7.3139   16.6414 N   0  0  0  0  0  0
   17.4787   -6.9864   17.8576 N   0  0  0  0  0  0
   15.9430   -7.2584   15.6961 C   0  0  0  0  0  0
   16.1682   -6.6626   18.0729 C   0  0  0  0  0  0
   17.5515   -6.4191   12.8160 C   0  0  0  0  0  0
   15.3708   -6.9527   16.8887 C   0  0  0  0  0  0
   17.7453   -8.9686   13.5088 O   0  0  0  0  0  0
   19.6190   -7.3735   14.1812 O   0  0  0  0  0  0
   15.7499   -6.1225   19.0962 O   0  0  0  0  0  0
   18.3825   -5.3921   12.3905 C   0  0  0  0  0  0
   16.2709   -6.5173   12.2755 C   0  0  0  0  0  0
   16.6992   -4.6402   10.8373 C   0  0  0  0  0  0
   15.8355   -5.6297   11.2967 C   0  0  0  0  0  0
   17.9746   -4.5159   11.3808 C   0  0  0  0  0  0
   16.1827   -3.5532    9.5994 Cl  0  0  0  0  0  0
   15.3447   -7.4961   14.8445 H   0  0  0  0  0  0
   14.2956   -6.9163   16.9851 H   0  0  0  0  0  0
   18.1163   -6.8684   18.6310 H   0  0  0  0  0  0
   19.3448   -5.3150   12.8621 H   0  0  0  0  0  0
   15.6282   -7.3150   12.5812 H   0  0  0  0  0  0
   14.8404   -5.7197   10.8861 H   0  0  0  0  0  0
   18.6268   -3.7320   11.0277 H   0  0  0  0  0  0
  1  7  1  0  0  0
  1  9  2  0  0  0
  1 10  2  0  0  0
  1  2  1  0  0  0
  2  5  1  0  0  0
  2  3  2  0  0  0
  3  4  1  0  0  0
  4  6  1  0  0  0
  4 20  1  0  0  0
  5  8  2  0  0  0
  5 18  1  0  0  0
  6 11  2  0  0  0
  6  8  1  0  0  0
  7 12  2  0  0  0
  7 13  1  0  0  0
  8 19  1  0  0  0
 12 16  1  0  0  0
 12 21  1  0  0  0
 13 15  2  0  0  0
 13 22  1  0  0  0
 14 15  1  0  0  0
 14 17  1  0  0  0
 14 16  2  0  0  0
 15 23  1  0  0  0
 16 24  1  0  0  0
M  END
> <s_m_entry_id>
6645

> <s_m_entry_name>
dock_pv.480

> <s_m_Source_Path>
/home/csk/Desktop/cluster/DUD-E-result/aldr

> <s_m_Source_File>
dock_pv.maegz

> <i_m_Source_File_Index>
480

> <chembl_id>
CHEMBL425745

> <chembl_pref_name>
None

> <i_lp_mmshare_version>
53161

> <i_f3d_flags>
0

> <r_lp_tautomer_probability>
0.998994762270461

> <s_lp_Force_Field>
OPLS_2005

> <r_lp_Energy>
20.879373

> <b_lp_Chiralities_Consistent>
1

> <s_lp_Variant>
CHEMBL1900_lig428-1

> <s_i_glide_gridfile>
glide-grid_2hv5

> <i_i_glide_lignum>
550

> <i_i_glide_rotatable_bonds>
2

> <r_i_docking_score>
-7.38058917089813

> <r_i_glide_ligand_efficiency>
-0.434152304170479

> <r_i_glide_ligand_efficiency_sa>
-1.11632782620114

> <r_i_glide_ligand_efficiency_ln>
-1.92543135704734

> <r_i_glide_gscore>
-7.38058917089813

> <r_i_glide_lipo>
-3.23874431685006

> <r_i_glide_hbond>
0

> <r_i_glide_metal>
0

> <r_i_glide_rewards>
-2.88066476474904

> <r_i_glide_evdw>
-32.4639739990234

> <r_i_glide_ecoul>
-0.842012941837311

> <r_i_glide_erotb>
0.488320551927739

> <r_i_glide_esite>
0

> <r_i_glide_emodel>
-44.5630104788852

> <r_i_glide_energy>
-33.3059869408607

> <r_i_glide_einternal>
1.66976940631866

> <i_i_glide_confnum>
2

> <i_i_glide_posenum>
381

> <r_i_glide_eff_state_penalty>
0

> <s_user_duplicate_titles>
CHEMBL1900_lig428,331206

> <s_m_subgroup_title>
dock_pv

> <s_m_subgroupid>
dock_pv

> <b_m_subgroup_collapsed>
1

$$$$
CHEMBL1900_lig421
                    3D
 Schrodinger Suite 2021-1.
 30 32  0  0  1  0            999 V2000
   18.1155   -7.9782   14.0608 S   0  0  0  0  0  0
   17.3840   -6.7803   12.9110 C   0  0  0  0  0  0
   16.1445   -6.9149   12.5845 N   0  0  0  0  0  0
   16.9447   -8.2141   15.4280 C   0  0  0  0  0  0
   15.5828   -6.0511   11.6410 N   0  0  0  0  0  0
   18.1457   -5.7139   12.3149 C   0  0  0  0  0  0
   16.2093   -5.0568   10.9443 C   0  0  0  0  0  0
   16.6286   -9.4926   16.0105 C   0  0  0  0  0  0
   19.3156   -7.3144   14.5808 O   0  0  0  0  0  0
   18.2199   -9.2166   13.2852 O   0  0  0  0  0  0
   17.5897   -4.9055   11.3804 C   0  0  0  0  0  0
   15.6781   -4.3896   10.0625 O   0  0  0  0  0  0
   15.5787   -9.5599   16.9881 C   0  0  0  0  0  0
   16.2959   -7.0753   15.9061 C   0  0  0  0  0  0
   17.3007  -10.7086   15.6896 C   0  0  0  0  0  0
   15.3107   -7.1475   16.8786 C   0  0  0  0  0  0
   14.9325   -8.3741   17.4010 C   0  0  0  0  0  0
   15.1994  -10.8108   17.5371 C   0  0  0  0  0  0
   16.9145  -11.9193   16.2596 C   0  0  0  0  0  0
   15.8643  -11.9727   17.1662 C   0  0  0  0  0  0
   19.1659   -5.5456   12.6230 H   0  0  0  0  0  0
   18.1661   -4.1032   10.9438 H   0  0  0  0  0  0
   14.6107   -6.2209   11.4255 H   0  0  0  0  0  0
   16.5431   -6.1151   15.4904 H   0  0  0  0  0  0
   18.1337  -10.7223   15.0088 H   0  0  0  0  0  0
   14.8199   -6.2484   17.2190 H   0  0  0  0  0  0
   14.1452   -8.4264   18.1409 H   0  0  0  0  0  0
   14.3908  -10.8574   18.2543 H   0  0  0  0  0  0
   17.4343  -12.8284   15.9896 H   0  0  0  0  0  0
   15.5699  -12.9223   17.5901 H   0  0  0  0  0  0
  1  4  1  0  0  0
  1  9  2  0  0  0
  1 10  2  0  0  0
  1  2  1  0  0  0
  2  6  1  0  0  0
  2  3  2  0  0  0
  3  5  1  0  0  0
  4  8  2  0  0  0
  4 14  1  0  0  0
  5  7  1  0  0  0
  5 23  1  0  0  0
  6 11  2  0  0  0
  6 21  1  0  0  0
  7 12  2  0  0  0
  7 11  1  0  0  0
  8 13  1  0  0  0
  8 15  1  0  0  0
 11 22  1  0  0  0
 13 18  1  0  0  0
 13 17  2  0  0  0
 14 16  2  0  0  0
 14 24  1  0  0  0
 15 19  2  0  0  0
 15 25  1  0  0  0
 16 17  1  0  0  0
 16 26  1  0  0  0
 17 27  1  0  0  0
 18 20  2  0  0  0
 18 28  1  0  0  0
 19 20  1  0  0  0
 19 29  1  0  0  0
 20 30  1  0  0  0
M  END
> <s_m_entry_id>
6646

> <s_m_entry_name>
dock_pv.481

> <s_m_Source_Path>
/home/csk/Desktop/cluster/DUD-E-result/aldr

> <s_m_Source_File>
dock_pv.maegz

> <i_m_Source_File_Index>
481

> <chembl_id>
CHEMBL194582

> <chembl_pref_name>
None

> <i_lp_mmshare_version>
53161

> <i_f3d_flags>
0

> <r_lp_tautomer_probability>
0.998994762270461

> <s_lp_Force_Field>
OPLS_2005

> <r_lp_Energy>
28.02802

> <b_lp_Chiralities_Consistent>
1

> <s_lp_Variant>
CHEMBL1900_lig421-1

> <s_i_glide_gridfile>
glide-grid_2hv5

> <i_i_glide_lignum>
543

> <i_i_glide_rotatable_bonds>
2

> <r_i_docking_score>
-7.37991053765419

> <r_i_glide_ligand_efficiency>
-0.368995526882709

> <r_i_glide_ligand_efficiency_sa>
-1.00160795761496

> <r_i_glide_ligand_efficiency_ln>
-1.84694820183489

> <r_i_glide_gscore>
-7.37991053765419

> <r_i_glide_lipo>
-3.44158946506435

> <r_i_glide_hbond>
0

> <r_i_glide_metal>
0

> <r_i_glide_rewards>
-2.74701621398941

> <r_i_glide_evdw>
-40.5788536071777

> <r_i_glide_ecoul>
2.63072609901428

> <r_i_glide_erotb>
0.443028906906314

> <r_i_glide_esite>
0

> <r_i_glide_emodel>
-51.041983504622

> <r_i_glide_energy>
-37.9481275081635

> <r_i_glide_einternal>
5.6104302406311

> <i_i_glide_confnum>
10

> <i_i_glide_posenum>
377

> <r_i_glide_eff_state_penalty>
0

> <s_user_duplicate_titles>
CHEMBL1900_lig421,329785

> <s_m_subgroup_title>
dock_pv

> <s_m_subgroupid>
dock_pv

> <b_m_subgroup_collapsed>
1

$$$$
CHEMBL1900_lig111
                    3D
 Schrodinger Suite 2021-1.
 31 33  0  0  1  0            999 V2000
   16.3042   -9.1908   16.6964 C   0  0  1  0  0  0
   16.2933  -10.6570   17.0313 N   0  0  0  0  0  0
   16.6314  -11.6319   16.1170 C   0  0  0  0  0  0
   17.3449   -8.8456   15.6047 C   0  0  0  0  0  0
   14.9289   -8.7420   16.2184 C   0  0  0  0  0  0
   16.3947   -8.3259   17.8478 N   0  0  0  0  0  0
   17.2854  -11.1846   14.9980 N   0  0  0  0  0  0
   14.6085   -7.6608   16.9467 N   0  0  0  0  0  0
   15.5796   -7.2722   17.7900 C   0  0  0  0  0  0
   17.8323   -9.8924   14.8074 C   0  0  0  0  0  0
   16.3478  -12.8236   16.2945 O   0  0  0  0  0  0
   14.2333   -9.3222   15.3909 O   0  0  0  0  0  0
   15.7449   -6.1726   18.3080 O   0  0  0  0  0  0
   15.3769  -11.0897   18.1164 C   0  0  0  0  0  0
   17.8749   -7.5544   15.4138 C   0  0  0  0  0  0
   17.5629  -12.1859   13.9448 C   0  0  0  0  0  0
   18.8075   -9.6230   13.8269 C   0  0  0  0  0  0
   18.8601   -7.3034   14.4670 C   0  0  0  0  0  0
   19.3366   -8.3441   13.6843 C   0  0  0  0  0  0
   17.0288   -8.4973   18.6151 H   0  0  0  0  0  0
   13.7025   -7.2215   16.9069 H   0  0  0  0  0  0
   14.3587  -11.1718   17.7319 H   0  0  0  0  0  0
   15.3446  -10.3795   18.9420 H   0  0  0  0  0  0
   15.6509  -12.0617   18.5316 H   0  0  0  0  0  0
   17.5433   -6.7225   16.0159 H   0  0  0  0  0  0
   17.3676  -11.7621   12.9586 H   0  0  0  0  0  0
   18.6061  -12.5005   13.9833 H   0  0  0  0  0  0
   16.9451  -13.0828   14.0144 H   0  0  0  0  0  0
   19.2073  -10.4025   13.1959 H   0  0  0  0  0  0
   19.2676   -6.3085   14.3564 H   0  0  0  0  0  0
   20.1324   -8.1590   12.9809 H   0  0  0  0  0  0
  1  2  1  0  0  0
  1  4  1  0  0  0
  1  5  1  0  0  0
  1  6  1  0  0  0
  2  3  1  0  0  0
  2 14  1  0  0  0
  3 11  2  0  0  0
  3  7  1  0  0  0
  4 10  1  0  0  0
  4 15  2  0  0  0
  5  8  1  0  0  0
  5 12  2  0  0  0
  6  9  1  0  0  0
  6 20  1  0  0  0
  7 10  1  0  0  0
  7 16  1  0  0  0
  8  9  1  0  0  0
  8 21  1  0  0  0
  9 13  2  0  0  0
 10 17  2  0  0  0
 14 22  1  0  0  0
 14 23  1  0  0  0
 14 24  1  0  0  0
 15 18  1  0  0  0
 15 25  1  0  0  0
 16 26  1  0  0  0
 16 27  1  0  0  0
 16 28  1  0  0  0
 17 19  1  0  0  0
 17 29  1  0  0  0
 18 19  2  0  0  0
 18 30  1  0  0  0
 19 31  1  0  0  0
M  END
> <s_m_entry_id>
6647

> <s_m_entry_name>
dock_pv.482

> <s_m_Source_Path>
/home/csk/Desktop/cluster/DUD-E-result/aldr

> <s_m_Source_File>
dock_pv.maegz

> <i_m_Source_File_Index>
482

> <chembl_id>
CHEMBL66636

> <chembl_pref_name>
None

> <i_lp_mmshare_version>
53161

> <i_f3d_flags>
0

> <r_lp_tautomer_probability>
0.99999999978137

> <s_lp_Force_Field>
OPLS_2005

> <r_lp_Energy>
44.850907

> <b_lp_Chiralities_Consistent>
1

> <s_lp_Variant>
CHEMBL1900_lig111-2

> <s_i_glide_gridfile>
glide-grid_2hv5

> <i_i_glide_lignum>
163

> <i_i_glide_rotatable_bonds>
0

> <r_i_docking_score>
-7.36366274072227

> <r_i_glide_ligand_efficiency>
-0.387561196880119

> <r_i_glide_ligand_efficiency_sa>
-1.03416893572055

> <r_i_glide_ligand_efficiency_ln>
-1.86684666174717

> <r_i_glide_gscore>
-7.36366274072227

> <r_i_glide_lipo>
-1.63209364187476

> <r_i_glide_hbond>
0

> <r_i_glide_metal>
0

> <r_i_glide_rewards>
-3.8928203934604

> <r_i_glide_evdw>
-29.0550765991211

> <r_i_glide_ecoul>
-2.57329916954041

> <r_i_glide_erotb>
0

> <r_i_glide_esite>
0

> <r_i_glide_emodel>
-36.719132362991

> <r_i_glide_energy>
-31.6283757686615

> <r_i_glide_einternal>
0

> <i_i_glide_confnum>
1

> <i_i_glide_posenum>
124

> <r_i_glide_eff_state_penalty>
0

> <s_user_duplicate_titles>
CHEMBL1900_lig111,102002

> <s_m_subgroup_title>
dock_pv

> <s_m_subgroupid>
dock_pv

> <b_m_subgroup_collapsed>
1

$$$$
CHEMBL1900_lig368
                    3D
 Schrodinger Suite 2021-1.
 30 31  0  0  1  0            999 V2000
   15.6414   -8.5909   16.6309 C   0  0  2  0  0  0
   16.7611   -8.6309   15.5769 C   0  0  0  0  0  0
   17.3466   -9.8599   15.2022 C   0  0  0  0  0  0
   16.1680   -8.0461   18.0002 C   0  0  0  0  0  0
   16.9377  -11.0834   15.7039 O   0  0  0  0  0  0
   18.3714   -9.9088   14.2470 C   0  0  0  0  0  0
   15.0565  -10.0107   16.8159 C   0  0  0  0  0  0
   16.3476   -6.5275   18.1869 C   0  0  0  0  0  0
   18.8595   -8.7297   13.6909 C   0  0  0  0  0  0
   17.2530   -7.4677   14.9660 C   0  0  0  0  0  0
   16.1604  -11.0776   16.9002 C   0  0  1  0  0  0
   18.3037   -7.5073   14.0514 C   0  0  0  0  0  0
   15.9632   -5.6771   17.3894 O   0  0  0  0  0  0
   14.5451   -7.8123   16.2123 O   0  0  0  0  0  0
   19.0691  -11.4158   13.7606 Cl  0  0  0  0  0  0
   18.9274   -6.0441   13.3805 Cl  0  0  0  0  0  0
   16.9430   -6.2463   19.3800 O   0  0  0  0  0  0
   15.5911  -12.4868   17.1045 C   0  0  0  0  0  0
   16.8108  -10.8592   17.7528 H   0  0  0  0  0  0
   17.1334   -8.5147   18.1876 H   0  0  0  0  0  0
   15.5089   -8.3733   18.8050 H   0  0  0  0  0  0
   14.4109  -10.0640   17.6950 H   0  0  0  0  0  0
   14.4067  -10.2725   15.9753 H   0  0  0  0  0  0
   19.6725   -8.7639   12.9809 H   0  0  0  0  0  0
   16.8178   -6.5156   15.2153 H   0  0  0  0  0  0
   13.8721   -7.8401   16.8952 H   0  0  0  0  0  0
   17.2199   -7.0367   19.8491 H   0  0  0  0  0  0
   14.9797  -12.5424   18.0061 H   0  0  0  0  0  0
   14.9670  -12.7885   16.2616 H   0  0  0  0  0  0
   16.3920  -13.2219   17.2007 H   0  0  0  0  0  0
  1  2  1  0  0  0
  1  4  1  0  0  0
  1  7  1  0  0  0
  1 14  1  0  0  0
  2  3  2  0  0  0
  2 10  1  0  0  0
  3  6  1  0  0  0
  3  5  1  0  0  0
  4  8  1  0  0  0
  4 20  1  0  0  0
  4 21  1  0  0  0
  5 11  1  0  0  0
  6 15  1  0  0  0
  6  9  2  0  0  0
  7 11  1  0  0  0
  7 22  1  0  0  0
  7 23  1  0  0  0
  8 13  2  0  0  0
  8 17  1  0  0  0
  9 12  1  0  0  0
  9 24  1  0  0  0
 10 12  2  0  0  0
 10 25  1  0  0  0
 11 18  1  0  0  0
 11 19  1  0  0  0
 12 16  1  0  0  0
 14 26  1  0  0  0
 17 27  1  0  0  0
 18 28  1  0  0  0
 18 29  1  0  0  0
 18 30  1  0  0  0
M  END
> <s_m_entry_id>
6648

> <s_m_entry_name>
dock_pv.483

> <s_m_Source_Path>
/home/csk/Desktop/cluster/DUD-E-result/aldr

> <s_m_Source_File>
dock_pv.maegz

> <i_m_Source_File_Index>
483

> <chembl_id>
CHEMBL303952

> <chembl_pref_name>
None

> <i_lp_mmshare_version>
53161

> <i_f3d_flags>
0

> <r_lp_tautomer_probability>
1

> <s_lp_Force_Field>
OPLS_2005

> <r_lp_Energy>
14.348537

> <b_lp_Chiralities_Consistent>
1

> <s_lp_Variant>
CHEMBL1900_lig368-1

> <s_i_glide_gridfile>
glide-grid_2hv5

> <i_i_glide_lignum>
489

> <i_i_glide_rotatable_bonds>
4

> <r_i_docking_score>
-7.35580138606302

> <r_i_glide_ligand_efficiency>
-0.408655632559057

> <r_i_glide_ligand_efficiency_sa>
-1.0709807311923

> <r_i_glide_ligand_efficiency_ln>
-1.89077081673061

> <r_i_glide_gscore>
-7.35580138606302

> <r_i_glide_lipo>
-3.05040706073437

> <r_i_glide_hbond>
0

> <r_i_glide_metal>
0

> <r_i_glide_rewards>
-2.59001947179351

> <r_i_glide_evdw>
-31.8543148040771

> <r_i_glide_ecoul>
-3.6865611076355

> <r_i_glide_erotb>
0.430325052814046

> <r_i_glide_esite>
0

> <r_i_glide_emodel>
-50.1242907223414

> <r_i_glide_energy>
-35.5408759117126

> <r_i_glide_einternal>
3.0510585308075

> <i_i_glide_confnum>
3

> <i_i_glide_posenum>
181

> <r_i_glide_eff_state_penalty>
0

> <s_user_duplicate_titles>
CHEMBL1900_lig368

> <s_m_subgroup_title>
dock_pv

> <s_m_subgroupid>
dock_pv

> <b_m_subgroup_collapsed>
1

$$$$
CHEMBL1900_lig21
                    3D
 Schrodinger Suite 2021-1.
 27 28  0  0  1  0            999 V2000
   17.4897  -10.0162   15.3876 C   0  0  0  0  0  0
   17.2171   -8.7465   15.9743 C   0  0  0  0  0  0
   14.9460   -6.9150   17.7770 N   0  0  0  0  0  0
   16.9369  -11.5693   16.1951 S   0  0  0  0  0  0
   15.0396   -8.0418   17.0665 C   0  0  0  0  0  0
   16.4412   -8.5620   17.2942 C   0  0  2  0  0  0
   16.0494   -6.5855   18.4747 C   0  0  0  0  0  0
   16.9426   -7.5319   18.1749 N   0  0  0  0  0  0
   18.2362  -10.0432   14.1815 C   0  0  0  0  0  0
   18.6804   -8.8633   13.5940 C   0  0  0  0  0  0
   17.6741   -7.5804   15.3391 C   0  0  0  0  0  0
   17.2126  -12.7185   15.3321 O   0  0  0  0  0  0
   17.4711  -11.5687   17.5605 O   0  0  0  0  0  0
   14.1784   -8.5353   16.3467 O   0  0  0  0  0  0
   18.3980   -7.6321   14.1603 C   0  0  0  0  0  0
   16.1355   -5.7181   19.3374 O   0  0  0  0  0  0
   18.7061  -11.4797   13.3389 Cl  0  0  0  0  0  0
   15.0617  -11.4641   16.2966 C   0  0  0  0  0  0
   18.9444   -6.1757   13.4127 Cl  0  0  0  0  0  0
   14.0687   -6.4252   17.8620 H   0  0  0  0  0  0
   16.3940   -9.4614   17.8992 H   0  0  0  0  0  0
   17.9336   -7.4154   18.3328 H   0  0  0  0  0  0
   19.2650   -8.9150   12.6899 H   0  0  0  0  0  0
   17.4706   -6.6089   15.7640 H   0  0  0  0  0  0
   14.6687  -12.4772   16.3606 H   0  0  0  0  0  0
   14.7675  -10.9208   17.1892 H   0  0  0  0  0  0
   14.6831  -10.9761   15.3992 H   0  0  0  0  0  0
  1  2  1  0  0  0
  1  4  1  0  0  0
  1  9  2  0  0  0
  2  6  1  0  0  0
  2 11  2  0  0  0
  3  5  1  0  0  0
  3  7  1  0  0  0
  3 20  1  0  0  0
  4 12  2  0  0  0
  4 13  2  0  0  0
  4 18  1  0  0  0
  5  6  1  0  0  0
  5 14  2  0  0  0
  6  8  1  0  0  0
  6 21  1  0  0  0
  7  8  1  0  0  0
  7 16  2  0  0  0
  8 22  1  0  0  0
  9 10  1  0  0  0
  9 17  1  0  0  0
 10 15  2  0  0  0
 10 23  1  0  0  0
 11 15  1  0  0  0
 11 24  1  0  0  0
 15 19  1  0  0  0
 18 25  1  0  0  0
 18 26  1  0  0  0
 18 27  1  0  0  0
M  END
> <s_m_entry_id>
6649

> <s_m_entry_name>
dock_pv.484

> <s_m_Source_Path>
/home/csk/Desktop/cluster/DUD-E-result/aldr

> <s_m_Source_File>
dock_pv.maegz

> <i_m_Source_File_Index>
484

> <chembl_id>
CHEMBL277427

> <chembl_pref_name>
None

> <i_lp_mmshare_version>
53161

> <i_f3d_flags>
0

> <r_lp_tautomer_probability>
0.999999999781369

> <s_lp_Force_Field>
OPLS_2005

> <r_lp_Energy>
24.942285

> <b_lp_Chiralities_Consistent>
1

> <s_lp_Variant>
CHEMBL1900_lig21-1

> <s_i_glide_gridfile>
glide-grid_2hv5

> <i_i_glide_lignum>
38

> <i_i_glide_rotatable_bonds>
2

> <r_i_docking_score>
-7.35542111469925

> <r_i_glide_ligand_efficiency>
-0.387127427089434

> <r_i_glide_ligand_efficiency_sa>
-1.03301146369705

> <r_i_glide_ligand_efficiency_ln>
-1.86475723253644

> <r_i_glide_gscore>
-7.35542111469925

> <r_i_glide_lipo>
-2.43612967251898

> <r_i_glide_hbond>
-0.108776860317997

> <r_i_glide_metal>
0

> <r_i_glide_rewards>
-2.75616095211845

> <r_i_glide_evdw>
-33.9098281860352

> <r_i_glide_ecoul>
-3.35806274414062

> <r_i_glide_erotb>
0.179168087417963

> <r_i_glide_esite>
-0.0343208962389297

> <r_i_glide_emodel>
-53.1015343080596

> <r_i_glide_energy>
-37.2678909301758

> <r_i_glide_einternal>
1.23303174972534

> <i_i_glide_confnum>
1

> <i_i_glide_posenum>
49

> <r_i_glide_eff_state_penalty>
0

> <s_user_duplicate_titles>
CHEMBL1900_lig21,23697

> <s_m_subgroup_title>
dock_pv

> <s_m_subgroupid>
dock_pv

> <b_m_subgroup_collapsed>
1

$$$$
CHEMBL1900_lig233
                    3D
 Schrodinger Suite 2021-1.
 23 24  0  0  1  0            999 V2000
   17.9079   -7.8803   14.6149 C   0  0  0  0  0  0
   16.8239   -7.1343   14.9673 C   0  0  0  0  0  0
   17.3253   -9.5625   16.1782 C   0  0  1  0  0  0
   18.0964   -9.1866   15.0233 O   0  0  0  0  0  0
   15.8302   -9.1601   15.9913 C   0  0  2  0  0  0
   15.7844   -7.6397   15.8428 C   0  0  0  0  0  0
   17.4329  -11.0528   16.4986 C   0  0  0  0  0  0
   14.9469   -9.7713   17.0740 C   0  0  0  0  0  0
   18.9589   -7.2838   13.8046 C   0  0  0  0  0  0
   16.4680  -11.6950   17.1931 C   0  0  0  0  0  0
   15.2682  -10.9718   17.5930 C   0  0  0  0  0  0
   14.9445   -6.9100   16.3648 O   0  0  0  0  0  0
   18.9442   -6.1275   13.3805 O   0  0  0  0  0  0
   20.0150   -8.1155   13.5769 O   0  0  0  0  0  0
   16.5968  -13.0104   17.4968 O   0  0  0  0  0  0
   16.7449   -6.1150   14.6288 H   0  0  0  0  0  0
   17.7579   -9.0427   17.0394 H   0  0  0  0  0  0
   15.4766   -9.5561   15.0403 H   0  0  0  0  0  0
   18.3184  -11.5906   16.1954 H   0  0  0  0  0  0
   14.0382   -9.2778   17.3808 H   0  0  0  0  0  0
   14.6178  -11.4098   18.3369 H   0  0  0  0  0  0
   20.7076   -7.6517   13.0892 H   0  0  0  0  0  0
   17.3907  -13.3569   17.0845 H   0  0  0  0  0  0
  1  2  2  0  0  0
  1  4  1  0  0  0
  1  9  1  0  0  0
  2  6  1  0  0  0
  2 16  1  0  0  0
  3  4  1  0  0  0
  3  5  1  0  0  0
  3  7  1  0  0  0
  3 17  1  0  0  0
  5  8  1  0  0  0
  5  6  1  0  0  0
  5 18  1  0  0  0
  6 12  2  0  0  0
  7 10  2  0  0  0
  7 19  1  0  0  0
  8 11  2  0  0  0
  8 20  1  0  0  0
  9 13  2  0  0  0
  9 14  1  0  0  0
 10 11  1  0  0  0
 10 15  1  0  0  0
 11 21  1  0  0  0
 14 22  1  0  0  0
 15 23  1  0  0  0
M  END
> <s_m_entry_id>
6650

> <s_m_entry_name>
dock_pv.485

> <s_m_Source_Path>
/home/csk/Desktop/cluster/DUD-E-result/aldr

> <s_m_Source_File>
dock_pv.maegz

> <i_m_Source_File_Index>
485

> <chembl_id>
CHEMBL422920

> <chembl_pref_name>
None

> <i_lp_mmshare_version>
53161

> <i_f3d_flags>
0

> <r_lp_tautomer_probability>
1

> <s_lp_Force_Field>
OPLS_2005

> <r_lp_Energy>
7.988297

> <b_lp_Chiralities_Consistent>
1

> <s_lp_Variant>
CHEMBL1900_lig233-4

> <s_i_glide_gridfile>
glide-grid_2hv5

> <i_i_glide_lignum>
344

> <i_i_glide_rotatable_bonds>
3

> <r_i_docking_score>
-7.34370786873517

> <r_i_glide_ligand_efficiency>
-0.489580524582344

> <r_i_glide_ligand_efficiency_sa>
-1.20740939999211

> <r_i_glide_ligand_efficiency_ln>
-1.98047692734911

> <r_i_glide_gscore>
-7.34370786873517

> <r_i_glide_lipo>
-1.67600701393372

> <r_i_glide_hbond>
-0.24789205988233

> <r_i_glide_metal>
0

> <r_i_glide_rewards>
-3.60963449748126

> <r_i_glide_evdw>
-25.8683853149414

> <r_i_glide_ecoul>
-5.99113082885742

> <r_i_glide_erotb>
0.381914592637822

> <r_i_glide_esite>
0

> <r_i_glide_emodel>
-45.7080876534868

> <r_i_glide_energy>
-31.8595161437988

> <r_i_glide_einternal>
0.0847287848591805

> <i_i_glide_confnum>
2

> <i_i_glide_posenum>
216

> <r_i_glide_eff_state_penalty>
0

> <s_user_duplicate_titles>
CHEMBL1900_lig233

> <s_m_subgroup_title>
dock_pv

> <s_m_subgroupid>
dock_pv

> <b_m_subgroup_collapsed>
1

$$$$
CHEMBL1900_lig429
                    3D
 Schrodinger Suite 2021-1.
 24 25  0  0  1  0            999 V2000
   17.9835   -6.8291   13.4679 S   0  0  0  0  0  0
   17.0755   -7.1239   15.0277 C   0  0  0  0  0  0
   16.8985   -6.0223   12.2604 C   0  0  0  0  0  0
   15.8066   -7.3595   14.9810 N   0  0  0  0  0  0
   15.1367   -7.7962   16.1209 N   0  0  0  0  0  0
   17.7450   -7.2454   16.3032 C   0  0  0  0  0  0
   15.6830   -8.1150   17.3265 C   0  0  0  0  0  0
   18.2717   -8.1812   12.9810 O   0  0  0  0  0  0
   19.0677   -5.9052   13.8175 O   0  0  0  0  0  0
   17.0700   -7.6758   17.3991 C   0  0  0  0  0  0
   17.2997   -4.9393   11.4661 C   0  0  0  0  0  0
   15.0804   -8.7538   18.1810 O   0  0  0  0  0  0
   18.5450   -4.4560   11.5310 F   0  0  0  0  0  0
   15.6139   -6.5147   12.0826 C   0  0  0  0  0  0
   16.4105   -4.3295   10.5810 C   0  0  0  0  0  0
   14.6972   -5.8797   11.2513 C   0  0  0  0  0  0
   15.0968   -4.7766   10.5043 C   0  0  0  0  0  0
   18.7684   -6.9150   16.4111 H   0  0  0  0  0  0
   17.5627   -7.7151   18.3598 H   0  0  0  0  0  0
   14.1661   -8.0355   15.9804 H   0  0  0  0  0  0
   15.3450   -7.4237   12.5810 H   0  0  0  0  0  0
   16.7321   -3.4904    9.9825 H   0  0  0  0  0  0
   13.6910   -6.2628   11.1560 H   0  0  0  0  0  0
   14.4024   -4.2923    9.8364 H   0  0  0  0  0  0
  1  3  1  0  0  0
  1  8  2  0  0  0
  1  9  2  0  0  0
  1  2  1  0  0  0
  2  6  1  0  0  0
  2  4  2  0  0  0
  3 11  2  0  0  0
  3 14  1  0  0  0
  4  5  1  0  0  0
  5  7  1  0  0  0
  5 20  1  0  0  0
  6 10  2  0  0  0
  6 18  1  0  0  0
  7 12  2  0  0  0
  7 10  1  0  0  0
 10 19  1  0  0  0
 11 13  1  0  0  0
 11 15  1  0  0  0
 14 16  2  0  0  0
 14 21  1  0  0  0
 15 17  2  0  0  0
 15 22  1  0  0  0
 16 17  1  0  0  0
 16 23  1  0  0  0
 17 24  1  0  0  0
M  END
> <s_m_entry_id>
6651

> <s_m_entry_name>
dock_pv.486

> <s_m_Source_Path>
/home/csk/Desktop/cluster/DUD-E-result/aldr

> <s_m_Source_File>
dock_pv.maegz

> <i_m_Source_File_Index>
486

> <chembl_id>
CHEMBL198119

> <chembl_pref_name>
None

> <i_lp_mmshare_version>
53161

> <i_f3d_flags>
0

> <r_lp_tautomer_probability>
0.998994762270461

> <s_lp_Force_Field>
OPLS_2005

> <r_lp_Energy>
21.204479

> <b_lp_Chiralities_Consistent>
1

> <s_lp_Variant>
CHEMBL1900_lig429-1

> <s_i_glide_gridfile>
glide-grid_2hv5

> <i_i_glide_lignum>
551

> <i_i_glide_rotatable_bonds>
2

> <r_i_docking_score>
-7.34251003476175

> <r_i_glide_ligand_efficiency>
-0.431912354985985

> <r_i_glide_ligand_efficiency_sa>
-1.11056828610448

> <r_i_glide_ligand_efficiency_ln>
-1.91549735841003

> <r_i_glide_gscore>
-7.34251003476175

> <r_i_glide_lipo>
-2.84796904931394

> <r_i_glide_hbond>
0

> <r_i_glide_metal>
0

> <r_i_glide_rewards>
-3.28190771798855

> <r_i_glide_evdw>
-31.8928070068359

> <r_i_glide_ecoul>
-1.08045268058777

> <r_i_glide_erotb>
0.544074984970704

> <r_i_glide_esite>
0

> <r_i_glide_emodel>
-46.06198972994

> <r_i_glide_energy>
-32.9732596874237

> <r_i_glide_einternal>
2.3343300819397

> <i_i_glide_confnum>
4

> <i_i_glide_posenum>
368

> <r_i_glide_eff_state_penalty>
0

> <s_user_duplicate_titles>
CHEMBL1900_lig429,331207

> <s_m_subgroup_title>
dock_pv

> <s_m_subgroupid>
dock_pv

> <b_m_subgroup_collapsed>
1

$$$$
CHEMBL1900_lig600
                    3D
 Schrodinger Suite 2021-1.
 42 45  0  0  1  0            999 V2000
   16.5321   -8.7878   16.6197 C   0  0  0  0  0  0
   17.0693   -7.7316   15.7759 C   0  0  0  0  0  0
   17.3080   -6.5158   16.2953 C   0  0  0  0  0  0
   16.8941   -6.1073   17.6252 C   0  0  0  0  0  0
   16.9450   -4.7844   18.0775 C   0  0  0  0  0  0
   16.7899   -4.5100   19.4270 C   0  0  0  0  0  0
   16.4782   -5.5488   20.2914 C   0  0  0  0  0  0
   16.1496   -6.8137   19.7812 C   0  0  0  0  0  0
   16.4026   -7.1116   18.4431 C   0  0  0  0  0  0
   16.2365   -8.4015   17.9366 O   0  0  0  0  0  0
   17.3450   -7.8495   14.3577 C   0  0  0  0  0  0
   18.2969   -8.4726   13.8902 O   0  0  0  0  0  0
   16.4761   -7.0913   13.6518 N   0  0  0  0  0  0
   16.6638   -6.4270   12.4392 C   0  0  0  0  0  0
   15.5154   -6.1109   11.7050 C   0  0  0  0  0  0
   15.6225   -5.2185   10.6351 C   0  0  0  0  0  0
   16.8661   -4.6767   10.3135 C   0  0  0  0  0  0
   17.9673   -5.0486   11.0828 C   0  0  0  0  0  0
   17.8840   -5.9067   12.1321 N   0  0  0  0  0  0
   16.3740   -9.9990   16.2445 N   0  0  0  0  0  0
   16.0641  -11.0274   17.1372 C   0  0  0  0  0  0
   16.9830  -12.0726   17.2802 C   0  0  0  0  0  0
   16.7501  -13.1141   18.1733 C   0  0  0  0  0  0
   15.5795  -13.1232   18.9250 C   0  0  0  0  0  0
   14.6442  -12.1042   18.7812 C   0  0  0  0  0  0
   14.8806  -11.0640   17.8862 C   0  0  0  0  0  0
   16.5449   -5.3156   21.6368 O   0  0  0  0  0  0
   17.8865   -5.8242   15.6958 H   0  0  0  0  0  0
   17.2571   -3.9880   17.4143 H   0  0  0  0  0  0
   16.9810   -3.5124   19.7964 H   0  0  0  0  0  0
   15.8375   -7.5997   20.4479 H   0  0  0  0  0  0
   15.5649   -6.9648   14.0599 H   0  0  0  0  0  0
   14.5440   -6.4903   11.9817 H   0  0  0  0  0  0
   14.7456   -4.9187   10.0790 H   0  0  0  0  0  0
   16.9690   -3.9803    9.4942 H   0  0  0  0  0  0
   18.9449   -4.6487   10.8688 H   0  0  0  0  0  0
   17.8938  -12.0677   16.6986 H   0  0  0  0  0  0
   17.4764  -13.9054   18.2815 H   0  0  0  0  0  0
   15.3930  -13.9220   19.6269 H   0  0  0  0  0  0
   13.7450  -12.1172   19.3727 H   0  0  0  0  0  0
   14.1521  -10.2736   17.7828 H   0  0  0  0  0  0
   16.7894   -4.4120   21.8468 H   0  0  0  0  0  0
  1  2  1  0  0  0
  1 10  1  0  0  0
  1 20  2  0  0  0
  2  3  2  0  0  0
  2 11  1  0  0  0
  3  4  1  0  0  0
  3 28  1  0  0  0
  4  5  1  0  0  0
  4  9  2  0  0  0
  5  6  2  0  0  0
  5 29  1  0  0  0
  6  7  1  0  0  0
  6 30  1  0  0  0
  7  8  2  0  0  0
  7 27  1  0  0  0
  8  9  1  0  0  0
  8 31  1  0  0  0
  9 10  1  0  0  0
 11 12  2  0  0  0
 11 13  1  0  0  0
 13 14  1  0  0  0
 13 32  1  0  0  0
 14 15  1  0  0  0
 14 19  2  0  0  0
 15 16  2  0  0  0
 15 33  1  0  0  0
 16 17  1  0  0  0
 16 34  1  0  0  0
 17 18  2  0  0  0
 17 35  1  0  0  0
 18 19  1  0  0  0
 18 36  1  0  0  0
 20 21  1  0  0  0
 21 22  1  0  0  0
 21 26  2  0  0  0
 22 23  2  0  0  0
 22 37  1  0  0  0
 23 24  1  0  0  0
 23 38  1  0  0  0
 24 25  2  0  0  0
 24 39  1  0  0  0
 25 26  1  0  0  0
 25 40  1  0  0  0
 26 41  1  0  0  0
 27 42  1  0  0  0
M  END
> <s_m_entry_id>
6652

> <s_m_entry_name>
dock_pv.487

> <s_m_Source_Path>
/home/csk/Desktop/cluster/DUD-E-result/aldr

> <s_m_Source_File>
dock_pv.maegz

> <i_m_Source_File_Index>
487

> <chembl_id>
CHEMBL2440428

> <chembl_pref_name>
None

> <i_lp_mmshare_version>
53161

> <i_f3d_flags>
0

> <r_lp_tautomer_probability>
1

> <s_lp_Force_Field>
OPLS_2005

> <r_lp_Energy>
42.664295

> <b_lp_Chiralities_Consistent>
1

> <s_lp_Variant>
CHEMBL1900_lig600-1

> <s_i_glide_gridfile>
glide-grid_2hv5

> <i_i_glide_lignum>
724

> <i_i_glide_rotatable_bonds>
5

> <r_i_docking_score>
-7.3401155598266

> <r_i_glide_ligand_efficiency>
-0.27185613184543

> <r_i_glide_ligand_efficiency_sa>
-0.815568394640295

> <r_i_glide_ligand_efficiency_ln>
-1.70865789106508

> <r_i_glide_gscore>
-7.3401155598266

> <r_i_glide_lipo>
-3.84843379486411

> <r_i_glide_hbond>
-0.00619660755516401

> <r_i_glide_metal>
0

> <r_i_glide_rewards>
-1.98852875177053

> <r_i_glide_evdw>
-33.656608581543

> <r_i_glide_ecoul>
-1.7588107585907

> <r_i_glide_erotb>
0.449695637228954

> <r_i_glide_esite>
0

> <r_i_glide_emodel>
-30.5797954909052

> <r_i_glide_energy>
-35.4154193401337

> <r_i_glide_einternal>
16.4451160430908

> <i_i_glide_confnum>
1

> <i_i_glide_posenum>
73

> <r_i_glide_eff_state_penalty>
0

> <s_user_duplicate_titles>
CHEMBL1900_lig600

> <s_m_subgroup_title>
dock_pv

> <s_m_subgroupid>
dock_pv

> <b_m_subgroup_collapsed>
1

$$$$
CHEMBL1900_lig532
                    3D
 Schrodinger Suite 2021-1.
 48 50  0  0  1  0            999 V2000
   18.5468   -3.2428   10.9848 O   0  0  0  0  0  0
   17.7187   -4.4043   10.6655 S   0  0  0  0  0  0
   17.9529   -5.0427    9.3849 O   0  0  0  0  0  0
   18.6370   -8.8460   14.5640 O   0  0  0  0  0  0
   15.0877  -11.9824   16.9106 C   0  0  0  0  0  0
   15.8789  -12.3450   15.8147 C   0  0  0  0  0  0
   16.7835  -11.4283   15.2680 C   0  0  0  0  0  0
   15.1932  -10.7414   17.5221 C   0  0  0  0  0  0
   16.1619   -9.8628   17.0263 C   0  0  0  0  0  0
   16.9486  -10.1735   15.8749 C   0  0  0  0  0  0
   17.7722   -9.0335   15.6141 C   0  0  0  0  0  0
   17.6154   -8.1888   16.6849 C   0  0  0  0  0  0
   16.5870   -8.6353   17.4794 N   0  0  0  0  0  0
   18.3925   -7.7715   13.7370 C   0  0  0  0  0  0
   17.6161   -7.9696   12.6125 C   0  0  0  0  0  0
   17.3491   -6.9282   11.7157 C   0  0  0  0  0  0
   17.8894   -5.6688   11.9399 C   0  0  0  0  0  0
   18.6300   -5.4634   13.1011 C   0  0  0  0  0  0
   18.9412   -6.5136   13.9510 C   0  0  0  0  0  0
   16.1172   -7.9363   18.6760 C   0  0  0  0  0  0
   18.3484   -6.9265   17.0521 C   0  0  0  0  0  0
   15.7519  -13.7552   15.2643 C   0  0  0  0  0  0
   14.4751  -14.1314   15.1735 F   0  0  0  0  0  0
   16.3715  -14.5471   16.1418 F   0  0  0  0  0  0
   16.3322  -13.9069   14.0717 F   0  0  0  0  0  0
   15.9015   -3.9420   10.7618 C   0  0  0  0  0  0
   15.0344   -4.8280    9.8763 C   0  0  0  0  0  0
   15.6780   -6.5054   18.4195 C   0  0  0  0  0  0
   15.7475   -5.7290   19.5377 O   0  0  0  0  0  0
   15.3443   -6.1094   17.3093 O   0  0  0  0  0  0
   14.3752  -12.6804   17.3184 H   0  0  0  0  0  0
   17.3830  -11.6815   14.4106 H   0  0  0  0  0  0
   14.5680  -10.4864   18.3681 H   0  0  0  0  0  0
   17.3447   -8.9824   12.4323 H   0  0  0  0  0  0
   16.9365   -7.1269   10.7479 H   0  0  0  0  0  0
   19.0438   -4.5177   13.3806 H   0  0  0  0  0  0
   19.6417   -6.3244   14.7344 H   0  0  0  0  0  0
   15.3457   -8.5137   19.1645 H   0  0  0  0  0  0
   16.9447   -7.8942   19.3737 H   0  0  0  0  0  0
   19.3448   -6.9147   16.6568 H   0  0  0  0  0  0
   17.8333   -6.0661   16.6347 H   0  0  0  0  0  0
   18.4747   -6.7713   18.1223 H   0  0  0  0  0  0
   15.6094   -4.1164   11.7812 H   0  0  0  0  0  0
   15.7975   -2.8915   10.4972 H   0  0  0  0  0  0
   13.9886   -4.5296    9.9781 H   0  0  0  0  0  0
   15.3220   -4.7460    8.8290 H   0  0  0  0  0  0
   15.1038   -5.8699   10.1818 H   0  0  0  0  0  0
   15.6458   -4.7998   19.3291 H   0  0  0  0  0  0
  1  2  2  0  0  0
  2  3  2  0  0  0
  2 17  1  0  0  0
  2 26  1  0  0  0
  4 11  1  0  0  0
  4 14  1  0  0  0
  5  8  1  0  0  0
  5  6  2  0  0  0
  5 31  1  0  0  0
  6  7  1  0  0  0
  6 22  1  0  0  0
  7 10  2  0  0  0
  7 32  1  0  0  0
  8  9  2  0  0  0
  8 33  1  0  0  0
  9 10  1  0  0  0
  9 13  1  0  0  0
 10 11  1  0  0  0
 11 12  2  0  0  0
 12 21  1  0  0  0
 12 13  1  0  0  0
 13 20  1  0  0  0
 14 15  2  0  0  0
 14 19  1  0  0  0
 15 16  1  0  0  0
 15 34  1  0  0  0
 16 17  2  0  0  0
 16 35  1  0  0  0
 17 18  1  0  0  0
 18 19  2  0  0  0
 18 36  1  0  0  0
 19 37  1  0  0  0
 20 28  1  0  0  0
 20 38  1  0  0  0
 20 39  1  0  0  0
 21 40  1  0  0  0
 21 41  1  0  0  0
 21 42  1  0  0  0
 22 23  1  0  0  0
 22 24  1  0  0  0
 22 25  1  0  0  0
 26 27  1  0  0  0
 26 43  1  0  0  0
 26 44  1  0  0  0
 27 45  1  0  0  0
 27 46  1  0  0  0
 27 47  1  0  0  0
 28 29  1  0  0  0
 28 30  2  0  0  0
 29 48  1  0  0  0
M  END
> <s_m_entry_id>
6653

> <s_m_entry_name>
dock_pv.488

> <s_m_Source_Path>
/home/csk/Desktop/cluster/DUD-E-result/aldr

> <s_m_Source_File>
dock_pv.maegz

> <i_m_Source_File_Index>
488

> <chembl_id>
CHEMBL1917458

> <chembl_pref_name>
None

> <i_lp_mmshare_version>
53161

> <i_f3d_flags>
0

> <r_lp_tautomer_probability>
1

> <s_lp_Force_Field>
OPLS_2005

> <r_lp_Energy>
12.08153

> <b_lp_Chiralities_Consistent>
1

> <s_lp_Variant>
CHEMBL1900_lig532-1

> <s_i_glide_gridfile>
glide-grid_2hv5

> <i_i_glide_lignum>
655

> <i_i_glide_rotatable_bonds>
8

> <r_i_docking_score>
-7.33552472432587

> <r_i_glide_ligand_efficiency>
-0.244517490810862

> <r_i_glide_ligand_efficiency_sa>
-0.759772694860407

> <r_i_glide_ligand_efficiency_ln>
-1.66671114431036

> <r_i_glide_gscore>
-7.33552472432587

> <r_i_glide_lipo>
-3.86189802183868

> <r_i_glide_hbond>
-0.129301766287923

> <r_i_glide_metal>
0

> <r_i_glide_rewards>
-2.35316600231503

> <r_i_glide_evdw>
-14.0016279220581

> <r_i_glide_ecoul>
-5.35759782791138

> <r_i_glide_erotb>
0.512562136405366

> <r_i_glide_esite>
0

> <r_i_glide_emodel>
-26.7946553735544

> <r_i_glide_energy>
-19.3592257499695

> <r_i_glide_einternal>
9.47630596160889

> <i_i_glide_confnum>
10

> <i_i_glide_posenum>
246

> <r_i_glide_eff_state_penalty>
0

> <s_user_duplicate_titles>
CHEMBL1900_lig532

> <s_m_subgroup_title>
dock_pv

> <s_m_subgroupid>
dock_pv

> <b_m_subgroup_collapsed>
1

$$$$
CHEMBL1900_lig331
                    3D
 Schrodinger Suite 2021-1.
 36 37  0  0  1  0            999 V2000
   15.6602   -8.0831   16.8949 C   0  0  2  0  0  0
   16.6738   -8.1573   15.7534 C   0  0  0  0  0  0
   17.2113  -10.5146   16.2641 O   0  0  0  0  0  0
   17.3728   -9.3590   15.5240 C   0  0  0  0  0  0
   16.3444   -7.5770   18.2103 C   0  0  0  0  0  0
   15.0650   -9.4931   17.0974 C   0  0  0  0  0  0
   16.1553  -10.5794   17.2315 C   0  0  1  0  0  0
   16.6471   -6.0738   18.3496 C   0  0  0  0  0  0
   16.9657   -7.0640   14.9224 C   0  0  0  0  0  0
   18.3269   -9.4508   14.5117 C   0  0  0  0  0  0
   16.1446   -5.1933   17.6639 O   0  0  0  0  0  0
   14.5456   -7.2695   16.5829 O   0  0  0  0  0  0
   17.9377   -7.1480   13.9259 C   0  0  0  0  0  0
   15.6446  -12.0380   17.3615 C   0  0  0  0  0  0
   17.4966   -5.8297   19.3811 O   0  0  0  0  0  0
   18.6249   -8.3401   13.7295 C   0  0  0  0  0  0
   18.2191   -6.0741   13.1551 F   0  0  0  0  0  0
   15.0407  -12.5825   16.0543 C   0  0  0  0  0  0
   14.6741  -12.2406   18.5422 C   0  0  0  0  0  0
   16.6522  -10.3640   18.1751 H   0  0  0  0  0  0
   17.2868   -8.1114   18.3276 H   0  0  0  0  0  0
   15.7452   -7.8512   19.0758 H   0  0  0  0  0  0
   14.4312   -9.4983   17.9829 H   0  0  0  0  0  0
   14.4060   -9.7549   16.2676 H   0  0  0  0  0  0
   16.4438   -6.1288   15.0630 H   0  0  0  0  0  0
   18.8572  -10.3773   14.3504 H   0  0  0  0  0  0
   13.9245   -7.3121   17.3139 H   0  0  0  0  0  0
   16.5237  -12.6510   17.5730 H   0  0  0  0  0  0
   17.8245   -6.6353   19.7866 H   0  0  0  0  0  0
   19.3984   -8.4014   12.9809 H   0  0  0  0  0  0
   14.1303  -12.0484   15.7841 H   0  0  0  0  0  0
   15.7421  -12.4945   15.2244 H   0  0  0  0  0  0
   14.7835  -13.6386   16.1465 H   0  0  0  0  0  0
   13.7455  -11.6919   18.3907 H   0  0  0  0  0  0
   14.4100  -13.2921   18.6632 H   0  0  0  0  0  0
   15.1018  -11.9033   19.4839 H   0  0  0  0  0  0
  1  2  1  0  0  0
  1  5  1  0  0  0
  1  6  1  0  0  0
  1 12  1  0  0  0
  2  4  2  0  0  0
  2  9  1  0  0  0
  3  7  1  0  0  0
  3  4  1  0  0  0
  4 10  1  0  0  0
  5  8  1  0  0  0
  5 21  1  0  0  0
  5 22  1  0  0  0
  6  7  1  0  0  0
  6 23  1  0  0  0
  6 24  1  0  0  0
  7 14  1  0  0  0
  7 20  1  0  0  0
  8 11  2  0  0  0
  8 15  1  0  0  0
  9 13  2  0  0  0
  9 25  1  0  0  0
 10 16  2  0  0  0
 10 26  1  0  0  0
 12 27  1  0  0  0
 13 16  1  0  0  0
 13 17  1  0  0  0
 14 18  1  0  0  0
 14 19  1  0  0  0
 14 28  1  0  0  0
 15 29  1  0  0  0
 16 30  1  0  0  0
 18 31  1  0  0  0
 18 32  1  0  0  0
 18 33  1  0  0  0
 19 34  1  0  0  0
 19 35  1  0  0  0
 19 36  1  0  0  0
M  END
> <s_m_entry_id>
6654

> <s_m_entry_name>
dock_pv.489

> <s_m_Source_Path>
/home/csk/Desktop/cluster/DUD-E-result/aldr

> <s_m_Source_File>
dock_pv.maegz

> <i_m_Source_File_Index>
489

> <chembl_id>
CHEMBL68091

> <chembl_pref_name>
None

> <i_lp_mmshare_version>
53161

> <i_f3d_flags>
0

> <r_lp_tautomer_probability>
1

> <s_lp_Force_Field>
OPLS_2005

> <r_lp_Energy>
17.320493

> <b_lp_Chiralities_Consistent>
1

> <s_lp_Variant>
CHEMBL1900_lig331-1

> <s_i_glide_gridfile>
glide-grid_2hv5

> <i_i_glide_lignum>
451

> <i_i_glide_rotatable_bonds>
5

> <r_i_docking_score>
-7.32935023520059

> <r_i_glide_ligand_efficiency>
-0.385755275536873

> <r_i_glide_ligand_efficiency_sa>
-1.02935001223549

> <r_i_glide_ligand_efficiency_ln>
-1.85814770463238

> <r_i_glide_gscore>
-7.32935023520059

> <r_i_glide_lipo>
-2.77513262435431

> <r_i_glide_hbond>
0

> <r_i_glide_metal>
0

> <r_i_glide_rewards>
-3.03938947150523

> <r_i_glide_evdw>
-28.1294593811035

> <r_i_glide_ecoul>
-4.02862167358398

> <r_i_glide_erotb>
0.495938080751726

> <r_i_glide_esite>
0

> <r_i_glide_emodel>
-43.8217906231879

> <r_i_glide_energy>
-32.1580810546875

> <r_i_glide_einternal>
5.44984483718872

> <i_i_glide_confnum>
2

> <i_i_glide_posenum>
264

> <r_i_glide_eff_state_penalty>
0

> <s_user_duplicate_titles>
CHEMBL1900_lig331,108058

> <s_m_subgroup_title>
dock_pv

> <s_m_subgroupid>
dock_pv

> <b_m_subgroup_collapsed>
1

$$$$
CHEMBL1900_lig343
                    3D
 Schrodinger Suite 2021-1.
 39 40  0  0  1  0            999 V2000
   15.7859   -8.1644   16.7101 C   0  0  2  0  0  0
   16.8779   -8.2375   15.6305 C   0  0  0  0  0  0
   16.9925  -10.6958   15.7674 O   0  0  0  0  0  0
   17.4305   -9.4848   15.2707 C   0  0  0  0  0  0
   16.3790   -7.6584   18.0720 C   0  0  0  0  0  0
   15.1557   -9.5629   16.9026 C   0  0  0  0  0  0
   16.2259  -10.6740   16.9787 C   0  0  1  0  0  0
   16.5986   -6.1505   18.2739 C   0  0  0  0  0  0
   15.6830  -12.1100   17.2993 C   0  0  0  0  0  0
   17.3973   -7.0942   15.0000 C   0  0  0  0  0  0
   18.4349   -9.5784   14.3064 C   0  0  0  0  0  0
   16.1393   -5.2741   17.5531 O   0  0  0  0  0  0
   14.6918   -7.3529   16.3338 O   0  0  0  0  0  0
   18.4266   -7.1822   14.0615 C   0  0  0  0  0  0
   17.3449   -5.9066   19.3828 O   0  0  0  0  0  0
   18.9424   -8.4256   13.7107 C   0  0  0  0  0  0
   18.9317   -6.0606   13.4971 F   0  0  0  0  0  0
   14.6958  -12.1139   18.4996 C   0  0  0  0  0  0
   16.8834  -13.0191   17.6589 C   0  0  0  0  0  0
   14.9540  -12.7216   16.0787 C   0  0  0  0  0  0
   16.9139  -10.4081   17.7818 H   0  0  0  0  0  0
   17.3379   -8.1510   18.2321 H   0  0  0  0  0  0
   15.7414   -7.9735   18.8959 H   0  0  0  0  0  0
   14.5398   -9.5563   17.8010 H   0  0  0  0  0  0
   14.4686   -9.8137   16.0892 H   0  0  0  0  0  0
   17.0090   -6.1165   15.2420 H   0  0  0  0  0  0
   18.8320  -10.5455   14.0342 H   0  0  0  0  0  0
   14.2281   -7.7916   15.6166 H   0  0  0  0  0  0
   17.6503   -6.7122   19.8044 H   0  0  0  0  0  0
   19.7368   -8.4948   12.9806 H   0  0  0  0  0  0
   13.7527  -11.6216   18.2564 H   0  0  0  0  0  0
   14.4374  -13.1309   18.8008 H   0  0  0  0  0  0
   15.1005  -11.6124   19.3773 H   0  0  0  0  0  0
   17.5857  -13.1070   16.8282 H   0  0  0  0  0  0
   17.4356  -12.6453   18.5235 H   0  0  0  0  0  0
   16.5550  -14.0277   17.9057 H   0  0  0  0  0  0
   15.6196  -12.8217   15.2193 H   0  0  0  0  0  0
   14.5699  -13.7168   16.2974 H   0  0  0  0  0  0
   14.1056  -12.1138   15.7688 H   0  0  0  0  0  0
  1  2  1  0  0  0
  1  5  1  0  0  0
  1  6  1  0  0  0
  1 13  1  0  0  0
  2  4  2  0  0  0
  2 10  1  0  0  0
  3  7  1  0  0  0
  3  4  1  0  0  0
  4 11  1  0  0  0
  5  8  1  0  0  0
  5 22  1  0  0  0
  5 23  1  0  0  0
  6  7  1  0  0  0
  6 24  1  0  0  0
  6 25  1  0  0  0
  7  9  1  0  0  0
  7 21  1  0  0  0
  8 12  2  0  0  0
  8 15  1  0  0  0
  9 18  1  0  0  0
  9 19  1  0  0  0
  9 20  1  0  0  0
 10 14  2  0  0  0
 10 26  1  0  0  0
 11 16  2  0  0  0
 11 27  1  0  0  0
 13 28  1  0  0  0
 14 16  1  0  0  0
 14 17  1  0  0  0
 15 29  1  0  0  0
 16 30  1  0  0  0
 18 31  1  0  0  0
 18 32  1  0  0  0
 18 33  1  0  0  0
 19 34  1  0  0  0
 19 35  1  0  0  0
 19 36  1  0  0  0
 20 37  1  0  0  0
 20 38  1  0  0  0
 20 39  1  0  0  0
M  END
> <s_m_entry_id>
6655

> <s_m_entry_name>
dock_pv.490

> <s_m_Source_Path>
/home/csk/Desktop/cluster/DUD-E-result/aldr

> <s_m_Source_File>
dock_pv.maegz

> <i_m_Source_File_Index>
490

> <chembl_id>
CHEMBL304798

> <chembl_pref_name>
None

> <i_lp_mmshare_version>
53161

> <i_f3d_flags>
0

> <r_lp_tautomer_probability>
1

> <s_lp_Force_Field>
OPLS_2005

> <r_lp_Energy>
20.057942

> <b_lp_Chiralities_Consistent>
1

> <s_lp_Variant>
CHEMBL1900_lig343-1

> <s_i_glide_gridfile>
glide-grid_2hv5

> <i_i_glide_lignum>
464

> <i_i_glide_rotatable_bonds>
5

> <r_i_docking_score>
-7.32684614687113

> <r_i_glide_ligand_efficiency>
-0.366342307343557

> <r_i_glide_ligand_efficiency_sa>
-0.994406011764384

> <r_i_glide_ligand_efficiency_ln>
-1.83366793500264

> <r_i_glide_gscore>
-7.32684614687113

> <r_i_glide_lipo>
-2.73216416261756

> <r_i_glide_hbond>
0

> <r_i_glide_metal>
0

> <r_i_glide_rewards>
-2.9766676046151

> <r_i_glide_evdw>
-28.8884525299072

> <r_i_glide_ecoul>
-4.18398237228394

> <r_i_glide_erotb>
0.454005602699481

> <r_i_glide_esite>
0

> <r_i_glide_emodel>
-43.653392948702

> <r_i_glide_energy>
-33.0724349021912

> <r_i_glide_einternal>
6.58641242980957

> <i_i_glide_confnum>
4

> <i_i_glide_posenum>
382

> <r_i_glide_eff_state_penalty>
0

> <s_user_duplicate_titles>
CHEMBL1900_lig343,108555

> <s_m_subgroup_title>
dock_pv

> <s_m_subgroupid>
dock_pv

> <b_m_subgroup_collapsed>
1

$$$$
CHEMBL1900_lig215
                    3D
 Schrodinger Suite 2021-1.
 31 32  0  0  1  0            999 V2000
   16.7248   -8.2982   15.7043 C   0  0  0  0  0  0
   17.9257   -7.1702   14.1107 N   0  0  0  0  0  0
   17.5406   -9.1475   15.0584 C   0  0  0  0  0  0
   18.3332   -8.4591   14.0628 C   0  0  0  0  0  0
   16.9509   -6.9239   15.1568 C   0  0  0  0  0  0
   15.7357   -8.5545   16.7448 C   0  0  0  0  0  0
   18.4066   -6.1372   13.1848 C   0  0  0  0  0  0
   17.3632   -5.7150   12.1545 C   0  0  0  0  0  0
   17.7452   -4.5201   10.9384 S   0  0  0  0  0  0
   19.1916   -8.9430   13.3248 O   0  0  0  0  0  0
   16.1360   -4.5424   10.3021 C   0  0  0  0  0  0
   15.0098   -7.6694   17.2065 O   0  0  0  0  0  0
   16.0334   -6.1148   11.9882 C   0  0  0  0  0  0
   15.3415   -5.4424   10.9809 C   0  0  0  0  0  0
   17.7465  -10.4934   15.1250 O   0  0  0  0  0  0
   15.7042   -9.8522   17.1239 O   0  0  0  0  0  0
   14.7296  -10.3253   18.0372 C   0  0  0  0  0  0
   14.8830  -11.8383   18.2204 C   0  0  0  0  0  0
   16.0381   -6.4899   14.7447 H   0  0  0  0  0  0
   17.3441   -6.2205   15.8934 H   0  0  0  0  0  0
   18.7385   -5.2823   13.7740 H   0  0  0  0  0  0
   19.3000   -6.4903   12.6671 H   0  0  0  0  0  0
   15.8594   -3.8997    9.4794 H   0  0  0  0  0  0
   15.5610   -6.8646   12.6032 H   0  0  0  0  0  0
   14.2999   -5.6132   10.7503 H   0  0  0  0  0  0
   18.3814  -10.7425   14.4458 H   0  0  0  0  0  0
   13.7451  -10.1140   17.6318 H   0  0  0  0  0  0
   14.8272   -9.8073   18.9916 H   0  0  0  0  0  0
   14.1504  -12.2165   18.9347 H   0  0  0  0  0  0
   15.8754  -12.1026   18.5821 H   0  0  0  0  0  0
   14.7252  -12.3613   17.2770 H   0  0  0  0  0  0
  1  3  2  0  0  0
  1  5  1  0  0  0
  1  6  1  0  0  0
  2  5  1  0  0  0
  2  7  1  0  0  0
  2  4  1  0  0  0
  3  4  1  0  0  0
  3 15  1  0  0  0
  4 10  2  0  0  0
  5 19  1  0  0  0
  5 20  1  0  0  0
  6 12  2  0  0  0
  6 16  1  0  0  0
  7  8  1  0  0  0
  7 21  1  0  0  0
  7 22  1  0  0  0
  8  9  1  0  0  0
  8 13  2  0  0  0
  9 11  1  0  0  0
 11 14  2  0  0  0
 11 23  1  0  0  0
 13 14  1  0  0  0
 13 24  1  0  0  0
 14 25  1  0  0  0
 15 26  1  0  0  0
 16 17  1  0  0  0
 17 18  1  0  0  0
 17 27  1  0  0  0
 17 28  1  0  0  0
 18 29  1  0  0  0
 18 30  1  0  0  0
 18 31  1  0  0  0
M  END
> <s_m_entry_id>
6656

> <s_m_entry_name>
dock_pv.491

> <s_m_Source_Path>
/home/csk/Desktop/cluster/DUD-E-result/aldr

> <s_m_Source_File>
dock_pv.maegz

> <i_m_Source_File_Index>
491

> <chembl_id>
CHEMBL6944

> <chembl_pref_name>
None

> <i_lp_mmshare_version>
53161

> <i_f3d_flags>
0

> <r_lp_tautomer_probability>
1

> <s_lp_Force_Field>
OPLS_2005

> <r_lp_Energy>
18.190992

> <b_lp_Chiralities_Consistent>
1

> <s_lp_Variant>
CHEMBL1900_lig215-1

> <s_i_glide_gridfile>
glide-grid_2hv5

> <i_i_glide_lignum>
291

> <i_i_glide_rotatable_bonds>
6

> <r_i_docking_score>
-7.32507929206865

> <r_i_glide_ligand_efficiency>
-0.406948849559369

> <r_i_glide_ligand_efficiency_sa>
-1.06650769433839

> <r_i_glide_ligand_efficiency_ln>
-1.88287386088519

> <r_i_glide_gscore>
-7.32507929206865

> <r_i_glide_lipo>
-2.83321202049911

> <r_i_glide_hbond>
0

> <r_i_glide_metal>
0

> <r_i_glide_rewards>
-3.56835609743785

> <r_i_glide_evdw>
-37.6633949279785

> <r_i_glide_ecoul>
-0.256685942411423

> <r_i_glide_erotb>
0.998161463628957

> <r_i_glide_esite>
0

> <r_i_glide_emodel>
-53.62347280386

> <r_i_glide_energy>
-37.9200808703899

> <r_i_glide_einternal>
1.80430507659912

> <i_i_glide_confnum>
7

> <i_i_glide_posenum>
324

> <r_i_glide_eff_state_penalty>
0

> <s_user_duplicate_titles>
CHEMBL1900_lig215,2091

> <s_m_subgroup_title>
dock_pv

> <s_m_subgroupid>
dock_pv

> <b_m_subgroup_collapsed>
1

$$$$
CHEMBL1900_lig102
                    3D
 Schrodinger Suite 2021-1.
 30 32  0  0  1  0            999 V2000
   16.2762   -9.6361   16.5622 C   0  0  1  0  0  0
   17.1602   -9.5360   15.3055 C   0  0  0  0  0  0
   16.1449   -8.3039   17.2674 N   0  0  0  0  0  0
   14.9067  -10.1765   16.2141 C   0  0  0  0  0  0
   16.1014   -7.1242   16.5743 C   0  0  0  0  0  0
   16.7161  -10.7161   17.3880 N   0  0  0  0  0  0
   14.6770  -11.1974   17.0488 N   0  0  0  0  0  0
   18.6845  -10.3997   13.6141 C   0  0  0  0  0  0
   17.7263  -10.6309   14.6006 C   0  0  0  0  0  0
   15.7428  -11.5375   17.7890 C   0  0  0  0  0  0
   19.3446  -11.5163   12.9239 N   0  3  0  0  0  0
   16.8252   -7.1531   15.4458 N   0  0  0  0  0  0
   17.4763   -8.2386   14.8791 C   0  0  0  0  0  0
   19.0452   -9.0929   13.3139 C   0  0  0  0  0  0
   18.7075  -12.1151   12.0638 O   0  5  0  0  0  0
   15.4649   -6.1149   16.8787 O   0  0  0  0  0  0
   14.1590   -9.7155   15.3719 O   0  0  0  0  0  0
   20.4964  -11.7794   13.2469 O   0  0  0  0  0  0
   18.4193   -8.0085   13.8937 C   0  0  0  0  0  0
   15.8615  -12.5182   18.5157 O   0  0  0  0  0  0
   17.2751  -12.2824   14.9082 Cl  0  0  0  0  0  0
   15.7221   -8.2399   18.6681 C   0  0  0  0  0  0
   17.5735  -10.5951   17.9030 H   0  0  0  0  0  0
   13.8365  -11.7530   17.0155 H   0  0  0  0  0  0
   16.9100   -6.2540   14.9975 H   0  0  0  0  0  0
   19.7912   -8.9142   12.5826 H   0  0  0  0  0  0
   18.6845   -7.0046   13.5914 H   0  0  0  0  0  0
   15.4187   -7.2391   18.9787 H   0  0  0  0  0  0
   14.8864   -8.9144   18.8546 H   0  0  0  0  0  0
   16.5444   -8.5146   19.3144 H   0  0  0  0  0  0
  1  2  1  0  0  0
  1  3  1  0  0  0
  1  4  1  0  0  0
  1  6  1  0  0  0
  2  9  2  0  0  0
  2 13  1  0  0  0
  3  5  1  0  0  0
  3 22  1  0  0  0
  4  7  1  0  0  0
  4 17  2  0  0  0
  5 12  1  0  0  0
  5 16  2  0  0  0
  6 10  1  0  0  0
  6 23  1  0  0  0
  7 10  1  0  0  0
  7 24  1  0  0  0
  8  9  1  0  0  0
  8 11  1  0  0  0
  8 14  2  0  0  0
  9 21  1  0  0  0
 10 20  2  0  0  0
 11 15  1  0  0  0
 11 18  2  0  0  0
 12 13  1  0  0  0
 12 25  1  0  0  0
 13 19  2  0  0  0
 14 19  1  0  0  0
 14 26  1  0  0  0
 19 27  1  0  0  0
 22 28  1  0  0  0
 22 29  1  0  0  0
 22 30  1  0  0  0
M  CHG  2  11   1  15  -1
M  END
> <s_m_entry_id>
6657

> <s_m_entry_name>
dock_pv.492

> <s_m_Source_Path>
/home/csk/Desktop/cluster/DUD-E-result/aldr

> <s_m_Source_File>
dock_pv.maegz

> <i_m_Source_File_Index>
492

> <chembl_id>
CHEMBL63527

> <chembl_pref_name>
None

> <i_lp_mmshare_version>
53161

> <i_f3d_flags>
0

> <r_lp_tautomer_probability>
0.99999999978137

> <s_lp_Force_Field>
OPLS_2005

> <r_lp_Energy>
45.839082

> <b_lp_Chiralities_Consistent>
1

> <s_lp_Variant>
CHEMBL1900_lig102-1

> <s_i_glide_gridfile>
glide-grid_2hv5

> <i_i_glide_lignum>
145

> <i_i_glide_rotatable_bonds>
1

> <r_i_docking_score>
-7.32012149868491

> <r_i_glide_ligand_efficiency>
-0.332732795394768

> <r_i_glide_ligand_efficiency_sa>
-0.932330378334429

> <r_i_glide_ligand_efficiency_ln>
-1.78930470219781

> <r_i_glide_gscore>
-7.32012149868491

> <r_i_glide_lipo>
-1.6207422230586

> <r_i_glide_hbond>
-0.566199959899806

> <r_i_glide_metal>
0

> <r_i_glide_rewards>
-3.08765647115149

> <r_i_glide_evdw>
-26.2582588195801

> <r_i_glide_ecoul>
-4.79338407516479

> <r_i_glide_erotb>
0

> <r_i_glide_esite>
-0.0136022923212866

> <r_i_glide_emodel>
-38.9714174431278

> <r_i_glide_energy>
-31.0516428947449

> <r_i_glide_einternal>
0.070859968662262

> <i_i_glide_confnum>
1

> <i_i_glide_posenum>
9

> <r_i_glide_eff_state_penalty>
0

> <s_user_duplicate_titles>
CHEMBL1900_lig102

> <s_m_subgroup_title>
dock_pv

> <s_m_subgroupid>
dock_pv

> <b_m_subgroup_collapsed>
1

$$$$
CHEMBL1900_lig108
                    3D
 Schrodinger Suite 2021-1.
 40 42  0  0  1  0            999 V2000
   16.4266  -10.5748   16.5163 C   0  0  1  0  0  0
   17.3305  -10.9230   15.3681 N   0  0  0  0  0  0
   17.8386   -9.9944   14.4918 C   0  0  0  0  0  0
   17.7954   -8.6937   14.9220 N   0  0  0  0  0  0
   16.5840   -9.1142   16.9852 C   0  0  0  0  0  0
   14.9522  -10.7798   16.1809 C   0  0  0  0  0  0
   16.5351  -11.5242   17.5976 N   0  0  0  0  0  0
   14.5455  -11.8281   16.9111 N   0  0  0  0  0  0
   15.4533  -12.2806   17.7917 C   0  0  0  0  0  0
   17.3421   -8.2378   16.1935 C   0  0  0  0  0  0
   18.2869   -7.6800   13.9443 C   0  0  0  0  0  0
   18.2765  -10.3200   13.3813 O   0  0  0  0  0  0
   14.2881  -10.1142   15.3892 O   0  0  0  0  0  0
   15.2793  -13.0964   18.6882 O   0  0  0  0  0  0
   17.4024  -12.3451   14.9602 C   0  0  0  0  0  0
   16.0071   -8.6296   18.1770 C   0  0  0  0  0  0
   17.5284   -6.9159   16.6395 C   0  0  0  0  0  0
   17.1836   -7.0481   13.0503 C   0  0  0  0  0  0
   16.1779   -7.3128   18.5819 C   0  0  0  0  0  0
   17.7274   -5.8307   12.2839 C   0  0  0  0  0  0
   15.8881   -6.6814   13.7964 C   0  0  0  0  0  0
   16.9459   -6.4558   17.8143 C   0  0  0  0  0  0
   17.4587  -11.8217   17.8735 H   0  0  0  0  0  0
   13.5901  -12.1497   16.9141 H   0  0  0  0  0  0
   19.0402   -8.1101   13.2814 H   0  0  0  0  0  0
   18.8645   -6.9068   14.4426 H   0  0  0  0  0  0
   18.1181  -12.5422   14.1613 H   0  0  0  0  0  0
   17.7047  -12.9715   15.7996 H   0  0  0  0  0  0
   16.4285  -12.6933   14.6173 H   0  0  0  0  0  0
   15.4160   -9.2881   18.7987 H   0  0  0  0  0  0
   18.1016   -6.1933   16.0832 H   0  0  0  0  0  0
   16.9221   -7.7949   12.2992 H   0  0  0  0  0  0
   15.7456   -6.9632   19.5067 H   0  0  0  0  0  0
   18.0947   -5.0591   12.9614 H   0  0  0  0  0  0
   16.9592   -5.3797   11.6539 H   0  0  0  0  0  0
   18.5455   -6.1145   11.6278 H   0  0  0  0  0  0
   16.1139   -6.0667   14.6566 H   0  0  0  0  0  0
   15.2013   -6.1209   13.1600 H   0  0  0  0  0  0
   15.3555   -7.5519   14.1821 H   0  0  0  0  0  0
   17.0998   -5.4347   18.1307 H   0  0  0  0  0  0
  1  2  1  0  0  0
  1  5  1  0  0  0
  1  6  1  0  0  0
  1  7  1  0  0  0
  2  3  1  0  0  0
  2 15  1  0  0  0
  3 12  2  0  0  0
  3  4  1  0  0  0
  4 10  1  0  0  0
  4 11  1  0  0  0
  5 10  1  0  0  0
  5 16  2  0  0  0
  6  8  1  0  0  0
  6 13  2  0  0  0
  7  9  1  0  0  0
  7 23  1  0  0  0
  8  9  1  0  0  0
  8 24  1  0  0  0
  9 14  2  0  0  0
 10 17  2  0  0  0
 11 18  1  0  0  0
 11 25  1  0  0  0
 11 26  1  0  0  0
 15 27  1  0  0  0
 15 28  1  0  0  0
 15 29  1  0  0  0
 16 19  1  0  0  0
 16 30  1  0  0  0
 17 22  1  0  0  0
 17 31  1  0  0  0
 18 20  1  0  0  0
 18 21  1  0  0  0
 18 32  1  0  0  0
 19 22  2  0  0  0
 19 33  1  0  0  0
 20 34  1  0  0  0
 20 35  1  0  0  0
 20 36  1  0  0  0
 21 37  1  0  0  0
 21 38  1  0  0  0
 21 39  1  0  0  0
 22 40  1  0  0  0
M  END
> <s_m_entry_id>
6658

> <s_m_entry_name>
dock_pv.493

> <s_m_Source_Path>
/home/csk/Desktop/cluster/DUD-E-result/aldr

> <s_m_Source_File>
dock_pv.maegz

> <i_m_Source_File_Index>
493

> <chembl_id>
CHEMBL66192

> <chembl_pref_name>
None

> <i_lp_mmshare_version>
53161

> <i_f3d_flags>
0

> <r_lp_tautomer_probability>
0.99999999978137

> <s_lp_Force_Field>
OPLS_2005

> <r_lp_Energy>
48.482681

> <b_lp_Chiralities_Consistent>
1

> <s_lp_Variant>
CHEMBL1900_lig108-2

> <s_i_glide_gridfile>
glide-grid_2hv5

> <i_i_glide_lignum>
157

> <i_i_glide_rotatable_bonds>
2

> <r_i_docking_score>
-7.31936451062732

> <r_i_glide_ligand_efficiency>
-0.332698386846697

> <r_i_glide_ligand_efficiency_sa>
-0.93223396422952

> <r_i_glide_ligand_efficiency_ln>
-1.78911966670473

> <r_i_glide_gscore>
-7.31936451062732

> <r_i_glide_lipo>
-2.7198017659156

> <r_i_glide_hbond>
0

> <r_i_glide_metal>
0

> <r_i_glide_rewards>
-3.46378460423213

> <r_i_glide_evdw>
-28.3711280822754

> <r_i_glide_ecoul>
0.76027637720108

> <r_i_glide_erotb>
0.20142176547406

> <r_i_glide_esite>
-0.0326849584200388

> <r_i_glide_emodel>
-33.058256292866

> <r_i_glide_energy>
-27.6108517050743

> <r_i_glide_einternal>
2.80404949188232

> <i_i_glide_confnum>
2

> <i_i_glide_posenum>
18

> <r_i_glide_eff_state_penalty>
0

> <s_user_duplicate_titles>
CHEMBL1900_lig108,101495

> <s_m_subgroup_title>
dock_pv

> <s_m_subgroupid>
dock_pv

> <b_m_subgroup_collapsed>
1

$$$$
CHEMBL1900_lig101
                    3D
 Schrodinger Suite 2021-1.
 31 33  0  0  1  0            999 V2000
   16.8681   -8.1790   16.5637 C   0  0  2  0  0  0
   17.8314   -8.0817   15.3936 N   0  0  0  0  0  0
   15.6634   -7.2642   16.3728 C   0  0  0  0  0  0
   18.0292   -9.1079   14.5003 C   0  0  0  0  0  0
   17.3727   -7.5824   17.7808 N   0  0  0  0  0  0
   15.5212   -6.5780   17.5098 N   0  0  0  0  0  0
   16.3157   -9.6154   16.7947 C   0  0  0  0  0  0
   16.5256   -6.7388   18.3814 C   0  0  0  0  0  0
   17.6338  -10.3193   14.9231 N   0  0  0  0  0  0
   16.7677  -10.6352   15.9536 C   0  0  0  0  0  0
   18.5282   -9.0259   13.3808 O   0  0  0  0  0  0
   14.9542   -7.1835   15.3810 O   0  0  0  0  0  0
   16.6921   -6.1145   19.4225 O   0  0  0  0  0  0
   18.2772   -6.7247   14.9799 C   0  0  0  0  0  0
   15.3719   -9.9636   17.7811 C   0  0  0  0  0  0
   16.3041  -11.9470   16.0761 C   0  0  0  0  0  0
   19.7526   -6.5117   14.5765 C   0  0  0  0  0  0
   14.9033  -11.2701   17.9134 C   0  0  0  0  0  0
   15.3713  -12.2644   17.0601 C   0  0  0  0  0  0
   18.0536   -8.0973   18.3198 H   0  0  0  0  0  0
   14.7937   -5.8979   17.6456 H   0  0  0  0  0  0
   17.8738  -11.0500   14.2702 H   0  0  0  0  0  0
   18.1109   -6.0594   15.8227 H   0  0  0  0  0  0
   17.6201   -6.3663   14.1857 H   0  0  0  0  0  0
   14.9893   -9.2142   18.4579 H   0  0  0  0  0  0
   16.6510  -12.7191   15.4042 H   0  0  0  0  0  0
   19.8675   -5.5007   14.1873 H   0  0  0  0  0  0
   20.1068   -7.1866   13.7994 H   0  0  0  0  0  0
   20.4257   -6.5853   15.4259 H   0  0  0  0  0  0
   14.1696  -11.5105   18.6702 H   0  0  0  0  0  0
   15.0032  -13.2758   17.1537 H   0  0  0  0  0  0
  1  2  1  0  0  0
  1  3  1  0  0  0
  1  5  1  0  0  0
  1  7  1  0  0  0
  2  4  1  0  0  0
  2 14  1  0  0  0
  3  6  1  0  0  0
  3 12  2  0  0  0
  4 11  2  0  0  0
  4  9  1  0  0  0
  5  8  1  0  0  0
  5 20  1  0  0  0
  6  8  1  0  0  0
  6 21  1  0  0  0
  7 10  1  0  0  0
  7 15  2  0  0  0
  8 13  2  0  0  0
  9 10  1  0  0  0
  9 22  1  0  0  0
 10 16  2  0  0  0
 14 17  1  0  0  0
 14 23  1  0  0  0
 14 24  1  0  0  0
 15 18  1  0  0  0
 15 25  1  0  0  0
 16 19  1  0  0  0
 16 26  1  0  0  0
 17 27  1  0  0  0
 17 28  1  0  0  0
 17 29  1  0  0  0
 18 19  2  0  0  0
 18 30  1  0  0  0
 19 31  1  0  0  0
M  END
> <s_m_entry_id>
6659

> <s_m_entry_name>
dock_pv.494

> <s_m_Source_Path>
/home/csk/Desktop/cluster/DUD-E-result/aldr

> <s_m_Source_File>
dock_pv.maegz

> <i_m_Source_File_Index>
494

> <chembl_id>
CHEMBL63389

> <chembl_pref_name>
None

> <i_lp_mmshare_version>
53161

> <i_f3d_flags>
0

> <r_lp_tautomer_probability>
0.99999999978137

> <s_lp_Force_Field>
OPLS_2005

> <r_lp_Energy>
37.679181

> <b_lp_Chiralities_Consistent>
1

> <s_lp_Variant>
CHEMBL1900_lig101-1

> <s_i_glide_gridfile>
glide-grid_2hv5

> <i_i_glide_lignum>
143

> <i_i_glide_rotatable_bonds>
1

> <r_i_docking_score>
-7.31870581327172

> <r_i_glide_ligand_efficiency>
-0.385195042803775

> <r_i_glide_ligand_efficiency_sa>
-1.02785508628829

> <r_i_glide_ligand_efficiency_ln>
-1.85544911505219

> <r_i_glide_gscore>
-7.31870581327172

> <r_i_glide_lipo>
-1.60770285849084

> <r_i_glide_hbond>
-0.105578001746532

> <r_i_glide_metal>
0

> <r_i_glide_rewards>
-3.9460997199325

> <r_i_glide_evdw>
-31.6694774627686

> <r_i_glide_ecoul>
-0.505675733089447

> <r_i_glide_erotb>
0

> <r_i_glide_esite>
0

> <r_i_glide_emodel>
-41.4511706768308

> <r_i_glide_energy>
-32.175153195858

> <r_i_glide_einternal>
2.40267634391785

> <i_i_glide_confnum>
1

> <i_i_glide_posenum>
37

> <r_i_glide_eff_state_penalty>
0

> <s_user_duplicate_titles>
CHEMBL1900_lig101

> <s_m_subgroup_title>
dock_pv

> <s_m_subgroupid>
dock_pv

> <b_m_subgroup_collapsed>
1

$$$$
CHEMBL1900_lig506
                    3D
 Schrodinger Suite 2021-1.
 22 23  0  0  1  0            999 V2000
   16.7309   -6.9635   13.8431 C   0  0  0  0  0  0
   17.7175   -7.8325   14.3199 C   0  0  0  0  0  0
   17.2536   -8.3279   15.5106 N   0  3  0  0  0  0
   16.0438   -7.7765   15.7767 O   0  0  0  0  0  0
   15.7461   -6.9150   14.7171 N   0  0  0  0  0  0
   17.7764   -9.2023   16.2923 O   0  5  0  0  0  0
   19.0551   -8.2555   13.7625 C   0  0  0  0  0  0
   16.6784   -6.1506   12.5748 C   0  0  0  0  0  0
   17.8563   -5.6834   11.9836 C   0  0  0  0  0  0
   17.8124   -4.9057   10.8287 C   0  0  0  0  0  0
   16.5867   -4.5871   10.2529 C   0  0  0  0  0  0
   15.4036   -5.0384   10.8274 C   0  0  0  0  0  0
   15.4520   -5.8136   11.9822 C   0  0  0  0  0  0
   20.0230   -7.3144   14.1806 O   0  0  0  0  0  0
   19.3527   -9.2491   14.1020 H   0  0  0  0  0  0
   19.0193   -8.3129   12.6757 H   0  0  0  0  0  0
   18.8170   -5.8895   12.4281 H   0  0  0  0  0  0
   18.7266   -4.5432   10.3856 H   0  0  0  0  0  0
   16.5488   -3.9781    9.3620 H   0  0  0  0  0  0
   14.4516   -4.7722   10.3896 H   0  0  0  0  0  0
   14.5203   -6.1147   12.4354 H   0  0  0  0  0  0
   20.7947   -7.3635   13.6013 H   0  0  0  0  0  0
  1  8  1  0  0  0
  1  5  2  0  0  0
  1  2  1  0  0  0
  2  7  1  0  0  0
  2  3  2  0  0  0
  3  4  1  0  0  0
  3  6  1  0  0  0
  4  5  1  0  0  0
  7 14  1  0  0  0
  7 15  1  0  0  0
  7 16  1  0  0  0
  8  9  1  0  0  0
  8 13  2  0  0  0
  9 10  2  0  0  0
  9 17  1  0  0  0
 10 11  1  0  0  0
 10 18  1  0  0  0
 11 12  2  0  0  0
 11 19  1  0  0  0
 12 13  1  0  0  0
 12 20  1  0  0  0
 13 21  1  0  0  0
 14 22  1  0  0  0
M  CHG  2   3   1   6  -1
M  END
> <s_m_entry_id>
6660

> <s_m_entry_name>
dock_pv.495

> <s_m_Source_Path>
/home/csk/Desktop/cluster/DUD-E-result/aldr

> <s_m_Source_File>
dock_pv.maegz

> <i_m_Source_File_Index>
495

> <chembl_id>
CHEMBL567641

> <chembl_pref_name>
None

> <i_lp_mmshare_version>
53161

> <i_f3d_flags>
0

> <r_lp_tautomer_probability>
1

> <s_lp_Force_Field>
OPLS_2005

> <r_lp_Energy>
14.830572

> <b_lp_Chiralities_Consistent>
1

> <s_lp_Variant>
CHEMBL1900_lig506-1

> <s_i_glide_gridfile>
glide-grid_2hv5

> <i_i_glide_lignum>
629

> <i_i_glide_rotatable_bonds>
3

> <r_i_docking_score>
-7.31007112607332

> <r_i_glide_ligand_efficiency>
-0.522147937576666

> <r_i_glide_ligand_efficiency_sa>
-1.25845081139841

> <r_i_glide_ligand_efficiency_ln>
-2.00878152333098

> <r_i_glide_gscore>
-7.31007112607332

> <r_i_glide_lipo>
-2.75406967399554

> <r_i_glide_hbond>
-0.309883887030476

> <r_i_glide_metal>
0

> <r_i_glide_rewards>
-3.32842207800738

> <r_i_glide_evdw>
-21.5256080627441

> <r_i_glide_ecoul>
-4.76082849502563

> <r_i_glide_erotb>
0.872709190351139

> <r_i_glide_esite>
0

> <r_i_glide_emodel>
-37.5543053209299

> <r_i_glide_energy>
-26.2864365577698

> <r_i_glide_einternal>
1.04527688026428

> <i_i_glide_confnum>
6

> <i_i_glide_posenum>
282

> <r_i_glide_eff_state_penalty>
0

> <s_user_duplicate_titles>
CHEMBL1900_lig506

> <s_m_subgroup_title>
dock_pv

> <s_m_subgroupid>
dock_pv

> <b_m_subgroup_collapsed>
1

$$$$
CHEMBL1900_lig639
                    3D
 Schrodinger Suite 2021-1.
 41 43  0  0  1  0            999 V2000
   16.5084   -3.3597   19.4086 C   0  0  0  0  0  0
   16.6167   -4.0959   20.5882 C   0  0  0  0  0  0
   16.5391   -5.4867   20.5473 C   0  0  0  0  0  0
   16.3631   -4.0083   18.1812 C   0  0  0  0  0  0
   16.2846   -5.4050   18.1361 C   0  0  0  0  0  0
   16.3324   -6.1293   19.3270 C   0  0  0  0  0  0
   16.1450   -7.4996   19.3416 O   0  0  0  0  0  0
   15.7545   -8.2129   18.2133 C   0  0  0  0  0  0
   15.8837   -7.5305   16.9238 C   0  0  0  0  0  0
   16.1015   -6.1987   16.9123 C   0  0  0  0  0  0
   15.3448   -9.3538   18.4220 O   0  0  0  0  0  0
   15.8141   -8.3252   15.7199 C   0  0  0  0  0  0
   16.9089   -8.4676   14.9512 N   0  0  0  0  0  0
   14.8197   -8.9913   15.4519 O   0  0  0  0  0  0
   18.1281   -7.6713   14.8237 C   0  0  0  0  0  0
   18.0198   -6.5665   13.7454 C   0  0  0  0  0  0
   17.2510   -6.9379   12.4508 C   0  0  0  0  0  0
   17.0096   -5.7639   11.5061 C   0  0  0  0  0  0
   15.7212   -5.5446   11.0144 C   0  0  0  0  0  0
   15.4767   -4.4765   10.1617 C   0  0  0  0  0  0
   16.5153   -3.6303    9.7899 C   0  0  0  0  0  0
   17.8086   -3.8485   10.2574 C   0  0  0  0  0  0
   18.0538   -4.9141   11.1222 C   0  0  0  0  0  0
   16.2462   -2.5641    8.9796 O   0  0  0  0  0  0
   16.5426   -2.2814   19.4495 H   0  0  0  0  0  0
   16.7420   -3.5851   21.5324 H   0  0  0  0  0  0
   16.5817   -6.0587   21.4628 H   0  0  0  0  0  0
   16.2873   -3.4101   17.2886 H   0  0  0  0  0  0
   16.1448   -5.7154   15.9545 H   0  0  0  0  0  0
   16.8024   -9.1563   14.2222 H   0  0  0  0  0  0
   18.9106   -8.3725   14.5288 H   0  0  0  0  0  0
   18.4275   -7.2506   15.7853 H   0  0  0  0  0  0
   19.0248   -6.2187   13.5053 H   0  0  0  0  0  0
   17.5146   -5.7153   14.1822 H   0  0  0  0  0  0
   16.2758   -7.3405   12.7257 H   0  0  0  0  0  0
   17.7450   -7.7366   11.9024 H   0  0  0  0  0  0
   14.9020   -6.1905   11.2955 H   0  0  0  0  0  0
   14.4802   -4.3095    9.7916 H   0  0  0  0  0  0
   18.6077   -3.1826    9.9683 H   0  0  0  0  0  0
   19.0442   -5.0806   11.5024 H   0  0  0  0  0  0
   15.3033   -2.5100    8.7850 H   0  0  0  0  0  0
  1  2  2  0  0  0
  1  4  1  0  0  0
  1 25  1  0  0  0
  2  3  1  0  0  0
  2 26  1  0  0  0
  3  6  2  0  0  0
  3 27  1  0  0  0
  4  5  2  0  0  0
  4 28  1  0  0  0
  5  6  1  0  0  0
  5 10  1  0  0  0
  6  7  1  0  0  0
  7  8  1  0  0  0
  8  9  1  0  0  0
  8 11  2  0  0  0
  9 10  2  0  0  0
  9 12  1  0  0  0
 10 29  1  0  0  0
 12 13  1  0  0  0
 12 14  2  0  0  0
 13 15  1  0  0  0
 13 30  1  0  0  0
 15 16  1  0  0  0
 15 31  1  0  0  0
 15 32  1  0  0  0
 16 17  1  0  0  0
 16 33  1  0  0  0
 16 34  1  0  0  0
 17 18  1  0  0  0
 17 35  1  0  0  0
 17 36  1  0  0  0
 18 19  2  0  0  0
 18 23  1  0  0  0
 19 20  1  0  0  0
 19 37  1  0  0  0
 20 21  2  0  0  0
 20 38  1  0  0  0
 21 22  1  0  0  0
 21 24  1  0  0  0
 22 23  2  0  0  0
 22 39  1  0  0  0
 23 40  1  0  0  0
 24 41  1  0  0  0
M  END
> <s_m_entry_id>
6661

> <s_m_entry_name>
dock_pv.496

> <s_m_Source_Path>
/home/csk/Desktop/cluster/DUD-E-result/aldr

> <s_m_Source_File>
dock_pv.maegz

> <i_m_Source_File_Index>
496

> <chembl_id>
CHEMBL4092206

> <chembl_pref_name>
None

> <i_lp_mmshare_version>
53161

> <i_f3d_flags>
0

> <r_lp_tautomer_probability>
0.999999999997365

> <s_lp_Force_Field>
OPLS_2005

> <r_lp_Energy>
23.9076

> <b_lp_Chiralities_Consistent>
1

> <s_lp_Variant>
CHEMBL1900_lig639-1

> <s_i_glide_gridfile>
glide-grid_2hv5

> <i_i_glide_lignum>
763

> <i_i_glide_rotatable_bonds>
7

> <r_i_docking_score>
-7.30935391902871

> <r_i_glide_ligand_efficiency>
-0.304556413292863

> <r_i_glide_ligand_efficiency_sa>
-0.878492711481361

> <r_i_glide_ligand_efficiency_ln>
-1.74946379721967

> <r_i_glide_gscore>
-7.30935391902871

> <r_i_glide_lipo>
-5.06604225321438

> <r_i_glide_hbond>
0

> <r_i_glide_metal>
0

> <r_i_glide_rewards>
-0.863139009700706

> <r_i_glide_evdw>
-40.5424346923828

> <r_i_glide_ecoul>
-1.65309858322144

> <r_i_glide_erotb>
0.89491386598873

> <r_i_glide_esite>
0

> <r_i_glide_emodel>
-47.5343657700835

> <r_i_glide_energy>
-42.1955332756042

> <r_i_glide_einternal>
8.19766712188721

> <i_i_glide_confnum>
11

> <i_i_glide_posenum>
197

> <r_i_glide_eff_state_penalty>
0

> <s_user_duplicate_titles>
CHEMBL1900_lig639

> <s_m_subgroup_title>
dock_pv

> <s_m_subgroupid>
dock_pv

> <b_m_subgroup_collapsed>
1

$$$$
CHEMBL1900_lig566
                    3D
 Schrodinger Suite 2021-1.
 43 46  0  0  1  0            999 V2000
   19.6855  -13.5194   14.1982 C   0  0  0  0  0  0
   19.0332  -13.9589   15.3464 C   0  0  0  0  0  0
   18.0809  -13.1839   16.0136 C   0  0  0  0  0  0
   19.3977  -12.2909   13.6554 C   0  0  0  0  0  0
   18.5450  -11.4358   14.3600 C   0  0  0  0  0  0
   17.8844  -11.8909   15.5281 C   0  0  0  0  0  0
   17.1302  -10.8198   16.0223 N   0  0  0  0  0  0
   18.2657  -10.0651   14.2438 C   0  0  0  0  0  0
   17.3566   -9.6825   15.2256 C   0  0  0  0  0  0
   16.8566   -8.2951   15.2792 C   0  0  0  0  0  0
   17.5899   -7.4356   14.4663 N   0  0  0  0  0  0
   18.9684   -7.7504   14.0710 C   0  0  0  0  0  0
   18.8810   -9.0647   13.2983 C   0  0  0  0  0  0
   15.5542   -7.7665   16.2074 S   0  0  0  0  0  0
   17.1557   -6.1146   14.0352 C   0  0  0  0  0  0
   16.8120   -5.9030   12.5609 C   0  0  0  0  0  0
   17.7914   -5.4300   11.6826 C   0  0  0  0  0  0
   17.4264   -4.9178   10.4398 C   0  0  0  0  0  0
   16.0785   -4.8741   10.0824 C   0  0  0  0  0  0
   15.0964   -5.3459   10.9473 C   0  0  0  0  0  0
   15.4712   -5.8625   12.1805 C   0  0  0  0  0  0
   16.3933  -10.9266   17.2881 C   0  0  0  0  0  0
   15.0069  -11.5712   17.1937 C   0  0  0  0  0  0
   14.5466  -12.0925   16.1818 O   0  0  0  0  0  0
   14.3829  -11.5572   18.4111 O   0  0  0  0  0  0
   21.1650  -14.6686   13.2934 I   0  0  0  0  0  0
   19.2902  -14.9133   15.7500 H   0  0  0  0  0  0
   17.5966  -13.5665   16.9014 H   0  0  0  0  0  0
   19.9197  -11.9444   12.7707 H   0  0  0  0  0  0
   19.5783   -7.8344   14.9715 H   0  0  0  0  0  0
   19.4276   -6.9725   13.4606 H   0  0  0  0  0  0
   19.8754   -9.3737   12.9796 H   0  0  0  0  0  0
   18.2632   -8.9041   12.4232 H   0  0  0  0  0  0
   17.9954   -5.4435   14.2262 H   0  0  0  0  0  0
   16.3363   -5.7180   14.6232 H   0  0  0  0  0  0
   18.8215   -5.4004   11.9856 H   0  0  0  0  0  0
   18.1777   -4.5384    9.7621 H   0  0  0  0  0  0
   15.7882   -4.4659    9.1268 H   0  0  0  0  0  0
   14.0539   -5.2988   10.6621 H   0  0  0  0  0  0
   14.6918   -6.1160   12.8846 H   0  0  0  0  0  0
   16.3241   -9.9505   17.7635 H   0  0  0  0  0  0
   17.0030  -11.5302   17.9683 H   0  0  0  0  0  0
   13.5169  -11.9766   18.3513 H   0  0  0  0  0  0
  1  2  1  0  0  0
  1  4  2  0  0  0
  1 26  1  0  0  0
  2  3  2  0  0  0
  2 27  1  0  0  0
  3  6  1  0  0  0
  3 28  1  0  0  0
  4  5  1  0  0  0
  4 29  1  0  0  0
  5  8  1  0  0  0
  5  6  2  0  0  0
  6  7  1  0  0  0
  7  9  1  0  0  0
  7 22  1  0  0  0
  8  9  2  0  0  0
  8 13  1  0  0  0
  9 10  1  0  0  0
 10 11  1  0  0  0
 10 14  2  0  0  0
 11 12  1  0  0  0
 11 15  1  0  0  0
 12 13  1  0  0  0
 12 30  1  0  0  0
 12 31  1  0  0  0
 13 32  1  0  0  0
 13 33  1  0  0  0
 15 16  1  0  0  0
 15 34  1  0  0  0
 15 35  1  0  0  0
 16 17  2  0  0  0
 16 21  1  0  0  0
 17 18  1  0  0  0
 17 36  1  0  0  0
 18 19  2  0  0  0
 18 37  1  0  0  0
 19 20  1  0  0  0
 19 38  1  0  0  0
 20 21  2  0  0  0
 20 39  1  0  0  0
 21 40  1  0  0  0
 22 23  1  0  0  0
 22 41  1  0  0  0
 22 42  1  0  0  0
 23 24  2  0  0  0
 23 25  1  0  0  0
 25 43  1  0  0  0
M  END
> <s_m_entry_id>
6662

> <s_m_entry_name>
dock_pv.497

> <s_m_Source_Path>
/home/csk/Desktop/cluster/DUD-E-result/aldr

> <s_m_Source_File>
dock_pv.maegz

> <i_m_Source_File_Index>
497

> <chembl_id>
CHEMBL1944854

> <chembl_pref_name>
None

> <i_lp_mmshare_version>
53161

> <i_f3d_flags>
0

> <r_lp_tautomer_probability>
1

> <s_lp_Force_Field>
OPLS_2005

> <r_lp_Energy>
37.154164

> <b_lp_Chiralities_Consistent>
1

> <s_lp_Variant>
CHEMBL1900_lig566-1

> <s_i_glide_gridfile>
glide-grid_2hv5

> <i_i_glide_lignum>
689

> <i_i_glide_rotatable_bonds>
5

> <r_i_docking_score>
-7.29851277600165

> <r_i_glide_ligand_efficiency>
-0.280712029846217

> <r_i_glide_ligand_efficiency_sa>
-0.831608283870918

> <r_i_glide_ligand_efficiency_ln>
-1.71403177707025

> <r_i_glide_gscore>
-7.29851277600165

> <r_i_glide_lipo>
-3.20206719583527

> <r_i_glide_hbond>
0

> <r_i_glide_metal>
0

> <r_i_glide_rewards>
-2.57557818740394

> <r_i_glide_evdw>
-31.4928455352783

> <r_i_glide_ecoul>
-2.02136898040771

> <r_i_glide_erotb>
0.356980231062634

> <r_i_glide_esite>
0

> <r_i_glide_emodel>
-65.1492300804035

> <r_i_glide_energy>
-33.514214515686

> <r_i_glide_einternal>
2.47216463088989

> <i_i_glide_confnum>
1

> <i_i_glide_posenum>
45

> <r_i_glide_eff_state_penalty>
0

> <s_user_duplicate_titles>
CHEMBL1900_lig566

> <s_m_subgroup_title>
dock_pv

> <s_m_subgroupid>
dock_pv

> <b_m_subgroup_collapsed>
1

$$$$
CHEMBL1900_lig204
                    3D
 Schrodinger Suite 2021-1.
 33 34  0  0  1  0            999 V2000
   17.0271   -7.5981   16.4394 C   0  0  0  0  0  0
   17.8115   -7.6383   14.2926 N   0  0  0  0  0  0
   17.2328   -8.8672   16.0557 C   0  0  0  0  0  0
   17.7451   -8.9248   14.6984 C   0  0  0  0  0  0
   17.3956   -6.7048   15.3048 C   0  0  0  0  0  0
   16.5444   -7.0743   17.7142 C   0  0  0  0  0  0
   18.3025   -7.2126   12.9814 C   0  0  0  0  0  0
   18.0587   -9.9260   14.0533 O   0  0  0  0  0  0
   16.1447   -7.7968   18.6253 O   0  0  0  0  0  0
   15.6623   -4.7345   10.5818 N   0  0  0  0  0  0
   17.0799  -10.0750   16.6683 O   0  0  0  0  0  0
   16.5899   -5.7245   17.7811 O   0  0  0  0  0  0
   17.3593   -6.3310   12.1585 C   0  0  0  0  0  0
   15.1636   -5.7112   11.3805 C   0  0  0  0  0  0
   17.0054   -4.5435   10.5814 C   0  0  0  0  0  0
   16.3374   -5.0416   18.9995 C   0  0  0  0  0  0
   15.9741   -6.5150   12.1810 C   0  0  0  0  0  0
   17.8774   -5.3101   11.3562 C   0  0  0  0  0  0
   16.3793   -3.5359   18.7255 C   0  0  0  0  0  0
   16.5533   -6.1155   14.9420 H   0  0  0  0  0  0
   18.2150   -6.0270   15.5418 H   0  0  0  0  0  0
   19.2399   -6.6789   13.1401 H   0  0  0  0  0  0
   18.5449   -8.0933   12.3838 H   0  0  0  0  0  0
   17.3153  -10.7697   16.0460 H   0  0  0  0  0  0
   14.0902   -5.8361   11.3701 H   0  0  0  0  0  0
   17.3775   -3.7535    9.9448 H   0  0  0  0  0  0
   17.0947   -5.3116   19.7385 H   0  0  0  0  0  0
   15.3677   -5.3316   19.4068 H   0  0  0  0  0  0
   15.5421   -7.2944   12.7847 H   0  0  0  0  0  0
   18.9401   -5.1248   11.3185 H   0  0  0  0  0  0
   16.2251   -2.9647   19.6426 H   0  0  0  0  0  0
   15.6096   -3.2441   18.0111 H   0  0  0  0  0  0
   17.3441   -3.2469   18.3093 H   0  0  0  0  0  0
  1  3  2  0  0  0
  1  5  1  0  0  0
  1  6  1  0  0  0
  2  5  1  0  0  0
  2  7  1  0  0  0
  2  4  1  0  0  0
  3  4  1  0  0  0
  3 11  1  0  0  0
  4  8  2  0  0  0
  5 20  1  0  0  0
  5 21  1  0  0  0
  6  9  2  0  0  0
  6 12  1  0  0  0
  7 13  1  0  0  0
  7 22  1  0  0  0
  7 23  1  0  0  0
 10 15  1  0  0  0
 10 14  2  0  0  0
 11 24  1  0  0  0
 12 16  1  0  0  0
 13 17  2  0  0  0
 13 18  1  0  0  0
 14 17  1  0  0  0
 14 25  1  0  0  0
 15 18  2  0  0  0
 15 26  1  0  0  0
 16 19  1  0  0  0
 16 27  1  0  0  0
 16 28  1  0  0  0
 17 29  1  0  0  0
 18 30  1  0  0  0
 19 31  1  0  0  0
 19 32  1  0  0  0
 19 33  1  0  0  0
M  END
> <s_m_entry_id>
6663

> <s_m_entry_name>
dock_pv.498

> <s_m_Source_Path>
/home/csk/Desktop/cluster/DUD-E-result/aldr

> <s_m_Source_File>
dock_pv.maegz

> <i_m_Source_File_Index>
498

> <chembl_id>
CHEMBL266773

> <chembl_pref_name>
None

> <i_lp_mmshare_version>
53161

> <i_f3d_flags>
0

> <r_lp_tautomer_probability>
1

> <s_lp_Force_Field>
OPLS_2005

> <r_lp_Energy>
20.360519

> <b_lp_Chiralities_Consistent>
1

> <s_lp_Variant>
CHEMBL1900_lig204-1

> <s_i_glide_gridfile>
glide-grid_2hv5

> <i_i_glide_lignum>
280

> <i_i_glide_rotatable_bonds>
6

> <r_i_docking_score>
-7.28755751614699

> <r_i_glide_ligand_efficiency>
-0.383555658744578

> <r_i_glide_ligand_efficiency_sa>
-1.02348055116614

> <r_i_glide_ligand_efficiency_ln>
-1.84755235272699

> <r_i_glide_gscore>
-7.28755751614699

> <r_i_glide_lipo>
-3.16246020865841

> <r_i_glide_hbond>
0

> <r_i_glide_metal>
0

> <r_i_glide_rewards>
-3.56048747281186

> <r_i_glide_evdw>
-37.6377105712891

> <r_i_glide_ecoul>
1.90515851974487

> <r_i_glide_erotb>
1.03150191592601

> <r_i_glide_esite>
0

> <r_i_glide_emodel>
-50.6369821907453

> <r_i_glide_energy>
-35.7325520515442

> <r_i_glide_einternal>
1.39182412624359

> <i_i_glide_confnum>
22

> <i_i_glide_posenum>
357

> <r_i_glide_eff_state_penalty>
0

> <s_user_duplicate_titles>
CHEMBL1900_lig204,2041

> <s_m_subgroup_title>
dock_pv

> <s_m_subgroupid>
dock_pv

> <b_m_subgroup_collapsed>
1

$$$$
CHEMBL1900_lig365
                    3D
 Schrodinger Suite 2021-1.
 30 31  0  0  1  0            999 V2000
   16.3972   -7.9661   15.9423 C   0  0  2  0  0  0
   17.2074  -10.3106   15.3095 C   0  0  0  0  0  0
   17.2811   -8.9148   15.1201 C   0  0  0  0  0  0
   17.2888   -7.1679   16.9481 C   0  0  0  0  0  0
   16.3342  -10.9184   16.1869 O   0  0  0  0  0  0
   15.2899   -8.7808   16.6649 C   0  0  0  0  0  0
   17.9620  -11.1873   14.5321 C   0  0  0  0  0  0
   16.5803   -6.1160   17.8204 C   0  0  0  0  0  0
   18.1782   -8.4397   14.1507 C   0  0  0  0  0  0
   15.8397  -10.0987   17.2419 C   0  0  1  0  0  0
   15.7450   -5.3336   17.3813 O   0  0  0  0  0  0
   15.7450   -7.0466   15.0878 O   0  0  0  0  0  0
   18.8285  -10.6885   13.5641 C   0  0  0  0  0  0
   18.9453   -9.3125   13.3826 C   0  0  0  0  0  0
   17.0197   -6.1269   19.1094 O   0  0  0  0  0  0
   19.7528  -11.7753   12.5955 Cl  0  0  0  0  0  0
   14.7886  -10.9036   18.0118 C   0  0  0  0  0  0
   16.6549   -9.8768   17.9310 H   0  0  0  0  0  0
   18.0741   -6.6356   16.4112 H   0  0  0  0  0  0
   17.8129   -7.8756   17.5902 H   0  0  0  0  0  0
   14.8067   -8.1923   17.4446 H   0  0  0  0  0  0
   14.4847   -9.0290   15.9697 H   0  0  0  0  0  0
   17.8625  -12.2536   14.6715 H   0  0  0  0  0  0
   18.2771   -7.3781   13.9773 H   0  0  0  0  0  0
   16.3887   -6.4125   14.7662 H   0  0  0  0  0  0
   19.6218   -8.9153   12.6406 H   0  0  0  0  0  0
   17.6979   -6.7867   19.2662 H   0  0  0  0  0  0
   14.4333  -10.3494   18.8792 H   0  0  0  0  0  0
   13.9312  -11.1392   17.3837 H   0  0  0  0  0  0
   15.2015  -11.8459   18.3716 H   0  0  0  0  0  0
  1  3  1  0  0  0
  1  4  1  0  0  0
  1  6  1  0  0  0
  1 12  1  0  0  0
  2  3  2  0  0  0
  2  7  1  0  0  0
  2  5  1  0  0  0
  3  9  1  0  0  0
  4  8  1  0  0  0
  4 19  1  0  0  0
  4 20  1  0  0  0
  5 10  1  0  0  0
  6 10  1  0  0  0
  6 21  1  0  0  0
  6 22  1  0  0  0
  7 13  2  0  0  0
  7 23  1  0  0  0
  8 11  2  0  0  0
  8 15  1  0  0  0
  9 14  2  0  0  0
  9 24  1  0  0  0
 10 17  1  0  0  0
 10 18  1  0  0  0
 12 25  1  0  0  0
 13 14  1  0  0  0
 13 16  1  0  0  0
 14 26  1  0  0  0
 15 27  1  0  0  0
 17 28  1  0  0  0
 17 29  1  0  0  0
 17 30  1  0  0  0
M  END
> <s_m_entry_id>
6664

> <s_m_entry_name>
dock_pv.499

> <s_m_Source_Path>
/home/csk/Desktop/cluster/DUD-E-result/aldr

> <s_m_Source_File>
dock_pv.maegz

> <i_m_Source_File_Index>
499

> <chembl_id>
CHEMBL305986

> <chembl_pref_name>
None

> <i_lp_mmshare_version>
53161

> <i_f3d_flags>
0

> <r_lp_tautomer_probability>
1

> <s_lp_Force_Field>
OPLS_2005

> <r_lp_Energy>
15.506543

> <b_lp_Chiralities_Consistent>
1

> <s_lp_Variant>
CHEMBL1900_lig365-1

> <s_i_glide_gridfile>
glide-grid_2hv5

> <i_i_glide_lignum>
486

> <i_i_glide_rotatable_bonds>
4

> <r_i_docking_score>
-7.28065183155288

> <r_i_glide_ligand_efficiency>
-0.428273637150169

> <r_i_glide_ligand_efficiency_sa>
-1.10121211792849

> <r_i_glide_ligand_efficiency_ln>
-1.89935993070729

> <r_i_glide_gscore>
-7.28065183155288

> <r_i_glide_lipo>
-2.70653685500127

> <r_i_glide_hbond>
-0.0644232251485833

> <r_i_glide_metal>
0

> <r_i_glide_rewards>
-2.8334244875863

> <r_i_glide_evdw>
-27.1610546112061

> <r_i_glide_ecoul>
-5.68945980072021

> <r_i_glide_erotb>
0.535204436851606

> <r_i_glide_esite>
0

> <r_i_glide_emodel>
-46.4466370291103

> <r_i_glide_energy>
-32.8505144119263

> <r_i_glide_einternal>
1.48875594139099

> <i_i_glide_confnum>
1

> <i_i_glide_posenum>
208

> <r_i_glide_eff_state_penalty>
0

> <s_user_duplicate_titles>
CHEMBL1900_lig365

> <s_m_subgroup_title>
dock_pv

> <s_m_subgroupid>
dock_pv

> <b_m_subgroup_collapsed>
1

$$$$
CHEMBL1900_lig26
                    3D
 Schrodinger Suite 2021-1.
 33 34  0  0  1  0            999 V2000
   15.3451   -6.5160   17.9844 N   0  0  0  0  0  0
   17.2540   -8.7639   16.3586 C   0  0  0  0  0  0
   15.6832   -6.8610   16.7429 C   0  0  0  0  0  0
   18.6018   -8.0695   13.9179 S   0  0  0  0  0  0
   17.1241   -7.2876   16.7929 C   0  0  1  0  0  0
   16.3622   -6.5018   18.8566 C   0  0  0  0  0  0
   17.8277   -9.1777   15.1291 C   0  0  0  0  0  0
   17.4033   -7.0016   18.1808 N   0  0  0  0  0  0
   17.8182  -10.5415   14.7960 C   0  0  0  0  0  0
   16.7210   -9.7482   17.2098 C   0  0  0  0  0  0
   19.3465   -8.9162   12.9831 O   0  0  0  0  0  0
   19.3074   -6.9954   14.6233 O   0  0  0  0  0  0
   14.9450   -6.9153   15.7729 O   0  0  0  0  0  0
   16.3551   -5.9976   19.9748 O   0  0  0  0  0  0
   16.7404  -11.0963   16.8721 C   0  0  0  0  0  0
   17.1469   -7.3513   12.9641 C   0  0  0  0  0  0
   17.2844  -11.4931   15.6577 C   0  0  0  0  0  0
   16.0869  -12.2680   17.9581 Cl  0  0  0  0  0  0
   17.5157   -6.0056   12.3186 C   0  0  0  0  0  0
   16.3470   -5.3913   11.5384 C   0  0  0  0  0  0
   14.4003   -6.2734   18.2352 H   0  0  0  0  0  0
   17.6989   -6.5815   16.2060 H   0  0  0  0  0  0
   18.2137   -7.3911   18.6420 H   0  0  0  0  0  0
   18.2327  -10.8838   13.8579 H   0  0  0  0  0  0
   16.2705   -9.4638   18.1503 H   0  0  0  0  0  0
   16.3141   -7.2440   13.6544 H   0  0  0  0  0  0
   16.9004   -8.1120   12.2234 H   0  0  0  0  0  0
   17.2935  -12.5372   15.3803 H   0  0  0  0  0  0
   18.3764   -6.1150   11.6578 H   0  0  0  0  0  0
   17.8291   -5.3144   13.0993 H   0  0  0  0  0  0
   16.6189   -4.4155   11.1343 H   0  0  0  0  0  0
   15.4745   -5.2497   12.1785 H   0  0  0  0  0  0
   16.0465   -6.0266   10.7034 H   0  0  0  0  0  0
  1  3  1  0  0  0
  1  6  1  0  0  0
  1 21  1  0  0  0
  2  5  1  0  0  0
  2  7  1  0  0  0
  2 10  2  0  0  0
  3  5  1  0  0  0
  3 13  2  0  0  0
  4  7  1  0  0  0
  4 11  2  0  0  0
  4 12  2  0  0  0
  4 16  1  0  0  0
  5  8  1  0  0  0
  5 22  1  0  0  0
  6  8  1  0  0  0
  6 14  2  0  0  0
  7  9  2  0  0  0
  8 23  1  0  0  0
  9 17  1  0  0  0
  9 24  1  0  0  0
 10 15  1  0  0  0
 10 25  1  0  0  0
 15 17  2  0  0  0
 15 18  1  0  0  0
 16 19  1  0  0  0
 16 26  1  0  0  0
 16 27  1  0  0  0
 17 28  1  0  0  0
 19 20  1  0  0  0
 19 29  1  0  0  0
 19 30  1  0  0  0
 20 31  1  0  0  0
 20 32  1  0  0  0
 20 33  1  0  0  0
M  END
> <s_m_entry_id>
6666

> <s_m_entry_name>
dock_pv.501

> <s_m_Source_Path>
/home/csk/Desktop/cluster/DUD-E-result/aldr

> <s_m_Source_File>
dock_pv.maegz

> <i_m_Source_File_Index>
501

> <chembl_id>
CHEMBL443492

> <chembl_pref_name>
None

> <i_lp_mmshare_version>
53161

> <i_f3d_flags>
0

> <r_lp_tautomer_probability>
0.999999999781369

> <s_lp_Force_Field>
OPLS_2005

> <r_lp_Energy>
17.539281

> <b_lp_Chiralities_Consistent>
1

> <s_lp_Variant>
CHEMBL1900_lig26-2

> <s_i_glide_gridfile>
glide-grid_2hv5

> <i_i_glide_lignum>
49

> <i_i_glide_rotatable_bonds>
4

> <r_i_docking_score>
-7.26107456894862

> <r_i_glide_ligand_efficiency>
-0.363053728447431

> <r_i_glide_ligand_efficiency_sa>
-0.985479435284093

> <r_i_glide_ligand_efficiency_ln>
-1.81720747834045

> <r_i_glide_gscore>
-7.26107456894862

> <r_i_glide_lipo>
-2.20345886087906

> <r_i_glide_hbond>
-0.306882570305112

> <r_i_glide_metal>
0

> <r_i_glide_rewards>
-3.30192260227947

> <r_i_glide_evdw>
-33.6985054016113

> <r_i_glide_ecoul>
-2.13763308525085

> <r_i_glide_erotb>
0.556759697383214

> <r_i_glide_esite>
0

> <r_i_glide_emodel>
-49.0121515165517

> <r_i_glide_energy>
-35.8361384868622

> <r_i_glide_einternal>
1.69067358970642

> <i_i_glide_confnum>
17

> <i_i_glide_posenum>
305

> <r_i_glide_eff_state_penalty>
0

> <s_user_duplicate_titles>
CHEMBL1900_lig26,23118

> <s_m_subgroup_title>
dock_pv

> <s_m_subgroupid>
dock_pv

> <b_m_subgroup_collapsed>
1

$$$$
CHEMBL1900_lig363
                    3D
 Schrodinger Suite 2021-1.
 36 37  0  0  1  0            999 V2000
   15.7744   -8.3049   16.6550 C   0  0  2  0  0  0
   16.8321   -8.2150   15.5443 C   0  0  0  0  0  0
   17.5372   -9.3671   15.1413 C   0  0  0  0  0  0
   16.3613   -7.8392   18.0322 C   0  0  0  0  0  0
   17.2512  -10.6443   15.5765 O   0  0  0  0  0  0
   15.2822   -9.7671   16.7452 C   0  0  0  0  0  0
   16.6004   -6.3325   18.2633 C   0  0  0  0  0  0
   17.1687   -7.0066   14.9178 C   0  0  0  0  0  0
   16.4436  -10.7906   16.7458 C   0  0  1  0  0  0
   18.5557   -9.2969   14.1932 C   0  0  0  0  0  0
   16.1432   -5.4342   17.5652 O   0  0  0  0  0  0
   14.6089   -7.5517   16.3763 O   0  0  0  0  0  0
   18.2152   -6.9224   13.9994 C   0  0  0  0  0  0
   17.3444   -6.1149   19.3803 O   0  0  0  0  0  0
   18.9253   -8.0673   13.6598 C   0  0  0  0  0  0
   18.5464   -5.7366   13.4403 F   0  0  0  0  0  0
   15.9858  -12.2681   16.7921 C   0  0  0  0  0  0
   15.6884  -12.8661   18.1849 C   0  0  0  0  0  0
   14.5651  -12.1691   18.9599 C   0  0  0  0  0  0
   17.0854  -10.6095   17.6086 H   0  0  0  0  0  0
   17.3140   -8.3474   18.1802 H   0  0  0  0  0  0
   15.7191   -8.1751   18.8468 H   0  0  0  0  0  0
   14.6457   -9.8829   17.6175 H   0  0  0  0  0  0
   14.6327   -9.9988   15.8979 H   0  0  0  0  0  0
   16.6159   -6.1154   15.1605 H   0  0  0  0  0  0
   19.0842  -10.1917   13.8996 H   0  0  0  0  0  0
   13.9820   -7.6724   17.0924 H   0  0  0  0  0  0
   17.6497   -6.9275   19.7880 H   0  0  0  0  0  0
   19.7598   -8.0021   12.9813 H   0  0  0  0  0  0
   15.1215  -12.4036   16.1404 H   0  0  0  0  0  0
   16.7666  -12.8863   16.3454 H   0  0  0  0  0  0
   15.4010  -13.9076   18.0375 H   0  0  0  0  0  0
   16.5969  -12.8971   18.7874 H   0  0  0  0  0  0
   14.1591  -12.7938   19.7578 H   0  0  0  0  0  0
   14.9155  -11.2368   19.4006 H   0  0  0  0  0  0
   13.7451  -11.9301   18.2887 H   0  0  0  0  0  0
  1  2  1  0  0  0
  1  4  1  0  0  0
  1  6  1  0  0  0
  1 12  1  0  0  0
  2  3  2  0  0  0
  2  8  1  0  0  0
  3 10  1  0  0  0
  3  5  1  0  0  0
  4  7  1  0  0  0
  4 21  1  0  0  0
  4 22  1  0  0  0
  5  9  1  0  0  0
  6  9  1  0  0  0
  6 23  1  0  0  0
  6 24  1  0  0  0
  7 11  2  0  0  0
  7 14  1  0  0  0
  8 13  2  0  0  0
  8 25  1  0  0  0
  9 17  1  0  0  0
  9 20  1  0  0  0
 10 15  2  0  0  0
 10 26  1  0  0  0
 12 27  1  0  0  0
 13 15  1  0  0  0
 13 16  1  0  0  0
 14 28  1  0  0  0
 15 29  1  0  0  0
 17 18  1  0  0  0
 17 30  1  0  0  0
 17 31  1  0  0  0
 18 19  1  0  0  0
 18 32  1  0  0  0
 18 33  1  0  0  0
 19 34  1  0  0  0
 19 35  1  0  0  0
 19 36  1  0  0  0
M  END
> <s_m_entry_id>
6667

> <s_m_entry_name>
dock_pv.502

> <s_m_Source_Path>
/home/csk/Desktop/cluster/DUD-E-result/aldr

> <s_m_Source_File>
dock_pv.maegz

> <i_m_Source_File_Index>
502

> <chembl_id>
CHEMBL71562

> <chembl_pref_name>
None

> <i_lp_mmshare_version>
53161

> <i_f3d_flags>
0

> <r_lp_tautomer_probability>
1

> <s_lp_Force_Field>
OPLS_2005

> <r_lp_Energy>
15.506559

> <b_lp_Chiralities_Consistent>
1

> <s_lp_Variant>
CHEMBL1900_lig363-1

> <s_i_glide_gridfile>
glide-grid_2hv5

> <i_i_glide_lignum>
484

> <i_i_glide_rotatable_bonds>
6

> <r_i_docking_score>
-7.25951965221891

> <r_i_glide_ligand_efficiency>
-0.382079981695732

> <r_i_glide_ligand_efficiency_sa>
-1.01954285209988

> <r_i_glide_ligand_efficiency_ln>
-1.84044415202312

> <r_i_glide_gscore>
-7.25951965221891

> <r_i_glide_lipo>
-2.63894136087944

> <r_i_glide_hbond>
0

> <r_i_glide_metal>
0

> <r_i_glide_rewards>
-3.3403011377936

> <r_i_glide_evdw>
-28.3716449737549

> <r_i_glide_ecoul>
-4.03734683990479

> <r_i_glide_erotb>
0.743907121127589

> <r_i_glide_esite>
0

> <r_i_glide_emodel>
-43.1882128987122

> <r_i_glide_energy>
-32.4089918136597

> <r_i_glide_einternal>
5.96712112426758

> <i_i_glide_confnum>
7

> <i_i_glide_posenum>
146

> <r_i_glide_eff_state_penalty>
0

> <s_user_duplicate_titles>
CHEMBL1900_lig363,108090

> <s_m_subgroup_title>
dock_pv

> <s_m_subgroupid>
dock_pv

> <b_m_subgroup_collapsed>
1

$$$$
CHEMBL1900_lig92
                    3D
 Schrodinger Suite 2021-1.
 28 30  0  0  1  0            999 V2000
   16.9216   -7.8028   16.8414 C   0  0  2  0  0  0
   15.3028   -6.5151   17.7827 N   0  0  0  0  0  0
   15.6020   -7.0884   16.6217 C   0  0  0  0  0  0
   16.6326   -9.3166   16.7643 C   0  0  0  0  0  0
   16.2636   -6.5641   18.7129 C   0  0  0  0  0  0
   17.2264   -7.3151   18.1669 N   0  0  0  0  0  0
   17.2458  -10.1014   15.7700 C   0  0  0  0  0  0
   18.1250   -9.5854   14.8446 O   0  0  0  0  0  0
   17.9299   -7.3297   15.7500 C   0  0  0  0  0  0
   17.0508  -11.4363   15.6272 N   0  0  0  0  0  0
   14.9459   -7.0364   15.5897 O   0  0  0  0  0  0
   17.9028   -8.2211   14.4919 C   0  0  1  0  0  0
   16.1808   -6.1373   19.8602 O   0  0  0  0  0  0
   15.7458   -9.9919   17.6242 C   0  0  0  0  0  0
   16.1854  -12.0438   16.4738 C   0  0  0  0  0  0
   18.9536   -7.8192   13.4565 C   0  0  0  0  0  0
   15.5097  -11.3590   17.4809 C   0  0  0  0  0  0
   14.3998   -6.1062   17.9548 H   0  0  0  0  0  0
   18.1855   -7.2530   18.4750 H   0  0  0  0  0  0
   18.9425   -7.3145   16.1468 H   0  0  0  0  0  0
   17.7609   -6.2925   15.4546 H   0  0  0  0  0  0
   16.9279   -8.1244   14.0099 H   0  0  0  0  0  0
   15.2345   -9.4519   18.4088 H   0  0  0  0  0  0
   16.0360  -13.1043   16.3294 H   0  0  0  0  0  0
   18.8061   -6.7952   13.1127 H   0  0  0  0  0  0
   19.9633   -7.8939   13.8629 H   0  0  0  0  0  0
   18.9018   -8.4765   12.5870 H   0  0  0  0  0  0
   14.8197  -11.8727   18.1347 H   0  0  0  0  0  0
  1  3  1  0  0  0
  1  4  1  0  0  0
  1  6  1  0  0  0
  1  9  1  0  0  0
  2  3  1  0  0  0
  2  5  1  0  0  0
  2 18  1  0  0  0
  3 11  2  0  0  0
  4  7  1  0  0  0
  4 14  2  0  0  0
  5  6  1  0  0  0
  5 13  2  0  0  0
  6 19  1  0  0  0
  7 10  2  0  0  0
  7  8  1  0  0  0
  8 12  1  0  0  0
  9 12  1  0  0  0
  9 20  1  0  0  0
  9 21  1  0  0  0
 10 15  1  0  0  0
 12 16  1  0  0  0
 12 22  1  0  0  0
 14 17  1  0  0  0
 14 23  1  0  0  0
 15 17  2  0  0  0
 15 24  1  0  0  0
 16 25  1  0  0  0
 16 26  1  0  0  0
 16 27  1  0  0  0
 17 28  1  0  0  0
M  END
> <s_m_entry_id>
6668

> <s_m_entry_name>
dock_pv.503

> <s_m_Source_Path>
/home/csk/Desktop/cluster/DUD-E-result/aldr

> <s_m_Source_File>
dock_pv.maegz

> <i_m_Source_File_Index>
503

> <chembl_id>
CHEMBL293579

> <chembl_pref_name>
None

> <i_lp_mmshare_version>
53161

> <i_f3d_flags>
0

> <r_lp_tautomer_probability>
0.99999999978137

> <s_lp_Force_Field>
OPLS_2005

> <r_lp_Energy>
19.535971

> <b_lp_Chiralities_Consistent>
1

> <s_lp_Variant>
CHEMBL1900_lig92-1

> <s_i_glide_gridfile>
glide-grid_2hv5

> <i_i_glide_lignum>
131

> <i_i_glide_rotatable_bonds>
0

> <r_i_docking_score>
-7.25344099833125

> <r_i_glide_ligand_efficiency>
-0.426672999901838

> <r_i_glide_ligand_efficiency_sa>
-1.09709642884242

> <r_i_glide_ligand_efficiency_ln>
-1.89226123027523

> <r_i_glide_gscore>
-7.25344099833125

> <r_i_glide_lipo>
-1.89703370574109

> <r_i_glide_hbond>
-0.310703615284885

> <r_i_glide_metal>
0

> <r_i_glide_rewards>
-3.26576882995038

> <r_i_glide_evdw>
-26.6863193511963

> <r_i_glide_ecoul>
-2.97079253196716

> <r_i_glide_erotb>
0

> <r_i_glide_esite>
0

> <r_i_glide_emodel>
-40.8381537744525

> <r_i_glide_energy>
-29.6571118831635

> <r_i_glide_einternal>
0

> <i_i_glide_confnum>
1

> <i_i_glide_posenum>
57

> <r_i_glide_eff_state_penalty>
0

> <s_user_duplicate_titles>
CHEMBL1900_lig92

> <s_m_subgroup_title>
dock_pv

> <s_m_subgroupid>
dock_pv

> <b_m_subgroup_collapsed>
1

$$$$
CHEMBL1900_lig119
                    3D
 Schrodinger Suite 2021-1.
 37 39  0  0  1  0            999 V2000
   17.8519   -8.0829   15.1367 C   0  0  2  0  0  0
   17.9741   -9.5652   14.8928 N   0  0  0  0  0  0
   17.2513   -7.7681   16.5170 C   0  0  0  0  0  0
   16.9502   -7.3987   14.1246 C   0  0  0  0  0  0
   17.1325  -10.4798   15.4853 C   0  0  0  0  0  0
   19.0281   -7.3150   14.8286 N   0  0  0  0  0  0
   17.7413   -6.8169   13.2350 N   0  0  0  0  0  0
   18.8226   -6.4006   13.8863 C   0  0  0  0  0  0
   16.4594  -10.0212   16.5606 N   0  0  0  0  0  0
   16.5521   -8.7760   17.1680 C   0  0  0  0  0  0
   17.3118   -6.5134   17.1279 C   0  0  0  0  0  0
   16.7592   -6.2505   18.3810 C   0  0  0  0  0  0
   16.7438   -4.8647   18.9502 C   0  0  0  0  0  0
   16.9450  -11.6384   15.1175 O   0  0  0  0  0  0
   15.7450   -7.3150   14.1802 O   0  0  0  0  0  0
   19.3450   -5.3150   13.7810 O   0  0  0  0  0  0
   15.9589   -8.5339   18.4010 C   0  0  0  0  0  0
   16.9450   -3.8545   18.2723 O   0  0  0  0  0  0
   16.1450   -7.3100   19.0342 C   0  0  0  0  0  0
   18.7301  -10.0207   13.7124 C   0  0  0  0  0  0
   16.4991   -4.8382   20.2859 O   0  0  0  0  0  0
   16.3695   -3.6006   20.9758 C   0  0  0  0  0  0
   16.4268   -3.8375   22.4878 C   0  0  0  0  0  0
   19.9285   -7.4872   15.2490 H   0  0  0  0  0  0
   17.3822   -6.3282   12.4306 H   0  0  0  0  0  0
   15.8738  -10.7221   16.9871 H   0  0  0  0  0  0
   17.7661   -5.7150   16.5810 H   0  0  0  0  0  0
   15.4185   -9.3150   18.9151 H   0  0  0  0  0  0
   15.7450   -7.1800   20.0275 H   0  0  0  0  0  0
   18.8165  -11.1066   13.6432 H   0  0  0  0  0  0
   18.2489   -9.6649   12.8028 H   0  0  0  0  0  0
   19.7449   -9.6228   13.7341 H   0  0  0  0  0  0
   15.4211   -3.1341   20.7048 H   0  0  0  0  0  0
   17.1650   -2.9150   20.6838 H   0  0  0  0  0  0
   16.1450   -2.9329   23.0284 H   0  0  0  0  0  0
   17.4309   -4.1234   22.8011 H   0  0  0  0  0  0
   15.7450   -4.6273   22.8001 H   0  0  0  0  0  0
  1  2  1  0  0  0
  1  3  1  0  0  0
  1  4  1  0  0  0
  1  6  1  0  0  0
  2  5  1  0  0  0
  2 20  1  0  0  0
  3 10  1  0  0  0
  3 11  2  0  0  0
  4  7  1  0  0  0
  4 15  2  0  0  0
  5 14  2  0  0  0
  5  9  1  0  0  0
  6  8  1  0  0  0
  6 24  1  0  0  0
  7  8  1  0  0  0
  7 25  1  0  0  0
  8 16  2  0  0  0
  9 10  1  0  0  0
  9 26  1  0  0  0
 10 17  2  0  0  0
 11 12  1  0  0  0
 11 27  1  0  0  0
 12 13  1  0  0  0
 12 19  2  0  0  0
 13 18  2  0  0  0
 13 21  1  0  0  0
 17 19  1  0  0  0
 17 28  1  0  0  0
 19 29  1  0  0  0
 20 30  1  0  0  0
 20 31  1  0  0  0
 20 32  1  0  0  0
 21 22  1  0  0  0
 22 23  1  0  0  0
 22 33  1  0  0  0
 22 34  1  0  0  0
 23 35  1  0  0  0
 23 36  1  0  0  0
 23 37  1  0  0  0
M  END
> <s_m_entry_id>
6669

> <s_m_entry_name>
dock_pv.504

> <s_m_Source_Path>
/home/csk/Desktop/cluster/DUD-E-result/aldr

> <s_m_Source_File>
dock_pv.maegz

> <i_m_Source_File_Index>
504

> <chembl_id>
CHEMBL304257

> <chembl_pref_name>
None

> <i_lp_mmshare_version>
53161

> <i_f3d_flags>
0

> <r_lp_tautomer_probability>
0.99999999978137

> <s_lp_Force_Field>
OPLS_2005

> <r_lp_Energy>
38.52873

> <b_lp_Chiralities_Consistent>
1

> <s_lp_Variant>
CHEMBL1900_lig119-1

> <s_i_glide_gridfile>
glide-grid_2hv5

> <i_i_glide_lignum>
178

> <i_i_glide_rotatable_bonds>
3

> <r_i_docking_score>
-7.23447573918684

> <r_i_glide_ligand_efficiency>
-0.314542423442906

> <r_i_glide_ligand_efficiency_sa>
-0.894516810856852

> <r_i_glide_ligand_efficiency_ln>
-1.74936183233457

> <r_i_glide_gscore>
-7.23447573918684

> <r_i_glide_lipo>
-2.31753554333219

> <r_i_glide_hbond>
-0.0474456477860144

> <r_i_glide_metal>
0

> <r_i_glide_rewards>
-3.53882001043008

> <r_i_glide_evdw>
-29.3303184509277

> <r_i_glide_ecoul>
-1.54806518554688

> <r_i_glide_erotb>
0.368051162739863

> <r_i_glide_esite>
0

> <r_i_glide_emodel>
-30.4274593412733

> <r_i_glide_energy>
-30.8783836364746

> <r_i_glide_einternal>
1.59062194824219

> <i_i_glide_confnum>
1

> <i_i_glide_posenum>
2

> <r_i_glide_eff_state_penalty>
0

> <s_user_duplicate_titles>
CHEMBL1900_lig119,101493

> <s_m_subgroup_title>
dock_pv

> <s_m_subgroupid>
dock_pv

> <b_m_subgroup_collapsed>
1

$$$$
CHEMBL1900_lig96
                    3D
 Schrodinger Suite 2021-1.
 28 30  0  0  1  0            999 V2000
   17.0091   -7.7212   16.8240 C   0  0  1  0  0  0
   16.7853   -9.2229   16.5840 C   0  0  0  0  0  0
   15.4218   -6.5150   17.9580 N   0  0  0  0  0  0
   15.6600   -7.0250   16.7538 C   0  0  0  0  0  0
   17.4262   -9.8857   15.5194 C   0  0  0  0  0  0
   16.4501   -6.5839   18.8021 C   0  0  0  0  0  0
   17.3478   -7.3499   18.1759 N   0  0  0  0  0  0
   18.3033   -9.2869   14.6430 O   0  0  0  0  0  0
   17.2769  -11.2059   15.2564 N   0  0  0  0  0  0
   17.9918   -7.1112   15.7868 C   0  0  0  0  0  0
   15.9314  -10.0099   17.3787 C   0  0  0  0  0  0
   14.9418   -6.9179   15.7765 O   0  0  0  0  0  0
   18.2241   -7.8746   14.4698 C   0  0  2  0  0  0
   16.4917   -6.1398   19.9452 O   0  0  0  0  0  0
   16.4481  -11.9272   16.0480 C   0  0  0  0  0  0
   15.7543  -11.3673   17.1139 C   0  0  0  0  0  0
   14.7096  -12.3246   18.0972 Cl  0  0  0  0  0  0
   17.1950   -7.5132   13.3849 C   0  0  0  0  0  0
   14.5316   -6.1204   18.2031 H   0  0  0  0  0  0
   18.3229   -7.3329   18.4372 H   0  0  0  0  0  0
   18.9467   -6.9178   16.2631 H   0  0  0  0  0  0
   17.6903   -6.1149   15.5090 H   0  0  0  0  0  0
   15.3976   -9.5573   18.2012 H   0  0  0  0  0  0
   19.1971   -7.5795   14.0771 H   0  0  0  0  0  0
   16.3484  -12.9771   15.8121 H   0  0  0  0  0  0
   17.2564   -6.4520   13.1394 H   0  0  0  0  0  0
   17.3833   -8.0707   12.4681 H   0  0  0  0  0  0
   16.1728   -7.7116   13.7034 H   0  0  0  0  0  0
  1  2  1  0  0  0
  1  4  1  0  0  0
  1  7  1  0  0  0
  1 10  1  0  0  0
  2  5  1  0  0  0
  2 11  2  0  0  0
  3  4  1  0  0  0
  3  6  1  0  0  0
  3 19  1  0  0  0
  4 12  2  0  0  0
  5  9  2  0  0  0
  5  8  1  0  0  0
  6  7  1  0  0  0
  6 14  2  0  0  0
  7 20  1  0  0  0
  8 13  1  0  0  0
  9 15  1  0  0  0
 10 13  1  0  0  0
 10 21  1  0  0  0
 10 22  1  0  0  0
 11 16  1  0  0  0
 11 23  1  0  0  0
 13 18  1  0  0  0
 13 24  1  0  0  0
 15 16  2  0  0  0
 15 25  1  0  0  0
 16 17  1  0  0  0
 18 26  1  0  0  0
 18 27  1  0  0  0
 18 28  1  0  0  0
M  END
> <s_m_entry_id>
6670

> <s_m_entry_name>
dock_pv.505

> <s_m_Source_Path>
/home/csk/Desktop/cluster/DUD-E-result/aldr

> <s_m_Source_File>
dock_pv.maegz

> <i_m_Source_File_Index>
505

> <chembl_id>
CHEMBL294612

> <chembl_pref_name>
None

> <i_lp_mmshare_version>
53161

> <i_f3d_flags>
0

> <r_lp_tautomer_probability>
0.99999999978137

> <s_lp_Force_Field>
OPLS_2005

> <r_lp_Energy>
22.547975

> <b_lp_Chiralities_Consistent>
1

> <s_lp_Variant>
CHEMBL1900_lig96-1

> <s_i_glide_gridfile>
glide-grid_2hv5

> <i_i_glide_lignum>
135

> <i_i_glide_rotatable_bonds>
0

> <r_i_docking_score>
-7.23338001965547

> <r_i_glide_ligand_efficiency>
-0.401854445536415

> <r_i_glide_ligand_efficiency_sa>
-1.05315657884948

> <r_i_glide_ligand_efficiency_ln>
-1.85930303575079

> <r_i_glide_gscore>
-7.23338001965547

> <r_i_glide_lipo>
-1.89851204685856

> <r_i_glide_hbond>
-0.250351442305565

> <r_i_glide_metal>
0

> <r_i_glide_rewards>
-3.26215720698976

> <r_i_glide_evdw>
-29.3926277160645

> <r_i_glide_ecoul>
-2.35151958465576

> <r_i_glide_erotb>
0

> <r_i_glide_esite>
0

> <r_i_glide_emodel>
-46.0803238378041

> <r_i_glide_energy>
-31.7441473007202

> <r_i_glide_einternal>
0

> <i_i_glide_confnum>
1

> <i_i_glide_posenum>
105

> <r_i_glide_eff_state_penalty>
0

> <s_user_duplicate_titles>
CHEMBL1900_lig96,83708

> <s_m_subgroup_title>
dock_pv

> <s_m_subgroupid>
dock_pv

> <b_m_subgroup_collapsed>
1

$$$$
CHEMBL1900_lig667 
                    3D
 Schrodinger Suite 2021-1.
 26 28  0  0  1  0            999 V2000
   18.0501  -12.1433   14.0492 C   0  0  0  0  0  0
   18.7644  -11.3237   13.1724 C   0  0  0  0  0  0
   18.8066   -9.9449   13.3817 C   0  0  0  0  0  0
   17.3742  -11.5879   15.1358 C   0  0  0  0  0  0
   17.4215  -10.2074   15.3438 C   0  0  0  0  0  0
   18.1385   -9.3847   14.4723 C   0  0  0  0  0  0
   18.0472   -8.0488   14.8795 N   0  0  0  0  0  0
   16.8303   -9.3522   16.3555 C   0  0  0  0  0  0
   17.2757   -7.9485   16.0157 C   0  0  0  0  0  0
   16.9371   -6.9148   16.7092 N   0  0  0  0  0  0
   16.1374   -7.0991   17.8707 C   0  0  0  0  0  0
   15.7446   -8.3983   18.1324 N   0  0  0  0  0  0
   16.0764   -9.5394   17.3815 N   0  0  0  0  0  0
   15.7459   -6.2589   18.6773 O   0  0  0  0  0  0
   18.5787   -6.9381   14.0742 C   0  0  0  0  0  0
   17.5943   -6.4887   12.9774 C   0  0  0  0  0  0
   16.4483   -6.9153   12.8346 O   0  0  0  0  0  0
   18.1434   -5.5275   12.1836 O   0  0  0  0  0  0
   18.0144  -13.2100   13.8812 H   0  0  0  0  0  0
   19.2781  -11.7540   12.3246 H   0  0  0  0  0  0
   19.3453   -9.3223   12.6854 H   0  0  0  0  0  0
   16.8203  -12.2313   15.8026 H   0  0  0  0  0  0
   15.1790   -8.5585   18.9506 H   0  0  0  0  0  0
   18.7798   -6.0868   14.7259 H   0  0  0  0  0  0
   19.5256   -7.2229   13.6148 H   0  0  0  0  0  0
   17.4910   -5.2331   11.5448 H   0  0  0  0  0  0
  1  2  2  0  0  0
  1  4  1  0  0  0
  1 19  1  0  0  0
  2  3  1  0  0  0
  2 20  1  0  0  0
  3  6  2  0  0  0
  3 21  1  0  0  0
  4  5  2  0  0  0
  4 22  1  0  0  0
  5  6  1  0  0  0
  5  8  1  0  0  0
  6  7  1  0  0  0
  7  9  1  0  0  0
  7 15  1  0  0  0
  8  9  1  0  0  0
  8 13  2  0  0  0
  9 10  2  0  0  0
 10 11  1  0  0  0
 11 12  1  0  0  0
 11 14  2  0  0  0
 12 13  1  0  0  0
 12 23  1  0  0  0
 15 16  1  0  0  0
 15 24  1  0  0  0
 15 25  1  0  0  0
 16 17  2  0  0  0
 16 18  1  0  0  0
 18 26  1  0  0  0
M  END
> <s_m_entry_id>
6671

> <s_m_entry_name>
dock_pv.506

> <s_m_Source_Path>
/home/csk/Desktop/cluster/DUD-E-result/aldr

> <s_m_Source_File>
dock_pv.maegz

> <i_m_Source_File_Index>
506

> <chembl_id>
CHEMBL4582264

> <chembl_pref_name>
None

> <i_lp_mmshare_version>
53161

> <i_f3d_flags>
0

> <r_lp_tautomer_probability>
1

> <s_lp_Force_Field>
OPLS_2005

> <r_lp_Energy>
31.859264

> <b_lp_Chiralities_Consistent>
1

> <s_lp_Variant>
CHEMBL1900_lig667 -1

> <s_i_glide_gridfile>
glide-grid_2hv5

> <i_i_glide_lignum>
793

> <i_i_glide_rotatable_bonds>
3

> <r_i_docking_score>
-7.2237849523863

> <r_i_glide_ligand_efficiency>
-0.401321386243684

> <r_i_glide_ligand_efficiency_sa>
-1.05175956829679

> <r_i_glide_ligand_efficiency_ln>
-1.85683667318539

> <r_i_glide_gscore>
-7.2237849523863

> <r_i_glide_lipo>
-1.59526452504085

> <r_i_glide_hbond>
0

> <r_i_glide_metal>
0

> <r_i_glide_rewards>
-3.75607562969508

> <r_i_glide_evdw>
-34.0875091552734

> <r_i_glide_ecoul>
-3.06358122825623

> <r_i_glide_erotb>
0.29146784435173

> <r_i_glide_esite>
0

> <r_i_glide_emodel>
-52.7214904655414

> <r_i_glide_energy>
-37.1510903835297

> <r_i_glide_einternal>
0.777303397655487

> <i_i_glide_confnum>
2

> <i_i_glide_posenum>
107

> <r_i_glide_eff_state_penalty>
0

> <s_user_duplicate_titles>
CHEMBL1900_lig667 

> <s_m_subgroup_title>
dock_pv

> <s_m_subgroupid>
dock_pv

> <b_m_subgroup_collapsed>
1

$$$$
CHEMBL1900_lig434
                    3D
 Schrodinger Suite 2021-1.
 30 31  0  0  1  0            999 V2000
   15.6567   -7.2673   17.2710 S   0  0  0  0  0  0
   16.1001   -6.0742   18.5680 C   0  0  0  0  0  0
   16.1823   -6.5461   19.7612 N   0  0  0  0  0  0
   16.9961  -11.0301   15.8821 C   0  0  0  0  0  0
   16.5450   -5.7148   20.8112 N   0  0  0  0  0  0
   17.2250   -8.2992   17.2279 C   0  0  0  0  0  0
   16.3683   -4.6647   18.3614 C   0  0  0  0  0  0
   16.7626   -4.3725   20.7773 C   0  0  0  0  0  0
   17.6722   -9.8266   15.2100 C   0  0  0  0  0  0
   17.7348   -8.5568   15.8226 C   0  0  0  0  0  0
   16.6889   -3.8663   19.4126 C   0  0  0  0  0  0
   15.5244   -6.5150   16.0236 O   0  0  0  0  0  0
   14.5451   -8.0746   17.7810 O   0  0  0  0  0  0
   16.9499   -3.7141   21.7934 O   0  0  0  0  0  0
   17.6739  -11.3758   16.9785 F   0  0  0  0  0  0
   15.7435  -10.7248   16.2230 F   0  0  0  0  0  0
   16.9471  -12.0991   15.0843 F   0  0  0  0  0  0
   18.3390   -7.4823   15.1582 C   0  0  0  0  0  0
   18.2559   -9.9846   13.9471 C   0  0  0  0  0  0
   18.9220   -7.6602   13.9112 C   0  0  0  0  0  0
   18.8891   -8.9161   13.3209 C   0  0  0  0  0  0
   17.0006   -9.2039   17.7810 H   0  0  0  0  0  0
   17.9926   -7.7579   17.7809 H   0  0  0  0  0  0
   16.3122   -4.2248   17.3810 H   0  0  0  0  0  0
   16.8908   -2.8166   19.2590 H   0  0  0  0  0  0
   16.5726   -6.1604   21.7163 H   0  0  0  0  0  0
   18.3852   -6.5093   15.6249 H   0  0  0  0  0  0
   18.2380  -10.9398   13.4422 H   0  0  0  0  0  0
   19.4090   -6.8350   13.4116 H   0  0  0  0  0  0
   19.3451   -9.0624   12.3587 H   0  0  0  0  0  0
  1  6  1  0  0  0
  1 12  2  0  0  0
  1 13  2  0  0  0
  1  2  1  0  0  0
  2  7  1  0  0  0
  2  3  2  0  0  0
  3  5  1  0  0  0
  4  9  1  0  0  0
  4 15  1  0  0  0
  4 16  1  0  0  0
  4 17  1  0  0  0
  5  8  1  0  0  0
  5 26  1  0  0  0
  6 10  1  0  0  0
  6 22  1  0  0  0
  6 23  1  0  0  0
  7 11  2  0  0  0
  7 24  1  0  0  0
  8 14  2  0  0  0
  8 11  1  0  0  0
  9 10  2  0  0  0
  9 19  1  0  0  0
 10 18  1  0  0  0
 11 25  1  0  0  0
 18 20  2  0  0  0
 18 27  1  0  0  0
 19 21  2  0  0  0
 19 28  1  0  0  0
 20 21  1  0  0  0
 20 29  1  0  0  0
 21 30  1  0  0  0
M  END
> <s_m_entry_id>
6672

> <s_m_entry_name>
dock_pv.507

> <s_m_Source_Path>
/home/csk/Desktop/cluster/DUD-E-result/aldr

> <s_m_Source_File>
dock_pv.maegz

> <i_m_Source_File_Index>
507

> <chembl_id>
CHEMBL197544

> <chembl_pref_name>
None

> <i_lp_mmshare_version>
53161

> <i_f3d_flags>
0

> <r_lp_tautomer_probability>
0.998994762270461

> <s_lp_Force_Field>
OPLS_2005

> <r_lp_Energy>
22.936928

> <b_lp_Chiralities_Consistent>
1

> <s_lp_Variant>
CHEMBL1900_lig434-1

> <s_i_glide_gridfile>
glide-grid_2hv5

> <i_i_glide_lignum>
556

> <i_i_glide_rotatable_bonds>
4

> <r_i_docking_score>
-7.20827523587644

> <r_i_glide_ligand_efficiency>
-0.343251201708402

> <r_i_glide_ligand_efficiency_sa>
-0.947004038004124

> <r_i_glide_ligand_efficiency_ln>
-1.78223148637885

> <r_i_glide_gscore>
-7.20827523587644

> <r_i_glide_lipo>
-2.8360037231

> <r_i_glide_hbond>
0

> <r_i_glide_metal>
0

> <r_i_glide_rewards>
-2.94266160670528

> <r_i_glide_evdw>
-31.88551902771

> <r_i_glide_ecoul>
-2.58298420906067

> <r_i_glide_erotb>
0.552113676673433

> <r_i_glide_esite>
0

> <r_i_glide_emodel>
-46.4786730934964

> <r_i_glide_energy>
-34.4685032367706

> <r_i_glide_einternal>
5.64413595199585

> <i_i_glide_confnum>
21

> <i_i_glide_posenum>
250

> <r_i_glide_eff_state_penalty>
0

> <s_user_duplicate_titles>
CHEMBL1900_lig434,331303

> <s_m_subgroup_title>
dock_pv

> <s_m_subgroupid>
dock_pv

> <b_m_subgroup_collapsed>
1

$$$$
CHEMBL1900_lig613
                    3D
 Schrodinger Suite 2021-1.
 46 48  0  0  1  0            999 V2000
   17.0058   -8.2274   17.1363 C   0  0  0  0  0  0
   16.9864   -9.5807   16.5703 C   0  0  0  0  0  0
   17.4134   -9.7879   15.3022 C   0  0  0  0  0  0
   17.8171   -8.6735   14.4484 C   0  0  0  0  0  0
   17.7450   -8.7316   13.0647 C   0  0  0  0  0  0
   17.7450   -7.5501   12.3273 C   0  0  0  0  0  0
   18.0771   -6.3459   12.9397 C   0  0  0  0  0  0
   18.2894   -6.3051   14.3171 C   0  0  0  0  0  0
   18.0246   -7.4460   15.0685 C   0  0  0  0  0  0
   17.7961   -7.3280   16.4243 O   0  0  0  0  0  0
   16.4737  -10.7397   17.2649 C   0  0  0  0  0  0
   17.1741  -11.7302   17.4779 O   0  0  0  0  0  0
   15.1617  -10.6824   17.5562 N   0  0  0  0  0  0
   14.3168  -11.7840   18.0260 C   0  0  0  0  0  0
   14.1450  -12.8957   16.9703 C   0  0  0  0  0  0
   16.3862   -7.8187   18.1809 N   0  0  0  0  0  0
   16.3863   -6.4713   18.5829 C   0  0  0  0  0  0
   16.1772   -5.4031   17.7035 C   0  0  0  0  0  0
   16.1450   -4.0871   18.1516 C   0  0  0  0  0  0
   16.2012   -3.8191   19.5110 C   0  0  0  0  0  0
   16.3814   -4.8699   20.4108 C   0  0  0  0  0  0
   16.4513   -6.1680   19.9391 C   0  0  0  0  0  0
   16.0197   -2.5150   19.8841 O   0  0  0  0  0  0
   18.1450   -5.2105   12.1810 O   0  0  0  0  0  0
   15.7605   -2.2387   21.2505 C   0  0  0  0  0  0
   14.7128  -12.3584   19.3958 C   0  0  0  0  0  0
   17.4012  -10.7823   14.8709 H   0  0  0  0  0  0
   17.5238   -9.6702   12.5810 H   0  0  0  0  0  0
   17.5689   -7.5797   11.2625 H   0  0  0  0  0  0
   18.5450   -5.3809   14.8103 H   0  0  0  0  0  0
   14.6872   -9.8136   17.3597 H   0  0  0  0  0  0
   13.3450  -11.3150   18.1810 H   0  0  0  0  0  0
   13.4601  -13.6660   17.3265 H   0  0  0  0  0  0
   13.7450  -12.5144   16.0315 H   0  0  0  0  0  0
   15.0905  -13.3979   16.7631 H   0  0  0  0  0  0
   16.0530   -5.6020   16.6506 H   0  0  0  0  0  0
   15.9986   -3.2841   17.4455 H   0  0  0  0  0  0
   16.4322   -4.7143   21.4771 H   0  0  0  0  0  0
   16.5449   -6.9531   20.6619 H   0  0  0  0  0  0
   18.1952   -4.4118   12.7119 H   0  0  0  0  0  0
   15.7450   -1.1627   21.3810 H   0  0  0  0  0  0
   14.8048   -2.6613   21.5601 H   0  0  0  0  0  0
   16.5449   -2.6058   21.9104 H   0  0  0  0  0  0
   14.0902  -13.2183   19.6460 H   0  0  0  0  0  0
   15.7446  -12.7066   19.4276 H   0  0  0  0  0  0
   14.5450  -11.6278   20.1810 H   0  0  0  0  0  0
  1  2  1  0  0  0
  1 10  1  0  0  0
  1 16  2  0  0  0
  2  3  2  0  0  0
  2 11  1  0  0  0
  3  4  1  0  0  0
  3 27  1  0  0  0
  4  5  1  0  0  0
  4  9  2  0  0  0
  5  6  2  0  0  0
  5 28  1  0  0  0
  6  7  1  0  0  0
  6 29  1  0  0  0
  7  8  2  0  0  0
  7 24  1  0  0  0
  8  9  1  0  0  0
  8 30  1  0  0  0
  9 10  1  0  0  0
 11 12  2  0  0  0
 11 13  1  0  0  0
 13 14  1  0  0  0
 13 31  1  0  0  0
 14 15  1  0  0  0
 14 26  1  0  0  0
 14 32  1  0  0  0
 15 33  1  0  0  0
 15 34  1  0  0  0
 15 35  1  0  0  0
 16 17  1  0  0  0
 17 18  1  0  0  0
 17 22  2  0  0  0
 18 19  2  0  0  0
 18 36  1  0  0  0
 19 20  1  0  0  0
 19 37  1  0  0  0
 20 21  2  0  0  0
 20 23  1  0  0  0
 21 22  1  0  0  0
 21 38  1  0  0  0
 22 39  1  0  0  0
 23 25  1  0  0  0
 24 40  1  0  0  0
 25 41  1  0  0  0
 25 42  1  0  0  0
 25 43  1  0  0  0
 26 44  1  0  0  0
 26 45  1  0  0  0
 26 46  1  0  0  0
M  END
> <s_m_entry_id>
6673

> <s_m_entry_name>
dock_pv.508

> <s_m_Source_Path>
/home/csk/Desktop/cluster/DUD-E-result/aldr

> <s_m_Source_File>
dock_pv.maegz

> <i_m_Source_File_Index>
508

> <chembl_id>
CHEMBL2440411

> <chembl_pref_name>
None

> <i_lp_mmshare_version>
53161

> <i_f3d_flags>
0

> <r_lp_tautomer_probability>
1

> <s_lp_Force_Field>
OPLS_2005

> <r_lp_Energy>
39.551797

> <b_lp_Chiralities_Consistent>
1

> <s_lp_Variant>
CHEMBL1900_lig613-1

> <s_i_glide_gridfile>
glide-grid_2hv5

> <i_i_glide_lignum>
737

> <i_i_glide_rotatable_bonds>
6

> <r_i_docking_score>
-7.20244095437846

> <r_i_glide_ligand_efficiency>
-0.277016959783787

> <r_i_glide_ligand_efficiency_sa>
-0.820661653350366

> <r_i_glide_ligand_efficiency_ln>
-1.6914696249994

> <r_i_glide_gscore>
-7.20244095437846

> <r_i_glide_lipo>
-3.48724876298604

> <r_i_glide_hbond>
-0.132602788763744

> <r_i_glide_metal>
0

> <r_i_glide_rewards>
-1.90420128158855

> <r_i_glide_evdw>
-30.6593418121338

> <r_i_glide_ecoul>
-4.04325580596924

> <r_i_glide_erotb>
0.461067340461957

> <r_i_glide_esite>
0

> <r_i_glide_emodel>
-34.0990221582189

> <r_i_glide_energy>
-34.702597618103

> <r_i_glide_einternal>
23.536413192749

> <i_i_glide_confnum>
3

> <i_i_glide_posenum>
15

> <r_i_glide_eff_state_penalty>
0

> <s_user_duplicate_titles>
CHEMBL1900_lig613

> <s_m_subgroup_title>
dock_pv

> <s_m_subgroupid>
dock_pv

> <b_m_subgroup_collapsed>
1

$$$$
CHEMBL1900_lig417
                    3D
 Schrodinger Suite 2021-1.
 24 25  0  0  1  0            999 V2000
   18.4411   -7.5188   14.0976 S   0  0  0  0  0  0
   17.3926   -6.6057   12.9319 C   0  0  0  0  0  0
   17.3936   -7.9852   15.4889 C   0  0  0  0  0  0
   16.1448   -6.9111   12.8328 N   0  0  0  0  0  0
   16.7725   -9.2415   15.5559 C   0  0  0  0  0  0
   15.3445   -6.2036   11.9236 N   0  0  0  0  0  0
   17.9201   -5.5635   12.0878 C   0  0  0  0  0  0
   15.7175   -5.2101   11.0646 C   0  0  0  0  0  0
   19.4237   -6.5408   14.5795 O   0  0  0  0  0  0
   18.8742   -8.7268   13.3857 O   0  0  0  0  0  0
   17.1337   -4.9162   11.1958 C   0  0  0  0  0  0
   15.9619   -9.5641   16.6479 C   0  0  0  0  0  0
   14.9471   -4.6235   10.3112 O   0  0  0  0  0  0
   16.9455  -10.1622   14.5809 F   0  0  0  0  0  0
   17.2139   -7.0758   16.5365 C   0  0  0  0  0  0
   15.3599  -10.7738   16.7179 F   0  0  0  0  0  0
   16.4069   -7.4032   17.6265 C   0  0  0  0  0  0
   15.7768   -8.6464   17.6798 C   0  0  0  0  0  0
   18.9453   -5.2829   12.1759 H   0  0  0  0  0  0
   17.5412   -4.1305   10.5782 H   0  0  0  0  0  0
   14.3716   -6.4690   11.9097 H   0  0  0  0  0  0
   17.7085   -6.1175   16.5145 H   0  0  0  0  0  0
   16.2794   -6.6991   18.4340 H   0  0  0  0  0  0
   15.1608   -8.9126   18.5266 H   0  0  0  0  0  0
  1  3  1  0  0  0
  1  9  2  0  0  0
  1 10  2  0  0  0
  1  2  1  0  0  0
  2  7  1  0  0  0
  2  4  2  0  0  0
  3  5  2  0  0  0
  3 15  1  0  0  0
  4  6  1  0  0  0
  5 12  1  0  0  0
  5 14  1  0  0  0
  6  8  1  0  0  0
  6 21  1  0  0  0
  7 11  2  0  0  0
  7 19  1  0  0  0
  8 13  2  0  0  0
  8 11  1  0  0  0
 11 20  1  0  0  0
 12 16  1  0  0  0
 12 18  2  0  0  0
 15 17  2  0  0  0
 15 22  1  0  0  0
 17 18  1  0  0  0
 17 23  1  0  0  0
 18 24  1  0  0  0
M  END
> <s_m_entry_id>
6674

> <s_m_entry_name>
dock_pv.509

> <s_m_Source_Path>
/home/csk/Desktop/cluster/DUD-E-result/aldr

> <s_m_Source_File>
dock_pv.maegz

> <i_m_Source_File_Index>
509

> <chembl_id>
CHEMBL198004

> <chembl_pref_name>
None

> <i_lp_mmshare_version>
53161

> <i_f3d_flags>
0

> <r_lp_tautomer_probability>
0.998994762270461

> <s_lp_Force_Field>
OPLS_2005

> <r_lp_Energy>
20.80627

> <b_lp_Chiralities_Consistent>
1

> <s_lp_Variant>
CHEMBL1900_lig417-1

> <s_i_glide_gridfile>
glide-grid_2hv5

> <i_i_glide_lignum>
539

> <i_i_glide_rotatable_bonds>
2

> <r_i_docking_score>
-7.20174521787473

> <r_i_glide_ligand_efficiency>
-0.400096956548596

> <r_i_glide_ligand_efficiency_sa>
-1.04855065471367

> <r_i_glide_ligand_efficiency_ln>
-1.85117147307518

> <r_i_glide_gscore>
-7.20174521787473

> <r_i_glide_lipo>
-2.93114229415133

> <r_i_glide_hbond>
0

> <r_i_glide_metal>
0

> <r_i_glide_rewards>
-3.3271266684709

> <r_i_glide_evdw>
-35.9788703918457

> <r_i_glide_ecoul>
2.47937440872192

> <r_i_glide_erotb>
0.483561103031494

> <r_i_glide_esite>
0

> <r_i_glide_emodel>
-46.1425105573546

> <r_i_glide_energy>
-33.4994959831238

> <r_i_glide_einternal>
2.34368681907654

> <i_i_glide_confnum>
2

> <i_i_glide_posenum>
156

> <r_i_glide_eff_state_penalty>
0

> <s_user_duplicate_titles>
CHEMBL1900_lig417,329769

> <s_m_subgroup_title>
dock_pv

> <s_m_subgroupid>
dock_pv

> <b_m_subgroup_collapsed>
1

$$$$
CHEMBL1900_lig656
                    3D
 Schrodinger Suite 2021-1.
 39 40  0  0  1  0            999 V2000
   16.5418   -5.8779   18.7174 C   0  0  0  0  0  0
   16.6161   -7.4110   18.6251 C   0  0  0  0  0  0
   16.1429   -5.1880   17.7849 O   0  0  0  0  0  0
   16.9351   -5.3140   19.8589 N   0  0  0  0  0  0
   15.9142   -7.8810   17.4724 O   0  0  0  0  0  0
   16.7074   -8.3658   16.4592 C   0  0  0  0  0  0
   16.9586   -9.7393   16.3361 C   0  0  0  0  0  0
   17.7456  -10.1837   15.2587 C   0  0  0  0  0  0
   18.2685   -9.2800   14.3312 C   0  0  0  0  0  0
   17.9952   -7.9174   14.4489 C   0  0  0  0  0  0
   17.2229   -7.4710   15.5234 C   0  0  0  0  0  0
   16.4066  -10.5783   17.2880 O   0  0  0  0  0  0
   16.5692  -11.9856   17.1529 C   0  0  0  0  0  0
   18.4197   -6.9698   13.4039 C   0  0  0  0  0  0
   15.7901   -6.5150   12.6532 S   0  0  0  0  0  0
   15.6203   -5.3964   11.3697 C   0  0  0  0  0  0
   16.8108   -5.0276   10.8635 N   0  0  0  0  0  0
   17.8627   -5.3833   11.5994 C   0  0  0  0  0  0
   17.5195   -6.3293   12.6287 C   0  0  0  0  0  0
   18.9449   -4.9154   11.3806 O   0  0  0  0  0  0
   14.1449   -4.9159   10.9810 S   0  0  0  0  0  0
   16.9490   -4.2745    9.5814 C   0  0  0  0  0  0
   17.2181   -2.7764    9.7799 C   0  0  0  0  0  0
   16.1439   -2.0506    9.3813 O   0  0  0  0  0  0
   18.2637   -2.3141   10.1807 O   0  0  0  0  0  0
   17.6652   -7.7149   18.6233 H   0  0  0  0  0  0
   16.1448   -7.8534   19.5025 H   0  0  0  0  0  0
   16.9075   -4.3086   19.9431 H   0  0  0  0  0  0
   17.3272   -5.8719   20.6022 H   0  0  0  0  0  0
   17.9612  -11.2319   15.1200 H   0  0  0  0  0  0
   18.8527   -9.6482   13.4999 H   0  0  0  0  0  0
   16.9860   -6.4230   15.6169 H   0  0  0  0  0  0
   16.0395  -12.4880   17.9620 H   0  0  0  0  0  0
   16.1505  -12.3481   16.2127 H   0  0  0  0  0  0
   17.6194  -12.2745   17.2146 H   0  0  0  0  0  0
   19.4834   -6.8014   13.2926 H   0  0  0  0  0  0
   17.8137   -4.6653    9.0496 H   0  0  0  0  0  0
   16.0969   -4.4298    8.9190 H   0  0  0  0  0  0
   16.3076   -1.1161    9.5113 H   0  0  0  0  0  0
  1  2  1  0  0  0
  1  3  2  0  0  0
  1  4  1  0  0  0
  2  5  1  0  0  0
  2 26  1  0  0  0
  2 27  1  0  0  0
  4 28  1  0  0  0
  4 29  1  0  0  0
  5  6  1  0  0  0
  6  7  1  0  0  0
  6 11  2  0  0  0
  7  8  2  0  0  0
  7 12  1  0  0  0
  8  9  1  0  0  0
  8 30  1  0  0  0
  9 10  2  0  0  0
  9 31  1  0  0  0
 10 11  1  0  0  0
 10 14  1  0  0  0
 11 32  1  0  0  0
 12 13  1  0  0  0
 13 33  1  0  0  0
 13 34  1  0  0  0
 13 35  1  0  0  0
 14 19  2  0  0  0
 14 36  1  0  0  0
 15 16  1  0  0  0
 15 19  1  0  0  0
 16 17  1  0  0  0
 16 21  2  0  0  0
 17 18  1  0  0  0
 17 22  1  0  0  0
 18 19  1  0  0  0
 18 20  2  0  0  0
 22 23  1  0  0  0
 22 37  1  0  0  0
 22 38  1  0  0  0
 23 24  1  0  0  0
 23 25  2  0  0  0
 24 39  1  0  0  0
M  END
> <s_m_entry_id>
6675

> <s_m_entry_name>
dock_pv.510

> <s_m_Source_Path>
/home/csk/Desktop/cluster/DUD-E-result/aldr

> <s_m_Source_File>
dock_pv.maegz

> <i_m_Source_File_Index>
510

> <chembl_id>
CHEMBL3262477

> <chembl_pref_name>
None

> <i_lp_mmshare_version>
53161

> <i_f3d_flags>
0

> <r_lp_tautomer_probability>
1

> <s_lp_Force_Field>
OPLS_2005

> <r_lp_Energy>
16.456268

> <b_lp_Chiralities_Consistent>
1

> <s_lp_Variant>
CHEMBL1900_lig656-1

> <s_i_glide_gridfile>
glide-grid_2hv5

> <i_i_glide_lignum>
782

> <i_i_glide_rotatable_bonds>
8

> <r_i_docking_score>
-7.19586523346055

> <r_i_glide_ligand_efficiency>
-0.287834609338422

> <r_i_glide_ligand_efficiency_sa>
-0.841633502474079

> <r_i_glide_ligand_efficiency_ln>
-1.7056357030099

> <r_i_glide_gscore>
-7.19586523346055

> <r_i_glide_lipo>
-2.81152604982675

> <r_i_glide_hbond>
0

> <r_i_glide_metal>
0

> <r_i_glide_rewards>
-3.50172640909091

> <r_i_glide_evdw>
-23.6518993377686

> <r_i_glide_ecoul>
-2.4269425868988

> <r_i_glide_erotb>
0.664023580380357

> <r_i_glide_esite>
0

> <r_i_glide_emodel>
-26.3579880941493

> <r_i_glide_energy>
-26.0788419246674

> <r_i_glide_einternal>
15.6172981262207

> <i_i_glide_confnum>
123

> <i_i_glide_posenum>
123

> <r_i_glide_eff_state_penalty>
0

> <s_user_duplicate_titles>
CHEMBL1900_lig656

> <s_m_subgroup_title>
dock_pv

> <s_m_subgroupid>
dock_pv

> <b_m_subgroup_collapsed>
1

$$$$
CHEMBL1900_lig481
                    3D
 Schrodinger Suite 2021-1.
 20 20  0  0  1  0            999 V2000
   18.8384   -8.2557   13.7808 C   0  0  0  0  0  0
   18.0121   -8.9410   14.3801 O   0  0  0  0  0  0
   20.1735   -8.5104   13.7704 O   0  0  0  0  0  0
   18.5344   -7.0981   12.9890 C   0  0  0  0  0  0
   17.3092   -6.8921   12.4677 C   0  0  0  0  0  0
   16.9285   -5.7691   11.5931 C   0  0  0  0  0  0
   17.8812   -4.9163   11.0175 C   0  0  0  0  0  0
   17.4852   -3.8812   10.1809 C   0  0  0  0  0  0
   16.1331   -3.6895    9.9325 C   0  0  0  0  0  0
   15.1742   -4.5212   10.5005 C   0  0  0  0  0  0
   15.5721   -5.5635   11.3293 C   0  0  0  0  0  0
   15.7450   -2.6575    9.1337 O   0  0  0  0  0  0
   20.6827   -7.8780   13.2549 H   0  0  0  0  0  0
   19.3451   -6.4068   12.8268 H   0  0  0  0  0  0
   16.5269   -7.6121   12.6716 H   0  0  0  0  0  0
   18.9358   -5.0527   11.1965 H   0  0  0  0  0  0
   18.2176   -3.2249    9.7350 H   0  0  0  0  0  0
   14.1241   -4.3641   10.3077 H   0  0  0  0  0  0
   14.8182   -6.2024   11.7676 H   0  0  0  0  0  0
   14.7894   -2.6670    8.9808 H   0  0  0  0  0  0
  1  2  2  0  0  0
  1  3  1  0  0  0
  1  4  1  0  0  0
  3 13  1  0  0  0
  4  5  2  0  0  0
  4 14  1  0  0  0
  5  6  1  0  0  0
  5 15  1  0  0  0
  6  7  2  0  0  0
  6 11  1  0  0  0
  7  8  1  0  0  0
  7 16  1  0  0  0
  8  9  2  0  0  0
  8 17  1  0  0  0
  9 10  1  0  0  0
  9 12  1  0  0  0
 10 11  2  0  0  0
 10 18  1  0  0  0
 11 19  1  0  0  0
 12 20  1  0  0  0
M  END
> <s_m_entry_id>
6676

> <s_m_entry_name>
dock_pv.511

> <s_m_Source_Path>
/home/csk/Desktop/cluster/DUD-E-result/aldr

> <s_m_Source_File>
dock_pv.maegz

> <i_m_Source_File_Index>
511

> <chembl_id>
CHEMBL66879

> <chembl_pref_name>
COUMARIC ACID

> <i_lp_mmshare_version>
53161

> <i_f3d_flags>
0

> <r_lp_tautomer_probability>
1

> <s_lp_Force_Field>
OPLS_2005

> <r_lp_Energy>
8.475377

> <b_lp_Chiralities_Consistent>
1

> <s_lp_Variant>
CHEMBL1900_lig481-1

> <s_i_glide_gridfile>
glide-grid_2hv5

> <i_i_glide_lignum>
604

> <i_i_glide_rotatable_bonds>
4

> <r_i_docking_score>
-7.19462628345665

> <r_i_glide_ligand_efficiency>
-0.599552190288054

> <r_i_glide_ligand_efficiency_sa>
-1.37263186161661

> <r_i_glide_ligand_efficiency_ln>
-2.06451047516418

> <r_i_glide_gscore>
-7.19462628345665

> <r_i_glide_lipo>
-2.49759901694313

> <r_i_glide_hbond>
-0.305344476753521

> <r_i_glide_metal>
0

> <r_i_glide_rewards>
-3.32766627490176

> <r_i_glide_evdw>
-23.4577236175537

> <r_i_glide_ecoul>
-6.80739212036133

> <r_i_glide_erotb>
1.12997848407364

> <r_i_glide_esite>
0

> <r_i_glide_emodel>
-41.9785475393248

> <r_i_glide_energy>
-30.265115737915

> <r_i_glide_einternal>
1.75686049461365

> <i_i_glide_confnum>
4

> <i_i_glide_posenum>
210

> <r_i_glide_eff_state_penalty>
0

> <s_user_duplicate_titles>
CHEMBL1900_lig481

> <s_m_subgroup_title>
dock_pv

> <s_m_subgroupid>
dock_pv

> <b_m_subgroup_collapsed>
1

$$$$
CHEMBL1900_lig426
                    3D
 Schrodinger Suite 2021-1.
 24 25  0  0  1  0            999 V2000
   18.1936   -7.6546   13.9721 S   0  0  0  0  0  0
   17.3678   -7.3940   15.5714 C   0  0  0  0  0  0
   18.0877   -7.3121   16.6398 N   0  0  0  0  0  0
   17.4772   -6.9818   17.8546 N   0  0  0  0  0  0
   15.9413   -7.2656   15.6950 C   0  0  0  0  0  0
   16.1660   -6.6618   18.0700 C   0  0  0  0  0  0
   17.5524   -6.4209   12.8171 C   0  0  0  0  0  0
   15.3684   -6.9552   16.8862 C   0  0  0  0  0  0
   17.7451   -8.9715   13.5100 O   0  0  0  0  0  0
   19.6195   -7.3769   14.1809 O   0  0  0  0  0  0
   15.7450   -6.1248   19.0934 O   0  0  0  0  0  0
   18.3839   -5.3926   12.3942 C   0  0  0  0  0  0
   16.2747   -6.5208   12.2721 C   0  0  0  0  0  0
   16.7066   -4.6462   10.8321 C   0  0  0  0  0  0
   15.8418   -5.6348   11.2905 C   0  0  0  0  0  0
   17.9796   -4.5193   11.3810 C   0  0  0  0  0  0
   16.1452   -3.4521    9.4595 Br  0  0  0  0  0  0
   15.3448   -7.5062   14.8435 H   0  0  0  0  0  0
   14.2928   -6.9162   16.9833 H   0  0  0  0  0  0
   18.1143   -6.8597   18.6279 H   0  0  0  0  0  0
   19.3450   -5.3150   12.8688 H   0  0  0  0  0  0
   15.6311   -7.3150   12.5809 H   0  0  0  0  0  0
   14.8484   -5.7237   10.8771 H   0  0  0  0  0  0
   18.6295   -3.7343   11.0278 H   0  0  0  0  0  0
  1  7  1  0  0  0
  1  9  2  0  0  0
  1 10  2  0  0  0
  1  2  1  0  0  0
  2  5  1  0  0  0
  2  3  2  0  0  0
  3  4  1  0  0  0
  4  6  1  0  0  0
  4 20  1  0  0  0
  5  8  2  0  0  0
  5 18  1  0  0  0
  6 11  2  0  0  0
  6  8  1  0  0  0
  7 12  2  0  0  0
  7 13  1  0  0  0
  8 19  1  0  0  0
 12 16  1  0  0  0
 12 21  1  0  0  0
 13 15  2  0  0  0
 13 22  1  0  0  0
 14 15  1  0  0  0
 14 17  1  0  0  0
 14 16  2  0  0  0
 15 23  1  0  0  0
 16 24  1  0  0  0
M  END
> <s_m_entry_id>
6677

> <s_m_entry_name>
dock_pv.512

> <s_m_Source_Path>
/home/csk/Desktop/cluster/DUD-E-result/aldr

> <s_m_Source_File>
dock_pv.maegz

> <i_m_Source_File_Index>
512

> <chembl_id>
CHEMBL413566

> <chembl_pref_name>
None

> <i_lp_mmshare_version>
53161

> <i_f3d_flags>
0

> <r_lp_tautomer_probability>
0.998994762270461

> <s_lp_Force_Field>
OPLS_2005

> <r_lp_Energy>
20.761123

> <b_lp_Chiralities_Consistent>
1

> <s_lp_Variant>
CHEMBL1900_lig426-1

> <s_i_glide_gridfile>
glide-grid_2hv5

> <i_i_glide_lignum>
548

> <i_i_glide_rotatable_bonds>
2

> <r_i_docking_score>
-7.18993752122433

> <r_i_glide_ligand_efficiency>
-0.42293750124849

> <r_i_glide_ligand_efficiency_sa>
-1.0874914099322

> <r_i_glide_ligand_efficiency_ln>
-1.87569458725094

> <r_i_glide_gscore>
-7.18993752122433

> <r_i_glide_lipo>
-3.18699790079221

> <r_i_glide_hbond>
0

> <r_i_glide_metal>
0

> <r_i_glide_rewards>
-2.57730506493203

> <r_i_glide_evdw>
-33.4910697937012

> <r_i_glide_ecoul>
-0.837414145469666

> <r_i_glide_erotb>
0.374531056005417

> <r_i_glide_esite>
0

> <r_i_glide_emodel>
-47.490515510233

> <r_i_glide_energy>
-34.3284839391708

> <r_i_glide_einternal>
1.3646993637085

> <i_i_glide_confnum>
2

> <i_i_glide_posenum>
63

> <r_i_glide_eff_state_penalty>
0

> <s_user_duplicate_titles>
CHEMBL1900_lig426,331197

> <s_m_subgroup_title>
dock_pv

> <s_m_subgroupid>
dock_pv

> <b_m_subgroup_collapsed>
1

$$$$
CHEMBL1900_lig71
                    3D
 Schrodinger Suite 2021-1.
 29 31  0  0  1  0            999 V2000
   16.9775   -7.9719   16.4888 C   0  0  1  0  0  0
   17.9200   -7.6636   15.2745 C   0  0  0  0  0  0
   18.2883   -8.7355   14.5013 N   0  0  0  0  0  0
   15.7249   -7.1109   16.3188 C   0  0  0  0  0  0
   17.9147  -10.0517   14.5847 C   0  0  0  0  0  0
   16.5288   -9.4399   16.6456 C   0  0  0  0  0  0
   15.6089   -6.2783   17.3658 N   0  0  0  0  0  0
   16.9873  -10.4019   15.7287 C   0  0  0  0  0  0
   16.5883   -6.3468   18.2730 C   0  0  0  0  0  0
   17.5702   -7.3851   17.7799 C   0  0  0  0  0  0
   16.5854  -11.7416   15.8398 C   0  0  0  0  0  0
   18.3067   -6.5150   15.0424 O   0  0  0  0  0  0
   15.6594   -9.8721   17.6657 C   0  0  0  0  0  0
   14.9452   -7.1737   15.3813 O   0  0  0  0  0  0
   18.3156  -10.9095   13.7890 O   0  0  0  0  0  0
   16.6708   -5.7032   19.3162 O   0  0  0  0  0  0
   19.1996   -8.3905   13.3811 C   0  0  0  0  0  0
   15.2715  -11.2069   17.7774 C   0  0  0  0  0  0
   15.7317  -12.1407   16.8604 C   0  0  0  0  0  0
   14.2284  -11.7124   19.0505 Cl  0  0  0  0  0  0
   14.8353   -5.6417   17.4551 H   0  0  0  0  0  0
   17.6691   -8.1150   18.5735 H   0  0  0  0  0  0
   18.5484   -6.9150   17.6690 H   0  0  0  0  0  0
   16.9280  -12.4858   15.1346 H   0  0  0  0  0  0
   15.2844   -9.1646   18.3908 H   0  0  0  0  0  0
   18.8544   -7.4916   12.8692 H   0  0  0  0  0  0
   20.1999   -8.1839   13.7637 H   0  0  0  0  0  0
   19.2907   -9.1564   12.6093 H   0  0  0  0  0  0
   15.4250  -13.1732   16.9375 H   0  0  0  0  0  0
  1  2  1  0  0  0
  1  4  1  0  0  0
  1  6  1  0  0  0
  1 10  1  0  0  0
  2  3  1  0  0  0
  2 12  2  0  0  0
  3 17  1  0  0  0
  3  5  1  0  0  0
  4  7  1  0  0  0
  4 14  2  0  0  0
  5  8  1  0  0  0
  5 15  2  0  0  0
  6  8  1  0  0  0
  6 13  2  0  0  0
  7  9  1  0  0  0
  7 21  1  0  0  0
  8 11  2  0  0  0
  9 10  1  0  0  0
  9 16  2  0  0  0
 10 22  1  0  0  0
 10 23  1  0  0  0
 11 19  1  0  0  0
 11 24  1  0  0  0
 13 18  1  0  0  0
 13 25  1  0  0  0
 17 26  1  0  0  0
 17 27  1  0  0  0
 17 28  1  0  0  0
 18 19  2  0  0  0
 18 20  1  0  0  0
 19 29  1  0  0  0
M  END
> <s_m_entry_id>
6678

> <s_m_entry_name>
dock_pv.513

> <s_m_Source_Path>
/home/csk/Desktop/cluster/DUD-E-result/aldr

> <s_m_Source_File>
dock_pv.maegz

> <i_m_Source_File_Index>
513

> <chembl_id>
CHEMBL10382

> <chembl_pref_name>
None

> <i_lp_mmshare_version>
53161

> <i_f3d_flags>
0

> <r_lp_tautomer_probability>
0.99999999995914

> <s_lp_Force_Field>
OPLS_2005

> <r_lp_Energy>
30.650868

> <b_lp_Chiralities_Consistent>
1

> <s_lp_Variant>
CHEMBL1900_lig71-1

> <s_i_glide_gridfile>
glide-grid_2hv5

> <i_i_glide_lignum>
108

> <i_i_glide_rotatable_bonds>
0

> <r_i_docking_score>
-7.18833642303572

> <r_i_glide_ligand_efficiency>
-0.359416821151786

> <r_i_glide_ligand_efficiency_sa>
-0.97560735006073

> <r_i_glide_ligand_efficiency_ln>
-1.79900351948307

> <r_i_glide_gscore>
-7.18833642303572

> <r_i_glide_lipo>
-1.79160469159956

> <r_i_glide_hbond>
-0.111314979964354

> <r_i_glide_metal>
0

> <r_i_glide_rewards>
-3.86981046435003

> <r_i_glide_evdw>
-30.4915981292725

> <r_i_glide_ecoul>
0.726490795612335

> <r_i_glide_erotb>
0

> <r_i_glide_esite>
0

> <r_i_glide_emodel>
-41.2803866133153

> <r_i_glide_energy>
-29.7651073336601

> <r_i_glide_einternal>
0

> <i_i_glide_confnum>
1

> <i_i_glide_posenum>
39

> <r_i_glide_eff_state_penalty>
0

> <s_user_duplicate_titles>
CHEMBL1900_lig71

> <s_m_subgroup_title>
dock_pv

> <s_m_subgroupid>
dock_pv

> <b_m_subgroup_collapsed>
1

$$$$
CHEMBL1900_lig14
                    3D
 Schrodinger Suite 2021-1.
 30 31  0  0  1  0            999 V2000
   18.3306  -10.6244   14.1441 C   0  0  0  0  0  0
   17.6324  -10.5742   15.3872 C   0  0  0  0  0  0
   14.7131   -7.4782   17.3681 N   0  0  0  0  0  0
   17.2124   -9.3027   15.8845 C   0  0  0  0  0  0
   17.3588  -12.0866   16.3921 S   0  0  0  0  0  0
   14.9125   -8.6481   16.7455 C   0  0  0  0  0  0
   16.3049   -9.0926   17.1224 C   0  0  2  0  0  0
   15.7450   -7.0568   18.1226 C   0  0  0  0  0  0
   18.6850  -11.9270   13.3969 C   0  0  0  0  0  0
   16.6790   -8.0013   17.9870 N   0  0  0  0  0  0
   18.7446   -9.4231   13.5486 C   0  0  0  0  0  0
   17.6240   -8.1390   15.2203 C   0  0  0  0  0  0
   18.1307  -13.2144   15.8695 O   0  0  0  0  0  0
   17.5915  -11.7217   17.7877 O   0  0  0  0  0  0
   14.1451   -9.2392   15.9936 O   0  0  0  0  0  0
   15.7451   -6.1148   18.9084 O   0  0  0  0  0  0
   18.4092   -8.1922   14.0867 C   0  0  0  0  0  0
   19.7434  -12.5153   13.9549 F   0  0  0  0  0  0
   19.0051  -11.7151   12.1224 F   0  0  0  0  0  0
   17.6447  -12.7604   13.3684 F   0  0  0  0  0  0
   15.5404  -12.5137   16.1807 C   0  0  0  0  0  0
   18.9449   -6.7254   13.3539 Cl  0  0  0  0  0  0
   13.8230   -7.0045   17.3569 H   0  0  0  0  0  0
   16.1774   -9.9553   17.7623 H   0  0  0  0  0  0
   17.6461   -7.8483   18.2350 H   0  0  0  0  0  0
   19.3448   -9.4270   12.6534 H   0  0  0  0  0  0
   17.3409   -7.1638   15.5895 H   0  0  0  0  0  0
   15.3035  -13.3317   16.8587 H   0  0  0  0  0  0
   14.9236  -11.6513   16.4156 H   0  0  0  0  0  0
   15.3808  -12.8371   15.1544 H   0  0  0  0  0  0
  1  2  2  0  0  0
  1  9  1  0  0  0
  1 11  1  0  0  0
  2  4  1  0  0  0
  2  5  1  0  0  0
  3  6  1  0  0  0
  3  8  1  0  0  0
  3 23  1  0  0  0
  4  7  1  0  0  0
  4 12  2  0  0  0
  5 13  2  0  0  0
  5 14  2  0  0  0
  5 21  1  0  0  0
  6  7  1  0  0  0
  6 15  2  0  0  0
  7 10  1  0  0  0
  7 24  1  0  0  0
  8 10  1  0  0  0
  8 16  2  0  0  0
  9 18  1  0  0  0
  9 19  1  0  0  0
  9 20  1  0  0  0
 10 25  1  0  0  0
 11 17  2  0  0  0
 11 26  1  0  0  0
 12 17  1  0  0  0
 12 27  1  0  0  0
 17 22  1  0  0  0
 21 28  1  0  0  0
 21 29  1  0  0  0
 21 30  1  0  0  0
M  END
> <s_m_entry_id>
6679

> <s_m_entry_name>
dock_pv.514

> <s_m_Source_Path>
/home/csk/Desktop/cluster/DUD-E-result/aldr

> <s_m_Source_File>
dock_pv.maegz

> <i_m_Source_File_Index>
514

> <chembl_id>
CHEMBL440790

> <chembl_pref_name>
None

> <i_lp_mmshare_version>
53161

> <i_f3d_flags>
0

> <r_lp_tautomer_probability>
0.999999999781369

> <s_lp_Force_Field>
OPLS_2005

> <r_lp_Energy>
24.94686

> <b_lp_Chiralities_Consistent>
1

> <s_lp_Variant>
CHEMBL1900_lig14-1

> <s_i_glide_gridfile>
glide-grid_2hv5

> <i_i_glide_lignum>
24

> <i_i_glide_rotatable_bonds>
3

> <r_i_docking_score>
-7.1836239040955

> <r_i_glide_ligand_efficiency>
-0.326528359277068

> <r_i_glide_ligand_efficiency_sa>
-0.914945304326007

> <r_i_glide_ligand_efficiency_ln>
-1.75593971120943

> <r_i_glide_gscore>
-7.1836239040955

> <r_i_glide_lipo>
-2.19434519041424

> <r_i_glide_hbond>
0

> <r_i_glide_metal>
0

> <r_i_glide_rewards>
-2.80503811754334

> <r_i_glide_evdw>
-32.039794921875

> <r_i_glide_ecoul>
-4.57049322128296

> <r_i_glide_erotb>
0.150389900826653

> <r_i_glide_esite>
-0.0470667676783841

> <r_i_glide_emodel>
-51.6090002317216

> <r_i_glide_energy>
-36.610288143158

> <r_i_glide_einternal>
0.48598724603653

> <i_i_glide_confnum>
1

> <i_i_glide_posenum>
46

> <r_i_glide_eff_state_penalty>
0

> <s_user_duplicate_titles>
CHEMBL1900_lig14,22828

> <s_m_subgroup_title>
dock_pv

> <s_m_subgroupid>
dock_pv

> <b_m_subgroup_collapsed>
1

$$$$
CHEMBL1900_lig338
                    3D
 Schrodinger Suite 2021-1.
 35 36  0  0  1  0            999 V2000
   15.5501   -9.0910   16.5288 C   0  0  2  0  0  0
   16.7286   -9.1481   15.5578 C   0  0  0  0  0  0
   19.1444   -6.7829   13.9300 N   0  3  0  0  0  0
   17.1855  -10.3751   15.0348 C   0  0  0  0  0  0
   15.9628   -8.5157   17.9274 C   0  0  0  0  0  0
   16.5598  -11.5855   15.2635 O   0  0  0  0  0  0
   17.3767   -7.9831   15.1358 C   0  0  0  0  0  0
   18.4618   -8.0265   14.2697 C   0  0  0  0  0  0
   14.8756  -10.4927   16.6216 C   0  0  0  0  0  0
   15.8164  -11.7186   16.4758 C   0  0  0  0  0  0
   16.0792   -6.9841   18.1412 C   0  0  0  0  0  0
   18.6512   -6.0812   13.0540 O   0  5  0  0  0  0
   20.1453   -6.5149   14.5806 O   0  0  0  0  0  0
   18.2557  -10.4236   14.1436 C   0  0  0  0  0  0
   18.9069   -9.2499   13.7742 C   0  0  0  0  0  0
   15.7457   -6.1193   17.3345 O   0  0  0  0  0  0
   14.5449   -8.2564   16.0235 O   0  0  0  0  0  0
   16.5453   -6.7079   19.3858 O   0  0  0  0  0  0
   16.7936  -11.8828   17.6523 C   0  0  0  0  0  0
   14.9571  -12.9805   16.2692 C   0  0  0  0  0  0
   16.9315   -8.9370   18.1838 H   0  0  0  0  0  0
   15.2624   -8.8720   18.6816 H   0  0  0  0  0  0
   17.0410   -7.0194   15.4854 H   0  0  0  0  0  0
   14.2587  -10.5814   17.5171 H   0  0  0  0  0  0
   14.1671  -10.5757   15.7923 H   0  0  0  0  0  0
   18.5761  -11.3702   13.7348 H   0  0  0  0  0  0
   19.7436   -9.2882   13.0956 H   0  0  0  0  0  0
   13.8121   -8.2497   16.6422 H   0  0  0  0  0  0
   16.8067   -7.4985   19.8626 H   0  0  0  0  0  0
   16.2449  -12.0344   18.5805 H   0  0  0  0  0  0
   17.4290  -12.7563   17.5035 H   0  0  0  0  0  0
   17.4619  -11.0333   17.7714 H   0  0  0  0  0  0
   14.3126  -13.1735   17.1278 H   0  0  0  0  0  0
   14.3193  -12.9005   15.3876 H   0  0  0  0  0  0
   15.5874  -13.8568   16.1202 H   0  0  0  0  0  0
  1  2  1  0  0  0
  1  5  1  0  0  0
  1  9  1  0  0  0
  1 17  1  0  0  0
  2  4  2  0  0  0
  2  7  1  0  0  0
  3  8  1  0  0  0
  3 12  1  0  0  0
  3 13  2  0  0  0
  4 14  1  0  0  0
  4  6  1  0  0  0
  5 11  1  0  0  0
  5 21  1  0  0  0
  5 22  1  0  0  0
  6 10  1  0  0  0
  7  8  2  0  0  0
  7 23  1  0  0  0
  8 15  1  0  0  0
  9 10  1  0  0  0
  9 24  1  0  0  0
  9 25  1  0  0  0
 10 19  1  0  0  0
 10 20  1  0  0  0
 11 16  2  0  0  0
 11 18  1  0  0  0
 14 15  2  0  0  0
 14 26  1  0  0  0
 15 27  1  0  0  0
 17 28  1  0  0  0
 18 29  1  0  0  0
 19 30  1  0  0  0
 19 31  1  0  0  0
 19 32  1  0  0  0
 20 33  1  0  0  0
 20 34  1  0  0  0
 20 35  1  0  0  0
M  CHG  2   3   1  12  -1
M  END
> <s_m_entry_id>
6680

> <s_m_entry_name>
dock_pv.515

> <s_m_Source_Path>
/home/csk/Desktop/cluster/DUD-E-result/aldr

> <s_m_Source_File>
dock_pv.maegz

> <i_m_Source_File_Index>
515

> <chembl_id>
CHEMBL67264

> <chembl_pref_name>
None

> <i_lp_mmshare_version>
53161

> <i_f3d_flags>
0

> <r_lp_tautomer_probability>
1

> <s_lp_Force_Field>
OPLS_2005

> <r_lp_Energy>
18.276806

> <b_lp_Chiralities_Consistent>
1

> <s_lp_Variant>
CHEMBL1900_lig338-1

> <s_i_glide_gridfile>
glide-grid_2hv5

> <i_i_glide_lignum>
459

> <i_i_glide_rotatable_bonds>
5

> <r_i_docking_score>
-7.17815225120284

> <r_i_glide_ligand_efficiency>
-0.358907612560142

> <r_i_glide_ligand_efficiency_sa>
-0.97422514529043

> <r_i_glide_ligand_efficiency_ln>
-1.79645475716977

> <r_i_glide_gscore>
-7.17815225120284

> <r_i_glide_lipo>
-2.38496764468771

> <r_i_glide_hbond>
0

> <r_i_glide_metal>
0

> <r_i_glide_rewards>
-3.04922237775802

> <r_i_glide_evdw>
-32.8953475952148

> <r_i_glide_ecoul>
-3.70759510993958

> <r_i_glide_erotb>
0.456944417494567

> <r_i_glide_esite>
0

> <r_i_glide_emodel>
-48.5814078729356

> <r_i_glide_energy>
-36.6029427051544

> <r_i_glide_einternal>
5.17084741592407

> <i_i_glide_confnum>
11

> <i_i_glide_posenum>
235

> <r_i_glide_eff_state_penalty>
0

> <s_user_duplicate_titles>
CHEMBL1900_lig338,108641

> <s_m_subgroup_title>
dock_pv

> <s_m_subgroupid>
dock_pv

> <b_m_subgroup_collapsed>
1

$$$$
CHEMBL1900_lig101
                    3D
 Schrodinger Suite 2021-1.
 31 33  0  0  1  0            999 V2000
   16.5354   -8.9220   16.7932 C   0  0  1  0  0  0
   16.5219  -10.4178   17.0285 N   0  0  0  0  0  0
   15.1733   -8.4468   16.3221 C   0  0  0  0  0  0
   16.9625  -11.3330   16.0976 C   0  0  0  0  0  0
   16.6285   -8.1153   17.9889 N   0  0  0  0  0  0
   14.7909   -7.4740   17.1612 N   0  0  0  0  0  0
   17.5443   -8.5087   15.7008 C   0  0  0  0  0  0
   15.7187   -7.1429   18.0749 C   0  0  0  0  0  0
   17.5934  -10.8092   15.0316 N   0  0  0  0  0  0
   18.0174   -9.5051   14.8412 C   0  0  0  0  0  0
   16.8302  -12.5549   16.1658 O   0  0  0  0  0  0
   14.5450   -8.9233   15.3846 O   0  0  0  0  0  0
   15.7511   -6.1383   18.7798 O   0  0  0  0  0  0
   15.7031  -10.9639   18.1367 C   0  0  0  0  0  0
   18.0432   -7.2062   15.5378 C   0  0  0  0  0  0
   18.9428   -9.2217   13.8384 C   0  0  0  0  0  0
   14.2796  -11.3781   17.7589 C   0  0  0  0  0  0
   18.9782   -6.9141   14.5526 C   0  0  0  0  0  0
   19.4319   -7.9273   13.7172 C   0  0  0  0  0  0
   17.2782   -8.3320   18.7309 H   0  0  0  0  0  0
   13.8776   -7.0472   17.1267 H   0  0  0  0  0  0
   17.9081  -11.5114   14.3800 H   0  0  0  0  0  0
   15.6032  -10.2153   18.9200 H   0  0  0  0  0  0
   16.2017  -11.8284   18.5757 H   0  0  0  0  0  0
   17.7161   -6.4084   16.1871 H   0  0  0  0  0  0
   19.3109   -9.9990   13.1847 H   0  0  0  0  0  0
   13.7451  -11.7433   18.6358 H   0  0  0  0  0  0
   14.2573  -12.1665   17.0062 H   0  0  0  0  0  0
   13.7443  -10.5172   17.3802 H   0  0  0  0  0  0
   19.3658   -5.9103   14.4540 H   0  0  0  0  0  0
   20.1827   -7.7151   12.9810 H   0  0  0  0  0  0
  1  2  1  0  0  0
  1  3  1  0  0  0
  1  5  1  0  0  0
  1  7  1  0  0  0
  2  4  1  0  0  0
  2 14  1  0  0  0
  3  6  1  0  0  0
  3 12  2  0  0  0
  4 11  2  0  0  0
  4  9  1  0  0  0
  5  8  1  0  0  0
  5 20  1  0  0  0
  6  8  1  0  0  0
  6 21  1  0  0  0
  7 10  1  0  0  0
  7 15  2  0  0  0
  8 13  2  0  0  0
  9 10  1  0  0  0
  9 22  1  0  0  0
 10 16  2  0  0  0
 14 17  1  0  0  0
 14 23  1  0  0  0
 14 24  1  0  0  0
 15 18  1  0  0  0
 15 25  1  0  0  0
 16 19  1  0  0  0
 16 26  1  0  0  0
 17 27  1  0  0  0
 17 28  1  0  0  0
 17 29  1  0  0  0
 18 19  2  0  0  0
 18 30  1  0  0  0
 19 31  1  0  0  0
M  END
> <s_m_entry_id>
6681

> <s_m_entry_name>
dock_pv.516

> <s_m_Source_Path>
/home/csk/Desktop/cluster/DUD-E-result/aldr

> <s_m_Source_File>
dock_pv.maegz

> <i_m_Source_File_Index>
516

> <chembl_id>
CHEMBL63389

> <chembl_pref_name>
None

> <i_lp_mmshare_version>
53161

> <i_f3d_flags>
0

> <r_lp_tautomer_probability>
0.99999999978137

> <s_lp_Force_Field>
OPLS_2005

> <r_lp_Energy>
37.679172

> <b_lp_Chiralities_Consistent>
1

> <s_lp_Variant>
CHEMBL1900_lig101-2

> <s_i_glide_gridfile>
glide-grid_2hv5

> <i_i_glide_lignum>
144

> <i_i_glide_rotatable_bonds>
1

> <r_i_docking_score>
-7.17329407734832

> <r_i_glide_ligand_efficiency>
-0.377541793544649

> <r_i_glide_ligand_efficiency_sa>
-1.00743314336721

> <r_i_glide_ligand_efficiency_ln>
-1.81858411683788

> <r_i_glide_gscore>
-7.17329407734832

> <r_i_glide_lipo>
-1.62195465265104

> <r_i_glide_hbond>
0

> <r_i_glide_metal>
0

> <r_i_glide_rewards>
-3.78429640635622

> <r_i_glide_evdw>
-26.6944198608398

> <r_i_glide_ecoul>
-2.88214683532715

> <r_i_glide_erotb>
0

> <r_i_glide_esite>
0

> <r_i_glide_emodel>
-37.9718978007299

> <r_i_glide_energy>
-29.576566696167

> <r_i_glide_einternal>
0.924600005149841

> <i_i_glide_confnum>
1

> <i_i_glide_posenum>
5

> <r_i_glide_eff_state_penalty>
0

> <s_user_duplicate_titles>
CHEMBL1900_lig101

> <s_m_subgroup_title>
dock_pv

> <s_m_subgroupid>
dock_pv

> <b_m_subgroup_collapsed>
1

$$$$
CHEMBL1900_lig111
                    3D
 Schrodinger Suite 2021-1.
 31 33  0  0  1  0            999 V2000
   16.8054   -8.2226   16.5673 C   0  0  2  0  0  0
   17.7776   -8.1885   15.4221 N   0  0  0  0  0  0
   17.9316   -9.1938   14.5021 C   0  0  0  0  0  0
   16.1705   -9.6214   16.7836 C   0  0  0  0  0  0
   15.6735   -7.2201   16.3687 C   0  0  0  0  0  0
   17.3446   -7.6617   17.7850 N   0  0  0  0  0  0
   17.5219  -10.4235   14.9347 N   0  0  0  0  0  0
   15.5862   -6.5147   17.4990 N   0  0  0  0  0  0
   16.5608   -6.7573   18.3842 C   0  0  0  0  0  0
   16.5625  -10.6790   15.9454 C   0  0  0  0  0  0
   18.4239   -9.0002   13.3830 O   0  0  0  0  0  0
   14.9648   -7.0946   15.3812 O   0  0  0  0  0  0
   16.7840   -6.1165   19.4047 O   0  0  0  0  0  0
   18.4570   -6.9078   15.1314 C   0  0  0  0  0  0
   15.2116   -9.8846   17.7811 C   0  0  0  0  0  0
   17.9992  -11.5814   14.1454 C   0  0  0  0  0  0
   16.0035  -11.9585   16.1367 C   0  0  0  0  0  0
   14.6519  -11.1464   17.9481 C   0  0  0  0  0  0
   15.0512  -12.1875   17.1240 C   0  0  0  0  0  0
   17.9904   -8.2159   18.3282 H   0  0  0  0  0  0
   14.9301   -5.7633   17.6189 H   0  0  0  0  0  0
   19.2532   -6.9902   14.3890 H   0  0  0  0  0  0
   18.9178   -6.5153   16.0350 H   0  0  0  0  0  0
   17.7432   -6.1686   14.7672 H   0  0  0  0  0  0
   14.8842   -9.0981   18.4441 H   0  0  0  0  0  0
   17.1814  -12.0055   13.5609 H   0  0  0  0  0  0
   18.8058  -11.3441   13.4491 H   0  0  0  0  0  0
   18.3853  -12.3568   14.8077 H   0  0  0  0  0  0
   16.2771  -12.7968   15.5146 H   0  0  0  0  0  0
   13.9057  -11.3173   18.7106 H   0  0  0  0  0  0
   14.6187  -13.1695   17.2465 H   0  0  0  0  0  0
  1  2  1  0  0  0
  1  4  1  0  0  0
  1  5  1  0  0  0
  1  6  1  0  0  0
  2  3  1  0  0  0
  2 14  1  0  0  0
  3 11  2  0  0  0
  3  7  1  0  0  0
  4 10  1  0  0  0
  4 15  2  0  0  0
  5  8  1  0  0  0
  5 12  2  0  0  0
  6  9  1  0  0  0
  6 20  1  0  0  0
  7 10  1  0  0  0
  7 16  1  0  0  0
  8  9  1  0  0  0
  8 21  1  0  0  0
  9 13  2  0  0  0
 10 17  2  0  0  0
 14 22  1  0  0  0
 14 23  1  0  0  0
 14 24  1  0  0  0
 15 18  1  0  0  0
 15 25  1  0  0  0
 16 26  1  0  0  0
 16 27  1  0  0  0
 16 28  1  0  0  0
 17 19  1  0  0  0
 17 29  1  0  0  0
 18 19  2  0  0  0
 18 30  1  0  0  0
 19 31  1  0  0  0
M  END
> <s_m_entry_id>
6682

> <s_m_entry_name>
dock_pv.517

> <s_m_Source_Path>
/home/csk/Desktop/cluster/DUD-E-result/aldr

> <s_m_Source_File>
dock_pv.maegz

> <i_m_Source_File_Index>
517

> <chembl_id>
CHEMBL66636

> <chembl_pref_name>
None

> <i_lp_mmshare_version>
53161

> <i_f3d_flags>
0

> <r_lp_tautomer_probability>
0.99999999978137

> <s_lp_Force_Field>
OPLS_2005

> <r_lp_Energy>
44.851064

> <b_lp_Chiralities_Consistent>
1

> <s_lp_Variant>
CHEMBL1900_lig111-1

> <s_i_glide_gridfile>
glide-grid_2hv5

> <i_i_glide_lignum>
162

> <i_i_glide_rotatable_bonds>
0

> <r_i_docking_score>
-7.1689019577887

> <r_i_glide_ligand_efficiency>
-0.3773106293573

> <r_i_glide_ligand_efficiency_sa>
-1.00681630446916

> <r_i_glide_ligand_efficiency_ln>
-1.81747062019544

> <r_i_glide_gscore>
-7.1689019577887

> <r_i_glide_lipo>
-1.39770878859442

> <r_i_glide_hbond>
-0.142428759404472

> <r_i_glide_metal>
0

> <r_i_glide_rewards>
-4.07633475757576

> <r_i_glide_evdw>
-30.0571613311768

> <r_i_glide_ecoul>
-0.330477237701416

> <r_i_glide_erotb>
0

> <r_i_glide_esite>
0

> <r_i_glide_emodel>
-38.6140954973604

> <r_i_glide_energy>
-30.3876385688782

> <r_i_glide_einternal>
0

> <i_i_glide_confnum>
1

> <i_i_glide_posenum>
102

> <r_i_glide_eff_state_penalty>
0

> <s_user_duplicate_titles>
CHEMBL1900_lig111

> <s_m_subgroup_title>
dock_pv

> <s_m_subgroupid>
dock_pv

> <b_m_subgroup_collapsed>
1

$$$$
CHEMBL1900_lig137
                    3D
 Schrodinger Suite 2021-1.
 32 34  0  0  1  0            999 V2000
   16.2631   -9.6159   16.5976 C   0  0  1  0  0  0
   17.1393   -9.4863   15.3509 C   0  0  0  0  0  0
   16.1459   -8.2959   17.3197 N   0  0  0  0  0  0
   17.4522   -8.2004   14.9081 C   0  0  0  0  0  0
   14.8993  -10.1671   16.2289 C   0  0  0  0  0  0
   16.0823   -7.1114   16.6320 C   0  0  0  0  0  0
   18.4086   -8.0024   13.9174 C   0  0  0  0  0  0
   16.7136  -10.7282   17.3810 N   0  0  0  0  0  0
   16.7846   -7.1260   15.4869 N   0  0  0  0  0  0
   14.6756  -11.2013   17.0487 N   0  0  0  0  0  0
   18.8024   -6.6486   13.5191 N   0  3  0  0  0  0
   15.7423  -11.5520   17.7810 C   0  0  0  0  0  0
   19.2443  -11.6162   13.0659 N   0  3  0  0  0  0
   19.0274   -9.1111   13.3441 C   0  0  0  0  0  0
   18.6631  -10.4162   13.6997 C   0  0  0  0  0  0
   17.7214  -10.5844   14.7060 C   0  0  0  0  0  0
   19.6827   -6.1151   14.1810 O   0  5  0  0  0  0
   20.4633  -11.7117   12.9810 O   0  5  0  0  0  0
   15.4398   -6.1134   16.9565 O   0  0  0  0  0  0
   14.1450   -9.7150   15.3810 O   0  0  0  0  0  0
   18.2051   -6.1288   12.5831 O   0  0  0  0  0  0
   18.4671  -12.4945   12.7068 O   0  0  0  0  0  0
   15.8625  -12.5384   18.4978 O   0  0  0  0  0  0
   15.7296   -8.2423   18.7203 C   0  0  0  0  0  0
   17.5747  -10.6207   17.8939 H   0  0  0  0  0  0
   16.8475   -6.2228   15.0423 H   0  0  0  0  0  0
   13.8400  -11.7636   17.0034 H   0  0  0  0  0  0
   19.7500   -8.9151   12.5810 H   0  0  0  0  0  0
   17.4629  -11.5877   15.0178 H   0  0  0  0  0  0
   15.4292   -7.2390   19.0228 H   0  0  0  0  0  0
   14.8929   -8.9151   18.9058 H   0  0  0  0  0  0
   16.5450   -8.5150   19.3749 H   0  0  0  0  0  0
  1  2  1  0  0  0
  1  3  1  0  0  0
  1  5  1  0  0  0
  1  8  1  0  0  0
  2  4  1  0  0  0
  2 16  2  0  0  0
  3  6  1  0  0  0
  3 24  1  0  0  0
  4  7  2  0  0  0
  4  9  1  0  0  0
  5 10  1  0  0  0
  5 20  2  0  0  0
  6  9  1  0  0  0
  6 19  2  0  0  0
  7 11  1  0  0  0
  7 14  1  0  0  0
  8 12  1  0  0  0
  8 25  1  0  0  0
  9 26  1  0  0  0
 10 12  1  0  0  0
 10 27  1  0  0  0
 11 17  1  0  0  0
 11 21  2  0  0  0
 12 23  2  0  0  0
 13 15  1  0  0  0
 13 18  1  0  0  0
 13 22  2  0  0  0
 14 15  2  0  0  0
 14 28  1  0  0  0
 15 16  1  0  0  0
 16 29  1  0  0  0
 24 30  1  0  0  0
 24 31  1  0  0  0
 24 32  1  0  0  0
M  CHG  4  11   1  13   1  17  -1  18  -1
M  END
> <s_m_entry_id>
6683

> <s_m_entry_name>
dock_pv.518

> <s_m_Source_Path>
/home/csk/Desktop/cluster/DUD-E-result/aldr

> <s_m_Source_File>
dock_pv.maegz

> <i_m_Source_File_Index>
518

> <chembl_id>
CHEMBL65731

> <chembl_pref_name>
None

> <i_lp_mmshare_version>
53161

> <i_f3d_flags>
0

> <r_lp_tautomer_probability>
0.99999999978137

> <s_lp_Force_Field>
OPLS_2005

> <r_lp_Energy>
41.410466

> <b_lp_Chiralities_Consistent>
1

> <s_lp_Variant>
CHEMBL1900_lig137-1

> <s_i_glide_gridfile>
glide-grid_2hv5

> <i_i_glide_lignum>
210

> <i_i_glide_rotatable_bonds>
2

> <r_i_docking_score>
-7.16826700450361

> <r_i_glide_ligand_efficiency>
-0.298677791854317

> <r_i_glide_ligand_efficiency_sa>
-0.861535833011839

> <r_i_glide_ligand_efficiency_ln>
-1.71569522451716

> <r_i_glide_gscore>
-7.16826700450361

> <r_i_glide_lipo>
-1.52135548103554

> <r_i_glide_hbond>
-0.537600459794407

> <r_i_glide_metal>
0

> <r_i_glide_rewards>
-2.91670077272727

> <r_i_glide_evdw>
-32.4592895507812

> <r_i_glide_ecoul>
-3.71022176742554

> <r_i_glide_erotb>
0

> <r_i_glide_esite>
-0.0131125482934917

> <r_i_glide_emodel>
-42.1188864313107

> <r_i_glide_energy>
-36.1695113182068

> <r_i_glide_einternal>
3.6641321182251

> <i_i_glide_confnum>
1

> <i_i_glide_posenum>
25

> <r_i_glide_eff_state_penalty>
0

> <s_user_duplicate_titles>
CHEMBL1900_lig137

> <s_m_subgroup_title>
dock_pv

> <s_m_subgroupid>
dock_pv

> <b_m_subgroup_collapsed>
1

$$$$
CHEMBL1900_lig214
                    3D
 Schrodinger Suite 2021-1.
 42 45  0  0  1  0            999 V2000
   16.4360   -6.6921   17.2960 N   0  0  0  0  0  0
   16.2921   -4.9852   18.8590 C   0  0  0  0  0  0
   17.5744   -6.6389   17.9979 C   0  0  0  0  0  0
   16.0763   -7.6760   16.2581 C   0  0  0  0  0  0
   17.4518   -5.5865   18.9810 C   0  0  0  0  0  0
   17.1315   -7.9373   15.2017 C   0  0  0  0  0  0
   15.7779   -9.0755   16.7656 C   0  0  0  0  0  0
   15.5385   -5.7150   17.7810 C   0  0  0  0  0  0
   17.3465   -9.3084   15.0640 C   0  0  0  0  0  0
   16.4987  -10.0190   16.0337 C   0  0  0  0  0  0
   15.8672   -3.8473   19.6646 C   0  0  0  0  0  0
   18.5450   -7.3150   17.7810 O   0  0  0  0  0  0
   15.3446   -2.8407   19.1891 O   0  0  0  0  0  0
   18.5164   -5.3150   19.7810 O   0  0  0  0  0  0
   16.1235   -4.0638   20.9697 O   0  0  0  0  0  0
   17.8870   -7.0353   14.4512 C   0  0  0  0  0  0
   14.9450   -9.4987   17.8010 C   0  0  0  0  0  0
   16.3580  -11.3827   16.2996 C   0  0  0  0  0  0
   18.2725   -9.7867   14.1376 C   0  0  0  0  0  0
   15.7450   -3.1396   21.9667 C   0  0  0  0  0  0
   14.7945  -10.8616   18.0671 C   0  0  0  0  0  0
   18.8339   -7.5086   13.5480 C   0  0  0  0  0  0
   19.0151   -8.8812   13.3811 C   0  0  0  0  0  0
   15.4972  -11.8028   17.3143 C   0  0  0  0  0  0
   16.1450   -3.7150   23.3294 C   0  0  0  0  0  0
   15.1892   -7.3175   15.7346 H   0  0  0  0  0  0
   14.6452   -6.2251   18.1428 H   0  0  0  0  0  0
   15.2406   -5.0411   16.9810 H   0  0  0  0  0  0
   19.1860   -5.9901   19.6325 H   0  0  0  0  0  0
   17.7604   -5.9723   14.5667 H   0  0  0  0  0  0
   14.3919   -8.7830   18.3876 H   0  0  0  0  0  0
   16.9086  -12.1179   15.7315 H   0  0  0  0  0  0
   18.4416  -10.8462   14.0148 H   0  0  0  0  0  0
   14.6666   -2.9766   21.9346 H   0  0  0  0  0  0
   16.2234   -2.1749   21.7948 H   0  0  0  0  0  0
   14.1296  -11.1902   18.8528 H   0  0  0  0  0  0
   19.4297   -6.8097   12.9810 H   0  0  0  0  0  0
   19.7450   -9.2411   12.6769 H   0  0  0  0  0  0
   15.3772  -12.8565   17.5195 H   0  0  0  0  0  0
   15.8603   -3.0335   24.1309 H   0  0  0  0  0  0
   17.2209   -3.8786   23.3906 H   0  0  0  0  0  0
   15.6454   -4.6663   23.5153 H   0  0  0  0  0  0
  1  3  1  0  0  0
  1  4  1  0  0  0
  1  8  1  0  0  0
  2  8  1  0  0  0
  2 11  1  0  0  0
  2  5  2  0  0  0
  3  5  1  0  0  0
  3 12  2  0  0  0
  4  6  1  0  0  0
  4  7  1  0  0  0
  4 26  1  0  0  0
  5 14  1  0  0  0
  6  9  2  0  0  0
  6 16  1  0  0  0
  7 10  2  0  0  0
  7 17  1  0  0  0
  8 27  1  0  0  0
  8 28  1  0  0  0
  9 19  1  0  0  0
  9 10  1  0  0  0
 10 18  1  0  0  0
 11 13  2  0  0  0
 11 15  1  0  0  0
 14 29  1  0  0  0
 15 20  1  0  0  0
 16 22  2  0  0  0
 16 30  1  0  0  0
 17 21  2  0  0  0
 17 31  1  0  0  0
 18 24  2  0  0  0
 18 32  1  0  0  0
 19 23  2  0  0  0
 19 33  1  0  0  0
 20 25  1  0  0  0
 20 34  1  0  0  0
 20 35  1  0  0  0
 21 24  1  0  0  0
 21 36  1  0  0  0
 22 23  1  0  0  0
 22 37  1  0  0  0
 23 38  1  0  0  0
 24 39  1  0  0  0
 25 40  1  0  0  0
 25 41  1  0  0  0
 25 42  1  0  0  0
M  END
> <s_m_entry_id>
6684

> <s_m_entry_name>
dock_pv.519

> <s_m_Source_Path>
/home/csk/Desktop/cluster/DUD-E-result/aldr

> <s_m_Source_File>
dock_pv.maegz

> <i_m_Source_File_Index>
519

> <chembl_id>
CHEMBL7224

> <chembl_pref_name>
None

> <i_lp_mmshare_version>
53161

> <i_f3d_flags>
0

> <r_lp_tautomer_probability>
1

> <s_lp_Force_Field>
OPLS_2005

> <r_lp_Energy>
44.044731

> <b_lp_Chiralities_Consistent>
1

> <s_lp_Variant>
CHEMBL1900_lig214-1

> <s_i_glide_gridfile>
glide-grid_2hv5

> <i_i_glide_lignum>
290

> <i_i_glide_rotatable_bonds>
5

> <r_i_docking_score>
-7.1681594194144

> <r_i_glide_ligand_efficiency>
-0.286726376776576

> <r_i_glide_ligand_efficiency_sa>
-0.838393010808653

> <r_i_glide_ligand_efficiency_ln>
-1.69906859480472

> <r_i_glide_gscore>
-7.1681594194144

> <r_i_glide_lipo>
-3.77054218550301

> <r_i_glide_hbond>
-0.0296855225338746

> <r_i_glide_metal>
0

> <r_i_glide_rewards>
-2.88226108048538

> <r_i_glide_evdw>
-17.1606769561768

> <r_i_glide_ecoul>
-0.873808443546295

> <r_i_glide_erotb>
0.503434483448641

> <r_i_glide_esite>
0

> <r_i_glide_emodel>
-19.2390539537602

> <r_i_glide_energy>
-18.0344853997231

> <r_i_glide_einternal>
4.0340371131897

> <i_i_glide_confnum>
6

> <i_i_glide_posenum>
298

> <r_i_glide_eff_state_penalty>
0

> <s_user_duplicate_titles>
CHEMBL1900_lig214,1957

> <s_m_subgroup_title>
dock_pv

> <s_m_subgroupid>
dock_pv

> <b_m_subgroup_collapsed>
1

$$$$
CHEMBL1900_lig493
                    3D
 Schrodinger Suite 2021-1.
 44 45  0  0  1  0            999 V2000
   17.7068   -3.7499   10.3701 C   0  0  0  0  0  0
   16.4544   -3.7760    9.7610 C   0  0  0  0  0  0
   15.4777   -4.6696   10.1959 C   0  0  0  0  0  0
   15.7591   -5.5633   11.2350 C   0  0  0  0  0  0
   17.0227   -5.5677   11.8363 C   0  0  0  0  0  0
   17.9888   -4.6634   11.3813 C   0  0  0  0  0  0
   18.6506   -2.8260   10.0069 O   0  0  0  0  0  0
   16.1767   -2.9146    8.7423 O   0  0  0  0  0  0
   17.3832   -6.4320   12.9760 C   0  0  0  0  0  0
   16.5272   -6.9566   13.8773 C   0  0  0  0  0  0
   16.9890   -7.8053   14.9654 C   0  0  0  0  0  0
   15.9967   -8.5562   15.4839 O   0  0  0  0  0  0
   18.1487   -7.8251   15.3707 O   0  0  0  0  0  0
   16.2417   -9.5622   16.4801 C   0  0  2  0  0  0
   15.9715  -10.9589   15.8513 C   0  0  0  0  0  0
   15.3678   -9.2296   17.6996 C   0  0  0  0  0  0
   15.6375   -7.9825   18.1816 O   0  0  0  0  0  0
   14.5455  -10.0019   18.1821 O   0  0  0  0  0  0
   17.2407  -11.7252   15.4579 C   0  0  0  0  0  0
   17.9773  -12.5585   16.3364 C   0  0  0  0  0  0
   19.0989  -13.2366   15.8263 C   0  0  0  0  0  0
   19.5113  -13.0907   14.5022 C   0  0  0  0  0  0
   18.7870  -12.2607   13.6501 C   0  0  0  0  0  0
   17.6741  -11.5835   14.1317 C   0  0  0  0  0  0
   19.1644  -12.1043   12.3405 O   0  0  0  0  0  0
   20.6368  -13.7374   14.0562 O   0  0  0  0  0  0
   17.6501  -12.7404   17.7819 N   0  3  0  0  0  0
   18.5328  -13.1439   18.5326 O   0  0  0  0  0  0
   16.5341  -12.4764   18.2066 O   0  5  0  0  0  0
   14.4997   -4.6513    9.7416 H   0  0  0  0  0  0
   14.9834   -6.2381   11.5694 H   0  0  0  0  0  0
   18.9449   -4.6425   11.8698 H   0  0  0  0  0  0
   19.3864   -2.7759   10.6187 H   0  0  0  0  0  0
   16.8480   -2.2231    8.6966 H   0  0  0  0  0  0
   18.4406   -6.6548   13.0672 H   0  0  0  0  0  0
   15.4681   -6.7611   13.8174 H   0  0  0  0  0  0
   17.2722   -9.5393   16.8401 H   0  0  0  0  0  0
   15.3258  -11.5966   16.4508 H   0  0  0  0  0  0
   15.3434  -10.8168   14.9809 H   0  0  0  0  0  0
   16.3168   -7.5406   17.6627 H   0  0  0  0  0  0
   19.6781  -13.8793   16.4702 H   0  0  0  0  0  0
   17.1344  -10.9491   13.4481 H   0  0  0  0  0  0
   19.9580  -12.6170   12.1515 H   0  0  0  0  0  0
   21.1359  -14.1680   14.7527 H   0  0  0  0  0  0
  1  7  1  0  0  0
  1  6  1  0  0  0
  1  2  2  0  0  0
  2  8  1  0  0  0
  2  3  1  0  0  0
  3  4  2  0  0  0
  3 30  1  0  0  0
  4  5  1  0  0  0
  4 31  1  0  0  0
  5  9  1  0  0  0
  5  6  2  0  0  0
  6 32  1  0  0  0
  7 33  1  0  0  0
  8 34  1  0  0  0
  9 10  2  0  0  0
  9 35  1  0  0  0
 10 11  1  0  0  0
 10 36  1  0  0  0
 11 12  1  0  0  0
 11 13  2  0  0  0
 12 14  1  0  0  0
 14 15  1  0  0  0
 14 16  1  0  0  0
 14 37  1  0  0  0
 15 19  1  0  0  0
 15 38  1  0  0  0
 15 39  1  0  0  0
 16 17  1  0  0  0
 16 18  2  0  0  0
 17 40  1  0  0  0
 19 20  2  0  0  0
 19 24  1  0  0  0
 20 21  1  0  0  0
 20 27  1  0  0  0
 21 22  2  0  0  0
 21 41  1  0  0  0
 22 23  1  0  0  0
 22 26  1  0  0  0
 23 24  2  0  0  0
 23 25  1  0  0  0
 24 42  1  0  0  0
 25 43  1  0  0  0
 26 44  1  0  0  0
 27 28  2  0  0  0
 27 29  1  0  0  0
M  CHG  2  27   1  29  -1
M  END
> <s_m_entry_id>
6685

> <s_m_entry_name>
dock_pv.520

> <s_m_Source_Path>
/home/csk/Desktop/cluster/DUD-E-result/aldr

> <s_m_Source_File>
dock_pv.maegz

> <i_m_Source_File_Index>
520

> <chembl_id>
CHEMBL260778

> <chembl_pref_name>
None

> <i_lp_mmshare_version>
53161

> <i_f3d_flags>
0

> <r_lp_tautomer_probability>
0.999999999999776

> <s_lp_Force_Field>
OPLS_2005

> <r_lp_Energy>
17.787381

> <b_lp_Chiralities_Consistent>
1

> <s_lp_Variant>
CHEMBL1900_lig493-1

> <s_i_glide_gridfile>
glide-grid_2hv5

> <i_i_glide_lignum>
616

> <i_i_glide_rotatable_bonds>
13

> <r_i_docking_score>
-7.1649166791111

> <r_i_glide_ligand_efficiency>
-0.247066092383141

> <r_i_glide_ligand_efficiency_sa>
-0.75906531183318

> <r_i_glide_ligand_efficiency_ln>
-1.64058423290581

> <r_i_glide_gscore>
-7.1649166791111

> <r_i_glide_lipo>
-3.46766571017905

> <r_i_glide_hbond>
0

> <r_i_glide_metal>
0

> <r_i_glide_rewards>
-2.24579374546042

> <r_i_glide_evdw>
-42.3437080383301

> <r_i_glide_ecoul>
-0.579969525337219

> <r_i_glide_erotb>
0.837363985308889

> <r_i_glide_esite>
-0.0846403780634304

> <r_i_glide_emodel>
-50.6468629923928

> <r_i_glide_energy>
-42.9236775636673

> <r_i_glide_einternal>
11.9662895202637

> <i_i_glide_confnum>
323

> <i_i_glide_posenum>
331

> <r_i_glide_eff_state_penalty>
0

> <s_user_duplicate_titles>
CHEMBL1900_lig493

> <s_m_subgroup_title>
dock_pv

> <s_m_subgroupid>
dock_pv

> <b_m_subgroup_collapsed>
1

$$$$
CHEMBL1900_lig25
                    3D
 Schrodinger Suite 2021-1.
 30 31  0  0  1  0            999 V2000
   18.4955   -6.0009   12.7044 N   0  0  0  0  0  0
   17.3616   -8.5261   14.8184 C   0  0  0  0  0  0
   18.7021   -6.5143   13.9214 C   0  0  0  0  0  0
   15.6982   -7.8571   17.0281 S   0  0  0  0  0  0
   17.3619   -7.0560   14.3593 C   0  0  1  0  0  0
   17.2799   -6.2451   12.1820 C   0  0  0  0  0  0
   16.6362   -8.9664   15.9507 C   0  0  0  0  0  0
   16.5937   -6.8356   13.1644 N   0  0  0  0  0  0
   16.6350  -10.3292   16.2791 C   0  0  0  0  0  0
   18.0800   -9.4752   14.0696 C   0  0  0  0  0  0
   14.9479   -6.9150   16.1863 O   0  0  0  0  0  0
   14.9781   -8.6857   18.0019 O   0  0  0  0  0  0
   19.7452   -6.5179   14.5687 O   0  0  0  0  0  0
   16.9432   -6.1128   11.0114 O   0  0  0  0  0  0
   18.0730  -10.8234   14.4119 C   0  0  0  0  0  0
   17.0563   -6.9221   17.9576 C   0  0  0  0  0  0
   17.3452  -11.2518   15.5154 C   0  0  0  0  0  0
   18.9653  -11.9572   13.4651 Cl  0  0  0  0  0  0
   16.4482   -5.9017   18.9267 C   0  0  0  0  0  0
   19.2346   -5.5870   12.1616 H   0  0  0  0  0  0
   16.9928   -6.3747   15.1173 H   0  0  0  0  0  0
   15.5848   -6.8663   13.1820 H   0  0  0  0  0  0
   16.0824  -10.6887   17.1360 H   0  0  0  0  0  0
   18.6372   -9.1718   13.1938 H   0  0  0  0  0  0
   17.6443   -7.6662   18.4917 H   0  0  0  0  0  0
   17.7142   -6.4452   17.2339 H   0  0  0  0  0  0
   17.3316  -12.2990   15.7830 H   0  0  0  0  0  0
   17.2268   -5.3815   19.4894 H   0  0  0  0  0  0
   15.8648   -5.1516   18.3925 H   0  0  0  0  0  0
   15.7908   -6.3897   19.6472 H   0  0  0  0  0  0
  1  3  1  0  0  0
  1  6  1  0  0  0
  1 20  1  0  0  0
  2  5  1  0  0  0
  2  7  1  0  0  0
  2 10  2  0  0  0
  3  5  1  0  0  0
  3 13  2  0  0  0
  4  7  1  0  0  0
  4 11  2  0  0  0
  4 12  2  0  0  0
  4 16  1  0  0  0
  5  8  1  0  0  0
  5 21  1  0  0  0
  6  8  1  0  0  0
  6 14  2  0  0  0
  7  9  2  0  0  0
  8 22  1  0  0  0
  9 17  1  0  0  0
  9 23  1  0  0  0
 10 15  1  0  0  0
 10 24  1  0  0  0
 15 17  2  0  0  0
 15 18  1  0  0  0
 16 19  1  0  0  0
 16 25  1  0  0  0
 16 26  1  0  0  0
 17 27  1  0  0  0
 19 28  1  0  0  0
 19 29  1  0  0  0
 19 30  1  0  0  0
M  END
> <s_m_entry_id>
6686

> <s_m_entry_name>
dock_pv.521

> <s_m_Source_Path>
/home/csk/Desktop/cluster/DUD-E-result/aldr

> <s_m_Source_File>
dock_pv.maegz

> <i_m_Source_File_Index>
521

> <chembl_id>
CHEMBL19495

> <chembl_pref_name>
None

> <i_lp_mmshare_version>
53161

> <i_f3d_flags>
0

> <r_lp_tautomer_probability>
0.999999999781369

> <s_lp_Force_Field>
OPLS_2005

> <r_lp_Energy>
17.453959

> <b_lp_Chiralities_Consistent>
1

> <s_lp_Variant>
CHEMBL1900_lig25-2

> <s_i_glide_gridfile>
glide-grid_2hv5

> <i_i_glide_lignum>
47

> <i_i_glide_rotatable_bonds>
3

> <r_i_docking_score>
-7.15711195056586

> <r_i_glide_ligand_efficiency>
-0.376690102661361

> <r_i_glide_ligand_efficiency_sa>
-1.00516049001227

> <r_i_glide_ligand_efficiency_ln>
-1.81448160013831

> <r_i_glide_gscore>
-7.15711195056586

> <r_i_glide_lipo>
-2.20833189291552

> <r_i_glide_hbond>
0

> <r_i_glide_metal>
0

> <r_i_glide_rewards>
-3.26522991306473

> <r_i_glide_evdw>
-38.5482406616211

> <r_i_glide_ecoul>
-1.0535671710968

> <r_i_glide_erotb>
0.40189696415996

> <r_i_glide_esite>
0

> <r_i_glide_emodel>
-55.6592843600246

> <r_i_glide_energy>
-39.6018078327179

> <r_i_glide_einternal>
0.937206089496613

> <i_i_glide_confnum>
4

> <i_i_glide_posenum>
73

> <r_i_glide_eff_state_penalty>
0

> <s_user_duplicate_titles>
CHEMBL1900_lig25

> <s_m_subgroup_title>
dock_pv

> <s_m_subgroupid>
dock_pv

> <b_m_subgroup_collapsed>
1

$$$$
CHEMBL1900_lig523
                    3D
 Schrodinger Suite 2021-1.
 46 49  0  0  1  0            999 V2000
   16.6710   -6.9131   14.7817 C   0  0  0  0  0  0
   17.2284   -7.1251   13.5249 C   0  0  0  0  0  0
   17.8502   -8.3401   13.2647 C   0  0  0  0  0  0
   16.7040   -7.8666   15.8115 C   0  0  0  0  0  0
   17.1696   -9.1314   15.4692 C   0  0  0  0  0  0
   17.7141   -9.4106   14.1800 C   0  0  0  0  0  0
   17.8660  -10.8274   14.0817 C   0  0  0  0  0  0
   17.4388  -11.3534   15.2962 C   0  0  0  0  0  0
   17.1542  -10.3305   16.1842 N   0  0  0  0  0  0
   18.1613  -11.7186   12.5900 S   0  0  0  0  0  0
   19.6144  -12.6319   12.8671 C   0  0  0  0  0  0
   20.2851  -13.0795   11.7450 C   0  0  0  0  0  0
   21.4341  -13.8569   11.8516 C   0  0  0  0  0  0
   21.7915  -14.3242   13.1359 C   0  0  0  0  0  0
   21.0773  -13.9106   14.2639 C   0  0  0  0  0  0
   20.0491  -13.0000   14.1378 C   0  0  0  0  0  0
   16.6056  -10.5106   17.5308 C   0  0  0  0  0  0
   23.0266  -15.5728   13.3453 Cl  0  0  0  0  0  0
   17.1859  -12.8031   15.6801 C   0  0  0  0  0  0
   17.0373   -6.1329   12.4249 C   0  0  0  0  0  0
   18.0993   -5.3850   11.9010 C   0  0  0  0  0  0
   17.9010   -4.5222   10.8142 C   0  0  0  0  0  0
   16.6139   -4.3833   10.2645 C   0  0  0  0  0  0
   15.5539   -5.0976   10.7987 C   0  0  0  0  0  0
   15.7653   -5.9645   11.8748 C   0  0  0  0  0  0
   15.0891  -10.6212   17.5474 C   0  0  0  0  0  0
   14.6299  -11.6393   18.3566 O   0  0  0  0  0  0
   14.3767   -9.8543   16.8882 O   0  0  0  0  0  0
   16.1582   -5.9854   14.9697 H   0  0  0  0  0  0
   18.2442   -8.5155   12.2769 H   0  0  0  0  0  0
   16.2355   -7.6592   16.7668 H   0  0  0  0  0  0
   19.9153  -12.8104   10.7674 H   0  0  0  0  0  0
   21.9383  -14.2070   10.9568 H   0  0  0  0  0  0
   21.3522  -14.2883   15.2309 H   0  0  0  0  0  0
   19.5802  -12.6659   15.0317 H   0  0  0  0  0  0
   17.0535  -11.3977   17.9600 H   0  0  0  0  0  0
   16.8944   -9.6886   18.1810 H   0  0  0  0  0  0
   17.3526  -13.4892   14.8460 H   0  0  0  0  0  0
   17.8492  -13.1311   16.4925 H   0  0  0  0  0  0
   16.1606  -12.9680   15.9875 H   0  0  0  0  0  0
   19.0980   -5.4990   12.3002 H   0  0  0  0  0  0
   18.7136   -3.9618   10.3816 H   0  0  0  0  0  0
   16.4405   -3.7614    9.4103 H   0  0  0  0  0  0
   14.5546   -4.9954   10.3893 H   0  0  0  0  0  0
   14.9434   -6.5189   12.2765 H   0  0  0  0  0  0
   13.6792  -11.7142   18.2891 H   0  0  0  0  0  0
  1  2  2  0  0  0
  1  4  1  0  0  0
  1 29  1  0  0  0
  2 20  1  0  0  0
  2  3  1  0  0  0
  3  6  2  0  0  0
  3 30  1  0  0  0
  4  5  2  0  0  0
  4 31  1  0  0  0
  5  9  1  0  0  0
  5  6  1  0  0  0
  6  7  1  0  0  0
  7  8  2  0  0  0
  7 10  1  0  0  0
  8  9  1  0  0  0
  8 19  1  0  0  0
  9 17  1  0  0  0
 10 11  1  0  0  0
 11 16  1  0  0  0
 11 12  2  0  0  0
 12 13  1  0  0  0
 12 32  1  0  0  0
 13 14  2  0  0  0
 13 33  1  0  0  0
 14 15  1  0  0  0
 14 18  1  0  0  0
 15 16  2  0  0  0
 15 34  1  0  0  0
 16 35  1  0  0  0
 17 26  1  0  0  0
 17 36  1  0  0  0
 17 37  1  0  0  0
 19 38  1  0  0  0
 19 39  1  0  0  0
 19 40  1  0  0  0
 20 21  2  0  0  0
 20 25  1  0  0  0
 21 22  1  0  0  0
 21 41  1  0  0  0
 22 23  2  0  0  0
 22 42  1  0  0  0
 23 24  1  0  0  0
 23 43  1  0  0  0
 24 25  2  0  0  0
 24 44  1  0  0  0
 25 45  1  0  0  0
 26 27  1  0  0  0
 26 28  2  0  0  0
 27 46  1  0  0  0
M  END
> <s_m_entry_id>
6687

> <s_m_entry_name>
dock_pv.522

> <s_m_Source_Path>
/home/csk/Desktop/cluster/DUD-E-result/aldr

> <s_m_Source_File>
dock_pv.maegz

> <i_m_Source_File_Index>
522

> <chembl_id>
CHEMBL1917439

> <chembl_pref_name>
None

> <i_lp_mmshare_version>
53161

> <i_f3d_flags>
0

> <r_lp_tautomer_probability>
1

> <s_lp_Force_Field>
OPLS_2005

> <r_lp_Energy>
18.588054

> <b_lp_Chiralities_Consistent>
1

> <s_lp_Variant>
CHEMBL1900_lig523-1

> <s_i_glide_gridfile>
glide-grid_2hv5

> <i_i_glide_lignum>
646

> <i_i_glide_rotatable_bonds>
6

> <r_i_docking_score>
-7.15369436031888

> <r_i_glide_ligand_efficiency>
-0.255489084297103

> <r_i_glide_ligand_efficiency_sa>
-0.775815334949469

> <r_i_glide_ligand_efficiency_ln>
-1.65128269995489

> <r_i_glide_gscore>
-7.15369436031888

> <r_i_glide_lipo>
-4.05989748145917

> <r_i_glide_hbond>
0

> <r_i_glide_metal>
0

> <r_i_glide_rewards>
-2.15003348024884

> <r_i_glide_evdw>
-35.0675506591797

> <r_i_glide_ecoul>
1.45569157600403

> <r_i_glide_erotb>
0.59126039794751

> <r_i_glide_esite>
0

> <r_i_glide_emodel>
-37.1497703211675

> <r_i_glide_energy>
-33.6118590831757

> <r_i_glide_einternal>
9.51947021484375

> <i_i_glide_confnum>
87

> <i_i_glide_posenum>
336

> <r_i_glide_eff_state_penalty>
0

> <s_user_duplicate_titles>
CHEMBL1900_lig523

> <s_m_subgroup_title>
dock_pv

> <s_m_subgroupid>
dock_pv

> <b_m_subgroup_collapsed>
1

$$$$
CHEMBL1900_lig367
                    3D
 Schrodinger Suite 2021-1.
 33 34  0  0  1  0            999 V2000
   15.9790   -8.3225   16.7474 C   0  0  1  0  0  0
   16.9971   -8.3335   15.5822 C   0  0  0  0  0  0
   15.5364   -9.8060   17.0072 C   0  0  2  0  0  0
   17.4489  -10.7569   15.8243 O   0  0  0  0  0  0
   17.6646   -9.5316   15.2245 C   0  0  0  0  0  0
   16.5860   -7.7034   18.0596 C   0  0  0  0  0  0
   16.7966  -10.7064   17.0855 C   0  0  2  0  0  0
   16.6610   -6.1734   18.2435 C   0  0  0  0  0  0
   17.2874   -7.1924   14.8186 C   0  0  0  0  0  0
   14.8110   -7.5799   16.4408 O   0  0  0  0  0  0
   18.5451   -9.5821   14.1499 C   0  0  0  0  0  0
   16.1449   -5.3431   17.5020 O   0  0  0  0  0  0
   18.1877   -7.2356   13.7524 C   0  0  0  0  0  0
   17.3438   -5.8572   19.3773 O   0  0  0  0  0  0
   18.8114   -8.4359   13.4159 C   0  0  0  0  0  0
   18.4474   -6.1179   13.0381 F   0  0  0  0  0  0
   14.5683  -10.3646   15.9348 C   0  0  0  0  0  0
   16.5263  -12.1333   17.5890 C   0  0  0  0  0  0
   14.9995   -9.8641   17.9541 H   0  0  0  0  0  0
   17.5094  -10.2689   17.7811 H   0  0  0  0  0  0
   17.5999   -8.0804   18.1794 H   0  0  0  0  0  0
   16.0261   -8.0670   18.9235 H   0  0  0  0  0  0
   16.7917   -6.2608   15.0453 H   0  0  0  0  0  0
   14.1955   -7.6659   17.1718 H   0  0  0  0  0  0
   19.0170  -10.5145   13.8797 H   0  0  0  0  0  0
   17.7111   -6.6277   19.8148 H   0  0  0  0  0  0
   19.4931   -8.5058   12.5836 H   0  0  0  0  0  0
   15.0674  -10.5135   14.9841 H   0  0  0  0  0  0
   14.1456  -11.3238   16.2357 H   0  0  0  0  0  0
   13.7450   -9.6886   15.7429 H   0  0  0  0  0  0
   15.9384  -12.1301   18.5071 H   0  0  0  0  0  0
   15.9819  -12.7190   16.8480 H   0  0  0  0  0  0
   17.4600  -12.6577   17.7891 H   0  0  0  0  0  0
  1  2  1  0  0  0
  1  3  1  0  0  0
  1  6  1  0  0  0
  1 10  1  0  0  0
  2  5  2  0  0  0
  2  9  1  0  0  0
  3  7  1  0  0  0
  3 17  1  0  0  0
  3 19  1  0  0  0
  4  7  1  0  0  0
  4  5  1  0  0  0
  5 11  1  0  0  0
  6  8  1  0  0  0
  6 21  1  0  0  0
  6 22  1  0  0  0
  7 18  1  0  0  0
  7 20  1  0  0  0
  8 12  2  0  0  0
  8 14  1  0  0  0
  9 13  2  0  0  0
  9 23  1  0  0  0
 10 24  1  0  0  0
 11 15  2  0  0  0
 11 25  1  0  0  0
 13 15  1  0  0  0
 13 16  1  0  0  0
 14 26  1  0  0  0
 15 27  1  0  0  0
 17 28  1  0  0  0
 17 29  1  0  0  0
 17 30  1  0  0  0
 18 31  1  0  0  0
 18 32  1  0  0  0
 18 33  1  0  0  0
M  END
> <s_m_entry_id>
6688

> <s_m_entry_name>
dock_pv.523

> <s_m_Source_Path>
/home/csk/Desktop/cluster/DUD-E-result/aldr

> <s_m_Source_File>
dock_pv.maegz

> <i_m_Source_File_Index>
523

> <chembl_id>
CHEMBL69586

> <chembl_pref_name>
None

> <i_lp_mmshare_version>
53161

> <i_f3d_flags>
0

> <r_lp_tautomer_probability>
1

> <s_lp_Force_Field>
OPLS_2005

> <r_lp_Energy>
20.643809

> <b_lp_Chiralities_Consistent>
1

> <s_lp_Variant>
CHEMBL1900_lig367-1

> <s_i_glide_gridfile>
glide-grid_2hv5

> <i_i_glide_lignum>
488

> <i_i_glide_rotatable_bonds>
4

> <r_i_docking_score>
-7.15359913935438

> <r_i_glide_ligand_efficiency>
-0.397422174408576

> <r_i_glide_ligand_efficiency_sa>
-1.04154074244558

> <r_i_glide_ligand_efficiency_ln>
-1.83879577185264

> <r_i_glide_gscore>
-7.15359913935438

> <r_i_glide_lipo>
-2.66933032736053

> <r_i_glide_hbond>
0

> <r_i_glide_metal>
0

> <r_i_glide_rewards>
-3.0739595514283

> <r_i_glide_evdw>
-28.6532306671143

> <r_i_glide_ecoul>
-3.47776865959167

> <r_i_glide_erotb>
0.54401757172891

> <r_i_glide_esite>
0

> <r_i_glide_emodel>
-43.7828691630554

> <r_i_glide_energy>
-32.1309993267059

> <r_i_glide_einternal>
4.67129850387573

> <i_i_glide_confnum>
4

> <i_i_glide_posenum>
204

> <r_i_glide_eff_state_penalty>
0

> <s_user_duplicate_titles>
CHEMBL1900_lig367,109028

> <s_m_subgroup_title>
dock_pv

> <s_m_subgroupid>
dock_pv

> <b_m_subgroup_collapsed>
1

$$$$
CHEMBL1900_lig415
                    3D
 Schrodinger Suite 2021-1.
 24 25  0  0  1  0            999 V2000
   18.5919   -7.5281   14.1175 S   0  0  0  0  0  0
   17.4682   -6.6341   13.0090 C   0  0  0  0  0  0
   17.5870   -8.0576   15.5324 C   0  0  0  0  0  0
   16.2120   -6.9153   13.0500 N   0  0  0  0  0  0
   15.3440   -6.2599   12.1808 N   0  0  0  0  0  0
   17.9214   -5.6361   12.0701 C   0  0  0  0  0  0
   15.6345   -5.3127   11.2487 C   0  0  0  0  0  0
   17.3180   -7.1014   16.5181 C   0  0  0  0  0  0
   17.0498   -9.3532   15.6830 C   0  0  0  0  0  0
   19.5452   -6.5151   14.5810 O   0  0  0  0  0  0
   19.0632   -8.6964   13.3686 O   0  0  0  0  0  0
   17.0580   -5.0299   11.2197 C   0  0  0  0  0  0
   14.7813   -4.7436   10.5796 O   0  0  0  0  0  0
   16.2381   -9.6442   16.7818 C   0  0  0  0  0  0
   16.5067   -7.3994   17.6118 C   0  0  0  0  0  0
   17.3442  -10.6460   14.5729 Cl  0  0  0  0  0  0
   15.9591   -8.6722   17.7387 C   0  0  0  0  0  0
   16.1777   -6.1957   18.8044 Cl  0  0  0  0  0  0
   18.9452   -5.3363   12.0516 H   0  0  0  0  0  0
   17.7438   -6.1160   16.4332 H   0  0  0  0  0  0
   17.4054   -4.2752   10.5298 H   0  0  0  0  0  0
   14.3708   -6.5062   12.2805 H   0  0  0  0  0  0
   15.8174  -10.6331   16.8934 H   0  0  0  0  0  0
   15.3343   -8.9137   18.5860 H   0  0  0  0  0  0
  1  3  1  0  0  0
  1 10  2  0  0  0
  1 11  2  0  0  0
  1  2  1  0  0  0
  2  6  1  0  0  0
  2  4  2  0  0  0
  3  8  1  0  0  0
  3  9  2  0  0  0
  4  5  1  0  0  0
  5  7  1  0  0  0
  5 22  1  0  0  0
  6 12  2  0  0  0
  6 19  1  0  0  0
  7 13  2  0  0  0
  7 12  1  0  0  0
  8 15  2  0  0  0
  8 20  1  0  0  0
  9 14  1  0  0  0
  9 16  1  0  0  0
 12 21  1  0  0  0
 14 17  2  0  0  0
 14 23  1  0  0  0
 15 18  1  0  0  0
 15 17  1  0  0  0
 17 24  1  0  0  0
M  END
> <s_m_entry_id>
6689

> <s_m_entry_name>
dock_pv.524

> <s_m_Source_Path>
/home/csk/Desktop/cluster/DUD-E-result/aldr

> <s_m_Source_File>
dock_pv.maegz

> <i_m_Source_File_Index>
524

> <chembl_id>
CHEMBL371901

> <chembl_pref_name>
None

> <i_lp_mmshare_version>
53161

> <i_f3d_flags>
0

> <r_lp_tautomer_probability>
0.998994762270461

> <s_lp_Force_Field>
OPLS_2005

> <r_lp_Energy>
19.722666

> <b_lp_Chiralities_Consistent>
1

> <s_lp_Variant>
CHEMBL1900_lig415-1

> <s_i_glide_gridfile>
glide-grid_2hv5

> <i_i_glide_lignum>
537

> <i_i_glide_rotatable_bonds>
2

> <r_i_docking_score>
-7.14971823475312

> <r_i_glide_ligand_efficiency>
-0.397206568597396

> <r_i_glide_ligand_efficiency_sa>
-1.04097569537193

> <r_i_glide_ligand_efficiency_ln>
-1.83779820533643

> <r_i_glide_gscore>
-7.14971823475312

> <r_i_glide_lipo>
-3.29335793578375

> <r_i_glide_hbond>
0

> <r_i_glide_metal>
0

> <r_i_glide_rewards>
-2.65377131420678

> <r_i_glide_evdw>
-38.1180419921875

> <r_i_glide_ecoul>
2.04630613327026

> <r_i_glide_erotb>
0.396367194856246

> <r_i_glide_esite>
0

> <r_i_glide_emodel>
-49.153018458031

> <r_i_glide_energy>
-36.0717358589172

> <r_i_glide_einternal>
3.11513495445251

> <i_i_glide_confnum>
4

> <i_i_glide_posenum>
328

> <r_i_glide_eff_state_penalty>
0

> <s_user_duplicate_titles>
CHEMBL1900_lig415,329761

> <s_m_subgroup_title>
dock_pv

> <s_m_subgroupid>
dock_pv

> <b_m_subgroup_collapsed>
1

$$$$
CHEMBL1900_lig114
                    3D
 Schrodinger Suite 2021-1.
 28 30  0  0  1  0            999 V2000
   16.5264   -8.5161   17.0626 C   0  0  1  0  0  0
   16.1211   -9.9303   17.4053 N   0  0  0  0  0  0
   17.4803   -8.4362   15.8526 C   0  0  0  0  0  0
   15.2993   -7.7041   16.7096 C   0  0  0  0  0  0
   16.3211  -11.0103   16.5797 C   0  0  0  0  0  0
   16.9746   -7.7152   18.1808 N   0  0  0  0  0  0
   15.1968   -6.7301   17.6162 N   0  0  0  0  0  0
   16.1449   -6.7435   18.5631 C   0  0  0  0  0  0
   17.0856  -10.7745   15.4995 N   0  0  0  0  0  0
   17.7109   -9.6008   15.1154 C   0  0  0  0  0  0
   18.1447   -7.2656   15.4541 C   0  0  0  0  0  0
   15.8843  -12.1470   16.7561 O   0  0  0  0  0  0
   14.5450   -7.9307   15.7810 O   0  0  0  0  0  0
   16.1450   -6.1145   19.6165 O   0  0  0  0  0  0
   18.5583   -9.6047   14.0080 C   0  0  0  0  0  0
   15.1264  -10.1241   18.4803 C   0  0  0  0  0  0
   19.0041   -7.2597   14.3605 C   0  0  0  0  0  0
   19.2211   -8.4348   13.6450 C   0  0  0  0  0  0
   19.6396   -6.1185   14.0182 F   0  0  0  0  0  0
   17.9298   -7.7664   18.5038 H   0  0  0  0  0  0
   14.4021   -6.1145   17.6500 H   0  0  0  0  0  0
   17.2275  -11.5983   14.9353 H   0  0  0  0  0  0
   18.0015   -6.3458   16.0007 H   0  0  0  0  0  0
   18.7330  -10.5114   13.4464 H   0  0  0  0  0  0
   14.1450   -9.8420   18.1107 H   0  0  0  0  0  0
   15.3449   -9.4909   19.3396 H   0  0  0  0  0  0
   15.0622  -11.1539   18.8371 H   0  0  0  0  0  0
   19.9197   -8.4478   12.8242 H   0  0  0  0  0  0
  1  2  1  0  0  0
  1  3  1  0  0  0
  1  4  1  0  0  0
  1  6  1  0  0  0
  2  5  1  0  0  0
  2 16  1  0  0  0
  3 10  1  0  0  0
  3 11  2  0  0  0
  4  7  1  0  0  0
  4 13  2  0  0  0
  5 12  2  0  0  0
  5  9  1  0  0  0
  6  8  1  0  0  0
  6 20  1  0  0  0
  7  8  1  0  0  0
  7 21  1  0  0  0
  8 14  2  0  0  0
  9 10  1  0  0  0
  9 22  1  0  0  0
 10 15  2  0  0  0
 11 17  1  0  0  0
 11 23  1  0  0  0
 15 18  1  0  0  0
 15 24  1  0  0  0
 16 25  1  0  0  0
 16 26  1  0  0  0
 16 27  1  0  0  0
 17 18  2  0  0  0
 17 19  1  0  0  0
 18 28  1  0  0  0
M  END
> <s_m_entry_id>
6690

> <s_m_entry_name>
dock_pv.525

> <s_m_Source_Path>
/home/csk/Desktop/cluster/DUD-E-result/aldr

> <s_m_Source_File>
dock_pv.maegz

> <i_m_Source_File_Index>
525

> <chembl_id>
CHEMBL66588

> <chembl_pref_name>
None

> <i_lp_mmshare_version>
53161

> <i_f3d_flags>
0

> <r_lp_tautomer_probability>
0.99999999978137

> <s_lp_Force_Field>
OPLS_2005

> <r_lp_Energy>
34.972821

> <b_lp_Chiralities_Consistent>
1

> <s_lp_Variant>
CHEMBL1900_lig114-2

> <s_i_glide_gridfile>
glide-grid_2hv5

> <i_i_glide_lignum>
169

> <i_i_glide_rotatable_bonds>
0

> <r_i_docking_score>
-7.14587193070378

> <r_i_glide_ligand_efficiency>
-0.37609852266862

> <r_i_glide_ligand_efficiency_sa>
-1.00358191698584

> <r_i_glide_ligand_efficiency_ln>
-1.81163201368979

> <r_i_glide_gscore>
-7.14587193070378

> <r_i_glide_lipo>
-1.55724784730272

> <r_i_glide_hbond>
-0.0470112214083959

> <r_i_glide_metal>
0

> <r_i_glide_rewards>
-3.94097494924242

> <r_i_glide_evdw>
-27.7974414825439

> <r_i_glide_ecoul>
-1.40510559082031

> <r_i_glide_erotb>
0

> <r_i_glide_esite>
0

> <r_i_glide_emodel>
-38.772407396877

> <r_i_glide_energy>
-29.2025470733643

> <r_i_glide_einternal>
0

> <i_i_glide_confnum>
1

> <i_i_glide_posenum>
50

> <r_i_glide_eff_state_penalty>
0

> <s_user_duplicate_titles>
CHEMBL1900_lig114,CHEMBL1900_lig130

> <s_m_subgroup_title>
dock_pv

> <s_m_subgroupid>
dock_pv

> <b_m_subgroup_collapsed>
1

$$$$
CHEMBL1900_lig555
                    3D
 Schrodinger Suite 2021-1.
 28 31  0  0  1  0            999 V2000
   17.0749   -8.1470   16.1598 C   0  0  0  0  0  0
   17.2651   -9.3832   15.5427 C   0  0  0  0  0  0
   16.5406  -10.5588   16.0420 C   0  0  0  0  0  0
   15.6711  -10.3872   17.1236 C   0  0  0  0  0  0
   15.4660   -9.1526   17.7354 O   0  0  0  0  0  0
   16.1156   -8.0233   17.3040 C   0  0  0  0  0  0
   16.7405  -11.8051   15.4442 C   0  0  0  0  0  0
   16.0137  -12.8976   15.9337 C   0  0  0  0  0  0
   15.1318  -12.7456   17.0088 C   0  0  0  0  0  0
   14.9728  -11.4890   17.6143 C   0  0  0  0  0  0
   18.1540   -9.5475   14.4745 C   0  0  0  0  0  0
   18.3679  -10.7862   13.8735 O   0  0  0  0  0  0
   17.7166  -11.9233   14.3099 C   0  0  0  0  0  0
   17.8010   -7.0590   15.6840 C   0  0  0  0  0  0
   18.6848   -7.1865   14.6115 C   0  0  0  0  0  0
   18.8873   -8.4429   14.0216 C   0  0  0  0  0  0
   14.1449  -11.3174   18.6887 O   0  0  0  0  0  0
   14.4499  -13.8473   17.4640 O   0  0  0  0  0  0
   17.9811  -12.9708   13.7226 O   0  0  0  0  0  0
   19.8373   -8.6124   13.0497 O   0  0  0  0  0  0
   19.3471   -6.0643   14.1809 O   0  0  0  0  0  0
   15.8567   -6.9758   17.8975 O   0  0  0  0  0  0
   16.1356  -13.8733   15.4851 H   0  0  0  0  0  0
   17.6992   -6.1155   16.1826 H   0  0  0  0  0  0
   13.3003  -11.7800   18.5968 H   0  0  0  0  0  0
   13.9361  -13.6866   18.2587 H   0  0  0  0  0  0
   20.5058   -7.9254   12.9885 H   0  0  0  0  0  0
   19.8818   -6.1851   13.3941 H   0  0  0  0  0  0
  1  2  2  0  0  0
  1  6  1  0  0  0
  1 14  1  0  0  0
  2  3  1  0  0  0
  2 11  1  0  0  0
  3  4  2  0  0  0
  3  7  1  0  0  0
  4  5  1  0  0  0
  4 10  1  0  0  0
  5  6  1  0  0  0
  6 22  2  0  0  0
  7  8  2  0  0  0
  7 13  1  0  0  0
  8  9  1  0  0  0
  8 23  1  0  0  0
  9 10  2  0  0  0
  9 18  1  0  0  0
 10 17  1  0  0  0
 11 12  1  0  0  0
 11 16  2  0  0  0
 12 13  1  0  0  0
 13 19  2  0  0  0
 14 15  2  0  0  0
 14 24  1  0  0  0
 15 16  1  0  0  0
 15 21  1  0  0  0
 16 20  1  0  0  0
 17 25  1  0  0  0
 18 26  1  0  0  0
 20 27  1  0  0  0
 21 28  1  0  0  0
M  END
> <s_m_entry_id>
6692

> <s_m_entry_name>
dock_pv.527

> <s_m_Source_Path>
/home/csk/Desktop/cluster/DUD-E-result/aldr

> <s_m_Source_File>
dock_pv.maegz

> <i_m_Source_File_Index>
527

> <chembl_id>
CHEMBL6246

> <chembl_pref_name>
ELLAGIC ACID

> <i_lp_mmshare_version>
53161

> <i_f3d_flags>
0

> <r_lp_tautomer_probability>
1

> <s_lp_Force_Field>
OPLS_2005

> <r_lp_Energy>
22.030821

> <b_lp_Chiralities_Consistent>
1

> <s_lp_Variant>
CHEMBL1900_lig555-1

> <s_i_glide_gridfile>
glide-grid_2hv5

> <i_i_glide_lignum>
678

> <i_i_glide_rotatable_bonds>
4

> <r_i_docking_score>
-7.14539678773096

> <r_i_glide_ligand_efficiency>
-0.32479076307868

> <r_i_glide_ligand_efficiency_sa>
-0.910076491442342

> <r_i_glide_ligand_efficiency_ln>
-1.74659560960198

> <r_i_glide_gscore>
-7.14539678773096

> <r_i_glide_lipo>
-2.69294445435942

> <r_i_glide_hbond>
0

> <r_i_glide_metal>
0

> <r_i_glide_rewards>
-2.18410771648159

> <r_i_glide_evdw>
-27.0251274108887

> <r_i_glide_ecoul>
-6.11392164230347

> <r_i_glide_erotb>
0

> <r_i_glide_esite>
0

> <r_i_glide_emodel>
-44.7893533442422

> <r_i_glide_energy>
-33.1390490531921

> <r_i_glide_einternal>
0.878754079341888

> <i_i_glide_confnum>
1

> <i_i_glide_posenum>
1

> <r_i_glide_eff_state_penalty>
0

> <s_user_duplicate_titles>
CHEMBL1900_lig555

> <s_m_subgroup_title>
dock_pv

> <s_m_subgroupid>
dock_pv

> <b_m_subgroup_collapsed>
1

$$$$
CHEMBL1900_lig233
                    3D
 Schrodinger Suite 2021-1.
 23 24  0  0  1  0            999 V2000
   16.1488   -6.8085   17.8819 C   0  0  0  0  0  0
   16.0257   -8.0929   18.2926 C   0  0  0  0  0  0
   15.6924   -7.3853   15.6127 C   0  0  2  0  0  0
   16.1595   -6.4262   16.5720 O   0  0  0  0  0  0
   16.1006   -8.8734   15.9008 C   0  0  2  0  0  0
   15.9122   -9.2081   17.3796 C   0  0  0  0  0  0
   16.2277   -6.9154   14.2623 C   0  0  0  0  0  0
   17.5108   -9.1913   15.3906 C   0  0  0  0  0  0
   16.2817   -5.7296   18.8502 C   0  0  0  0  0  0
   17.3373   -7.4232   13.6992 C   0  0  0  0  0  0
   18.0450   -8.5040   14.3603 C   0  0  0  0  0  0
   15.6858  -10.3478   17.7802 O   0  0  0  0  0  0
   16.1456   -5.8553   20.0670 O   0  0  0  0  0  0
   16.5449   -4.5168   18.2834 O   0  0  0  0  0  0
   17.7459   -6.9661   12.4916 O   0  0  0  0  0  0
   16.0181   -8.3133   19.3520 H   0  0  0  0  0  0
   14.6037   -7.3304   15.5922 H   0  0  0  0  0  0
   15.4195   -9.5415   15.3744 H   0  0  0  0  0  0
   15.7104   -6.1155   13.7586 H   0  0  0  0  0  0
   18.0774  -10.0106   15.8108 H   0  0  0  0  0  0
   19.0365   -8.7585   14.0151 H   0  0  0  0  0  0
   16.6481   -3.8503   18.9676 H   0  0  0  0  0  0
   17.1608   -6.2643   12.1998 H   0  0  0  0  0  0
  1  2  2  0  0  0
  1  4  1  0  0  0
  1  9  1  0  0  0
  2  6  1  0  0  0
  2 16  1  0  0  0
  3  4  1  0  0  0
  3  5  1  0  0  0
  3  7  1  0  0  0
  3 17  1  0  0  0
  5  8  1  0  0  0
  5  6  1  0  0  0
  5 18  1  0  0  0
  6 12  2  0  0  0
  7 10  2  0  0  0
  7 19  1  0  0  0
  8 11  2  0  0  0
  8 20  1  0  0  0
  9 13  2  0  0  0
  9 14  1  0  0  0
 10 11  1  0  0  0
 10 15  1  0  0  0
 11 21  1  0  0  0
 14 22  1  0  0  0
 15 23  1  0  0  0
M  END
> <s_m_entry_id>
6693

> <s_m_entry_name>
dock_pv.528

> <s_m_Source_Path>
/home/csk/Desktop/cluster/DUD-E-result/aldr

> <s_m_Source_File>
dock_pv.maegz

> <i_m_Source_File_Index>
528

> <chembl_id>
CHEMBL422920

> <chembl_pref_name>
None

> <i_lp_mmshare_version>
53161

> <i_f3d_flags>
0

> <r_lp_tautomer_probability>
1

> <s_lp_Force_Field>
OPLS_2005

> <r_lp_Energy>
6.871307

> <b_lp_Chiralities_Consistent>
1

> <s_lp_Variant>
CHEMBL1900_lig233-3

> <s_i_glide_gridfile>
glide-grid_2hv5

> <i_i_glide_lignum>
343

> <i_i_glide_rotatable_bonds>
3

> <r_i_docking_score>
-7.1445176170518

> <r_i_glide_ligand_efficiency>
-0.47630117447012

> <r_i_glide_ligand_efficiency_sa>
-1.17465970643565

> <r_i_glide_ligand_efficiency_ln>
-1.92675860076762

> <r_i_glide_gscore>
-7.1445176170518

> <r_i_glide_lipo>
-1.94851671764036

> <r_i_glide_hbond>
-0.23298208326435

> <r_i_glide_metal>
0

> <r_i_glide_rewards>
-3.54633780150417

> <r_i_glide_evdw>
-27.3332786560059

> <r_i_glide_ecoul>
-2.87954449653625

> <r_i_glide_erotb>
0.381914592637822

> <r_i_glide_esite>
0

> <r_i_glide_emodel>
-43.1176465712813

> <r_i_glide_energy>
-30.2128231525421

> <r_i_glide_einternal>
0.122600622475147

> <i_i_glide_confnum>
1

> <i_i_glide_posenum>
281

> <r_i_glide_eff_state_penalty>
0

> <s_user_duplicate_titles>
CHEMBL1900_lig233

> <s_m_subgroup_title>
dock_pv

> <s_m_subgroupid>
dock_pv

> <b_m_subgroup_collapsed>
1

$$$$
CHEMBL1900_lig29
                    3D
 Schrodinger Suite 2021-1.
 27 28  0  0  1  0            999 V2000
   18.4973   -6.0037   12.7094 N   0  0  0  0  0  0
   17.3641   -8.5255   14.8288 C   0  0  0  0  0  0
   18.7050   -6.5147   13.9298 C   0  0  0  0  0  0
   15.6772   -7.8670   17.0272 S   0  0  0  0  0  0
   17.3642   -7.0570   14.3657 C   0  0  1  0  0  0
   17.2799   -6.2390   12.1917 C   0  0  0  0  0  0
   16.6390   -8.9659   15.9608 C   0  0  0  0  0  0
   16.5971   -6.8382   13.1711 N   0  0  0  0  0  0
   16.6554  -10.3255   16.3025 C   0  0  0  0  0  0
   18.0824   -9.4755   14.0811 C   0  0  0  0  0  0
   14.9473   -6.9158   16.1823 O   0  0  0  0  0  0
   14.9448   -8.7027   17.9812 O   0  0  0  0  0  0
   19.7479   -6.5175   14.5767 O   0  0  0  0  0  0
   16.9299   -6.0881   11.0257 O   0  0  0  0  0  0
   18.0800  -10.8223   14.4274 C   0  0  0  0  0  0
   17.3666  -11.2480   15.5401 C   0  0  0  0  0  0
   16.9815   -6.9240   17.9979 C   0  0  0  0  0  0
   18.7699  -11.7149   13.6801 F   0  0  0  0  0  0
   19.2361   -5.5958   12.1648 H   0  0  0  0  0  0
   17.0023   -6.3772   15.1269 H   0  0  0  0  0  0
   15.5869   -6.8734   13.1904 H   0  0  0  0  0  0
   16.1081  -10.6875   17.1628 H   0  0  0  0  0  0
   18.6354   -9.1794   13.1985 H   0  0  0  0  0  0
   17.3618  -12.2957   15.8065 H   0  0  0  0  0  0
   16.4763   -6.2225   18.6585 H   0  0  0  0  0  0
   17.5577   -7.6404   18.5809 H   0  0  0  0  0  0
   17.6388   -6.3921   17.3115 H   0  0  0  0  0  0
  1  3  1  0  0  0
  1  6  1  0  0  0
  1 19  1  0  0  0
  2  5  1  0  0  0
  2  7  1  0  0  0
  2 10  2  0  0  0
  3  5  1  0  0  0
  3 13  2  0  0  0
  4  7  1  0  0  0
  4 11  2  0  0  0
  4 12  2  0  0  0
  4 17  1  0  0  0
  5  8  1  0  0  0
  5 20  1  0  0  0
  6  8  1  0  0  0
  6 14  2  0  0  0
  7  9  2  0  0  0
  8 21  1  0  0  0
  9 16  1  0  0  0
  9 22  1  0  0  0
 10 15  1  0  0  0
 10 23  1  0  0  0
 15 16  2  0  0  0
 15 18  1  0  0  0
 16 24  1  0  0  0
 17 25  1  0  0  0
 17 26  1  0  0  0
 17 27  1  0  0  0
M  END
> <s_m_entry_id>
6694

> <s_m_entry_name>
dock_pv.529

> <s_m_Source_Path>
/home/csk/Desktop/cluster/DUD-E-result/aldr

> <s_m_Source_File>
dock_pv.maegz

> <i_m_Source_File_Index>
529

> <chembl_id>
CHEMBL19885

> <chembl_pref_name>
None

> <i_lp_mmshare_version>
53161

> <i_f3d_flags>
0

> <r_lp_tautomer_probability>
0.999999999781369

> <s_lp_Force_Field>
OPLS_2005

> <r_lp_Energy>
18.469416

> <b_lp_Chiralities_Consistent>
1

> <s_lp_Variant>
CHEMBL1900_lig29-2

> <s_i_glide_gridfile>
glide-grid_2hv5

> <i_i_glide_lignum>
55

> <i_i_glide_rotatable_bonds>
2

> <r_i_docking_score>
-7.1434486498659

> <r_i_glide_ligand_efficiency>
-0.396858258325883

> <r_i_glide_ligand_efficiency_sa>
-1.04006286422623

> <r_i_glide_ligand_efficiency_ln>
-1.83618664086975

> <r_i_glide_gscore>
-7.1434486498659

> <r_i_glide_lipo>
-1.76333503566405

> <r_i_glide_hbond>
0

> <r_i_glide_metal>
0

> <r_i_glide_rewards>
-3.69148453993598

> <r_i_glide_evdw>
-35.3426284790039

> <r_i_glide_ecoul>
-1.08826696872711

> <r_i_glide_erotb>
0.241742394993398

> <r_i_glide_esite>
0

> <r_i_glide_emodel>
-51.3894640683589

> <r_i_glide_energy>
-36.430895447731

> <r_i_glide_einternal>
0.541127800941467

> <i_i_glide_confnum>
1

> <i_i_glide_posenum>
276

> <r_i_glide_eff_state_penalty>
0

> <s_user_duplicate_titles>
CHEMBL1900_lig29

> <s_m_subgroup_title>
dock_pv

> <s_m_subgroupid>
dock_pv

> <b_m_subgroup_collapsed>
1

$$$$
CHEMBL1900_lig107
                    3D
 Schrodinger Suite 2021-1.
 25 27  0  0  1  0            999 V2000
   16.3175   -9.4880   16.9403 C   0  0  2  0  0  0
   16.7865  -10.7792   17.3646 N   0  0  0  0  0  0
   16.1611   -8.5165   18.0595 N   0  0  0  0  0  0
   14.9438   -9.9414   16.4625 C   0  0  0  0  0  0
   14.7461  -11.1522   17.0059 N   0  0  0  0  0  0
   17.1572   -8.8958   15.7835 C   0  0  0  0  0  0
   15.7983  -11.6110   17.7015 C   0  0  0  0  0  0
   16.2473   -7.1686   17.9511 C   0  0  0  0  0  0
   16.8730   -6.7494   16.8339 N   0  0  0  0  0  0
   17.4177   -7.5184   15.8071 C   0  0  0  0  0  0
   14.1660   -9.3151   15.7512 O   0  0  0  0  0  0
   15.8346  -12.5151   18.5298 O   0  0  0  0  0  0
   15.7797   -6.3980   18.7836 O   0  0  0  0  0  0
   17.7441   -9.6577   14.7586 C   0  0  0  0  0  0
   18.2234   -6.9164   14.8370 C   0  0  0  0  0  0
   18.5431   -9.0607   13.7827 C   0  0  0  0  0  0
   18.7852   -7.6894   13.8236 C   0  0  0  0  0  0
   17.7644  -11.0232   17.3824 H   0  0  0  0  0  0
   15.6968   -8.8501   18.8908 H   0  0  0  0  0  0
   13.9110  -11.6962   16.8530 H   0  0  0  0  0  0
   17.0086   -5.7514   16.8082 H   0  0  0  0  0  0
   17.5761  -10.7241   14.7138 H   0  0  0  0  0  0
   18.4356   -5.8575   14.8691 H   0  0  0  0  0  0
   18.9828   -9.6618   13.0000 H   0  0  0  0  0  0
   19.4164   -7.2264   13.0790 H   0  0  0  0  0  0
  1  2  1  0  0  0
  1  3  1  0  0  0
  1  4  1  0  0  0
  1  6  1  0  0  0
  2  7  1  0  0  0
  2 18  1  0  0  0
  3  8  1  0  0  0
  3 19  1  0  0  0
  4  5  1  0  0  0
  4 11  2  0  0  0
  5  7  1  0  0  0
  5 20  1  0  0  0
  6 10  1  0  0  0
  6 14  2  0  0  0
  7 12  2  0  0  0
  8 13  2  0  0  0
  8  9  1  0  0  0
  9 10  1  0  0  0
  9 21  1  0  0  0
 10 15  2  0  0  0
 14 16  1  0  0  0
 14 22  1  0  0  0
 15 17  1  0  0  0
 15 23  1  0  0  0
 16 17  2  0  0  0
 16 24  1  0  0  0
 17 25  1  0  0  0
M  END
> <s_m_entry_id>
6695

> <s_m_entry_name>
dock_pv.530

> <s_m_Source_Path>
/home/csk/Desktop/cluster/DUD-E-result/aldr

> <s_m_Source_File>
dock_pv.maegz

> <i_m_Source_File_Index>
530

> <chembl_id>
CHEMBL63855

> <chembl_pref_name>
None

> <i_lp_mmshare_version>
53161

> <i_f3d_flags>
0

> <r_lp_tautomer_probability>
0.99999999978137

> <s_lp_Force_Field>
OPLS_2005

> <r_lp_Energy>
29.446738

> <b_lp_Chiralities_Consistent>
1

> <s_lp_Variant>
CHEMBL1900_lig107-2

> <s_i_glide_gridfile>
glide-grid_2hv5

> <i_i_glide_lignum>
155

> <i_i_glide_rotatable_bonds>
0

> <r_i_docking_score>
-7.13540046449416

> <r_i_glide_ligand_efficiency>
-0.419729439087892

> <r_i_glide_ligand_efficiency_sa>
-1.07924257876476

> <r_i_glide_ligand_efficiency_ln>
-1.86146708363058

> <r_i_glide_gscore>
-7.13540046449416

> <r_i_glide_lipo>
-1.58914193565492

> <r_i_glide_hbond>
-0.297728711275194

> <r_i_glide_metal>
0

> <r_i_glide_rewards>
-3.25133918555938

> <r_i_glide_evdw>
-28.6843280792236

> <r_i_glide_ecoul>
-3.67428302764893

> <r_i_glide_erotb>
0

> <r_i_glide_esite>
-0.0118317738961472

> <r_i_glide_emodel>
-45.403658547468

> <r_i_glide_energy>
-32.3586111068726

> <r_i_glide_einternal>
0

> <i_i_glide_confnum>
1

> <i_i_glide_posenum>
16

> <r_i_glide_eff_state_penalty>
0

> <s_user_duplicate_titles>
CHEMBL1900_lig107

> <s_m_subgroup_title>
dock_pv

> <s_m_subgroupid>
dock_pv

> <b_m_subgroup_collapsed>
1

$$$$
CHEMBL1900_lig36
                    3D
 Schrodinger Suite 2021-1.
 25 26  0  0  1  0            999 V2000
   15.2620   -6.6779   17.8546 N   0  0  0  0  0  0
   15.6631   -6.9094   16.6085 C   0  0  0  0  0  0
   16.2443   -6.6068   18.7613 C   0  0  0  0  0  0
   17.1304   -7.2452   16.7026 C   0  0  2  0  0  0
   17.3846   -8.6632   16.1552 C   0  0  0  0  0  0
   17.3426   -7.0291   18.1180 N   0  0  0  0  0  0
   17.7715   -8.8910   14.8177 C   0  0  0  0  0  0
   17.1751   -9.7758   16.9812 C   0  0  0  0  0  0
   14.9598   -6.9266   15.6082 O   0  0  0  0  0  0
   16.1512   -6.1150   19.8825 O   0  0  0  0  0  0
   17.9464  -10.1953   14.3479 C   0  0  0  0  0  0
   17.3536  -11.0743   16.5114 C   0  0  0  0  0  0
   17.9983   -7.5671   13.6657 S   0  0  0  0  0  0
   17.7396  -11.2858   15.1906 C   0  0  0  0  0  0
   17.0981  -12.4095   17.5745 Cl  0  0  0  0  0  0
   19.6164   -6.8569   14.0492 C   0  0  0  0  0  0
   14.2952   -6.5135   18.0898 H   0  0  0  0  0  0
   17.7106   -6.4866   16.1820 H   0  0  0  0  0  0
   18.1539   -7.3953   18.5953 H   0  0  0  0  0  0
   16.8540   -9.6363   18.0031 H   0  0  0  0  0  0
   18.2340  -10.3667   13.3206 H   0  0  0  0  0  0
   17.8785  -12.2907   14.8182 H   0  0  0  0  0  0
   19.7450   -5.9399   13.4749 H   0  0  0  0  0  0
   19.7114   -6.6155   15.1078 H   0  0  0  0  0  0
   20.4080   -7.5581   13.7826 H   0  0  0  0  0  0
  1  2  1  0  0  0
  1  3  1  0  0  0
  1 17  1  0  0  0
  2  4  1  0  0  0
  2  9  2  0  0  0
  3  6  1  0  0  0
  3 10  2  0  0  0
  4  5  1  0  0  0
  4  6  1  0  0  0
  4 18  1  0  0  0
  5  7  1  0  0  0
  5  8  2  0  0  0
  6 19  1  0  0  0
  7 11  2  0  0  0
  7 13  1  0  0  0
  8 12  1  0  0  0
  8 20  1  0  0  0
 11 14  1  0  0  0
 11 21  1  0  0  0
 12 14  2  0  0  0
 12 15  1  0  0  0
 13 16  1  0  0  0
 14 22  1  0  0  0
 16 23  1  0  0  0
 16 24  1  0  0  0
 16 25  1  0  0  0
M  END
> <s_m_entry_id>
6696

> <s_m_entry_name>
dock_pv.531

> <s_m_Source_Path>
/home/csk/Desktop/cluster/DUD-E-result/aldr

> <s_m_Source_File>
dock_pv.maegz

> <i_m_Source_File_Index>
531

> <chembl_id>
CHEMBL278584

> <chembl_pref_name>
None

> <i_lp_mmshare_version>
53161

> <i_f3d_flags>
0

> <r_lp_tautomer_probability>
0.999999999781369

> <s_lp_Force_Field>
OPLS_2005

> <r_lp_Energy>
20.830931

> <b_lp_Chiralities_Consistent>
1

> <s_lp_Variant>
CHEMBL1900_lig36-2

> <s_i_glide_gridfile>
glide-grid_2hv5

> <i_i_glide_lignum>
71

> <i_i_glide_rotatable_bonds>
2

> <r_i_docking_score>
-7.13417699836692

> <r_i_glide_ligand_efficiency>
-0.445886062397933

> <r_i_glide_ligand_efficiency_sa>
-1.1235624707014

> <r_i_glide_ligand_efficiency_ln>
-1.89105612183757

> <r_i_glide_gscore>
-7.13417699836692

> <r_i_glide_lipo>
-1.95810236286854

> <r_i_glide_hbond>
-0.357512064505545

> <r_i_glide_metal>
0

> <r_i_glide_rewards>
-2.91903498491609

> <r_i_glide_evdw>
-27.8581066131592

> <r_i_glide_ecoul>
-5.16116857528687

> <r_i_glide_erotb>
0.267553030874247

> <r_i_glide_esite>
0

> <r_i_glide_emodel>
-45.4486830306601

> <r_i_glide_energy>
-33.019275188446

> <r_i_glide_einternal>
1.82916498184204

> <i_i_glide_confnum>
1

> <i_i_glide_posenum>
255

> <r_i_glide_eff_state_penalty>
0

> <s_user_duplicate_titles>
CHEMBL1900_lig36

> <s_m_subgroup_title>
dock_pv

> <s_m_subgroupid>
dock_pv

> <b_m_subgroup_collapsed>
1

$$$$
CHEMBL1900_lig453
                    3D
 Schrodinger Suite 2021-1.
 30 32  0  0  1  0            999 V2000
   18.7462   -7.5107   14.1499 S   0  0  0  0  0  0
   17.6073   -8.4525   15.2090 C   0  0  0  0  0  0
   17.7279   -6.5661   12.9813 C   0  0  0  0  0  0
   17.4142   -9.7565   14.8578 O   0  0  0  0  0  0
   16.9043   -8.1086   16.3669 C   0  0  0  0  0  0
   18.3385   -5.7151   12.2246 N   0  0  0  0  0  0
   16.5662  -10.2780   15.7822 C   0  0  0  0  0  0
   16.1993   -9.3029   16.7361 C   0  0  0  0  0  0
   17.6169   -5.0092   11.2629 N   0  0  0  0  0  0
   16.2968   -6.7081   12.8499 C   0  0  0  0  0  0
   16.2872   -5.1109   10.9728 C   0  0  0  0  0  0
   19.4991   -8.5044   13.3800 O   0  0  0  0  0  0
   19.4237   -6.5159   14.9810 O   0  0  0  0  0  0
   16.1012  -11.5965   15.8116 C   0  0  0  0  0  0
   15.6200   -6.0185   11.8954 C   0  0  0  0  0  0
   15.3130   -9.6741   17.7616 C   0  0  0  0  0  0
   15.7474   -4.5145   10.0453 O   0  0  0  0  0  0
   15.2130  -11.9292   16.8340 C   0  0  0  0  0  0
   14.8295  -10.9868   17.7902 C   0  0  0  0  0  0
   16.8681   -6.7939   17.1073 C   0  0  0  0  0  0
   14.5751  -13.5301   16.9168 Cl  0  0  0  0  0  0
   15.7454   -7.3150   13.5464 H   0  0  0  0  0  0
   16.4098  -12.3191   15.0712 H   0  0  0  0  0  0
   14.5458   -6.1019   11.8161 H   0  0  0  0  0  0
   15.0146   -8.9607   18.5150 H   0  0  0  0  0  0
   18.1621   -4.3801   10.6941 H   0  0  0  0  0  0
   14.1440  -11.2859   18.5707 H   0  0  0  0  0  0
   17.1544   -6.9168   18.1520 H   0  0  0  0  0  0
   17.5578   -6.0702   16.6811 H   0  0  0  0  0  0
   15.8753   -6.3450   17.0933 H   0  0  0  0  0  0
  1  2  1  0  0  0
  1 12  2  0  0  0
  1 13  2  0  0  0
  1  3  1  0  0  0
  2  4  1  0  0  0
  2  5  2  0  0  0
  3 10  1  0  0  0
  3  6  2  0  0  0
  4  7  1  0  0  0
  5  8  1  0  0  0
  5 20  1  0  0  0
  6  9  1  0  0  0
  7 14  1  0  0  0
  7  8  2  0  0  0
  8 16  1  0  0  0
  9 11  1  0  0  0
  9 26  1  0  0  0
 10 15  2  0  0  0
 10 22  1  0  0  0
 11 17  2  0  0  0
 11 15  1  0  0  0
 14 18  2  0  0  0
 14 23  1  0  0  0
 15 24  1  0  0  0
 16 19  2  0  0  0
 16 25  1  0  0  0
 18 21  1  0  0  0
 18 19  1  0  0  0
 19 27  1  0  0  0
 20 28  1  0  0  0
 20 29  1  0  0  0
 20 30  1  0  0  0
M  END
> <s_m_entry_id>
6697

> <s_m_entry_name>
dock_pv.532

> <s_m_Source_Path>
/home/csk/Desktop/cluster/DUD-E-result/aldr

> <s_m_Source_File>
dock_pv.maegz

> <i_m_Source_File_Index>
532

> <chembl_id>
CHEMBL199100

> <chembl_pref_name>
None

> <i_lp_mmshare_version>
53161

> <i_f3d_flags>
0

> <r_lp_tautomer_probability>
0.998994762270461

> <s_lp_Force_Field>
OPLS_2005

> <r_lp_Energy>
21.411546

> <b_lp_Chiralities_Consistent>
1

> <s_lp_Variant>
CHEMBL1900_lig453-1

> <s_i_glide_gridfile>
glide-grid_2hv5

> <i_i_glide_lignum>
575

> <i_i_glide_rotatable_bonds>
2

> <r_i_docking_score>
-7.10696019104025

> <r_i_glide_ligand_efficiency>
-0.338426675763822

> <r_i_glide_ligand_efficiency_sa>
-0.933693536749552

> <r_i_glide_ligand_efficiency_ln>
-1.75718154626943

> <r_i_glide_gscore>
-7.10696019104025

> <r_i_glide_lipo>
-3.30012908455706

> <r_i_glide_hbond>
0

> <r_i_glide_metal>
0

> <r_i_glide_rewards>
-2.51068721369866

> <r_i_glide_evdw>
-40.6590576171875

> <r_i_glide_ecoul>
2.54371333122253

> <r_i_glide_erotb>
0.355251988391458

> <r_i_glide_esite>
0

> <r_i_glide_emodel>
-50.76565001149

> <r_i_glide_energy>
-38.115344285965

> <r_i_glide_einternal>
4.00252103805542

> <i_i_glide_confnum>
6

> <i_i_glide_posenum>
238

> <r_i_glide_eff_state_penalty>
0

> <s_user_duplicate_titles>
CHEMBL1900_lig453,331232

> <s_m_subgroup_title>
dock_pv

> <s_m_subgroupid>
dock_pv

> <b_m_subgroup_collapsed>
1

$$$$
CHEMBL1900_lig69
                    3D
 Schrodinger Suite 2021-1.
 38 40  0  0  1  0            999 V2000
   17.7446   -8.9228   15.4492 N   0  0  0  0  0  0
   17.9916   -9.9006   14.5110 C   0  0  0  0  0  0
   16.9678   -8.9824   16.5811 C   0  0  0  0  0  0
   17.3097  -11.2825   14.7584 C   0  0  2  0  0  0
   16.3208  -11.3566   15.9165 C   0  0  0  0  0  0
   16.1604  -10.2500   16.7597 C   0  0  0  0  0  0
   18.3713   -7.5916   15.1633 C   0  0  0  0  0  0
   17.7880   -6.8207   13.9751 C   0  0  0  0  0  0
   16.4182   -6.7999   13.7121 C   0  0  0  0  0  0
   15.2641  -10.3097   17.8375 C   0  0  0  0  0  0
   18.3559  -12.4475   14.8449 C   0  0  0  0  0  0
   15.9183   -6.1471   12.5806 C   0  0  0  0  0  0
   19.2919  -12.6919   13.6484 C   0  0  0  0  0  0
   18.6824   -9.7153   13.5051 O   0  0  0  0  0  0
   16.9183   -8.0636   17.4070 O   0  0  0  0  0  0
   15.5613  -12.5083   16.1782 C   0  0  0  0  0  0
   18.6426   -6.1157   13.1357 C   0  0  0  0  0  0
   20.4911  -12.9144   13.7853 O   0  0  0  0  0  0
   16.7851   -5.4785   11.7244 C   0  0  0  0  0  0
   14.6906  -12.5744   17.2609 C   0  0  0  0  0  0
   15.5742   -7.3748   14.5873 F   0  0  0  0  0  0
   14.5453  -11.4735   18.0973 C   0  0  0  0  0  0
   18.6345  -12.6807   12.4542 O   0  0  0  0  0  0
   18.1449   -5.4501   12.0119 C   0  0  0  0  0  0
   16.1109   -4.5674   10.1953 Br  0  0  0  0  0  0
   13.9983  -13.7114   17.4985 F   0  0  0  0  0  0
   16.7127  -11.4346   13.8618 H   0  0  0  0  0  0
   18.3519   -6.9104   16.0162 H   0  0  0  0  0  0
   19.4348   -7.7532   14.9807 H   0  0  0  0  0  0
   15.1343   -9.4640   18.5012 H   0  0  0  0  0  0
   18.9457  -12.3314   15.7518 H   0  0  0  0  0  0
   17.8432  -13.4003   14.9800 H   0  0  0  0  0  0
   14.8601   -6.1149   12.3821 H   0  0  0  0  0  0
   15.6490  -13.3772   15.5412 H   0  0  0  0  0  0
   19.6935   -6.0993   13.3809 H   0  0  0  0  0  0
   13.8820  -11.5195   18.9499 H   0  0  0  0  0  0
   17.7044  -12.4645   12.5377 H   0  0  0  0  0  0
   18.8094   -4.9094   11.3592 H   0  0  0  0  0  0
  1  2  1  0  0  0
  1  3  1  0  0  0
  1  7  1  0  0  0
  2  4  1  0  0  0
  2 14  2  0  0  0
  3  6  1  0  0  0
  3 15  2  0  0  0
  4 11  1  0  0  0
  4  5  1  0  0  0
  4 27  1  0  0  0
  5  6  1  0  0  0
  5 16  2  0  0  0
  6 10  2  0  0  0
  7  8  1  0  0  0
  7 28  1  0  0  0
  7 29  1  0  0  0
  8  9  1  0  0  0
  8 17  2  0  0  0
  9 12  2  0  0  0
  9 21  1  0  0  0
 10 22  1  0  0  0
 10 30  1  0  0  0
 11 13  1  0  0  0
 11 31  1  0  0  0
 11 32  1  0  0  0
 12 19  1  0  0  0
 12 33  1  0  0  0
 13 18  2  0  0  0
 13 23  1  0  0  0
 16 20  1  0  0  0
 16 34  1  0  0  0
 17 24  1  0  0  0
 17 35  1  0  0  0
 19 24  2  0  0  0
 19 25  1  0  0  0
 20 22  2  0  0  0
 20 26  1  0  0  0
 22 36  1  0  0  0
 23 37  1  0  0  0
 24 38  1  0  0  0
M  END
> <s_m_entry_id>
6698

> <s_m_entry_name>
dock_pv.533

> <s_m_Source_Path>
/home/csk/Desktop/cluster/DUD-E-result/aldr

> <s_m_Source_File>
dock_pv.maegz

> <i_m_Source_File_Index>
533

> <chembl_id>
CHEMBL10350

> <chembl_pref_name>
None

> <i_lp_mmshare_version>
53161

> <i_f3d_flags>
0

> <r_lp_tautomer_probability>
0.99995

> <s_lp_Force_Field>
OPLS_2005

> <r_lp_Energy>
23.104921

> <b_lp_Chiralities_Consistent>
1

> <s_lp_Variant>
CHEMBL1900_lig69-2

> <s_i_glide_gridfile>
glide-grid_2hv5

> <i_i_glide_lignum>
106

> <i_i_glide_rotatable_bonds>
5

> <r_i_docking_score>
-7.10541346413508

> <r_i_glide_ligand_efficiency>
-0.273285133235965

> <r_i_glide_ligand_efficiency_sa>
-0.809606131886471

> <r_i_glide_ligand_efficiency_ln>
-1.66868303728891

> <r_i_glide_gscore>
-7.10541346413508

> <r_i_glide_lipo>
-3.26906093520344

> <r_i_glide_hbond>
0

> <r_i_glide_metal>
0

> <r_i_glide_rewards>
-2.49761204005633

> <r_i_glide_evdw>
-34.724308013916

> <r_i_glide_ecoul>
-0.288358956575394

> <r_i_glide_erotb>
0.440728755306794

> <r_i_glide_esite>
0

> <r_i_glide_emodel>
-42.4293348699757

> <r_i_glide_energy>
-35.0126669704914

> <r_i_glide_einternal>
8.93453407287598

> <i_i_glide_confnum>
50

> <i_i_glide_posenum>
238

> <r_i_glide_eff_state_penalty>
0

> <s_user_duplicate_titles>
CHEMBL1900_lig69,7440

> <s_m_subgroup_title>
dock_pv

> <s_m_subgroupid>
dock_pv

> <b_m_subgroup_collapsed>
1

$$$$
CHEMBL1900_lig93
                    3D
 Schrodinger Suite 2021-1.
 28 30  0  0  1  0            999 V2000
   16.9356   -7.7644   16.8781 C   0  0  1  0  0  0
   16.6096   -9.2707   16.8364 C   0  0  0  0  0  0
   15.3452   -6.5125   17.9074 N   0  0  0  0  0  0
   15.6222   -7.0231   16.7120 C   0  0  0  0  0  0
   17.1566  -10.0829   15.8251 C   0  0  0  0  0  0
   16.3583   -6.5430   18.7827 C   0  0  0  0  0  0
   17.3066   -7.2693   18.1808 N   0  0  0  0  0  0
   18.0137   -9.6058   14.8582 O   0  0  0  0  0  0
   16.9320  -11.4165   15.7192 N   0  0  0  0  0  0
   17.9086   -7.3247   15.7445 C   0  0  0  0  0  0
   15.7675   -9.9148   17.7646 C   0  0  0  0  0  0
   14.9450   -6.9235   15.6978 O   0  0  0  0  0  0
   17.8391   -8.2350   14.5025 C   0  0  1  0  0  0
   16.3353   -6.1172   19.9322 O   0  0  0  0  0  0
   16.1187  -11.9976   16.6354 C   0  0  0  0  0  0
   15.5237  -11.2845   17.6733 C   0  0  0  0  0  0
   14.5441  -12.0795   18.8487 Cl  0  0  0  0  0  0
   18.8944   -7.8708   13.4550 C   0  0  0  0  0  0
   14.4474   -6.1147   18.1237 H   0  0  0  0  0  0
   18.2800   -7.1864   18.4346 H   0  0  0  0  0  0
   18.9323   -7.3149   16.1125 H   0  0  0  0  0  0
   17.7444   -6.2904   15.4370 H   0  0  0  0  0  0
   15.3206   -9.3565   18.5750 H   0  0  0  0  0  0
   16.8619   -8.1133   14.0312 H   0  0  0  0  0  0
   15.9567  -13.0607   16.5312 H   0  0  0  0  0  0
   18.7895   -6.8378   13.1203 H   0  0  0  0  0  0
   19.9062   -7.9960   13.8452 H   0  0  0  0  0  0
   18.7983   -8.5157   12.5812 H   0  0  0  0  0  0
  1  2  1  0  0  0
  1  4  1  0  0  0
  1  7  1  0  0  0
  1 10  1  0  0  0
  2  5  1  0  0  0
  2 11  2  0  0  0
  3  4  1  0  0  0
  3  6  1  0  0  0
  3 19  1  0  0  0
  4 12  2  0  0  0
  5  9  2  0  0  0
  5  8  1  0  0  0
  6  7  1  0  0  0
  6 14  2  0  0  0
  7 20  1  0  0  0
  8 13  1  0  0  0
  9 15  1  0  0  0
 10 13  1  0  0  0
 10 21  1  0  0  0
 10 22  1  0  0  0
 11 16  1  0  0  0
 11 23  1  0  0  0
 13 18  1  0  0  0
 13 24  1  0  0  0
 15 16  2  0  0  0
 15 25  1  0  0  0
 16 17  1  0  0  0
 18 26  1  0  0  0
 18 27  1  0  0  0
 18 28  1  0  0  0
M  END
> <s_m_entry_id>
6699

> <s_m_entry_name>
dock_pv.534

> <s_m_Source_Path>
/home/csk/Desktop/cluster/DUD-E-result/aldr

> <s_m_Source_File>
dock_pv.maegz

> <i_m_Source_File_Index>
534

> <chembl_id>
CHEMBL56453

> <chembl_pref_name>
None

> <i_lp_mmshare_version>
53161

> <i_f3d_flags>
0

> <r_lp_tautomer_probability>
0.99999999978137

> <s_lp_Force_Field>
OPLS_2005

> <r_lp_Energy>
19.941675

> <b_lp_Chiralities_Consistent>
1

> <s_lp_Variant>
CHEMBL1900_lig93-1

> <s_i_glide_gridfile>
glide-grid_2hv5

> <i_i_glide_lignum>
132

> <i_i_glide_rotatable_bonds>
0

> <r_i_docking_score>
-7.10199105647961

> <r_i_glide_ligand_efficiency>
-0.394555058693312

> <r_i_glide_ligand_efficiency_sa>
-1.03402677361584

> <r_i_glide_ligand_efficiency_ln>
-1.82553018026232

> <r_i_glide_gscore>
-7.10199105647961

> <r_i_glide_lipo>
-1.84800157613291

> <r_i_glide_hbond>
-0.275403759080843

> <r_i_glide_metal>
0

> <r_i_glide_rewards>
-3.09178240419585

> <r_i_glide_evdw>
-29.2035274505615

> <r_i_glide_ecoul>
-2.84417963027954

> <r_i_glide_erotb>
0

> <r_i_glide_esite>
0

> <r_i_glide_emodel>
-42.8732146349813

> <r_i_glide_energy>
-32.0477070808411

> <r_i_glide_einternal>
0

> <i_i_glide_confnum>
1

> <i_i_glide_posenum>
74

> <r_i_glide_eff_state_penalty>
0

> <s_user_duplicate_titles>
CHEMBL1900_lig93,83823

> <s_m_subgroup_title>
dock_pv

> <s_m_subgroupid>
dock_pv

> <b_m_subgroup_collapsed>
1

$$$$
CHEMBL1900_lig86
                    3D
 Schrodinger Suite 2021-1.
 24 25  0  0  1  0            999 V2000
   18.0568   -7.5323   13.9198 S   0  0  0  0  0  0
   17.2079   -7.3178   15.5268 C   0  0  0  0  0  0
   17.9720   -7.1972   16.5601 N   0  0  0  0  0  0
   17.4213   -6.9161   17.8092 N   0  0  0  0  0  0
   15.7728   -7.2502   15.7298 C   0  0  0  0  0  0
   16.1180   -6.6404   18.0958 C   0  0  0  0  0  0
   15.2652   -6.9619   16.9575 C   0  0  0  0  0  0
   17.7455   -8.8946   13.4776 O   0  0  0  0  0  0
   19.4521   -7.1315   14.1437 O   0  0  0  0  0  0
   17.3417   -6.3789   12.7250 C   0  0  0  0  0  0
   15.7457   -6.1154   19.1441 O   0  0  0  0  0  0
   18.1454   -5.3789   12.1786 C   0  0  0  0  0  0
   16.0283   -6.5155   12.2733 C   0  0  0  0  0  0
   15.5211   -5.6677   11.2929 C   0  0  0  0  0  0
   17.6544   -4.5376   11.1813 C   0  0  0  0  0  0
   16.3403   -4.6844   10.7441 C   0  0  0  0  0  0
   15.0840   -7.5193   14.9510 H   0  0  0  0  0  0
   14.1964   -6.9652   17.1206 H   0  0  0  0  0  0
   18.0978   -6.7661   18.5426 H   0  0  0  0  0  0
   19.1660   -5.2821   12.5111 H   0  0  0  0  0  0
   15.4051   -7.3147   12.6339 H   0  0  0  0  0  0
   14.5030   -5.7833   10.9512 H   0  0  0  0  0  0
   18.2850   -3.7715   10.7563 H   0  0  0  0  0  0
   15.9522   -4.0291    9.9772 H   0  0  0  0  0  0
  1  8  2  0  0  0
  1  9  2  0  0  0
  1 10  1  0  0  0
  1  2  1  0  0  0
  2  5  1  0  0  0
  2  3  2  0  0  0
  3  4  1  0  0  0
  4  6  1  0  0  0
  4 19  1  0  0  0
  5  7  2  0  0  0
  5 17  1  0  0  0
  6 11  2  0  0  0
  6  7  1  0  0  0
  7 18  1  0  0  0
 10 12  1  0  0  0
 10 13  2  0  0  0
 12 15  2  0  0  0
 12 20  1  0  0  0
 13 14  1  0  0  0
 13 21  1  0  0  0
 14 16  2  0  0  0
 14 22  1  0  0  0
 15 16  1  0  0  0
 15 23  1  0  0  0
 16 24  1  0  0  0
M  END
> <s_m_entry_id>
6700

> <s_m_entry_name>
dock_pv.535

> <s_m_Source_Path>
/home/csk/Desktop/cluster/DUD-E-result/aldr

> <s_m_Source_File>
dock_pv.maegz

> <i_m_Source_File_Index>
535

> <chembl_id>
CHEMBL74814

> <chembl_pref_name>
None

> <i_lp_mmshare_version>
53161

> <i_f3d_flags>
0

> <r_lp_tautomer_probability>
0.998994762270461

> <s_lp_Force_Field>
OPLS_2005

> <r_lp_Energy>
21.702992

> <b_lp_Chiralities_Consistent>
1

> <s_lp_Variant>
CHEMBL1900_lig86-1

> <s_i_glide_gridfile>
glide-grid_2hv5

> <i_i_glide_lignum>
125

> <i_i_glide_rotatable_bonds>
2

> <r_i_docking_score>
-7.10181787599661

> <r_i_glide_ligand_efficiency>
-0.443863617249788

> <r_i_glide_ligand_efficiency_sa>
-1.1184662282773

> <r_i_glide_ligand_efficiency_ln>
-1.88247869006518

> <r_i_glide_gscore>
-7.10181787599661

> <r_i_glide_lipo>
-2.81454331489734

> <r_i_glide_hbond>
-0.0260895369715865

> <r_i_glide_metal>
0

> <r_i_glide_rewards>
-3.04178599684379

> <r_i_glide_evdw>
-33.2146110534668

> <r_i_glide_ecoul>
-1.17001223564148

> <r_i_glide_erotb>
0.616833360735671

> <r_i_glide_esite>
0

> <r_i_glide_emodel>
-46.9042522725563

> <r_i_glide_energy>
-34.3846232891083

> <r_i_glide_einternal>
2.215092420578

> <i_i_glide_confnum>
2

> <i_i_glide_posenum>
227

> <r_i_glide_eff_state_penalty>
0

> <s_user_duplicate_titles>
CHEMBL1900_lig86,117995

> <s_m_subgroup_title>
dock_pv

> <s_m_subgroupid>
dock_pv

> <b_m_subgroup_collapsed>
1

$$$$
CHEMBL1900_lig425
                    3D
 Schrodinger Suite 2021-1.
 30 32  0  0  1  0            999 V2000
   18.7305   -7.5276   14.0854 S   0  0  0  0  0  0
   17.5830   -8.5647   15.0543 C   0  0  0  0  0  0
   17.7447   -6.5791   12.8946 C   0  0  0  0  0  0
   16.6085   -7.8493   16.3160 S   0  0  0  0  0  0
   17.4094   -9.9410   14.9142 C   0  0  0  0  0  0
   18.3823   -5.7142   12.1808 N   0  0  0  0  0  0
   16.4707  -10.4468   15.8730 C   0  0  0  0  0  0
   15.9241   -9.4177   16.6969 C   0  0  0  0  0  0
   17.6936   -4.9709   11.2221 N   0  0  0  0  0  0
   16.3164   -6.6980   12.7247 C   0  0  0  0  0  0
   16.3689   -5.0413   10.9008 C   0  0  0  0  0  0
   19.6135   -8.4288   13.3424 O   0  0  0  0  0  0
   19.2815   -6.5152   14.9810 O   0  0  0  0  0  0
   15.6680   -5.9647   11.7824 C   0  0  0  0  0  0
   16.0268  -11.7675   16.0876 C   0  0  0  0  0  0
   14.9613   -9.6955   17.6773 C   0  0  0  0  0  0
   15.8592   -4.4102    9.9788 O   0  0  0  0  0  0
   15.0677  -12.0345   17.0595 C   0  0  0  0  0  0
   18.0950  -10.8493   13.9036 C   0  0  0  0  0  0
   14.5473  -11.0133   17.8414 C   0  0  0  0  0  0
   14.5127  -13.6515   17.2918 Cl  0  0  0  0  0  0
   15.7456   -7.3152   13.3929 H   0  0  0  0  0  0
   14.5932   -6.0266   11.6863 H   0  0  0  0  0  0
   16.4106  -12.5828   15.4952 H   0  0  0  0  0  0
   14.5457   -8.9110   18.2891 H   0  0  0  0  0  0
   18.2608   -4.3336   10.6850 H   0  0  0  0  0  0
   17.5879  -11.8028   13.7603 H   0  0  0  0  0  0
   18.1262  -10.3941   12.9152 H   0  0  0  0  0  0
   19.1246  -11.0727   14.1817 H   0  0  0  0  0  0
   13.7988  -11.2554   18.5807 H   0  0  0  0  0  0
  1  2  1  0  0  0
  1 12  2  0  0  0
  1 13  2  0  0  0
  1  3  1  0  0  0
  2  4  1  0  0  0
  2  5  2  0  0  0
  3 10  1  0  0  0
  3  6  2  0  0  0
  4  8  1  0  0  0
  5  7  1  0  0  0
  5 19  1  0  0  0
  6  9  1  0  0  0
  7 15  1  0  0  0
  7  8  2  0  0  0
  8 16  1  0  0  0
  9 11  1  0  0  0
  9 26  1  0  0  0
 10 14  2  0  0  0
 10 22  1  0  0  0
 11 17  2  0  0  0
 11 14  1  0  0  0
 14 23  1  0  0  0
 15 18  2  0  0  0
 15 24  1  0  0  0
 16 20  2  0  0  0
 16 25  1  0  0  0
 18 21  1  0  0  0
 18 20  1  0  0  0
 19 27  1  0  0  0
 19 28  1  0  0  0
 19 29  1  0  0  0
 20 30  1  0  0  0
M  END
> <s_m_entry_id>
6701

> <s_m_entry_name>
dock_pv.536

> <s_m_Source_Path>
/home/csk/Desktop/cluster/DUD-E-result/aldr

> <s_m_Source_File>
dock_pv.maegz

> <i_m_Source_File_Index>
536

> <chembl_id>
CHEMBL371914

> <chembl_pref_name>
None

> <i_lp_mmshare_version>
53161

> <i_f3d_flags>
0

> <r_lp_tautomer_probability>
0.998994762270461

> <s_lp_Force_Field>
OPLS_2005

> <r_lp_Energy>
22.317043

> <b_lp_Chiralities_Consistent>
1

> <s_lp_Variant>
CHEMBL1900_lig425-1

> <s_i_glide_gridfile>
glide-grid_2hv5

> <i_i_glide_lignum>
547

> <i_i_glide_rotatable_bonds>
2

> <r_i_docking_score>
-7.10092233861707

> <r_i_glide_ligand_efficiency>
-0.338139158981765

> <r_i_glide_ligand_efficiency_sa>
-0.932900299749226

> <r_i_glide_ligand_efficiency_ln>
-1.75568869945843

> <r_i_glide_gscore>
-7.10092233861707

> <r_i_glide_lipo>
-3.39077467559665

> <r_i_glide_hbond>
0

> <r_i_glide_metal>
0

> <r_i_glide_rewards>
-2.40503143306022

> <r_i_glide_evdw>
-41.4159317016602

> <r_i_glide_ecoul>
2.93009209632874

> <r_i_glide_erotb>
0.326166540673493

> <r_i_glide_esite>
0

> <r_i_glide_emodel>
-51.3444535856574

> <r_i_glide_energy>
-38.4858396053314

> <r_i_glide_einternal>
4.09032487869263

> <i_i_glide_confnum>
5

> <i_i_glide_posenum>
236

> <r_i_glide_eff_state_penalty>
0

> <s_user_duplicate_titles>
CHEMBL1900_lig425,329800

> <s_m_subgroup_title>
dock_pv

> <s_m_subgroupid>
dock_pv

> <b_m_subgroup_collapsed>
1

$$$$
CHEMBL1900_lig132
                    3D
 Schrodinger Suite 2021-1.
 28 30  0  0  1  0            999 V2000
   16.5426   -8.5278   17.0166 C   0  0  1  0  0  0
   16.1337   -9.9405   17.3826 N   0  0  0  0  0  0
   15.2932   -7.7197   16.7292 C   0  0  0  0  0  0
   16.3912  -11.0431   16.6048 C   0  0  0  0  0  0
   17.0349   -7.7151   18.1112 N   0  0  0  0  0  0
   15.1089   -6.9148   17.7758 N   0  0  0  0  0  0
   17.4677   -8.4603   15.7795 C   0  0  0  0  0  0
   16.1443   -6.8647   18.6257 C   0  0  0  0  0  0
   17.1360  -10.8186   15.5094 N   0  0  0  0  0  0
   17.7158   -9.6411   15.0752 C   0  0  0  0  0  0
   16.0244  -12.1951   16.8377 O   0  0  0  0  0  0
   14.5452   -7.8689   15.7810 O   0  0  0  0  0  0
   16.2999   -6.0576   19.5358 O   0  0  0  0  0  0
   15.1302  -10.1398   18.4529 C   0  0  0  0  0  0
   18.1050   -7.2894   15.3344 C   0  0  0  0  0  0
   18.5452   -9.6631   13.9543 C   0  0  0  0  0  0
   18.9452   -7.3007   14.2212 C   0  0  0  0  0  0
   19.1702   -8.4922   13.5368 C   0  0  0  0  0  0
   17.8145   -8.0533   18.6572 H   0  0  0  0  0  0
   14.3160   -6.2992   17.8429 H   0  0  0  0  0  0
   17.3098  -11.6582   14.9787 H   0  0  0  0  0  0
   14.1455   -9.8602   18.0834 H   0  0  0  0  0  0
   15.3446   -9.5104   19.3158 H   0  0  0  0  0  0
   15.0618  -11.1689   18.8088 H   0  0  0  0  0  0
   17.9537   -6.3597   15.8625 H   0  0  0  0  0  0
   18.7294  -10.5839   13.4197 H   0  0  0  0  0  0
   19.4357   -6.3922   13.9020 H   0  0  0  0  0  0
   19.8441   -8.5149   12.6945 H   0  0  0  0  0  0
  1  2  1  0  0  0
  1  3  1  0  0  0
  1  5  1  0  0  0
  1  7  1  0  0  0
  2  4  1  0  0  0
  2 14  1  0  0  0
  3  6  1  0  0  0
  3 12  2  0  0  0
  4 11  2  0  0  0
  4  9  1  0  0  0
  5  8  1  0  0  0
  5 19  1  0  0  0
  6  8  1  0  0  0
  6 20  1  0  0  0
  7 10  1  0  0  0
  7 15  2  0  0  0
  8 13  2  0  0  0
  9 10  1  0  0  0
  9 21  1  0  0  0
 10 16  2  0  0  0
 14 22  1  0  0  0
 14 23  1  0  0  0
 14 24  1  0  0  0
 15 17  1  0  0  0
 15 25  1  0  0  0
 16 18  1  0  0  0
 16 26  1  0  0  0
 17 18  2  0  0  0
 17 27  1  0  0  0
 18 28  1  0  0  0
M  END
> <s_m_entry_id>
6702

> <s_m_entry_name>
dock_pv.537

> <s_m_Source_Path>
/home/csk/Desktop/cluster/DUD-E-result/aldr

> <s_m_Source_File>
dock_pv.maegz

> <i_m_Source_File_Index>
537

> <chembl_id>
CHEMBL66152

> <chembl_pref_name>
None

> <i_lp_mmshare_version>
53161

> <i_f3d_flags>
0

> <r_lp_tautomer_probability>
0.99999999978137

> <s_lp_Force_Field>
OPLS_2005

> <r_lp_Energy>
35.769603

> <b_lp_Chiralities_Consistent>
1

> <s_lp_Variant>
CHEMBL1900_lig132-1

> <s_i_glide_gridfile>
glide-grid_2hv5

> <i_i_glide_lignum>
201

> <i_i_glide_rotatable_bonds>
0

> <r_i_docking_score>
-7.08114211142307

> <r_i_glide_ligand_efficiency>
-0.393396783967949

> <r_i_glide_ligand_efficiency_sa>
-1.03099123510014

> <r_i_glide_ligand_efficiency_ln>
-1.82017106644132

> <r_i_glide_gscore>
-7.08114211142307

> <r_i_glide_lipo>
-1.58888318241642

> <r_i_glide_hbond>
0

> <r_i_glide_metal>
0

> <r_i_glide_rewards>
-3.81725821375092

> <r_i_glide_evdw>
-27.4186267852783

> <r_i_glide_ecoul>
-2.02712917327881

> <r_i_glide_erotb>
0

> <r_i_glide_esite>
0

> <r_i_glide_emodel>
-38.3296125404309

> <r_i_glide_energy>
-29.4457559585571

> <r_i_glide_einternal>
0

> <i_i_glide_confnum>
1

> <i_i_glide_posenum>
26

> <r_i_glide_eff_state_penalty>
0

> <s_user_duplicate_titles>
CHEMBL1900_lig132,CHEMBL1900_lig133

> <s_m_subgroup_title>
dock_pv

> <s_m_subgroupid>
dock_pv

> <b_m_subgroup_collapsed>
1

$$$$
CHEMBL1900_lig227
                    3D
 Schrodinger Suite 2021-1.
 27 29  0  0  1  0            999 V2000
   17.2609   -7.7562   16.3166 N   0  0  0  0  0  0
   17.9371   -7.8907   15.1159 C   0  0  0  0  0  0
   16.6142   -8.8125   16.9792 C   0  0  0  0  0  0
   17.9870   -9.3213   14.6220 C   0  0  0  0  0  0
   16.6099  -10.0049   16.5131 N   0  0  0  0  0  0
   16.7966   -6.2258   18.1817 C   0  0  0  0  0  0
   17.2826   -6.5145   16.9503 C   0  0  0  0  0  0
   17.3203  -10.3063   15.3518 C   0  0  0  0  0  0
   16.1450   -7.3217   18.8656 C   0  0  0  0  0  0
   16.0023   -8.5172   18.2532 C   0  0  0  0  0  0
   16.8446   -4.9066   18.7693 C   0  0  0  0  0  0
   18.7019   -9.6608   13.4705 C   0  0  0  0  0  0
   17.3512  -11.6330   14.9383 C   0  0  0  0  0  0
   18.4740   -6.9630   14.5029 O   0  0  0  0  0  0
   16.5454   -3.8713   18.1810 O   0  0  0  0  0  0
   18.0695  -11.9749   13.7964 C   0  0  0  0  0  0
   18.7466  -10.9973   13.0718 C   0  0  0  0  0  0
   17.2851   -4.9432   20.0577 O   0  0  0  0  0  0
   18.1108  -13.2743   13.3823 O   0  0  0  0  0  0
   17.7473   -5.7272   16.3826 H   0  0  0  0  0  0
   15.7452   -7.1813   19.8587 H   0  0  0  0  0  0
   15.4886   -9.3030   18.7878 H   0  0  0  0  0  0
   19.2330   -8.9133   12.8965 H   0  0  0  0  0  0
   16.8248  -12.3807   15.5098 H   0  0  0  0  0  0
   19.3027  -11.2783   12.1895 H   0  0  0  0  0  0
   17.5801   -5.8254   20.2903 H   0  0  0  0  0  0
   17.5767  -13.8481   13.9328 H   0  0  0  0  0  0
  1  2  1  0  0  0
  1  3  1  0  0  0
  1  7  1  0  0  0
  2  4  1  0  0  0
  2 14  2  0  0  0
  3  5  2  0  0  0
  3 10  1  0  0  0
  4 12  1  0  0  0
  4  8  2  0  0  0
  5  8  1  0  0  0
  6  7  2  0  0  0
  6  9  1  0  0  0
  6 11  1  0  0  0
  7 20  1  0  0  0
  8 13  1  0  0  0
  9 10  2  0  0  0
  9 21  1  0  0  0
 10 22  1  0  0  0
 11 15  2  0  0  0
 11 18  1  0  0  0
 12 17  2  0  0  0
 12 23  1  0  0  0
 13 16  2  0  0  0
 13 24  1  0  0  0
 16 19  1  0  0  0
 16 17  1  0  0  0
 17 25  1  0  0  0
 18 26  1  0  0  0
 19 27  1  0  0  0
M  END
> <s_m_entry_id>
6704

> <s_m_entry_name>
dock_pv.539

> <s_m_Source_Path>
/home/csk/Desktop/cluster/DUD-E-result/aldr

> <s_m_Source_File>
dock_pv.maegz

> <i_m_Source_File_Index>
539

> <chembl_id>
CHEMBL168614

> <chembl_pref_name>
None

> <i_lp_mmshare_version>
53161

> <i_f3d_flags>
0

> <r_lp_tautomer_probability>
1

> <s_lp_Force_Field>
OPLS_2005

> <r_lp_Energy>
35.063119

> <b_lp_Chiralities_Consistent>
1

> <s_lp_Variant>
CHEMBL1900_lig227-1

> <s_i_glide_gridfile>
glide-grid_2hv5

> <i_i_glide_lignum>
303

> <i_i_glide_rotatable_bonds>
3

> <r_i_docking_score>
-7.06733329835142

> <r_i_glide_ligand_efficiency>
-0.371964910439549

> <r_i_glide_ligand_efficiency_sa>
-0.992551779309433

> <r_i_glide_ligand_efficiency_ln>
-1.79172078353331

> <r_i_glide_gscore>
-7.06733329835142

> <r_i_glide_lipo>
-2.17760757914427

> <r_i_glide_hbond>
0

> <r_i_glide_metal>
0

> <r_i_glide_rewards>
-3.63062584447825

> <r_i_glide_evdw>
-27.2519645690918

> <r_i_glide_ecoul>
-1.09963619709015

> <r_i_glide_erotb>
0.268443783289214

> <r_i_glide_esite>
0

> <r_i_glide_emodel>
-36.106428837078

> <r_i_glide_energy>
-28.3516007661819

> <r_i_glide_einternal>
2.636714220047

> <i_i_glide_confnum>
1

> <i_i_glide_posenum>
221

> <r_i_glide_eff_state_penalty>
0

> <s_user_duplicate_titles>
CHEMBL1900_lig227

> <s_m_subgroup_title>
dock_pv

> <s_m_subgroupid>
dock_pv

> <b_m_subgroup_collapsed>
1

$$$$
CHEMBL1900_lig27
                    3D
 Schrodinger Suite 2021-1.
 39 40  0  0  1  0            999 V2000
   15.5907   -9.3186   18.0938 N   0  0  0  0  0  0
   17.1356   -9.6067   14.9811 C   0  0  0  0  0  0
   16.4241   -8.6910   17.2606 C   0  0  0  0  0  0
   17.6778   -6.9820   13.9609 S   0  0  0  0  0  0
   15.9783   -9.0786   15.8596 C   0  0  2  0  0  0
   14.8273  -10.2532   17.5093 C   0  0  0  0  0  0
   17.9084   -8.7714   14.1315 C   0  0  0  0  0  0
   14.9556  -10.0396   16.1967 N   0  0  0  0  0  0
   18.9447   -9.3348   13.3810 C   0  0  0  0  0  0
   17.4068  -10.9876   14.9843 C   0  0  0  0  0  0
   18.9446   -6.4075   13.4946 O   0  0  0  0  0  0
   17.0966   -6.5150   15.2154 O   0  0  0  0  0  0
   17.3414   -7.9388   17.5761 O   0  0  0  0  0  0
   14.2721  -11.1948   18.0620 O   0  0  0  0  0  0
   18.4022  -11.5355   14.1811 C   0  0  0  0  0  0
   16.3595   -6.7445   12.6129 C   0  0  0  0  0  0
   19.1759  -10.7068   13.3810 C   0  0  0  0  0  0
   18.6972  -13.2351   14.2060 Cl  0  0  0  0  0  0
   16.9571   -6.6272   11.1950 C   0  0  0  0  0  0
   16.3441   -4.2618   10.3887 C   0  0  0  0  0  0
   17.4717   -5.2235   10.8089 C   0  0  0  0  0  0
   16.8653   -2.9241    9.8437 C   0  0  0  0  0  0
   15.6836   -9.2469   19.0958 H   0  0  0  0  0  0
   15.4525   -8.2566   15.3754 H   0  0  0  0  0  0
   14.2752  -10.3549   15.5209 H   0  0  0  0  0  0
   19.5677   -8.7112   12.7583 H   0  0  0  0  0  0
   16.8379  -11.6592   15.6102 H   0  0  0  0  0  0
   15.8088   -5.8423   12.8792 H   0  0  0  0  0  0
   15.6806   -7.5850   12.6858 H   0  0  0  0  0  0
   19.9641  -11.1271   12.7748 H   0  0  0  0  0  0
   16.2093   -6.9141   10.4554 H   0  0  0  0  0  0
   17.7450   -7.3680   11.0922 H   0  0  0  0  0  0
   15.6791   -4.0856   11.2342 H   0  0  0  0  0  0
   15.7295   -4.7295    9.6179 H   0  0  0  0  0  0
   18.1647   -5.3150    9.9726 H   0  0  0  0  0  0
   18.0503   -4.7899   11.6257 H   0  0  0  0  0  0
   16.0385   -2.2624    9.5838 H   0  0  0  0  0  0
   17.4654   -3.0694    8.9451 H   0  0  0  0  0  0
   17.4843   -2.4090   10.5777 H   0  0  0  0  0  0
  1  3  1  0  0  0
  1  6  1  0  0  0
  1 23  1  0  0  0
  2  5  1  0  0  0
  2  7  1  0  0  0
  2 10  2  0  0  0
  3  5  1  0  0  0
  3 13  2  0  0  0
  4  7  1  0  0  0
  4 11  2  0  0  0
  4 12  2  0  0  0
  4 16  1  0  0  0
  5  8  1  0  0  0
  5 24  1  0  0  0
  6  8  1  0  0  0
  6 14  2  0  0  0
  7  9  2  0  0  0
  8 25  1  0  0  0
  9 17  1  0  0  0
  9 26  1  0  0  0
 10 15  1  0  0  0
 10 27  1  0  0  0
 15 17  2  0  0  0
 15 18  1  0  0  0
 16 19  1  0  0  0
 16 28  1  0  0  0
 16 29  1  0  0  0
 17 30  1  0  0  0
 19 21  1  0  0  0
 19 31  1  0  0  0
 19 32  1  0  0  0
 20 21  1  0  0  0
 20 22  1  0  0  0
 20 33  1  0  0  0
 20 34  1  0  0  0
 21 35  1  0  0  0
 21 36  1  0  0  0
 22 37  1  0  0  0
 22 38  1  0  0  0
 22 39  1  0  0  0
M  END
> <s_m_entry_id>
6705

> <s_m_entry_name>
dock_pv.540

> <s_m_Source_Path>
/home/csk/Desktop/cluster/DUD-E-result/aldr

> <s_m_Source_File>
dock_pv.maegz

> <i_m_Source_File_Index>
540

> <chembl_id>
CHEMBL19427

> <chembl_pref_name>
None

> <i_lp_mmshare_version>
53161

> <i_f3d_flags>
0

> <r_lp_tautomer_probability>
0.999999999781369

> <s_lp_Force_Field>
OPLS_2005

> <r_lp_Energy>
17.293266

> <b_lp_Chiralities_Consistent>
1

> <s_lp_Variant>
CHEMBL1900_lig27-1

> <s_i_glide_gridfile>
glide-grid_2hv5

> <i_i_glide_lignum>
50

> <i_i_glide_rotatable_bonds>
6

> <r_i_docking_score>
-7.04692040128043

> <r_i_glide_ligand_efficiency>
-0.320314563694565

> <r_i_glide_ligand_efficiency_sa>
-0.897534004729119

> <r_i_glide_ligand_efficiency_ln>
-1.72252438874

> <r_i_glide_gscore>
-7.04692040128043

> <r_i_glide_lipo>
-2.94866563690083

> <r_i_glide_hbond>
0

> <r_i_glide_metal>
0

> <r_i_glide_rewards>
-3.18543590322011

> <r_i_glide_evdw>
-34.7326850891113

> <r_i_glide_ecoul>
0.167583167552948

> <r_i_glide_erotb>
0.798677918163132

> <r_i_glide_esite>
0

> <r_i_glide_emodel>
-45.9200138499333

> <r_i_glide_energy>
-34.5651019215584

> <r_i_glide_einternal>
3.99482917785645

> <i_i_glide_confnum>
117

> <i_i_glide_posenum>
101

> <r_i_glide_eff_state_penalty>
0

> <s_user_duplicate_titles>
CHEMBL1900_lig27

> <s_m_subgroup_title>
dock_pv

> <s_m_subgroupid>
dock_pv

> <b_m_subgroup_collapsed>
1

$$$$
CHEMBL1900_lig23
                    3D
 Schrodinger Suite 2021-1.
 27 28  0  0  1  0            999 V2000
   18.5150   -5.9511   12.7309 N   0  0  0  0  0  0
   17.3768   -8.5045   14.8165 C   0  0  0  0  0  0
   18.7219   -6.4884   13.9382 C   0  0  0  0  0  0
   15.6784   -7.8710   17.0180 S   0  0  0  0  0  0
   17.3789   -7.0278   14.3762 C   0  0  1  0  0  0
   17.2931   -6.1737   12.2132 C   0  0  0  0  0  0
   16.6452   -8.9595   15.9394 C   0  0  0  0  0  0
   16.6091   -6.7874   13.1849 N   0  0  0  0  0  0
   16.6401  -10.3281   16.2469 C   0  0  0  0  0  0
   18.1012   -9.4425   14.0580 C   0  0  0  0  0  0
   14.9450   -6.9152   16.1809 O   0  0  0  0  0  0
   14.9453   -8.7180   17.9643 O   0  0  0  0  0  0
   19.7684   -6.5173   14.5798 O   0  0  0  0  0  0
   16.9445   -6.0093   11.0497 O   0  0  0  0  0  0
   18.0908  -10.7952   14.3819 C   0  0  0  0  0  0
   17.3541  -11.2398   15.4745 C   0  0  0  0  0  0
   16.9805   -6.9322   17.9961 C   0  0  0  0  0  0
   18.9916  -11.9155   13.4285 Cl  0  0  0  0  0  0
   19.2554   -5.5303   12.1961 H   0  0  0  0  0  0
   17.0183   -6.3595   15.1494 H   0  0  0  0  0  0
   15.6001   -6.8065   13.2083 H   0  0  0  0  0  0
   16.0750  -10.7012   17.0890 H   0  0  0  0  0  0
   18.6654   -9.1280   13.1914 H   0  0  0  0  0  0
   17.3369  -12.2905   15.7263 H   0  0  0  0  0  0
   16.4757   -6.2328   18.6601 H   0  0  0  0  0  0
   17.5542   -7.6484   18.5816 H   0  0  0  0  0  0
   17.6416   -6.3963   17.3179 H   0  0  0  0  0  0
  1  3  1  0  0  0
  1  6  1  0  0  0
  1 19  1  0  0  0
  2  5  1  0  0  0
  2  7  1  0  0  0
  2 10  2  0  0  0
  3  5  1  0  0  0
  3 13  2  0  0  0
  4  7  1  0  0  0
  4 11  2  0  0  0
  4 12  2  0  0  0
  4 17  1  0  0  0
  5  8  1  0  0  0
  5 20  1  0  0  0
  6  8  1  0  0  0
  6 14  2  0  0  0
  7  9  2  0  0  0
  8 21  1  0  0  0
  9 16  1  0  0  0
  9 22  1  0  0  0
 10 15  1  0  0  0
 10 23  1  0  0  0
 15 16  2  0  0  0
 15 18  1  0  0  0
 16 24  1  0  0  0
 17 25  1  0  0  0
 17 26  1  0  0  0
 17 27  1  0  0  0
M  END
> <s_m_entry_id>
6706

> <s_m_entry_name>
dock_pv.541

> <s_m_Source_Path>
/home/csk/Desktop/cluster/DUD-E-result/aldr

> <s_m_Source_File>
dock_pv.maegz

> <i_m_Source_File_Index>
541

> <chembl_id>
CHEMBL277520

> <chembl_pref_name>
None

> <i_lp_mmshare_version>
53161

> <i_f3d_flags>
0

> <r_lp_tautomer_probability>
0.999999999781369

> <s_lp_Force_Field>
OPLS_2005

> <r_lp_Energy>
18.265713

> <b_lp_Chiralities_Consistent>
1

> <s_lp_Variant>
CHEMBL1900_lig23-2

> <s_i_glide_gridfile>
glide-grid_2hv5

> <i_i_glide_lignum>
43

> <i_i_glide_rotatable_bonds>
2

> <r_i_docking_score>
-7.0461526653992

> <r_i_glide_ligand_efficiency>
-0.391452925855511

> <r_i_glide_ligand_efficiency_sa>
-1.02589688568532

> <r_i_glide_ligand_efficiency_ln>
-1.81117720976096

> <r_i_glide_gscore>
-7.0461526653992

> <r_i_glide_lipo>
-1.9351776561076

> <r_i_glide_hbond>
0

> <r_i_glide_metal>
0

> <r_i_glide_rewards>
-3.36137952531671

> <r_i_glide_evdw>
-35.9294929504395

> <r_i_glide_ecoul>
-1.14290487766266

> <r_i_glide_erotb>
0.218314895196486

> <r_i_glide_esite>
0

> <r_i_glide_emodel>
-52.0846267151693

> <r_i_glide_energy>
-37.0723978281021

> <r_i_glide_einternal>
0.660760819911957

> <i_i_glide_confnum>
1

> <i_i_glide_posenum>
236

> <r_i_glide_eff_state_penalty>
0

> <s_user_duplicate_titles>
CHEMBL1900_lig23

> <s_m_subgroup_title>
dock_pv

> <s_m_subgroupid>
dock_pv

> <b_m_subgroup_collapsed>
1

$$$$
CHEMBL1900_lig31
                    3D
 Schrodinger Suite 2021-1.
 26 27  0  0  1  0            999 V2000
   15.3470   -6.6779   17.8197 N   0  0  0  0  0  0
   17.3668   -8.7034   15.9884 C   0  0  0  0  0  0
   15.6861   -6.9275   16.5555 C   0  0  0  0  0  0
   17.1457   -7.2886   16.5645 C   0  0  1  0  0  0
   16.3842   -6.6260   18.6664 C   0  0  0  0  0  0
   17.4204   -7.1056   17.9692 N   0  0  0  0  0  0
   17.8274   -8.9349   14.6717 C   0  0  0  0  0  0
   18.1452   -7.6093   13.4492 S   0  0  1  0  0  0
   18.0226  -10.2408   14.2118 C   0  0  0  0  0  0
   17.0851   -9.8181   16.7909 C   0  0  0  0  0  0
   14.9451   -6.9552   15.5889 O   0  0  0  0  0  0
   16.3920   -6.1150   19.7812 O   0  0  0  0  0  0
   17.1056   -6.5147   13.6770 O   0  0  0  0  0  0
   17.2773  -11.1168   16.3286 C   0  0  0  0  0  0
   17.7454  -11.3293   15.0356 C   0  0  0  0  0  0
   16.9360  -12.4544   17.3634 Cl  0  0  0  0  0  0
   19.7453   -7.0407   14.1816 C   0  0  0  0  0  0
   14.3939   -6.5155   18.1038 H   0  0  0  0  0  0
   17.7019   -6.5171   16.0380 H   0  0  0  0  0  0
   18.2434   -7.4927   18.4078 H   0  0  0  0  0  0
   18.3704  -10.4174   13.2042 H   0  0  0  0  0  0
   16.6905   -9.6744   17.7811 H   0  0  0  0  0  0
   17.8906  -12.3349   14.6684 H   0  0  0  0  0  0
   20.5246   -7.7758   13.9810 H   0  0  0  0  0  0
   20.0612   -6.0914   13.7551 H   0  0  0  0  0  0
   19.6834   -6.9008   15.2578 H   0  0  0  0  0  0
  1  3  1  0  0  0
  1  5  1  0  0  0
  1 18  1  0  0  0
  2  4  1  0  0  0
  2  7  2  0  0  0
  2 10  1  0  0  0
  3  4  1  0  0  0
  3 11  2  0  0  0
  4  6  1  0  0  0
  4 19  1  0  0  0
  5  6  1  0  0  0
  5 12  2  0  0  0
  6 20  1  0  0  0
  7  8  1  0  0  0
  7  9  1  0  0  0
  8 13  2  0  0  0
  8 17  1  0  0  0
  9 15  2  0  0  0
  9 21  1  0  0  0
 10 14  2  0  0  0
 10 22  1  0  0  0
 14 15  1  0  0  0
 14 16  1  0  0  0
 15 23  1  0  0  0
 17 24  1  0  0  0
 17 25  1  0  0  0
 17 26  1  0  0  0
M  END
> <s_m_entry_id>
6707

> <s_m_entry_name>
dock_pv.542

> <s_m_Source_Path>
/home/csk/Desktop/cluster/DUD-E-result/aldr

> <s_m_Source_File>
dock_pv.maegz

> <i_m_Source_File_Index>
542

> <chembl_id>
CHEMBL279274

> <chembl_pref_name>
None

> <i_lp_mmshare_version>
53161

> <i_f3d_flags>
0

> <r_lp_tautomer_probability>
0.999999999781369

> <s_lp_Force_Field>
OPLS_2005

> <r_lp_Energy>
17.387209

> <b_lp_Chiralities_Consistent>
1

> <s_lp_Variant>
CHEMBL1900_lig31-4

> <s_i_glide_gridfile>
glide-grid_2hv5

> <i_i_glide_lignum>
61

> <i_i_glide_rotatable_bonds>
2

> <r_i_docking_score>
-7.04221629006969

> <r_i_glide_ligand_efficiency>
-0.414248017062923

> <r_i_glide_ligand_efficiency_sa>
-1.06514829923464

> <r_i_glide_ligand_efficiency_ln>
-1.83715740763278

> <r_i_glide_gscore>
-7.04221629006969

> <r_i_glide_lipo>
-1.62634865679051

> <r_i_glide_hbond>
-0.218920628043762

> <r_i_glide_metal>
0

> <r_i_glide_rewards>
-3.27739570510593

> <r_i_glide_evdw>
-31.106409072876

> <r_i_glide_ecoul>
-4.03516960144043

> <r_i_glide_erotb>
0.241044593730377

> <r_i_glide_esite>
0

> <r_i_glide_emodel>
-48.7429684394095

> <r_i_glide_energy>
-35.1415786743164

> <r_i_glide_einternal>
1.00477182865143

> <i_i_glide_confnum>
1

> <i_i_glide_posenum>
126

> <r_i_glide_eff_state_penalty>
0

> <s_user_duplicate_titles>
CHEMBL1900_lig31

> <s_m_subgroup_title>
dock_pv

> <s_m_subgroupid>
dock_pv

> <b_m_subgroup_collapsed>
1

$$$$
CHEMBL1900_lig431
                    3D
 Schrodinger Suite 2021-1.
 27 28  0  0  1  0            999 V2000
   18.0471   -7.3696   13.7933 S   0  0  0  0  0  0
   17.2478   -8.1559   15.2149 C   0  0  0  0  0  0
   16.5845   -7.3984   16.0267 N   0  0  0  0  0  0
   15.8645   -7.9864   17.0681 N   0  0  0  0  0  0
   17.2523   -9.5873   15.4299 C   0  0  0  0  0  0
   15.7096   -9.3180   17.3316 C   0  0  0  0  0  0
   16.5332  -10.1286   16.4441 C   0  0  0  0  0  0
   16.5448   -6.5909   12.9320 C   0  0  0  0  0  0
   18.9328   -6.3367   14.3421 O   0  0  0  0  0  0
   18.5702   -8.4735   12.9829 O   0  0  0  0  0  0
   14.9451   -9.7632   18.1822 O   0  0  0  0  0  0
   16.7736   -5.6188   11.7788 C   0  0  0  0  0  0
   15.6675   -5.2583   11.0013 C   0  0  0  0  0  0
   18.0180   -5.0381   11.5174 C   0  0  0  0  0  0
   18.1465   -4.0951   10.5006 C   0  0  0  0  0  0
   15.7987   -4.3157    9.9853 C   0  0  0  0  0  0
   17.0378   -3.7318    9.7437 C   0  0  0  0  0  0
   17.8508  -10.2358   14.8041 H   0  0  0  0  0  0
   16.5483  -11.1962   16.6085 H   0  0  0  0  0  0
   15.9352   -7.4071   12.5809 H   0  0  0  0  0  0
   15.9623   -6.1150   13.7095 H   0  0  0  0  0  0
   15.3490   -7.3417   17.6484 H   0  0  0  0  0  0
   14.6959   -5.6894   11.1972 H   0  0  0  0  0  0
   18.8882   -5.2937   12.1012 H   0  0  0  0  0  0
   19.1032   -3.6349   10.3068 H   0  0  0  0  0  0
   14.9452   -4.0309    9.3890 H   0  0  0  0  0  0
   17.1382   -2.9953    8.9601 H   0  0  0  0  0  0
  1  8  1  0  0  0
  1  9  2  0  0  0
  1 10  2  0  0  0
  1  2  1  0  0  0
  2  5  1  0  0  0
  2  3  2  0  0  0
  3  4  1  0  0  0
  4  6  1  0  0  0
  4 22  1  0  0  0
  5  7  2  0  0  0
  5 18  1  0  0  0
  6 11  2  0  0  0
  6  7  1  0  0  0
  7 19  1  0  0  0
  8 12  1  0  0  0
  8 20  1  0  0  0
  8 21  1  0  0  0
 12 13  1  0  0  0
 12 14  2  0  0  0
 13 16  2  0  0  0
 13 23  1  0  0  0
 14 15  1  0  0  0
 14 24  1  0  0  0
 15 17  2  0  0  0
 15 25  1  0  0  0
 16 17  1  0  0  0
 16 26  1  0  0  0
 17 27  1  0  0  0
M  END
> <s_m_entry_id>
6708

> <s_m_entry_name>
dock_pv.543

> <s_m_Source_Path>
/home/csk/Desktop/cluster/DUD-E-result/aldr

> <s_m_Source_File>
dock_pv.maegz

> <i_m_Source_File_Index>
543

> <chembl_id>
CHEMBL199028

> <chembl_pref_name>
None

> <i_lp_mmshare_version>
53161

> <i_f3d_flags>
0

> <r_lp_tautomer_probability>
0.998994762270461

> <s_lp_Force_Field>
OPLS_2005

> <r_lp_Energy>
18.80907

> <b_lp_Chiralities_Consistent>
1

> <s_lp_Variant>
CHEMBL1900_lig431-1

> <s_i_glide_gridfile>
glide-grid_2hv5

> <i_i_glide_lignum>
553

> <i_i_glide_rotatable_bonds>
3

> <r_i_docking_score>
-7.04133697197992

> <r_i_glide_ligand_efficiency>
-0.414196292469407

> <r_i_glide_ligand_efficiency_sa>
-1.06501530073968

> <r_i_glide_ligand_efficiency_ln>
-1.83692801312461

> <r_i_glide_gscore>
-7.04133697197992

> <r_i_glide_lipo>
-3.23043525937571

> <r_i_glide_hbond>
0

> <r_i_glide_metal>
0

> <r_i_glide_rewards>
-3.0526725

> <r_i_glide_evdw>
-37.6100730895996

> <r_i_glide_ecoul>
1.89236307144165

> <r_i_glide_erotb>
0.838419981159521

> <r_i_glide_esite>
0

> <r_i_glide_emodel>
-46.5154334957408

> <r_i_glide_energy>
-35.717710018158

> <r_i_glide_einternal>
4.01260232925415

> <i_i_glide_confnum>
1

> <i_i_glide_posenum>
250

> <r_i_glide_eff_state_penalty>
0

> <s_user_duplicate_titles>
CHEMBL1900_lig431,331294

> <s_m_subgroup_title>
dock_pv

> <s_m_subgroupid>
dock_pv

> <b_m_subgroup_collapsed>
1

$$$$
CHEMBL1900_lig513
                    3D
 Schrodinger Suite 2021-1.
 46 47  0  0  1  0            999 V2000
   16.6768   -5.2943   10.5107 S   0  0  0  0  0  0
   17.9189   -5.1226    9.7596 O   0  0  0  0  0  0
   15.6889   -6.3111   10.1832 O   0  0  0  0  0  0
   15.3547  -12.5480   16.6923 C   0  0  0  0  0  0
   14.7841  -12.3476   17.9440 C   0  0  0  0  0  0
   14.6127  -11.0497   18.4187 C   0  0  0  0  0  0
   14.9961   -9.9396   17.6642 C   0  0  0  0  0  0
   15.5105  -10.1527   16.3813 C   0  0  0  0  0  0
   15.7257  -11.4526   15.9202 C   0  0  0  0  0  0
   15.5866  -14.1425   16.0869 Cl  0  0  0  0  0  0
   15.8334   -9.0352   15.5213 C   0  0  0  0  0  0
   16.2173   -8.1020   14.8406 C   0  0  0  0  0  0
   14.8474   -8.6685   18.1803 O   0  0  0  0  0  0
   16.0441   -8.0701   18.6970 C   0  0  0  0  0  0
   15.9828   -6.5427   18.5798 C   0  0  0  0  0  0
   16.1611   -5.7908   19.5350 O   0  0  0  0  0  0
   15.7308   -6.1112   17.3154 O   0  0  0  0  0  0
   16.9333   -7.0898   14.0887 C   0  0  0  0  0  0
   16.3899   -6.5833   12.9142 C   0  0  0  0  0  0
   17.1561   -5.7163   12.1364 C   0  0  0  0  0  0
   18.4089   -5.3126   12.5468 C   0  0  0  0  0  0
   18.9435   -5.7823   13.7272 C   0  0  0  0  0  0
   18.2207   -6.6942   14.4798 C   0  0  0  0  0  0
   15.8766   -3.6296   10.5786 C   0  0  0  0  0  0
   18.9063   -7.3143   15.6503 C   0  0  0  0  0  0
   15.5906   -3.0131    9.2130 C   0  0  0  0  0  0
   16.8279   -2.4013    8.5513 C   0  0  0  0  0  0
   14.4724  -13.1898   18.5454 H   0  0  0  0  0  0
   14.1911  -10.9134   19.3871 H   0  0  0  0  0  0
   16.1531  -11.6207   14.9423 H   0  0  0  0  0  0
   16.1303   -8.3072   19.7538 H   0  0  0  0  0  0
   16.9549   -8.4196   18.2109 H   0  0  0  0  0  0
   15.7822   -5.1536   17.2977 H   0  0  0  0  0  0
   15.4221   -6.9173   12.5655 H   0  0  0  0  0  0
   18.9446   -4.6247   11.9212 H   0  0  0  0  0  0
   19.9342   -5.4769   14.0257 H   0  0  0  0  0  0
   15.0086   -3.7177   11.2294 H   0  0  0  0  0  0
   16.6736   -3.0318   10.9811 H   0  0  0  0  0  0
   19.9104   -6.9110   15.7812 H   0  0  0  0  0  0
   18.3399   -7.1649   16.5704 H   0  0  0  0  0  0
   18.9449   -8.3781   15.3977 H   0  0  0  0  0  0
   15.1015   -3.7284    8.5500 H   0  0  0  0  0  0
   14.8980   -2.1897    9.3801 H   0  0  0  0  0  0
   16.5452   -1.8113    7.6754 H   0  0  0  0  0  0
   17.3680   -1.7306    9.2224 H   0  0  0  0  0  0
   17.5137   -3.1739    8.2014 H   0  0  0  0  0  0
  1  3  2  0  0  0
  1 20  1  0  0  0
  1 24  1  0  0  0
  1  2  2  0  0  0
  4  5  2  0  0  0
  4  9  1  0  0  0
  4 10  1  0  0  0
  5  6  1  0  0  0
  5 28  1  0  0  0
  6  7  2  0  0  0
  6 29  1  0  0  0
  7  8  1  0  0  0
  7 13  1  0  0  0
  8  9  2  0  0  0
  8 11  1  0  0  0
  9 30  1  0  0  0
 11 12  3  0  0  0
 12 18  1  0  0  0
 13 14  1  0  0  0
 14 15  1  0  0  0
 14 31  1  0  0  0
 14 32  1  0  0  0
 15 16  2  0  0  0
 15 17  1  0  0  0
 17 33  1  0  0  0
 18 19  2  0  0  0
 18 23  1  0  0  0
 19 20  1  0  0  0
 19 34  1  0  0  0
 20 21  2  0  0  0
 21 22  1  0  0  0
 21 35  1  0  0  0
 22 23  2  0  0  0
 22 36  1  0  0  0
 23 25  1  0  0  0
 24 26  1  0  0  0
 24 37  1  0  0  0
 24 38  1  0  0  0
 25 39  1  0  0  0
 25 40  1  0  0  0
 25 41  1  0  0  0
 26 27  1  0  0  0
 26 42  1  0  0  0
 26 43  1  0  0  0
 27 44  1  0  0  0
 27 45  1  0  0  0
 27 46  1  0  0  0
M  END
> <s_m_entry_id>
6709

> <s_m_entry_name>
dock_pv.544

> <s_m_Source_Path>
/home/csk/Desktop/cluster/DUD-E-result/aldr

> <s_m_Source_File>
dock_pv.maegz

> <i_m_Source_File_Index>
544

> <chembl_id>
CHEMBL1917584

> <chembl_pref_name>
None

> <i_lp_mmshare_version>
53161

> <i_f3d_flags>
0

> <r_lp_tautomer_probability>
1

> <s_lp_Force_Field>
OPLS_2005

> <r_lp_Energy>
11.812398

> <b_lp_Chiralities_Consistent>
1

> <s_lp_Variant>
CHEMBL1900_lig513-1

> <s_i_glide_gridfile>
glide-grid_2hv5

> <i_i_glide_lignum>
636

> <i_i_glide_rotatable_bonds>
9

> <r_i_docking_score>
-7.03418552136298

> <r_i_glide_ligand_efficiency>
-0.26052538968011

> <r_i_glide_ligand_efficiency_sa>
-0.781576168181682

> <r_i_glide_ligand_efficiency_ln>
-1.63744242176162

> <r_i_glide_gscore>
-7.03418552136298

> <r_i_glide_lipo>
-3.90955373445153

> <r_i_glide_hbond>
-0.0468082080738591

> <r_i_glide_metal>
0

> <r_i_glide_rewards>
-2.30552233026346

> <r_i_glide_evdw>
-25.4741153717041

> <r_i_glide_ecoul>
-2.20101046562195

> <r_i_glide_erotb>
0.831556089854367

> <r_i_glide_esite>
0

> <r_i_glide_emodel>
-28.1214509468974

> <r_i_glide_energy>
-27.675125837326

> <r_i_glide_einternal>
12.0412912368774

> <i_i_glide_confnum>
23

> <i_i_glide_posenum>
150

> <r_i_glide_eff_state_penalty>
0

> <s_user_duplicate_titles>
CHEMBL1900_lig513

> <s_m_subgroup_title>
dock_pv

> <s_m_subgroupid>
dock_pv

> <b_m_subgroup_collapsed>
1

$$$$
CHEMBL1900_lig357
                    3D
 Schrodinger Suite 2021-1.
 30 31  0  0  1  0            999 V2000
   16.9889   -9.1472   15.3810 C   0  0  0  0  0  0
   16.0512   -8.2807   16.2490 C   0  0  2  0  0  0
   16.9120  -10.5570   15.4554 C   0  0  0  0  0  0
   16.8904   -7.5132   17.3304 C   0  0  0  0  0  0
   17.9525   -8.6057   14.5000 C   0  0  0  0  0  0
   16.0135  -11.2335   16.2492 O   0  0  0  0  0  0
   14.9692   -9.1669   16.9308 C   0  0  0  0  0  0
   16.1876   -6.3536   18.0499 C   0  0  0  0  0  0
   18.7778   -9.4427   13.7495 C   0  0  0  0  0  0
   15.5459  -10.5193   17.3854 C   0  0  1  0  0  0
   17.7052  -11.3812   14.6608 C   0  0  0  0  0  0
   15.7451   -5.3777   17.4517 O   0  0  0  0  0  0
   18.6352  -10.8227   13.7950 C   0  0  0  0  0  0
   15.3510   -7.3619   15.4318 O   0  0  0  0  0  0
   18.1841   -6.7195   14.2628 Br  0  0  0  0  0  0
   19.7445   -8.9120   12.9811 F   0  0  0  0  0  0
   16.1449   -6.5238   19.4014 O   0  0  0  0  0  0
   14.5459  -11.4143   18.1224 C   0  0  0  0  0  0
   16.3777  -10.3427   18.0672 H   0  0  0  0  0  0
   17.7815   -7.0642   16.8980 H   0  0  0  0  0  0
   17.2869   -8.2217   18.0565 H   0  0  0  0  0  0
   14.5065   -8.6436   17.7687 H   0  0  0  0  0  0
   14.1451   -9.3729   16.2438 H   0  0  0  0  0  0
   17.5962  -12.4551   14.7168 H   0  0  0  0  0  0
   19.2683  -11.4560   13.1902 H   0  0  0  0  0  0
   15.9890   -6.7368   15.0767 H   0  0  0  0  0  0
   16.5817   -7.3306   19.6814 H   0  0  0  0  0  0
   14.1042  -10.9126   18.9809 H   0  0  0  0  0  0
   13.7455  -11.7355   17.4604 H   0  0  0  0  0  0
   15.0350  -12.3170   18.4893 H   0  0  0  0  0  0
  1  2  1  0  0  0
  1  3  2  0  0  0
  1  5  1  0  0  0
  2  4  1  0  0  0
  2  7  1  0  0  0
  2 14  1  0  0  0
  3  6  1  0  0  0
  3 11  1  0  0  0
  4  8  1  0  0  0
  4 20  1  0  0  0
  4 21  1  0  0  0
  5  9  2  0  0  0
  5 15  1  0  0  0
  6 10  1  0  0  0
  7 10  1  0  0  0
  7 22  1  0  0  0
  7 23  1  0  0  0
  8 12  2  0  0  0
  8 17  1  0  0  0
  9 13  1  0  0  0
  9 16  1  0  0  0
 10 18  1  0  0  0
 10 19  1  0  0  0
 11 13  2  0  0  0
 11 24  1  0  0  0
 13 25  1  0  0  0
 14 26  1  0  0  0
 17 27  1  0  0  0
 18 28  1  0  0  0
 18 29  1  0  0  0
 18 30  1  0  0  0
M  END
> <s_m_entry_id>
6710

> <s_m_entry_name>
dock_pv.545

> <s_m_Source_Path>
/home/csk/Desktop/cluster/DUD-E-result/aldr

> <s_m_Source_File>
dock_pv.maegz

> <i_m_Source_File_Index>
545

> <chembl_id>
CHEMBL420550

> <chembl_pref_name>
None

> <i_lp_mmshare_version>
53161

> <i_f3d_flags>
0

> <r_lp_tautomer_probability>
1

> <s_lp_Force_Field>
OPLS_2005

> <r_lp_Energy>
15.345894

> <b_lp_Chiralities_Consistent>
1

> <s_lp_Variant>
CHEMBL1900_lig357-1

> <s_i_glide_gridfile>
glide-grid_2hv5

> <i_i_glide_lignum>
478

> <i_i_glide_rotatable_bonds>
4

> <r_i_docking_score>
-7.02203138459984

> <r_i_glide_ligand_efficiency>
-0.390112854699991

> <r_i_glide_ligand_efficiency_sa>
-1.02238490574024

> <r_i_glide_ligand_efficiency_ln>
-1.80497695891079

> <r_i_glide_gscore>
-7.02203138459984

> <r_i_glide_lipo>
-2.74829891989329

> <r_i_glide_hbond>
-0.036551728099718

> <r_i_glide_metal>
0

> <r_i_glide_rewards>
-2.46499724272606

> <r_i_glide_evdw>
-29.0119361877441

> <r_i_glide_ecoul>
-4.58623695373535

> <r_i_glide_erotb>
0.366348858566739

> <r_i_glide_esite>
0

> <r_i_glide_emodel>
-44.6925209259422

> <r_i_glide_energy>
-33.5981731414795

> <r_i_glide_einternal>
3.7826361656189

> <i_i_glide_confnum>
2

> <i_i_glide_posenum>
28

> <r_i_glide_eff_state_penalty>
0

> <s_user_duplicate_titles>
CHEMBL1900_lig357

> <s_m_subgroup_title>
dock_pv

> <s_m_subgroupid>
dock_pv

> <b_m_subgroup_collapsed>
1

$$$$
CHEMBL1900_lig418
                    3D
 Schrodinger Suite 2021-1.
 24 25  0  0  1  0            999 V2000
   18.4630   -7.5380   14.0477 S   0  0  0  0  0  0
   17.4003   -6.6072   12.9061 C   0  0  0  0  0  0
   17.4150   -8.1041   15.3995 C   0  0  0  0  0  0
   16.1444   -6.8822   12.8438 N   0  0  0  0  0  0
   15.3361   -6.1683   11.9428 N   0  0  0  0  0  0
   16.8711   -9.3961   15.4105 C   0  0  0  0  0  0
   17.9236   -5.5836   12.0392 C   0  0  0  0  0  0
   15.7111   -5.2051   11.0510 C   0  0  0  0  0  0
   17.1421   -7.2382   16.4610 C   0  0  0  0  0  0
   19.4043   -6.5470   14.5815 O   0  0  0  0  0  0
   18.9474   -8.7025   13.2987 O   0  0  0  0  0  0
   17.1331   -4.9333   11.1537 C   0  0  0  0  0  0
   16.0339   -9.7916   16.4522 C   0  0  0  0  0  0
   14.9448   -4.6260   10.2891 O   0  0  0  0  0  0
   15.7506   -8.9176   17.4959 C   0  0  0  0  0  0
   17.1274  -10.2830   14.4250 F   0  0  0  0  0  0
   16.3112   -7.6423   17.5068 C   0  0  0  0  0  0
   14.9451   -9.3150   18.5043 F   0  0  0  0  0  0
   18.9457   -5.3103   12.1090 H   0  0  0  0  0  0
   17.5743   -6.2502   16.4856 H   0  0  0  0  0  0
   17.5426   -4.1570   10.5224 H   0  0  0  0  0  0
   15.6057  -10.7828   16.4502 H   0  0  0  0  0  0
   14.3581   -6.4162   11.9554 H   0  0  0  0  0  0
   16.1043   -6.9732   18.3282 H   0  0  0  0  0  0
  1  3  1  0  0  0
  1 10  2  0  0  0
  1 11  2  0  0  0
  1  2  1  0  0  0
  2  7  1  0  0  0
  2  4  2  0  0  0
  3  6  2  0  0  0
  3  9  1  0  0  0
  4  5  1  0  0  0
  5  8  1  0  0  0
  5 23  1  0  0  0
  6 13  1  0  0  0
  6 16  1  0  0  0
  7 12  2  0  0  0
  7 19  1  0  0  0
  8 14  2  0  0  0
  8 12  1  0  0  0
  9 17  2  0  0  0
  9 20  1  0  0  0
 12 21  1  0  0  0
 13 15  2  0  0  0
 13 22  1  0  0  0
 15 17  1  0  0  0
 15 18  1  0  0  0
 17 24  1  0  0  0
M  END
> <s_m_entry_id>
6711

> <s_m_entry_name>
dock_pv.546

> <s_m_Source_Path>
/home/csk/Desktop/cluster/DUD-E-result/aldr

> <s_m_Source_File>
dock_pv.maegz

> <i_m_Source_File_Index>
546

> <chembl_id>
CHEMBL363415

> <chembl_pref_name>
None

> <i_lp_mmshare_version>
53161

> <i_f3d_flags>
0

> <r_lp_tautomer_probability>
0.998994762270461

> <s_lp_Force_Field>
OPLS_2005

> <r_lp_Energy>
20.351217

> <b_lp_Chiralities_Consistent>
1

> <s_lp_Variant>
CHEMBL1900_lig418-1

> <s_i_glide_gridfile>
glide-grid_2hv5

> <i_i_glide_lignum>
540

> <i_i_glide_rotatable_bonds>
2

> <r_i_docking_score>
-7.01905582900728

> <r_i_glide_ligand_efficiency>
-0.38994754605596

> <r_i_glide_ligand_efficiency_sa>
-1.02195167453443

> <r_i_glide_ligand_efficiency_ln>
-1.80421210768892

> <r_i_glide_gscore>
-7.01905582900728

> <r_i_glide_lipo>
-2.89275855468855

> <r_i_glide_hbond>
0

> <r_i_glide_metal>
0

> <r_i_glide_rewards>
-3.17194431580389

> <r_i_glide_evdw>
-36.0321159362793

> <r_i_glide_ecoul>
2.42461156845093

> <r_i_glide_erotb>
0.483561103031494

> <r_i_glide_esite>
0

> <r_i_glide_emodel>
-46.1824154734085

> <r_i_glide_energy>
-33.6075043678284

> <r_i_glide_einternal>
1.91989660263062

> <i_i_glide_confnum>
1

> <i_i_glide_posenum>
29

> <r_i_glide_eff_state_penalty>
0

> <s_user_duplicate_titles>
CHEMBL1900_lig418,329770

> <s_m_subgroup_title>
dock_pv

> <s_m_subgroupid>
dock_pv

> <b_m_subgroup_collapsed>
1

$$$$
CHEMBL1900_lig223
                    3D
 Schrodinger Suite 2021-1.
 25 26  0  0  1  0            999 V2000
   16.5263  -10.2755   16.2106 C   0  0  0  0  0  0
   17.7556   -4.9150   11.7110 C   0  0  0  0  0  0
   17.5083   -6.6938   13.3599 C   0  0  0  0  0  0
   17.2537   -8.1631   15.2534 C   0  0  0  0  0  0
   17.3490   -9.5567   15.3309 C   0  0  0  0  0  0
   18.2321   -5.6520   12.8170 C   0  0  0  0  0  0
   15.5818   -9.5964   16.9955 C   0  0  0  0  0  0
   16.4670   -5.1633   11.2207 C   0  0  0  0  0  0
   15.6926   -6.1452   11.8353 C   0  0  0  0  0  0
   15.4773   -8.2028   16.8955 C   0  0  0  0  0  0
   18.0574   -7.4623   14.3772 O   0  0  0  0  0  0
   16.3240   -7.4947   16.0491 C   0  0  0  0  0  0
   16.2478   -6.9150   12.8511 C   0  0  0  0  0  0
   16.6698  -12.0016   16.3108 Cl  0  0  0  0  0  0
   18.6943   -3.6554   10.9810 Cl  0  0  0  0  0  0
   14.5450  -10.4725   18.0770 Cl  0  0  0  0  0  0
   15.8165   -4.2404    9.9023 Cl  0  0  0  0  0  0
   19.3450   -5.3150   13.5158 O   0  0  0  0  0  0
   18.2320  -10.2098   14.5091 O   0  0  0  0  0  0
   14.2952   -7.3150   17.7810 Cl  0  0  0  0  0  0
   14.0580   -6.4418   11.3810 Cl  0  0  0  0  0  0
   16.2388   -6.4221   15.9858 H   0  0  0  0  0  0
   15.7450   -7.7150   13.3103 H   0  0  0  0  0  0
   19.4778   -5.8819   14.2805 H   0  0  0  0  0  0
   18.7250   -9.6069   13.9462 H   0  0  0  0  0  0
  1  5  1  0  0  0
  1  7  2  0  0  0
  1 14  1  0  0  0
  2  6  2  0  0  0
  2 15  1  0  0  0
  2  8  1  0  0  0
  3 11  1  0  0  0
  3  6  1  0  0  0
  3 13  2  0  0  0
  4  5  2  0  0  0
  4 11  1  0  0  0
  4 12  1  0  0  0
  5 19  1  0  0  0
  6 18  1  0  0  0
  7 10  1  0  0  0
  7 16  1  0  0  0
  8  9  2  0  0  0
  8 17  1  0  0  0
  9 13  1  0  0  0
  9 21  1  0  0  0
 10 12  2  0  0  0
 10 20  1  0  0  0
 12 22  1  0  0  0
 13 23  1  0  0  0
 18 24  1  0  0  0
 19 25  1  0  0  0
M  END
> <s_m_entry_id>
6712

> <s_m_entry_name>
dock_pv.547

> <s_m_Source_Path>
/home/csk/Desktop/cluster/DUD-E-result/aldr

> <s_m_Source_File>
dock_pv.maegz

> <i_m_Source_File_Index>
547

> <chembl_id>
CHEMBL150198

> <chembl_pref_name>
None

> <i_lp_mmshare_version>
53161

> <i_f3d_flags>
0

> <r_lp_tautomer_probability>
0.999999999999552

> <s_lp_Force_Field>
OPLS_2005

> <r_lp_Energy>
14.022444

> <b_lp_Chiralities_Consistent>
1

> <s_lp_Variant>
CHEMBL1900_lig223-1

> <s_i_glide_gridfile>
glide-grid_2hv5

> <i_i_glide_lignum>
299

> <i_i_glide_rotatable_bonds>
4

> <r_i_docking_score>
-7.01836858156409

> <r_i_glide_ligand_efficiency>
-0.334208027693528

> <r_i_glide_ligand_efficiency_sa>
-0.922054606608587

> <r_i_glide_ligand_efficiency_ln>
-1.73527744984265

> <r_i_glide_gscore>
-7.01836858156409

> <r_i_glide_lipo>
-4.3012388366346

> <r_i_glide_hbond>
0

> <r_i_glide_metal>
0

> <r_i_glide_rewards>
-1.52130981818182

> <r_i_glide_evdw>
-26.6688251495361

> <r_i_glide_ecoul>
-0.652540147304535

> <r_i_glide_erotb>
0.23550235282481

> <r_i_glide_esite>
0

> <r_i_glide_emodel>
-34.6625933129322

> <r_i_glide_energy>
-27.3213652968407

> <r_i_glide_einternal>
1.8634512424469

> <i_i_glide_confnum>
2

> <i_i_glide_posenum>
55

> <r_i_glide_eff_state_penalty>
0

> <s_user_duplicate_titles>
CHEMBL1900_lig223

> <s_m_subgroup_title>
dock_pv

> <s_m_subgroupid>
dock_pv

> <b_m_subgroup_collapsed>
1

$$$$
CHEMBL1900_lig565
                    3D
 Schrodinger Suite 2021-1.
 43 46  0  0  1  0            999 V2000
   14.7917  -13.4729   17.1561 C   0  0  0  0  0  0
   14.5062  -12.7295   18.2944 C   0  0  0  0  0  0
   14.8803  -11.3979   18.4075 C   0  0  0  0  0  0
   15.5637  -12.9377   16.1301 C   0  0  0  0  0  0
   16.0216  -11.6217   16.2407 C   0  0  0  0  0  0
   15.6570  -10.8476   17.3723 C   0  0  0  0  0  0
   16.2216   -9.5829   17.2159 N   0  0  0  0  0  0
   16.8596  -10.8148   15.4284 C   0  0  0  0  0  0
   16.9352   -9.5482   16.0002 C   0  0  0  0  0  0
   17.6715   -8.4669   15.3501 C   0  0  0  0  0  0
   18.3593   -8.8125   14.1991 N   0  0  0  0  0  0
   18.7253  -10.2080   13.9033 C   0  0  0  0  0  0
   17.5828  -11.2027   14.1510 C   0  0  0  0  0  0
   17.7446   -6.9204   15.9383 S   0  0  0  0  0  0
   19.1371   -7.8202   13.4186 C   0  0  0  0  0  0
   18.2938   -6.7947   12.6625 C   0  0  0  0  0  0
   17.3438   -7.2572   11.7810 C   0  0  0  0  0  0
   16.7114   -6.3799   10.9006 C   0  0  0  0  0  0
   17.0894   -5.0398   10.8810 C   0  0  0  0  0  0
   18.0586   -4.5756   11.7666 C   0  0  0  0  0  0
   18.5981   -5.4415   12.7053 C   0  0  0  0  0  0
   16.1525   -8.5396   18.2689 C   0  0  0  0  0  0
   15.2885   -7.3194   17.9927 C   0  0  0  0  0  0
   14.3215   -7.3171   17.2371 O   0  0  0  0  0  0
   15.7434   -6.2488   18.7100 O   0  0  0  0  0  0
   14.1490  -15.0616   16.9952 Cl  0  0  0  0  0  0
   13.8869  -13.1747   19.0657 H   0  0  0  0  0  0
   14.5728  -10.8349   19.2782 H   0  0  0  0  0  0
   15.8022  -13.5310   15.2624 H   0  0  0  0  0  0
   19.5300  -10.4407   14.5802 H   0  0  0  0  0  0
   19.1017  -10.3364   12.8889 H   0  0  0  0  0  0
   18.0091  -12.2032   14.2467 H   0  0  0  0  0  0
   16.9465  -11.2531   13.2802 H   0  0  0  0  0  0
   19.7768   -8.3415   12.7098 H   0  0  0  0  0  0
   19.8553   -7.3111   14.0661 H   0  0  0  0  0  0
   17.1112   -8.3094   11.7850 H   0  0  0  0  0  0
   15.9717   -6.7374   10.1977 H   0  0  0  0  0  0
   16.6360   -4.3657   10.1642 H   0  0  0  0  0  0
   18.3599   -3.5443   11.7392 H   0  0  0  0  0  0
   19.3465   -5.0766   13.3967 H   0  0  0  0  0  0
   17.1688   -8.2459   18.5145 H   0  0  0  0  0  0
   15.7432   -8.9490   19.1913 H   0  0  0  0  0  0
   16.5767   -6.4279   19.1480 H   0  0  0  0  0  0
  1  2  1  0  0  0
  1  4  2  0  0  0
  1 26  1  0  0  0
  2  3  2  0  0  0
  2 27  1  0  0  0
  3  6  1  0  0  0
  3 28  1  0  0  0
  4  5  1  0  0  0
  4 29  1  0  0  0
  5  8  1  0  0  0
  5  6  2  0  0  0
  6  7  1  0  0  0
  7  9  1  0  0  0
  7 22  1  0  0  0
  8  9  2  0  0  0
  8 13  1  0  0  0
  9 10  1  0  0  0
 10 11  1  0  0  0
 10 14  2  0  0  0
 11 12  1  0  0  0
 11 15  1  0  0  0
 12 13  1  0  0  0
 12 30  1  0  0  0
 12 31  1  0  0  0
 13 32  1  0  0  0
 13 33  1  0  0  0
 15 16  1  0  0  0
 15 34  1  0  0  0
 15 35  1  0  0  0
 16 17  2  0  0  0
 16 21  1  0  0  0
 17 18  1  0  0  0
 17 36  1  0  0  0
 18 19  2  0  0  0
 18 37  1  0  0  0
 19 20  1  0  0  0
 19 38  1  0  0  0
 20 21  2  0  0  0
 20 39  1  0  0  0
 21 40  1  0  0  0
 22 23  1  0  0  0
 22 41  1  0  0  0
 22 42  1  0  0  0
 23 24  2  0  0  0
 23 25  1  0  0  0
 25 43  1  0  0  0
M  END
> <s_m_entry_id>
6713

> <s_m_entry_name>
dock_pv.548

> <s_m_Source_Path>
/home/csk/Desktop/cluster/DUD-E-result/aldr

> <s_m_Source_File>
dock_pv.maegz

> <i_m_Source_File_Index>
548

> <chembl_id>
CHEMBL1944853

> <chembl_pref_name>
None

> <i_lp_mmshare_version>
53161

> <i_f3d_flags>
0

> <r_lp_tautomer_probability>
1

> <s_lp_Force_Field>
OPLS_2005

> <r_lp_Energy>
37.439568

> <b_lp_Chiralities_Consistent>
1

> <s_lp_Variant>
CHEMBL1900_lig565-1

> <s_i_glide_gridfile>
glide-grid_2hv5

> <i_i_glide_lignum>
688

> <i_i_glide_rotatable_bonds>
5

> <r_i_docking_score>
-7.01283893369129

> <r_i_glide_ligand_efficiency>
-0.269724574372742

> <r_i_glide_ligand_efficiency_sa>
-0.799057990264297

> <r_i_glide_ligand_efficiency_ln>
-1.646942212576

> <r_i_glide_gscore>
-7.01283893369129

> <r_i_glide_lipo>
-3.17243268828746

> <r_i_glide_hbond>
0

> <r_i_glide_metal>
0

> <r_i_glide_rewards>
-3.19462571078411

> <r_i_glide_evdw>
-16.4007205963135

> <r_i_glide_ecoul>
-2.33916234970093

> <r_i_glide_erotb>
0.52512984765109

> <r_i_glide_esite>
0

> <r_i_glide_emodel>
-29.517599206345

> <r_i_glide_energy>
-18.7398829460144

> <r_i_glide_einternal>
10.2920331954956

> <i_i_glide_confnum>
3

> <i_i_glide_posenum>
314

> <r_i_glide_eff_state_penalty>
0

> <s_user_duplicate_titles>
CHEMBL1900_lig565

> <s_m_subgroup_title>
dock_pv

> <s_m_subgroupid>
dock_pv

> <b_m_subgroup_collapsed>
1

$$$$
CHEMBL1900_lig21
                    3D
 Schrodinger Suite 2021-1.
 27 28  0  0  1  0            999 V2000
   16.6924   -9.0247   15.8584 C   0  0  0  0  0  0
   17.3725   -8.5128   14.7176 C   0  0  0  0  0  0
   18.5152   -5.9010   12.7194 N   0  0  0  0  0  0
   15.7216   -7.9106   16.9447 S   0  0  0  0  0  0
   18.7101   -6.4653   13.9177 C   0  0  0  0  0  0
   17.3645   -7.0212   14.3235 C   0  0  1  0  0  0
   17.2992   -6.1168   12.1818 C   0  0  0  0  0  0
   16.6035   -6.7425   13.1357 N   0  0  0  0  0  0
   16.7947  -10.4135   16.1316 C   0  0  0  0  0  0
   17.5059  -11.2546   15.2778 C   0  0  0  0  0  0
   18.0850   -9.3957   13.8860 C   0  0  0  0  0  0
   15.0117   -6.9370   16.1072 O   0  0  0  0  0  0
   14.9449   -8.6924   17.9079 O   0  0  0  0  0  0
   19.7463   -6.5152   14.5738 O   0  0  0  0  0  0
   18.1451  -10.7527   14.1566 C   0  0  0  0  0  0
   16.9661   -5.9325   11.0165 O   0  0  0  0  0  0
   16.1011  -11.2016   17.5062 Cl  0  0  0  0  0  0
   17.0393   -6.9945   17.9253 C   0  0  0  0  0  0
   19.0235  -11.8057   13.1096 Cl  0  0  0  0  0  0
   19.2573   -5.4601   12.2026 H   0  0  0  0  0  0
   17.0249   -6.3635   15.1115 H   0  0  0  0  0  0
   15.5938   -6.7695   13.1461 H   0  0  0  0  0  0
   17.5664  -12.3129   15.4927 H   0  0  0  0  0  0
   18.5875   -9.0318   12.9980 H   0  0  0  0  0  0
   16.5459   -6.2503   18.5467 H   0  0  0  0  0  0
   17.5580   -7.7142   18.5555 H   0  0  0  0  0  0
   17.7449   -6.5138   17.2512 H   0  0  0  0  0  0
  1  2  1  0  0  0
  1  4  1  0  0  0
  1  9  2  0  0  0
  2  6  1  0  0  0
  2 11  2  0  0  0
  3  5  1  0  0  0
  3  7  1  0  0  0
  3 20  1  0  0  0
  4 12  2  0  0  0
  4 13  2  0  0  0
  4 18  1  0  0  0
  5  6  1  0  0  0
  5 14  2  0  0  0
  6  8  1  0  0  0
  6 21  1  0  0  0
  7  8  1  0  0  0
  7 16  2  0  0  0
  8 22  1  0  0  0
  9 10  1  0  0  0
  9 17  1  0  0  0
 10 15  2  0  0  0
 10 23  1  0  0  0
 11 15  1  0  0  0
 11 24  1  0  0  0
 15 19  1  0  0  0
 18 25  1  0  0  0
 18 26  1  0  0  0
 18 27  1  0  0  0
M  END
> <s_m_entry_id>
6714

> <s_m_entry_name>
dock_pv.549

> <s_m_Source_Path>
/home/csk/Desktop/cluster/DUD-E-result/aldr

> <s_m_Source_File>
dock_pv.maegz

> <i_m_Source_File_Index>
549

> <chembl_id>
CHEMBL277427

> <chembl_pref_name>
None

> <i_lp_mmshare_version>
53161

> <i_f3d_flags>
0

> <r_lp_tautomer_probability>
0.999999999781369

> <s_lp_Force_Field>
OPLS_2005

> <r_lp_Energy>
24.942372

> <b_lp_Chiralities_Consistent>
1

> <s_lp_Variant>
CHEMBL1900_lig21-2

> <s_i_glide_gridfile>
glide-grid_2hv5

> <i_i_glide_lignum>
39

> <i_i_glide_rotatable_bonds>
2

> <r_i_docking_score>
-7.00714463228849

> <r_i_glide_ligand_efficiency>
-0.368797085909921

> <r_i_glide_ligand_efficiency_sa>
-0.984098751120008

> <r_i_glide_ligand_efficiency_ln>
-1.77646166395234

> <r_i_glide_gscore>
-7.00714463228849

> <r_i_glide_lipo>
-1.95796124815559

> <r_i_glide_hbond>
0

> <r_i_glide_metal>
0

> <r_i_glide_rewards>
-3.15242921484272

> <r_i_glide_evdw>
-37.2230186462402

> <r_i_glide_ecoul>
-1.43180882930756

> <r_i_glide_erotb>
0.179168087417963

> <r_i_glide_esite>
0

> <r_i_glide_emodel>
-54.0056400078343

> <r_i_glide_energy>
-38.6548274755478

> <r_i_glide_einternal>
0.742948234081268

> <i_i_glide_confnum>
1

> <i_i_glide_posenum>
319

> <r_i_glide_eff_state_penalty>
0

> <s_user_duplicate_titles>
CHEMBL1900_lig21

> <s_m_subgroup_title>
dock_pv

> <s_m_subgroupid>
dock_pv

> <b_m_subgroup_collapsed>
1

$$$$
CHEMBL1900_lig371
                    3D
 Schrodinger Suite 2021-1.
 33 34  0  0  1  0            999 V2000
   15.4996   -8.5514   16.7445 C   0  0  2  0  0  0
   16.6556   -8.6162   15.7461 C   0  0  0  0  0  0
   17.0677   -9.8414   15.1886 C   0  0  0  0  0  0
   16.3659  -11.0237   15.3212 O   0  0  0  0  0  0
   15.9968   -8.1518   18.1810 C   0  0  0  0  0  0
   17.3592   -7.4681   15.3666 C   0  0  0  0  0  0
   18.1998   -9.9165   14.3845 C   0  0  0  0  0  0
   14.7358   -9.9107   16.7380 C   0  0  0  0  0  0
   15.5833  -11.1921   16.5005 C   0  0  0  0  0  0
   18.4950   -7.5258   14.5694 C   0  0  0  0  0  0
   18.9450   -8.7681   14.1294 C   0  0  0  0  0  0
   16.1450   -6.6587   18.5682 C   0  0  0  0  0  0
   16.1450   -5.7154   17.7833 O   0  0  0  0  0  0
   14.5450   -7.5947   16.3495 O   0  0  0  0  0  0
   19.3402   -6.0657   14.1810 Cl  0  0  0  0  0  0
   20.4869   -8.9150   13.3810 Cl  0  0  0  0  0  0
   16.2421   -6.5150   19.9169 O   0  0  0  0  0  0
   16.5419  -11.5188   17.6509 C   0  0  0  0  0  0
   14.6383  -12.3757   16.2107 C   0  0  0  0  0  0
   16.9703   -8.6008   18.3491 H   0  0  0  0  0  0
   15.3450   -8.6074   18.9238 H   0  0  0  0  0  0
   17.0304   -6.5150   15.7244 H   0  0  0  0  0  0
   18.5245  -10.8719   13.9996 H   0  0  0  0  0  0
   14.1450  -10.0277   17.6445 H   0  0  0  0  0  0
   14.0139   -9.8796   15.9180 H   0  0  0  0  0  0
   13.8142   -7.6229   16.9711 H   0  0  0  0  0  0
   16.3411   -7.3602   20.3602 H   0  0  0  0  0  0
   15.9894  -11.6480   18.5810 H   0  0  0  0  0  0
   17.0795  -12.4471   17.4539 H   0  0  0  0  0  0
   17.2978  -10.7470   17.7810 H   0  0  0  0  0  0
   14.0242  -12.6150   17.0800 H   0  0  0  0  0  0
   13.9619  -12.1694   15.3811 H   0  0  0  0  0  0
   15.2002  -13.2725   15.9474 H   0  0  0  0  0  0
  1  2  1  0  0  0
  1  5  1  0  0  0
  1  8  1  0  0  0
  1 14  1  0  0  0
  2  3  2  0  0  0
  2  6  1  0  0  0
  3  7  1  0  0  0
  3  4  1  0  0  0
  4  9  1  0  0  0
  5 12  1  0  0  0
  5 20  1  0  0  0
  5 21  1  0  0  0
  6 10  2  0  0  0
  6 22  1  0  0  0
  7 11  2  0  0  0
  7 23  1  0  0  0
  8  9  1  0  0  0
  8 24  1  0  0  0
  8 25  1  0  0  0
  9 18  1  0  0  0
  9 19  1  0  0  0
 10 11  1  0  0  0
 10 15  1  0  0  0
 11 16  1  0  0  0
 12 13  2  0  0  0
 12 17  1  0  0  0
 14 26  1  0  0  0
 17 27  1  0  0  0
 18 28  1  0  0  0
 18 29  1  0  0  0
 18 30  1  0  0  0
 19 31  1  0  0  0
 19 32  1  0  0  0
 19 33  1  0  0  0
M  END
> <s_m_entry_id>
6716

> <s_m_entry_name>
dock_pv.551

> <s_m_Source_Path>
/home/csk/Desktop/cluster/DUD-E-result/aldr

> <s_m_Source_File>
dock_pv.maegz

> <i_m_Source_File_Index>
551

> <chembl_id>
CHEMBL414676

> <chembl_pref_name>
None

> <i_lp_mmshare_version>
53161

> <i_f3d_flags>
0

> <r_lp_tautomer_probability>
1

> <s_lp_Force_Field>
OPLS_2005

> <r_lp_Energy>
15.584818

> <b_lp_Chiralities_Consistent>
1

> <s_lp_Variant>
CHEMBL1900_lig371-1

> <s_i_glide_gridfile>
glide-grid_2hv5

> <i_i_glide_lignum>
492

> <i_i_glide_rotatable_bonds>
4

> <r_i_docking_score>
-6.99577349635077

> <r_i_glide_ligand_efficiency>
-0.368198605071093

> <r_i_glide_ligand_efficiency_sa>
-0.98250176386452

> <r_i_glide_ligand_efficiency_ln>
-1.77357883676252

> <r_i_glide_gscore>
-6.99577349635077

> <r_i_glide_lipo>
-2.88846654647744

> <r_i_glide_hbond>
0

> <r_i_glide_metal>
0

> <r_i_glide_rewards>
-2.60756214634989

> <r_i_glide_evdw>
-29.649543762207

> <r_i_glide_ecoul>
-2.75732827186584

> <r_i_glide_erotb>
0.396331625366787

> <r_i_glide_esite>
0

> <r_i_glide_emodel>
-45.3915297792203

> <r_i_glide_energy>
-32.4068720340729

> <r_i_glide_einternal>
0.284052789211273

> <i_i_glide_confnum>
11

> <i_i_glide_posenum>
340

> <r_i_glide_eff_state_penalty>
0

> <s_user_duplicate_titles>
CHEMBL1900_lig371

> <s_m_subgroup_title>
dock_pv

> <s_m_subgroupid>
dock_pv

> <b_m_subgroup_collapsed>
1

$$$$
CHEMBL1900_lig128
                    3D
 Schrodinger Suite 2021-1.
 31 33  0  0  1  0            999 V2000
   17.0278   -8.0527   16.5618 C   0  0  2  0  0  0
   17.9598   -8.1226   15.3725 N   0  0  0  0  0  0
   15.9533   -6.9980   16.3442 C   0  0  0  0  0  0
   18.1344   -9.2312   14.5809 C   0  0  0  0  0  0
   17.6306   -7.4818   17.7466 N   0  0  0  0  0  0
   16.2903   -9.3908   16.8406 C   0  0  0  0  0  0
   15.9738   -6.1996   17.4167 N   0  0  0  0  0  0
   16.9440   -6.4754   18.2988 C   0  0  0  0  0  0
   17.4789  -10.3327   14.9826 N   0  0  0  0  0  0
   16.5702  -10.4827   16.0150 C   0  0  0  0  0  0
   15.3448   -9.5815   17.8650 C   0  0  0  0  0  0
   18.8289   -9.3033   13.5675 O   0  0  0  0  0  0
   15.2045   -6.9153   15.3810 O   0  0  0  0  0  0
   15.9285  -11.7111   16.1832 C   0  0  0  0  0  0
   17.2462   -5.7991   19.2758 O   0  0  0  0  0  0
   18.6766   -6.8977   14.9607 C   0  0  0  0  0  0
   14.6957  -10.8032   18.0388 C   0  0  0  0  0  0
   14.9801  -11.8718   17.1925 C   0  0  0  0  0  0
   14.2795  -13.2034   17.3720 C   0  0  0  0  0  0
   18.2383   -8.0587   18.3102 H   0  0  0  0  0  0
   15.4053   -5.3737   17.4909 H   0  0  0  0  0  0
   17.6484  -11.1234   14.3798 H   0  0  0  0  0  0
   15.1013   -8.7733   18.5386 H   0  0  0  0  0  0
   16.1541  -12.5377   15.5242 H   0  0  0  0  0  0
   19.3543   -7.0400   14.1165 H   0  0  0  0  0  0
   19.2786   -6.5165   15.7811 H   0  0  0  0  0  0
   17.9710   -6.1175   14.6738 H   0  0  0  0  0  0
   13.9659  -10.9156   18.8268 H   0  0  0  0  0  0
   13.7456  -13.2648   18.3211 H   0  0  0  0  0  0
   13.5799  -13.3797   16.5550 H   0  0  0  0  0  0
   15.0163  -14.0050   17.3630 H   0  0  0  0  0  0
  1  2  1  0  0  0
  1  3  1  0  0  0
  1  5  1  0  0  0
  1  6  1  0  0  0
  2  4  1  0  0  0
  2 16  1  0  0  0
  3  7  1  0  0  0
  3 13  2  0  0  0
  4 12  2  0  0  0
  4  9  1  0  0  0
  5  8  1  0  0  0
  5 20  1  0  0  0
  6 10  1  0  0  0
  6 11  2  0  0  0
  7  8  1  0  0  0
  7 21  1  0  0  0
  8 15  2  0  0  0
  9 10  1  0  0  0
  9 22  1  0  0  0
 10 14  2  0  0  0
 11 17  1  0  0  0
 11 23  1  0  0  0
 14 18  1  0  0  0
 14 24  1  0  0  0
 16 25  1  0  0  0
 16 26  1  0  0  0
 16 27  1  0  0  0
 17 18  2  0  0  0
 17 28  1  0  0  0
 18 19  1  0  0  0
 19 29  1  0  0  0
 19 30  1  0  0  0
 19 31  1  0  0  0
M  END
> <s_m_entry_id>
6717

> <s_m_entry_name>
dock_pv.552

> <s_m_Source_Path>
/home/csk/Desktop/cluster/DUD-E-result/aldr

> <s_m_Source_File>
dock_pv.maegz

> <i_m_Source_File_Index>
552

> <chembl_id>
CHEMBL65659

> <chembl_pref_name>
None

> <i_lp_mmshare_version>
53161

> <i_f3d_flags>
0

> <r_lp_tautomer_probability>
0.99999999978137

> <s_lp_Force_Field>
OPLS_2005

> <r_lp_Energy>
35.73471

> <b_lp_Chiralities_Consistent>
1

> <s_lp_Variant>
CHEMBL1900_lig128-1

> <s_i_glide_gridfile>
glide-grid_2hv5

> <i_i_glide_lignum>
194

> <i_i_glide_rotatable_bonds>
0

> <r_i_docking_score>
-6.99221284329471

> <r_i_glide_ligand_efficiency>
-0.368011202278669

> <r_i_glide_ligand_efficiency_sa>
-0.982001697944731

> <r_i_glide_ligand_efficiency_ln>
-1.772676134737

> <r_i_glide_gscore>
-6.99221284329471

> <r_i_glide_lipo>
-1.46550070956847

> <r_i_glide_hbond>
-0.163238517015695

> <r_i_glide_metal>
0

> <r_i_glide_rewards>
-3.72447527515018

> <r_i_glide_evdw>
-30.5226955413818

> <r_i_glide_ecoul>
-0.752423763275146

> <r_i_glide_erotb>
0

> <r_i_glide_esite>
0

> <r_i_glide_emodel>
-38.3629200057708

> <r_i_glide_energy>
-31.275119304657

> <r_i_glide_einternal>
0

> <i_i_glide_confnum>
1

> <i_i_glide_posenum>
118

> <r_i_glide_eff_state_penalty>
0

> <s_user_duplicate_titles>
CHEMBL1900_lig128,102108

> <s_m_subgroup_title>
dock_pv

> <s_m_subgroupid>
dock_pv

> <b_m_subgroup_collapsed>
1

$$$$
CHEMBL1900_lig127
                    3D
 Schrodinger Suite 2021-1.
 30 32  0  0  1  0            999 V2000
   16.3112   -9.5306   16.5593 C   0  0  2  0  0  0
   16.2120   -8.2142   17.2872 N   0  0  0  0  0  0
   17.2250   -9.4175   15.3266 C   0  0  0  0  0  0
   14.9340  -10.0657   16.1874 C   0  0  0  0  0  0
   16.2946   -7.0060   16.6425 C   0  0  0  0  0  0
   16.7364  -10.6375   17.3784 N   0  0  0  0  0  0
   14.7231  -11.1394   16.9593 N   0  0  0  0  0  0
   15.7736  -11.5027   17.7060 C   0  0  0  0  0  0
   17.0513   -7.0402   15.5306 N   0  0  0  0  0  0
   19.4673  -11.6002   13.2071 N   0  3  0  0  0  0
   17.6595   -8.1439   14.9528 C   0  0  0  0  0  0
   17.7729  -10.5244   14.6661 C   0  0  0  0  0  0
   18.8451  -10.3866   13.7807 C   0  0  0  0  0  0
   18.7497  -12.5791   13.0172 O   0  5  0  0  0  0
   15.7389   -5.9612   16.9793 O   0  0  0  0  0  0
   14.1460   -9.5772   15.3886 O   0  0  0  0  0  0
   20.6721  -11.5953   12.9811 O   0  0  0  0  0  0
   15.8923  -12.5164   18.3854 O   0  0  0  0  0  0
   18.7157   -7.9761   14.0656 C   0  0  0  0  0  0
   19.3449   -9.0974   13.5367 C   0  0  0  0  0  0
   15.7424   -8.1897   18.6720 C   0  0  0  0  0  0
   17.5735  -10.5253   17.9282 H   0  0  0  0  0  0
   13.8848  -11.6964   16.8993 H   0  0  0  0  0  0
   17.2277   -6.1301   15.1339 H   0  0  0  0  0  0
   17.4278  -11.5164   14.9250 H   0  0  0  0  0  0
   19.0968   -6.9906   13.8376 H   0  0  0  0  0  0
   20.2480   -8.9233   12.9842 H   0  0  0  0  0  0
   15.3905   -7.2045   18.9813 H   0  0  0  0  0  0
   14.9165   -8.8886   18.8062 H   0  0  0  0  0  0
   16.5379   -8.4842   19.3469 H   0  0  0  0  0  0
  1  2  1  0  0  0
  1  3  1  0  0  0
  1  4  1  0  0  0
  1  6  1  0  0  0
  2  5  1  0  0  0
  2 21  1  0  0  0
  3 11  1  0  0  0
  3 12  2  0  0  0
  4  7  1  0  0  0
  4 16  2  0  0  0
  5 15  2  0  0  0
  5  9  1  0  0  0
  6  8  1  0  0  0
  6 22  1  0  0  0
  7  8  1  0  0  0
  7 23  1  0  0  0
  8 18  2  0  0  0
  9 11  1  0  0  0
  9 24  1  0  0  0
 10 13  1  0  0  0
 10 14  1  0  0  0
 10 17  2  0  0  0
 11 19  2  0  0  0
 12 13  1  0  0  0
 12 25  1  0  0  0
 13 20  2  0  0  0
 19 20  1  0  0  0
 19 26  1  0  0  0
 20 27  1  0  0  0
 21 28  1  0  0  0
 21 29  1  0  0  0
 21 30  1  0  0  0
M  CHG  2  10   1  14  -1
M  END
> <s_m_entry_id>
6718

> <s_m_entry_name>
dock_pv.553

> <s_m_Source_Path>
/home/csk/Desktop/cluster/DUD-E-result/aldr

> <s_m_Source_File>
dock_pv.maegz

> <i_m_Source_File_Index>
553

> <chembl_id>
CHEMBL63429

> <chembl_pref_name>
None

> <i_lp_mmshare_version>
53161

> <i_f3d_flags>
0

> <r_lp_tautomer_probability>
0.99999999978137

> <s_lp_Force_Field>
OPLS_2005

> <r_lp_Energy>
37.896374

> <b_lp_Chiralities_Consistent>
1

> <s_lp_Variant>
CHEMBL1900_lig127-1

> <s_i_glide_gridfile>
glide-grid_2hv5

> <i_i_glide_lignum>
192

> <i_i_glide_rotatable_bonds>
1

> <r_i_docking_score>
-6.97761452278891

> <r_i_glide_ligand_efficiency>
-0.332267358228043

> <r_i_glide_ligand_efficiency_sa>
-0.916700446707331

> <r_i_glide_ligand_efficiency_ln>
-1.72520109116182

> <r_i_glide_gscore>
-6.97761452278891

> <r_i_glide_lipo>
-1.55071955213883

> <r_i_glide_hbond>
-0.41004056001178

> <r_i_glide_metal>
0

> <r_i_glide_rewards>
-3.10558691190443

> <r_i_glide_evdw>
-26.435791015625

> <r_i_glide_ecoul>
-3.91216850280762

> <r_i_glide_erotb>
0

> <r_i_glide_esite>
-0.00265267253148477

> <r_i_glide_emodel>
-38.4554018665651

> <r_i_glide_energy>
-30.3479595184326

> <r_i_glide_einternal>
3.95715975761414

> <i_i_glide_confnum>
1

> <i_i_glide_posenum>
29

> <r_i_glide_eff_state_penalty>
0

> <s_user_duplicate_titles>
CHEMBL1900_lig127

> <s_m_subgroup_title>
dock_pv

> <s_m_subgroupid>
dock_pv

> <b_m_subgroup_collapsed>
1

$$$$
CHEMBL1900_lig353
                    3D
 Schrodinger Suite 2021-1.
 30 31  0  0  1  0            999 V2000
   15.6887   -8.6737   16.5837 C   0  0  2  0  0  0
   16.8144   -8.6334   15.5329 C   0  0  0  0  0  0
   17.4567   -9.8205   15.1157 C   0  0  0  0  0  0
   16.1686   -8.1130   17.9645 C   0  0  0  0  0  0
   17.0830  -11.0777   15.5525 O   0  0  0  0  0  0
   18.4991   -9.7888   14.1791 C   0  0  0  0  0  0
   15.1855  -10.1288   16.7455 C   0  0  0  0  0  0
   16.2936   -6.5874   18.1649 C   0  0  0  0  0  0
   18.9436   -8.5688   13.6776 C   0  0  0  0  0  0
   17.2585   -7.4313   14.9660 C   0  0  0  0  0  0
   16.3389  -11.1445   16.7657 C   0  0  1  0  0  0
   18.3235   -7.3882   14.0683 C   0  0  0  0  0  0
   15.8405   -5.7383   17.4009 O   0  0  0  0  0  0
   14.5455   -7.9541   16.1811 O   0  0  0  0  0  0
   19.2594  -11.2433   13.6313 Cl  0  0  0  0  0  0
   18.9425   -5.7226   13.3852 Br  0  0  0  0  0  0
   16.9142   -6.3005   19.3435 O   0  0  0  0  0  0
   15.8406  -12.5841   16.9400 C   0  0  0  0  0  0
   17.0057  -10.9200   17.5998 H   0  0  0  0  0  0
   17.1417   -8.5524   18.1814 H   0  0  0  0  0  0
   15.4994   -8.4605   18.7511 H   0  0  0  0  0  0
   14.5681  -10.2371   17.6385 H   0  0  0  0  0  0
   14.5277  -10.4020   15.9161 H   0  0  0  0  0  0
   19.7689   -8.5371   12.9819 H   0  0  0  0  0  0
   16.7695   -6.5149   15.2397 H   0  0  0  0  0  0
   13.8700   -8.0487   16.8561 H   0  0  0  0  0  0
   17.2380   -7.0847   19.7915 H   0  0  0  0  0  0
   15.2639  -12.6988   17.8583 H   0  0  0  0  0  0
   15.2040  -12.8842   16.1064 H   0  0  0  0  0  0
   16.6769  -13.2821   16.9838 H   0  0  0  0  0  0
  1  2  1  0  0  0
  1  4  1  0  0  0
  1  7  1  0  0  0
  1 14  1  0  0  0
  2  3  2  0  0  0
  2 10  1  0  0  0
  3  6  1  0  0  0
  3  5  1  0  0  0
  4  8  1  0  0  0
  4 20  1  0  0  0
  4 21  1  0  0  0
  5 11  1  0  0  0
  6 15  1  0  0  0
  6  9  2  0  0  0
  7 11  1  0  0  0
  7 22  1  0  0  0
  7 23  1  0  0  0
  8 13  2  0  0  0
  8 17  1  0  0  0
  9 12  1  0  0  0
  9 24  1  0  0  0
 10 12  2  0  0  0
 10 25  1  0  0  0
 11 18  1  0  0  0
 11 19  1  0  0  0
 12 16  1  0  0  0
 14 26  1  0  0  0
 17 27  1  0  0  0
 18 28  1  0  0  0
 18 29  1  0  0  0
 18 30  1  0  0  0
M  END
> <s_m_entry_id>
6719

> <s_m_entry_name>
dock_pv.554

> <s_m_Source_Path>
/home/csk/Desktop/cluster/DUD-E-result/aldr

> <s_m_Source_File>
dock_pv.maegz

> <i_m_Source_File_Index>
554

> <chembl_id>
CHEMBL69675

> <chembl_pref_name>
None

> <i_lp_mmshare_version>
53161

> <i_f3d_flags>
0

> <r_lp_tautomer_probability>
1

> <s_lp_Force_Field>
OPLS_2005

> <r_lp_Energy>
14.175138

> <b_lp_Chiralities_Consistent>
1

> <s_lp_Variant>
CHEMBL1900_lig353-1

> <s_i_glide_gridfile>
glide-grid_2hv5

> <i_i_glide_lignum>
474

> <i_i_glide_rotatable_bonds>
4

> <r_i_docking_score>
-6.97653355454021

> <r_i_glide_ligand_efficiency>
-0.387585197474456

> <r_i_glide_ligand_efficiency_sa>
-1.01576056982529

> <r_i_glide_ligand_efficiency_ln>
-1.79328197629961

> <r_i_glide_gscore>
-6.97653355454021

> <r_i_glide_lipo>
-3.03540543269715

> <r_i_glide_hbond>
0

> <r_i_glide_metal>
0

> <r_i_glide_rewards>
-2.055156434373

> <r_i_glide_evdw>
-32.7543487548828

> <r_i_glide_ecoul>
-3.88986325263977

> <r_i_glide_erotb>
0.33522523817005

> <r_i_glide_esite>
0

> <r_i_glide_emodel>
-50.8109456969765

> <r_i_glide_energy>
-36.6442120075226

> <r_i_glide_einternal>
2.92885255813599

> <i_i_glide_confnum>
6

> <i_i_glide_posenum>
271

> <r_i_glide_eff_state_penalty>
0

> <s_user_duplicate_titles>
CHEMBL1900_lig353

> <s_m_subgroup_title>
dock_pv

> <s_m_subgroupid>
dock_pv

> <b_m_subgroup_collapsed>
1

$$$$
CHEMBL1900_lig100
                    3D
 Schrodinger Suite 2021-1.
 28 30  0  0  1  0            999 V2000
   16.8042   -8.1307   16.5690 C   0  0  2  0  0  0
   17.7425   -8.0590   15.3846 N   0  0  0  0  0  0
   15.6365   -7.1684   16.3986 C   0  0  0  0  0  0
   18.0935   -9.1275   14.5973 C   0  0  0  0  0  0
   17.3457   -7.5543   17.7805 N   0  0  0  0  0  0
   15.5122   -6.5157   17.5570 N   0  0  0  0  0  0
   16.2176   -9.5534   16.7976 C   0  0  0  0  0  0
   16.5094   -6.7313   18.4253 C   0  0  0  0  0  0
   17.5905  -10.3122   14.9816 N   0  0  0  0  0  0
   16.6663  -10.5899   15.9737 C   0  0  0  0  0  0
   18.8240   -9.0952   13.6070 O   0  0  0  0  0  0
   14.9453   -7.0222   15.4004 O   0  0  0  0  0  0
   16.7020   -6.1133   19.4657 O   0  0  0  0  0  0
   18.2429   -6.7375   14.9563 C   0  0  0  0  0  0
   15.2632   -9.8793   17.7812 C   0  0  0  0  0  0
   16.1810  -11.8928   16.1044 C   0  0  0  0  0  0
   14.7685  -11.1761   17.9170 C   0  0  0  0  0  0
   15.2276  -12.1849   17.0765 C   0  0  0  0  0  0
   18.0347   -8.0825   18.2954 H   0  0  0  0  0  0
   14.8260   -5.7962   17.7006 H   0  0  0  0  0  0
   17.8873  -11.0686   14.3843 H   0  0  0  0  0  0
   17.4541   -6.1873   14.4441 H   0  0  0  0  0  0
   19.1012   -6.7880   14.2842 H   0  0  0  0  0  0
   18.5454   -6.1467   15.8156 H   0  0  0  0  0  0
   14.8872   -9.1201   18.4500 H   0  0  0  0  0  0
   16.5303  -12.6789   15.4506 H   0  0  0  0  0  0
   14.0229  -11.3981   18.6677 H   0  0  0  0  0  0
   14.8413  -13.1891   17.1750 H   0  0  0  0  0  0
  1  2  1  0  0  0
  1  3  1  0  0  0
  1  5  1  0  0  0
  1  7  1  0  0  0
  2  4  1  0  0  0
  2 14  1  0  0  0
  3  6  1  0  0  0
  3 12  2  0  0  0
  4 11  2  0  0  0
  4  9  1  0  0  0
  5  8  1  0  0  0
  5 19  1  0  0  0
  6  8  1  0  0  0
  6 20  1  0  0  0
  7 10  1  0  0  0
  7 15  2  0  0  0
  8 13  2  0  0  0
  9 10  1  0  0  0
  9 21  1  0  0  0
 10 16  2  0  0  0
 14 22  1  0  0  0
 14 23  1  0  0  0
 14 24  1  0  0  0
 15 17  1  0  0  0
 15 25  1  0  0  0
 16 18  1  0  0  0
 16 26  1  0  0  0
 17 18  2  0  0  0
 17 27  1  0  0  0
 18 28  1  0  0  0
M  END
> <s_m_entry_id>
6720

> <s_m_entry_name>
dock_pv.555

> <s_m_Source_Path>
/home/csk/Desktop/cluster/DUD-E-result/aldr

> <s_m_Source_File>
dock_pv.maegz

> <i_m_Source_File_Index>
555

> <chembl_id>
CHEMBL293869

> <chembl_pref_name>
None

> <i_lp_mmshare_version>
53161

> <i_f3d_flags>
0

> <r_lp_tautomer_probability>
0.99999999978137

> <s_lp_Force_Field>
OPLS_2005

> <r_lp_Energy>
35.769629

> <b_lp_Chiralities_Consistent>
1

> <s_lp_Variant>
CHEMBL1900_lig100-1

> <s_i_glide_gridfile>
glide-grid_2hv5

> <i_i_glide_lignum>
142

> <i_i_glide_rotatable_bonds>
0

> <r_i_docking_score>
-6.97622717324362

> <r_i_glide_ligand_efficiency>
-0.387568176291312

> <r_i_glide_ligand_efficiency_sa>
-1.01571596170609

> <r_i_glide_ligand_efficiency_ln>
-1.79320322256715

> <r_i_glide_gscore>
-6.97622717324362

> <r_i_glide_lipo>
-1.33725291546567

> <r_i_glide_hbond>
-0.179965162335884

> <r_i_glide_metal>
0

> <r_i_glide_rewards>
-3.90196837724425

> <r_i_glide_evdw>
-29.1729278564453

> <r_i_glide_ecoul>
-0.65596216917038

> <r_i_glide_erotb>
0

> <r_i_glide_esite>
0

> <r_i_glide_emodel>
-39.4454780328512

> <r_i_glide_energy>
-29.8288900256157

> <r_i_glide_einternal>
0

> <i_i_glide_confnum>
1

> <i_i_glide_posenum>
42

> <r_i_glide_eff_state_penalty>
0

> <s_user_duplicate_titles>
CHEMBL1900_lig100,CHEMBL1900_lig133,102503,102183

> <s_m_subgroup_title>
dock_pv

> <s_m_subgroupid>
dock_pv

> <b_m_subgroup_collapsed>
1

$$$$
CHEMBL1900_lig28
                    3D
 Schrodinger Suite 2021-1.
 31 34  0  0  1  0            999 V2000
   17.1186   -8.1669   14.6696 N   0  0  0  0  0  0
   17.0563   -6.8761   13.8801 C   0  0  2  0  0  0
   16.2191   -8.2298   15.7231 C   0  0  0  0  0  0
   17.9204   -9.1943   14.1941 C   0  0  0  0  0  0
   16.4126   -6.9155   12.5936 N   0  0  0  0  0  0
   18.1458   -5.7146   12.2741 N   0  0  0  0  0  0
   18.3661   -6.2070   13.5001 C   0  0  0  0  0  0
   16.9669   -6.0635   11.7257 C   0  0  0  0  0  0
   16.0709   -9.5938   16.3673 C   0  0  0  0  0  0
   17.7285  -10.5364   14.8699 C   0  0  0  0  0  0
   16.8142  -10.7194   15.9360 C   0  0  0  0  0  0
   15.5456   -7.2673   16.1134 O   0  0  0  0  0  0
   18.7153   -9.0631   13.2620 O   0  0  0  0  0  0
   19.3826   -6.1184   14.1812 O   0  0  0  0  0  0
   16.6019   -5.8282   10.5810 O   0  0  0  0  0  0
   16.6271  -11.9955   16.5340 C   0  0  0  0  0  0
   18.4372  -11.6503   14.3985 C   0  0  0  0  0  0
   15.1385   -9.7652   17.3995 C   0  0  0  0  0  0
   14.9425  -11.0125   17.9890 C   0  0  0  0  0  0
   18.2765  -12.9021   14.9886 C   0  0  0  0  0  0
   17.3890  -13.0835   16.0482 C   0  0  0  0  0  0
   15.6754  -12.1226   17.5743 C   0  0  0  0  0  0
   16.5456   -6.0808   14.4181 H   0  0  0  0  0  0
   15.4180   -7.0805   12.5575 H   0  0  0  0  0  0
   18.8683   -5.2629   11.7395 H   0  0  0  0  0  0
   19.1305  -11.5528   13.5737 H   0  0  0  0  0  0
   14.5449   -8.9316   17.7498 H   0  0  0  0  0  0
   14.2056  -11.1220   18.7722 H   0  0  0  0  0  0
   18.8432  -13.7424   14.6144 H   0  0  0  0  0  0
   17.2648  -14.0570   16.4954 H   0  0  0  0  0  0
   15.5081  -13.0872   18.0325 H   0  0  0  0  0  0
  1  2  1  0  0  0
  1  3  1  0  0  0
  1  4  1  0  0  0
  2  5  1  0  0  0
  2  7  1  0  0  0
  2 23  1  0  0  0
  3  9  1  0  0  0
  3 12  2  0  0  0
  4 10  1  0  0  0
  4 13  2  0  0  0
  5  8  1  0  0  0
  5 24  1  0  0  0
  6  7  1  0  0  0
  6  8  1  0  0  0
  6 25  1  0  0  0
  7 14  2  0  0  0
  8 15  2  0  0  0
  9 18  1  0  0  0
  9 11  2  0  0  0
 10 11  1  0  0  0
 10 17  2  0  0  0
 11 16  1  0  0  0
 16 22  2  0  0  0
 16 21  1  0  0  0
 17 20  1  0  0  0
 17 26  1  0  0  0
 18 19  2  0  0  0
 18 27  1  0  0  0
 19 22  1  0  0  0
 19 28  1  0  0  0
 20 21  2  0  0  0
 20 29  1  0  0  0
 21 30  1  0  0  0
 22 31  1  0  0  0
M  END
> <s_m_entry_id>
6721

> <s_m_entry_name>
dock_pv.556

> <s_m_Source_Path>
/home/csk/Desktop/cluster/DUD-E-result/aldr

> <s_m_Source_File>
dock_pv.maegz

> <i_m_Source_File_Index>
556

> <chembl_id>
CHEMBL310274

> <chembl_pref_name>
None

> <i_lp_mmshare_version>
53161

> <i_f3d_flags>
0

> <r_lp_tautomer_probability>
0.999999999781369

> <s_lp_Force_Field>
OPLS_2005

> <r_lp_Energy>
47.032471

> <b_lp_Chiralities_Consistent>
1

> <s_lp_Variant>
CHEMBL1900_lig28-1

> <s_i_glide_gridfile>
glide-grid_2hv5

> <i_i_glide_lignum>
52

> <i_i_glide_rotatable_bonds>
1

> <r_i_docking_score>
-6.96567527463693

> <r_i_glide_ligand_efficiency>
-0.316621603392588

> <r_i_glide_ligand_efficiency_sa>
-0.887186184727092

> <r_i_glide_ligand_efficiency_ln>
-1.70266511630033

> <r_i_glide_gscore>
-6.96567527463693

> <r_i_glide_lipo>
-1.30451206510427

> <r_i_glide_hbond>
0

> <r_i_glide_metal>
0

> <r_i_glide_rewards>
-3.99602504545454

> <r_i_glide_evdw>
-37.7529487609863

> <r_i_glide_ecoul>
0.0837629958987236

> <r_i_glide_erotb>
0.209944824586393

> <r_i_glide_esite>
0

> <r_i_glide_emodel>
-47.4016689564286

> <r_i_glide_energy>
-37.6691857650876

> <r_i_glide_einternal>
3.54330921173096

> <i_i_glide_confnum>
1

> <i_i_glide_posenum>
111

> <r_i_glide_eff_state_penalty>
0

> <s_user_duplicate_titles>
CHEMBL1900_lig28

> <s_m_subgroup_title>
dock_pv

> <s_m_subgroupid>
dock_pv

> <b_m_subgroup_collapsed>
1

$$$$
CHEMBL1900_lig430
                    3D
 Schrodinger Suite 2021-1.
 24 25  0  0  1  0            999 V2000
   18.4461   -7.4863   14.0485 S   0  0  0  0  0  0
   17.3980   -6.5530   12.8931 C   0  0  0  0  0  0
   16.1434   -6.8293   12.8258 N   0  0  0  0  0  0
   15.3362   -6.1315   11.9116 N   0  0  0  0  0  0
   17.9249   -5.5443   12.0104 C   0  0  0  0  0  0
   15.7157   -5.1825   11.0061 C   0  0  0  0  0  0
   17.3923   -8.0333   15.3981 C   0  0  0  0  0  0
   17.1383   -4.9146   11.1061 C   0  0  0  0  0  0
   19.4086   -6.5155   14.5809 O   0  0  0  0  0  0
   18.8971   -8.6763   13.3185 O   0  0  0  0  0  0
   14.9476   -4.5995   10.2484 O   0  0  0  0  0  0
   16.8779   -9.3321   15.3846 C   0  0  0  0  0  0
   17.1068   -7.1763   16.4637 C   0  0  0  0  0  0
   15.7476   -8.8956   17.4653 C   0  0  0  0  0  0
   16.2799   -7.6087   17.4978 C   0  0  0  0  0  0
   16.0459   -9.7594   16.4154 C   0  0  0  0  0  0
   14.9451   -9.3163   18.4672 F   0  0  0  0  0  0
   18.9451   -5.2586   12.0859 H   0  0  0  0  0  0
   17.5509   -4.1510   10.4635 H   0  0  0  0  0  0
   14.3573   -6.3758   11.9295 H   0  0  0  0  0  0
   17.1180  -10.0128   14.5810 H   0  0  0  0  0  0
   17.5307   -6.1853   16.5009 H   0  0  0  0  0  0
   16.0568   -6.9547   18.3272 H   0  0  0  0  0  0
   15.6353  -10.7581   16.4058 H   0  0  0  0  0  0
  1  7  1  0  0  0
  1  9  2  0  0  0
  1 10  2  0  0  0
  1  2  1  0  0  0
  2  5  1  0  0  0
  2  3  2  0  0  0
  3  4  1  0  0  0
  4  6  1  0  0  0
  4 20  1  0  0  0
  5  8  2  0  0  0
  5 18  1  0  0  0
  6 11  2  0  0  0
  6  8  1  0  0  0
  7 12  2  0  0  0
  7 13  1  0  0  0
  8 19  1  0  0  0
 12 16  1  0  0  0
 12 21  1  0  0  0
 13 15  2  0  0  0
 13 22  1  0  0  0
 14 15  1  0  0  0
 14 17  1  0  0  0
 14 16  2  0  0  0
 15 23  1  0  0  0
 16 24  1  0  0  0
M  END
> <s_m_entry_id>
6722

> <s_m_entry_name>
dock_pv.557

> <s_m_Source_Path>
/home/csk/Desktop/cluster/DUD-E-result/aldr

> <s_m_Source_File>
dock_pv.maegz

> <i_m_Source_File_Index>
557

> <chembl_id>
CHEMBL425922

> <chembl_pref_name>
None

> <i_lp_mmshare_version>
53161

> <i_f3d_flags>
0

> <r_lp_tautomer_probability>
0.998994762270461

> <s_lp_Force_Field>
OPLS_2005

> <r_lp_Energy>
20.961067

> <b_lp_Chiralities_Consistent>
1

> <s_lp_Variant>
CHEMBL1900_lig430-1

> <s_i_glide_gridfile>
glide-grid_2hv5

> <i_i_glide_lignum>
552

> <i_i_glide_rotatable_bonds>
2

> <r_i_docking_score>
-6.9588620125619

> <r_i_glide_ligand_efficiency>
-0.409344824268347

> <r_i_glide_ligand_efficiency_sa>
-1.05254080987841

> <r_i_glide_ligand_efficiency_ln>
-1.81541213283949

> <r_i_glide_gscore>
-6.9588620125619

> <r_i_glide_lipo>
-2.89331100038557

> <r_i_glide_hbond>
0

> <r_i_glide_metal>
0

> <r_i_glide_rewards>
-3.16277377804227

> <r_i_glide_evdw>
-36.441951751709

> <r_i_glide_ecoul>
2.50163578987122

> <r_i_glide_erotb>
0.544074984970704

> <r_i_glide_esite>
0

> <r_i_glide_emodel>
-46.2761479625753

> <r_i_glide_energy>
-33.9403159618378

> <r_i_glide_einternal>
1.77166867256165

> <i_i_glide_confnum>
1

> <i_i_glide_posenum>
352

> <r_i_glide_eff_state_penalty>
0

> <s_user_duplicate_titles>
CHEMBL1900_lig430,331216

> <s_m_subgroup_title>
dock_pv

> <s_m_subgroupid>
dock_pv

> <b_m_subgroup_collapsed>
1

$$$$
CHEMBL1900_lig329
                    3D
 Schrodinger Suite 2021-1.
 30 31  0  0  1  0            999 V2000
   15.5704   -8.7552   16.8692 C   0  0  2  0  0  0
   16.5400   -8.8004   15.6780 C   0  0  0  0  0  0
   17.1915  -10.0039   15.3314 C   0  0  0  0  0  0
   16.2524   -8.0464   18.0842 C   0  0  0  0  0  0
   16.8910  -11.2261   15.8933 O   0  0  0  0  0  0
   15.1491  -10.1953   17.2560 C   0  0  0  0  0  0
   16.4082   -6.5111   18.0769 C   0  0  0  0  0  0
   16.8649   -7.6578   14.9337 C   0  0  0  0  0  0
   16.3201  -11.1938   17.1944 C   0  0  1  0  0  0
   18.1446  -10.0493   14.3133 C   0  0  0  0  0  0
   15.7546   -5.7371   17.3808 O   0  0  0  0  0  0
   14.3603   -8.0903   16.5806 O   0  0  0  0  0  0
   17.8250   -7.6987   13.9266 C   0  0  0  0  0  0
   17.3450   -6.1152   18.9814 O   0  0  0  0  0  0
   18.4740   -8.8902   13.6191 C   0  0  0  0  0  0
   18.2575   -6.1150   12.9808 Br  0  0  0  0  0  0
   15.8936  -12.6166   17.5771 C   0  0  0  0  0  0
   17.0993  -10.8818   17.8891 H   0  0  0  0  0  0
   17.2487   -8.4762   18.1814 H   0  0  0  0  0  0
   15.7238   -8.2922   19.0033 H   0  0  0  0  0  0
   14.6872  -10.2099   18.2447 H   0  0  0  0  0  0
   14.3741  -10.5672   16.5829 H   0  0  0  0  0  0
   16.3816   -6.7162   15.1497 H   0  0  0  0  0  0
   18.6209  -10.9848   14.0594 H   0  0  0  0  0  0
   13.8804   -8.6044   15.9268 H   0  0  0  0  0  0
   17.7640   -6.8540   19.4283 H   0  0  0  0  0  0
   19.2188   -8.9162   12.8367 H   0  0  0  0  0  0
   15.4497  -12.6478   18.5722 H   0  0  0  0  0  0
   15.1604  -13.0106   16.8738 H   0  0  0  0  0  0
   16.7480  -13.2954   17.5736 H   0  0  0  0  0  0
  1  2  1  0  0  0
  1  4  1  0  0  0
  1  6  1  0  0  0
  1 12  1  0  0  0
  2  3  2  0  0  0
  2  8  1  0  0  0
  3 10  1  0  0  0
  3  5  1  0  0  0
  4  7  1  0  0  0
  4 19  1  0  0  0
  4 20  1  0  0  0
  5  9  1  0  0  0
  6  9  1  0  0  0
  6 21  1  0  0  0
  6 22  1  0  0  0
  7 11  2  0  0  0
  7 14  1  0  0  0
  8 13  2  0  0  0
  8 23  1  0  0  0
  9 17  1  0  0  0
  9 18  1  0  0  0
 10 15  2  0  0  0
 10 24  1  0  0  0
 12 25  1  0  0  0
 13 15  1  0  0  0
 13 16  1  0  0  0
 14 26  1  0  0  0
 15 27  1  0  0  0
 17 28  1  0  0  0
 17 29  1  0  0  0
 17 30  1  0  0  0
M  END
> <s_m_entry_id>
6723

> <s_m_entry_name>
dock_pv.558

> <s_m_Source_Path>
/home/csk/Desktop/cluster/DUD-E-result/aldr

> <s_m_Source_File>
dock_pv.maegz

> <i_m_Source_File_Index>
558

> <chembl_id>
CHEMBL304945

> <chembl_pref_name>
None

> <i_lp_mmshare_version>
53161

> <i_f3d_flags>
0

> <r_lp_tautomer_probability>
1

> <s_lp_Force_Field>
OPLS_2005

> <r_lp_Energy>
14.523343

> <b_lp_Chiralities_Consistent>
1

> <s_lp_Variant>
CHEMBL1900_lig329-1

> <s_i_glide_gridfile>
glide-grid_2hv5

> <i_i_glide_lignum>
449

> <i_i_glide_rotatable_bonds>
4

> <r_i_docking_score>
-6.95571801225419

> <r_i_glide_ligand_efficiency>
-0.409159883073776

> <r_i_glide_ligand_efficiency_sa>
-1.0520652739899

> <r_i_glide_ligand_efficiency_ln>
-1.81459193317266

> <r_i_glide_gscore>
-6.95571801225419

> <r_i_glide_lipo>
-2.68245019621431

> <r_i_glide_hbond>
-0.024607984926325

> <r_i_glide_metal>
0

> <r_i_glide_rewards>
-2.52430656475122

> <r_i_glide_evdw>
-32.2675628662109

> <r_i_glide_ecoul>
-3.44415068626404

> <r_i_glide_erotb>
0.405647479887818

> <r_i_glide_esite>
0

> <r_i_glide_emodel>
-49.0453283716746

> <r_i_glide_energy>
-35.711713552475

> <r_i_glide_einternal>
3.27257680892944

> <i_i_glide_confnum>
3

> <i_i_glide_posenum>
132

> <r_i_glide_eff_state_penalty>
0

> <s_user_duplicate_titles>
CHEMBL1900_lig329

> <s_m_subgroup_title>
dock_pv

> <s_m_subgroupid>
dock_pv

> <b_m_subgroup_collapsed>
1

$$$$
CHEMBL1900_lig373
                    3D
 Schrodinger Suite 2021-1.
 33 34  0  0  1  0            999 V2000
   16.2910   -8.4323   16.1483 C   0  0  2  0  0  0
   17.1549   -9.3785   15.2929 C   0  0  0  0  0  0
   16.9948  -10.7765   15.3910 C   0  0  0  0  0  0
   17.2071   -7.7107   17.1925 C   0  0  0  0  0  0
   16.0633  -11.3878   16.1997 O   0  0  0  0  0  0
   15.1321   -9.2514   16.7962 C   0  0  0  0  0  0
   19.6834  -12.1165   13.0762 C   0  0  0  0  0  0
   18.7591  -11.1659   13.7813 C   0  0  0  0  0  0
   17.7616  -11.6537   14.6292 C   0  0  0  0  0  0
   16.5473   -6.7330   18.1812 C   0  0  0  0  0  0
   18.1426   -8.9074   14.4132 C   0  0  0  0  0  0
   15.6263  -10.6141   17.3116 C   0  0  1  0  0  0
   18.9448   -9.7839   13.6809 C   0  0  0  0  0  0
   20.8889  -11.9043   12.9766 O   0  0  0  0  0  0
   15.3451   -6.5148   18.2385 O   0  0  0  0  0  0
   15.7077   -7.4185   15.3503 O   0  0  0  0  0  0
   19.0804  -13.2328   12.5800 O   0  0  0  0  0  0
   17.4692   -6.1297   18.9790 O   0  0  0  0  0  0
   14.5585  -11.4215   18.0547 C   0  0  0  0  0  0
   16.4580  -10.4597   17.9981 H   0  0  0  0  0  0
   17.9832   -7.1507   16.6672 H   0  0  0  0  0  0
   17.7288   -8.4656   17.7806 H   0  0  0  0  0  0
   14.6263   -8.7152   17.5939 H   0  0  0  0  0  0
   14.3473   -9.4366   16.0589 H   0  0  0  0  0  0
   17.5989  -12.7184   14.7346 H   0  0  0  0  0  0
   18.3114   -7.8475   14.3100 H   0  0  0  0  0  0
   19.7203   -9.3745   13.0473 H   0  0  0  0  0  0
   16.4058   -6.8572   15.0115 H   0  0  0  0  0  0
   19.7373  -13.7752   12.1444 H   0  0  0  0  0  0
   18.3575   -6.4434   18.8109 H   0  0  0  0  0  0
   14.1415  -10.8654   18.8941 H   0  0  0  0  0  0
   13.7460  -11.6985   17.3880 H   0  0  0  0  0  0
   14.9778  -12.3463   18.4486 H   0  0  0  0  0  0
  1  2  1  0  0  0
  1  4  1  0  0  0
  1  6  1  0  0  0
  1 16  1  0  0  0
  2  3  2  0  0  0
  2 11  1  0  0  0
  3  9  1  0  0  0
  3  5  1  0  0  0
  4 10  1  0  0  0
  4 21  1  0  0  0
  4 22  1  0  0  0
  5 12  1  0  0  0
  6 12  1  0  0  0
  6 23  1  0  0  0
  6 24  1  0  0  0
  7  8  1  0  0  0
  7 14  2  0  0  0
  7 17  1  0  0  0
  8 13  1  0  0  0
  8  9  2  0  0  0
  9 25  1  0  0  0
 10 15  2  0  0  0
 10 18  1  0  0  0
 11 13  2  0  0  0
 11 26  1  0  0  0
 12 19  1  0  0  0
 12 20  1  0  0  0
 13 27  1  0  0  0
 16 28  1  0  0  0
 17 29  1  0  0  0
 18 30  1  0  0  0
 19 31  1  0  0  0
 19 32  1  0  0  0
 19 33  1  0  0  0
M  END
> <s_m_entry_id>
6724

> <s_m_entry_name>
dock_pv.559

> <s_m_Source_Path>
/home/csk/Desktop/cluster/DUD-E-result/aldr

> <s_m_Source_File>
dock_pv.maegz

> <i_m_Source_File_Index>
559

> <chembl_id>
CHEMBL70190

> <chembl_pref_name>
None

> <i_lp_mmshare_version>
53161

> <i_f3d_flags>
0

> <r_lp_tautomer_probability>
1

> <s_lp_Force_Field>
OPLS_2005

> <r_lp_Energy>
17.353879

> <b_lp_Chiralities_Consistent>
1

> <s_lp_Variant>
CHEMBL1900_lig373-1

> <s_i_glide_gridfile>
glide-grid_2hv5

> <i_i_glide_lignum>
494

> <i_i_glide_rotatable_bonds>
6

> <r_i_docking_score>
-6.94004602409674

> <r_i_glide_ligand_efficiency>
-0.365265580215618

> <r_i_glide_ligand_efficiency_sa>
-0.974675275512109

> <r_i_glide_ligand_efficiency_ln>
-1.75945072562977

> <r_i_glide_gscore>
-6.94004602409674

> <r_i_glide_lipo>
-2.33453575590406

> <r_i_glide_hbond>
0

> <r_i_glide_metal>
0

> <r_i_glide_rewards>
-3.12414767661292

> <r_i_glide_evdw>
-29.5967140197754

> <r_i_glide_ecoul>
-5.03520441055298

> <r_i_glide_erotb>
0.753753770991956

> <r_i_glide_esite>
0

> <r_i_glide_emodel>
-46.1725951020882

> <r_i_glide_energy>
-34.6319184303284

> <r_i_glide_einternal>
4.66532468795776

> <i_i_glide_confnum>
17

> <i_i_glide_posenum>
153

> <r_i_glide_eff_state_penalty>
0

> <s_user_duplicate_titles>
CHEMBL1900_lig373,109161

> <s_m_subgroup_title>
dock_pv

> <s_m_subgroupid>
dock_pv

> <b_m_subgroup_collapsed>
1

$$$$
CHEMBL1900_lig530
                    3D
 Schrodinger Suite 2021-1.
 45 47  0  0  1  0            999 V2000
   18.2404   -6.5148   15.5440 O   0  0  0  0  0  0
   18.4356   -7.3560   14.3717 S   0  0  0  0  0  0
   19.7791   -7.6361   13.8660 O   0  0  0  0  0  0
   14.7384  -10.4906   17.4092 C   0  0  0  0  0  0
   14.8470   -9.1089   17.3962 C   0  0  0  0  0  0
   15.7922   -8.4499   16.6065 C   0  0  0  0  0  0
   15.5381  -11.2910   16.6033 C   0  0  0  0  0  0
   16.4550  -10.6475   15.7629 C   0  0  0  0  0  0
   16.6133   -9.2221   15.7384 C   0  0  0  0  0  0
   17.6646   -8.9566   14.7742 C   0  0  0  0  0  0
   18.0780  -10.1757   14.2592 C   0  0  0  0  0  0
   17.3453  -11.1888   14.8487 N   0  0  0  0  0  0
   17.5385   -6.5687   13.0470 C   0  0  0  0  0  0
   18.2067   -5.7053   12.1938 C   0  0  0  0  0  0
   17.5360   -5.0747   11.1538 C   0  0  0  0  0  0
   16.1688   -5.2911   11.0004 C   0  0  0  0  0  0
   15.4767   -6.1157   11.8882 C   0  0  0  0  0  0
   16.1771   -6.7518   12.9178 C   0  0  0  0  0  0
   17.5688  -12.6247   14.6363 C   0  0  0  0  0  0
   19.1743  -10.4863   13.2603 C   0  0  0  0  0  0
   15.3375   -4.5128    9.7079 Cl  0  0  0  0  0  0
   15.8602   -7.0519   16.7040 N   0  0  0  0  0  0
   16.1483   -6.3373   17.8125 C   0  0  0  0  0  0
   16.1448   -5.1100   17.7824 O   0  0  0  0  0  0
   16.5442   -7.0145   19.1213 C   0  0  0  0  0  0
   18.7630  -13.1615   15.4321 C   0  0  0  0  0  0
   19.6055  -13.9041   14.6614 O   0  0  0  0  0  0
   18.9433  -12.9157   16.6223 O   0  0  0  0  0  0
   14.0131  -10.9597   18.0582 H   0  0  0  0  0  0
   14.1943   -8.5342   18.0369 H   0  0  0  0  0  0
   15.4334  -12.3655   16.6312 H   0  0  0  0  0  0
   19.2488   -5.5384   12.3745 H   0  0  0  0  0  0
   18.0664   -4.4178   10.4804 H   0  0  0  0  0  0
   14.4080   -6.2435   11.7785 H   0  0  0  0  0  0
   15.7450   -7.3825   13.6616 H   0  0  0  0  0  0
   16.6787  -13.1763   14.9317 H   0  0  0  0  0  0
   17.6679  -12.8108   13.5670 H   0  0  0  0  0  0
   20.1103  -10.7011   13.7751 H   0  0  0  0  0  0
   18.9522  -11.3233   12.6045 H   0  0  0  0  0  0
   19.3452   -9.6520   12.5843 H   0  0  0  0  0  0
   16.0319   -6.5465   15.8481 H   0  0  0  0  0  0
   16.5514   -8.1022   19.0608 H   0  0  0  0  0  0
   15.8789   -6.7042   19.9276 H   0  0  0  0  0  0
   17.5541   -6.6968   19.3794 H   0  0  0  0  0  0
   19.3257  -13.9593   13.7484 H   0  0  0  0  0  0
  1  2  2  0  0  0
  2  3  2  0  0  0
  2 10  1  0  0  0
  2 13  1  0  0  0
  4  7  1  0  0  0
  4  5  2  0  0  0
  4 29  1  0  0  0
  5  6  1  0  0  0
  5 30  1  0  0  0
  6  9  2  0  0  0
  6 22  1  0  0  0
  7  8  2  0  0  0
  7 31  1  0  0  0
  8  9  1  0  0  0
  8 12  1  0  0  0
  9 10  1  0  0  0
 10 11  2  0  0  0
 11 20  1  0  0  0
 11 12  1  0  0  0
 12 19  1  0  0  0
 13 14  2  0  0  0
 13 18  1  0  0  0
 14 15  1  0  0  0
 14 32  1  0  0  0
 15 16  2  0  0  0
 15 33  1  0  0  0
 16 17  1  0  0  0
 16 21  1  0  0  0
 17 18  2  0  0  0
 17 34  1  0  0  0
 18 35  1  0  0  0
 19 26  1  0  0  0
 19 36  1  0  0  0
 19 37  1  0  0  0
 20 38  1  0  0  0
 20 39  1  0  0  0
 20 40  1  0  0  0
 22 23  1  0  0  0
 22 41  1  0  0  0
 23 24  2  0  0  0
 23 25  1  0  0  0
 25 42  1  0  0  0
 25 43  1  0  0  0
 25 44  1  0  0  0
 26 27  1  0  0  0
 26 28  2  0  0  0
 27 45  1  0  0  0
M  END
> <s_m_entry_id>
6725

> <s_m_entry_name>
dock_pv.560

> <s_m_Source_Path>
/home/csk/Desktop/cluster/DUD-E-result/aldr

> <s_m_Source_File>
dock_pv.maegz

> <i_m_Source_File_Index>
560

> <chembl_id>
CHEMBL1917449

> <chembl_pref_name>
None

> <i_lp_mmshare_version>
53161

> <i_f3d_flags>
0

> <r_lp_tautomer_probability>
1

> <s_lp_Force_Field>
OPLS_2005

> <r_lp_Energy>
20.019072

> <b_lp_Chiralities_Consistent>
1

> <s_lp_Variant>
CHEMBL1900_lig530-1

> <s_i_glide_gridfile>
glide-grid_2hv5

> <i_i_glide_lignum>
653

> <i_i_glide_rotatable_bonds>
7

> <r_i_docking_score>
-6.92020282144929

> <r_i_glide_ligand_efficiency>
-0.247150100766046

> <r_i_glide_ligand_efficiency_sa>
-0.750493269550535

> <r_i_glide_ligand_efficiency_ln>
-1.59738599717432

> <r_i_glide_gscore>
-6.92020282144929

> <r_i_glide_lipo>
-4.43835930779447

> <r_i_glide_hbond>
0

> <r_i_glide_metal>
0

> <r_i_glide_rewards>
-1.092133029433

> <r_i_glide_evdw>
-44.1692276000977

> <r_i_glide_ecoul>
1.73294365406036

> <r_i_glide_erotb>
0.558809347674004

> <r_i_glide_esite>
0

> <r_i_glide_emodel>
-44.4828181195549

> <r_i_glide_energy>
-42.4362839460373

> <r_i_glide_einternal>
14.3358850479126

> <i_i_glide_confnum>
60

> <i_i_glide_posenum>
261

> <r_i_glide_eff_state_penalty>
0

> <s_user_duplicate_titles>
CHEMBL1900_lig530

> <s_m_subgroup_title>
dock_pv

> <s_m_subgroupid>
dock_pv

> <b_m_subgroup_collapsed>
1

$$$$
CHEMBL1900_lig321
                    3D
 Schrodinger Suite 2021-1.
 35 37  0  0  1  0            999 V2000
   17.7449   -9.2229   14.3421 C   0  0  0  0  0  0
   17.2505   -8.5437   15.5845 C   0  0  0  0  0  0
   16.3048   -9.0789   16.4759 C   0  0  0  0  0  0
   15.9767   -8.3431   17.6324 C   0  0  0  0  0  0
   18.2248  -10.6538   14.3056 C   0  0  0  0  0  0
   16.4825   -7.0511   17.8547 C   0  0  0  0  0  0
   17.7411   -7.2493   15.7907 C   0  0  0  0  0  0
   15.7051  -10.4534   16.1809 C   0  0  0  0  0  0
   16.6549   -4.8328   19.2678 C   0  0  0  0  0  0
   16.0681   -6.2443   19.1052 C   0  0  0  0  0  0
   17.9842   -8.5012   13.3663 O   0  0  0  0  0  0
   17.7439  -11.7340   15.0890 C   0  0  0  0  0  0
   17.3428   -6.5172   16.8966 C   0  0  0  0  0  0
   16.7230  -11.5986   16.2172 C   0  0  0  0  0  0
   16.2863   -3.8769   18.5819 O   0  0  0  0  0  0
   15.1731   -8.9171   18.5769 O   0  0  0  0  0  0
   17.6302   -4.7858   20.2246 O   0  0  0  0  0  0
   19.2644  -10.8907   13.3809 C   0  0  0  0  0  0
   18.3098  -13.0040   14.8941 C   0  0  0  0  0  0
   19.8010  -12.1610   13.2069 C   0  0  0  0  0  0
   19.3190  -13.2203   13.9615 C   0  0  0  0  0  0
   18.4339   -6.7866   15.1009 H   0  0  0  0  0  0
   14.9236  -10.6801   16.9056 H   0  0  0  0  0  0
   15.1719  -10.4211   15.2298 H   0  0  0  0  0  0
   16.2903   -6.8373   19.9931 H   0  0  0  0  0  0
   14.9854   -6.1156   19.0701 H   0  0  0  0  0  0
   17.7446   -5.5286   17.0095 H   0  0  0  0  0  0
   16.1601  -12.5308   16.2660 H   0  0  0  0  0  0
   17.2775  -11.5476   17.1566 H   0  0  0  0  0  0
   15.4165   -8.6538   19.4663 H   0  0  0  0  0  0
   17.8278   -5.6500   20.5911 H   0  0  0  0  0  0
   19.7183  -10.0932   12.8060 H   0  0  0  0  0  0
   17.9690  -13.8450   15.4817 H   0  0  0  0  0  0
   20.6013  -12.3206   12.4988 H   0  0  0  0  0  0
   19.7484  -14.1994   13.8341 H   0  0  0  0  0  0
  1  2  1  0  0  0
  1  5  1  0  0  0
  1 11  2  0  0  0
  2  3  2  0  0  0
  2  7  1  0  0  0
  3  4  1  0  0  0
  3  8  1  0  0  0
  4 16  1  0  0  0
  4  6  2  0  0  0
  5 12  1  0  0  0
  5 18  2  0  0  0
  6 13  1  0  0  0
  6 10  1  0  0  0
  7 13  2  0  0  0
  7 22  1  0  0  0
  8 14  1  0  0  0
  8 23  1  0  0  0
  8 24  1  0  0  0
  9 10  1  0  0  0
  9 15  2  0  0  0
  9 17  1  0  0  0
 10 25  1  0  0  0
 10 26  1  0  0  0
 12 14  1  0  0  0
 12 19  2  0  0  0
 13 27  1  0  0  0
 14 28  1  0  0  0
 14 29  1  0  0  0
 16 30  1  0  0  0
 17 31  1  0  0  0
 18 20  1  0  0  0
 18 32  1  0  0  0
 19 21  1  0  0  0
 19 33  1  0  0  0
 20 21  2  0  0  0
 20 34  1  0  0  0
 21 35  1  0  0  0
M  END
> <s_m_entry_id>
6726

> <s_m_entry_name>
dock_pv.561

> <s_m_Source_Path>
/home/csk/Desktop/cluster/DUD-E-result/aldr

> <s_m_Source_File>
dock_pv.maegz

> <i_m_Source_File_Index>
561

> <chembl_id>
CHEMBL74436

> <chembl_pref_name>
None

> <i_lp_mmshare_version>
53161

> <i_f3d_flags>
0

> <r_lp_tautomer_probability>
1

> <s_lp_Force_Field>
OPLS_2005

> <r_lp_Energy>
28.890241

> <b_lp_Chiralities_Consistent>
1

> <s_lp_Variant>
CHEMBL1900_lig321-1

> <s_i_glide_gridfile>
glide-grid_2hv5

> <i_i_glide_lignum>
439

> <i_i_glide_rotatable_bonds>
4

> <r_i_docking_score>
-6.91405004412312

> <r_i_glide_ligand_efficiency>
-0.329240478291577

> <r_i_glide_ligand_efficiency_sa>
-0.908349514480086

> <r_i_glide_ligand_efficiency_ln>
-1.70948490225583

> <r_i_glide_gscore>
-6.91405004412312

> <r_i_glide_lipo>
-2.71940063955951

> <r_i_glide_hbond>
0

> <r_i_glide_metal>
0

> <r_i_glide_rewards>
-3.03853129602331

> <r_i_glide_evdw>
-28.8560771942139

> <r_i_glide_ecoul>
-1.11577701568604

> <r_i_glide_erotb>
0.454052303523303

> <r_i_glide_esite>
0

> <r_i_glide_emodel>
-36.1409624490035

> <r_i_glide_energy>
-29.9718542098999

> <r_i_glide_einternal>
3.78405141830444

> <i_i_glide_confnum>
2

> <i_i_glide_posenum>
185

> <r_i_glide_eff_state_penalty>
0

> <s_user_duplicate_titles>
CHEMBL1900_lig321

> <s_m_subgroup_title>
dock_pv

> <s_m_subgroupid>
dock_pv

> <b_m_subgroup_collapsed>
1

$$$$
CHEMBL1900_lig457
                    3D
 Schrodinger Suite 2021-1.
 33 35  0  0  1  0            999 V2000
   18.9267   -7.5104   14.1303 S   0  0  0  0  0  0
   17.8117   -8.4954   15.1624 C   0  0  0  0  0  0
   17.8680   -6.5815   12.9853 C   0  0  0  0  0  0
   17.1275   -8.2040   16.3453 C   0  0  0  0  0  0
   17.6227   -9.7812   14.7550 O   0  0  0  0  0  0
   18.4470   -5.7147   12.2245 N   0  0  0  0  0  0
   16.4494   -9.4241   16.6783 C   0  0  0  0  0  0
   16.8125  -10.3530   15.6788 C   0  0  0  0  0  0
   17.6993   -5.0350   11.2658 N   0  0  0  0  0  0
   16.4394   -6.7644   12.8687 C   0  0  0  0  0  0
   16.3709   -5.1762   10.9815 C   0  0  0  0  0  0
   19.7026   -8.4785   13.3515 O   0  0  0  0  0  0
   19.5781   -6.5162   14.9809 O   0  0  0  0  0  0
   15.7379   -6.1048   11.9095 C   0  0  0  0  0  0
   15.5958   -9.8525   17.7052 C   0  0  0  0  0  0
   16.3786  -11.6827   15.6672 C   0  0  0  0  0  0
   15.8036   -4.5828   10.0686 O   0  0  0  0  0  0
   15.1550  -11.1769   17.7019 C   0  0  0  0  0  0
   17.1038   -6.9147   17.1383 C   0  0  0  0  0  0
   15.5302  -12.0732   16.7025 C   0  0  0  0  0  0
   14.1474  -11.7188   18.9828 Cl  0  0  0  0  0  0
   15.7077   -6.3013   17.2206 C   0  0  0  0  0  0
   15.9045   -7.3664   13.5819 H   0  0  0  0  0  0
   14.6642   -6.2060   11.8393 H   0  0  0  0  0  0
   15.3022   -9.1832   18.5000 H   0  0  0  0  0  0
   16.6798  -12.3643   14.8871 H   0  0  0  0  0  0
   18.2198   -4.3853   10.6966 H   0  0  0  0  0  0
   17.4947   -7.0773   18.1467 H   0  0  0  0  0  0
   17.7563   -6.1683   16.6890 H   0  0  0  0  0  0
   15.1633  -13.0907   16.7357 H   0  0  0  0  0  0
   15.7447   -5.3461   17.7488 H   0  0  0  0  0  0
   15.3102   -6.1167   16.2232 H   0  0  0  0  0  0
   15.0057   -6.9497   17.7466 H   0  0  0  0  0  0
  1  2  1  0  0  0
  1 12  2  0  0  0
  1 13  2  0  0  0
  1  3  1  0  0  0
  2  4  2  0  0  0
  2  5  1  0  0  0
  3 10  1  0  0  0
  3  6  2  0  0  0
  4  7  1  0  0  0
  4 19  1  0  0  0
  5  8  1  0  0  0
  6  9  1  0  0  0
  7 15  1  0  0  0
  7  8  2  0  0  0
  8 16  1  0  0  0
  9 11  1  0  0  0
  9 27  1  0  0  0
 10 14  2  0  0  0
 10 23  1  0  0  0
 11 17  2  0  0  0
 11 14  1  0  0  0
 14 24  1  0  0  0
 15 18  2  0  0  0
 15 25  1  0  0  0
 16 20  2  0  0  0
 16 26  1  0  0  0
 18 21  1  0  0  0
 18 20  1  0  0  0
 19 22  1  0  0  0
 19 28  1  0  0  0
 19 29  1  0  0  0
 20 30  1  0  0  0
 22 31  1  0  0  0
 22 32  1  0  0  0
 22 33  1  0  0  0
M  END
> <s_m_entry_id>
6727

> <s_m_entry_name>
dock_pv.562

> <s_m_Source_Path>
/home/csk/Desktop/cluster/DUD-E-result/aldr

> <s_m_Source_File>
dock_pv.maegz

> <i_m_Source_File_Index>
562

> <chembl_id>
CHEMBL440567

> <chembl_pref_name>
None

> <i_lp_mmshare_version>
53161

> <i_f3d_flags>
0

> <r_lp_tautomer_probability>
0.998994762270461

> <s_lp_Force_Field>
OPLS_2005

> <r_lp_Energy>
23.04321

> <b_lp_Chiralities_Consistent>
1

> <s_lp_Variant>
CHEMBL1900_lig457-1

> <s_i_glide_gridfile>
glide-grid_2hv5

> <i_i_glide_lignum>
579

> <i_i_glide_rotatable_bonds>
3

> <r_i_docking_score>
-6.89781297474755

> <r_i_glide_ligand_efficiency>
-0.313536953397616

> <r_i_glide_ligand_efficiency_sa>
-0.87854287412878

> <r_i_glide_ligand_efficiency_ln>
-1.68607709486983

> <r_i_glide_gscore>
-6.89781297474755

> <r_i_glide_lipo>
-3.21801946637499

> <r_i_glide_hbond>
0

> <r_i_glide_metal>
0

> <r_i_glide_rewards>
-2.40585684716797

> <r_i_glide_evdw>
-41.4784049987793

> <r_i_glide_ecoul>
3.1355152130127

> <r_i_glide_erotb>
0.32965630678247

> <r_i_glide_esite>
0

> <r_i_glide_emodel>
-50.8553397332518

> <r_i_glide_energy>
-38.3428897857666

> <r_i_glide_einternal>
4.27044630050659

> <i_i_glide_confnum>
5

> <i_i_glide_posenum>
140

> <r_i_glide_eff_state_penalty>
0

> <s_user_duplicate_titles>
CHEMBL1900_lig457,331247

> <s_m_subgroup_title>
dock_pv

> <s_m_subgroupid>
dock_pv

> <b_m_subgroup_collapsed>
1

$$$$
CHEMBL1900_lig103
                    3D
 Schrodinger Suite 2021-1.
 28 30  0  0  1  0            999 V2000
   16.2086   -9.0412   17.0772 C   0  0  2  0  0  0
   17.1992   -8.9437   15.8901 C   0  0  0  0  0  0
   15.9538  -10.4596   17.5269 N   0  0  0  0  0  0
   14.9097   -8.4215   16.6026 C   0  0  0  0  0  0
   16.3239  -11.5729   16.8145 C   0  0  0  0  0  0
   17.5735  -10.1304   15.2520 C   0  0  0  0  0  0
   16.5060   -8.1181   18.1520 N   0  0  0  0  0  0
   17.0887  -11.3356   15.7357 N   0  0  0  0  0  0
   14.7718   -7.2703   17.2726 N   0  0  0  0  0  0
   15.7421   -7.0237   18.1734 C   0  0  0  0  0  0
   18.4180  -10.1246   14.1390 C   0  0  0  0  0  0
   18.9200   -8.9173   13.6610 C   0  0  0  0  0  0
   17.7434   -7.7397   15.4047 C   0  0  0  0  0  0
   18.5852   -7.7216   14.2939 C   0  0  0  0  0  0
   16.0391  -12.7363   17.0952 O   0  0  0  0  0  0
   14.1451   -8.9158   15.7823 O   0  0  0  0  0  0
   15.7570   -6.1150   18.9978 O   0  0  0  0  0  0
   18.7584  -11.2852   13.5281 F   0  0  0  0  0  0
   19.7359   -8.9143   12.5865 F   0  0  0  0  0  0
   14.9414  -10.6844   18.5822 C   0  0  0  0  0  0
   19.0736   -6.5451   13.8401 F   0  0  0  0  0  0
   17.4348   -8.1154   18.5486 H   0  0  0  0  0  0
   17.3387  -12.1777   15.2391 H   0  0  0  0  0  0
   13.9180   -6.7365   17.2384 H   0  0  0  0  0  0
   17.4961   -6.7983   15.8721 H   0  0  0  0  0  0
   13.9404  -10.6245   18.1531 H   0  0  0  0  0  0
   15.0034   -9.9292   19.3654 H   0  0  0  0  0  0
   15.0308  -11.6603   19.0627 H   0  0  0  0  0  0
  1  2  1  0  0  0
  1  3  1  0  0  0
  1  4  1  0  0  0
  1  7  1  0  0  0
  2  6  1  0  0  0
  2 13  2  0  0  0
  3  5  1  0  0  0
  3 20  1  0  0  0
  4  9  1  0  0  0
  4 16  2  0  0  0
  5  8  1  0  0  0
  5 15  2  0  0  0
  6 11  2  0  0  0
  6  8  1  0  0  0
  7 10  1  0  0  0
  7 22  1  0  0  0
  8 23  1  0  0  0
  9 10  1  0  0  0
  9 24  1  0  0  0
 10 17  2  0  0  0
 11 18  1  0  0  0
 11 12  1  0  0  0
 12 14  2  0  0  0
 12 19  1  0  0  0
 13 14  1  0  0  0
 13 25  1  0  0  0
 14 21  1  0  0  0
 20 26  1  0  0  0
 20 27  1  0  0  0
 20 28  1  0  0  0
M  END
> <s_m_entry_id>
6728

> <s_m_entry_name>
dock_pv.563

> <s_m_Source_Path>
/home/csk/Desktop/cluster/DUD-E-result/aldr

> <s_m_Source_File>
dock_pv.maegz

> <i_m_Source_File_Index>
563

> <chembl_id>
CHEMBL63640

> <chembl_pref_name>
None

> <i_lp_mmshare_version>
53161

> <i_f3d_flags>
0

> <r_lp_tautomer_probability>
0.99999999978137

> <s_lp_Force_Field>
OPLS_2005

> <r_lp_Energy>
35.292744

> <b_lp_Chiralities_Consistent>
1

> <s_lp_Variant>
CHEMBL1900_lig103-2

> <s_i_glide_gridfile>
glide-grid_2hv5

> <i_i_glide_lignum>
148

> <i_i_glide_rotatable_bonds>
0

> <r_i_docking_score>
-6.89739916431213

> <r_i_glide_ligand_efficiency>
-0.328447579252959

> <r_i_glide_ligand_efficiency_sa>
-0.906161966155232

> <r_i_glide_ligand_efficiency_ln>
-1.70536800586883

> <r_i_glide_gscore>
-6.89739916431213

> <r_i_glide_lipo>
-1.55679187143963

> <r_i_glide_hbond>
0

> <r_i_glide_metal>
0

> <r_i_glide_rewards>
-3.72065045378788

> <r_i_glide_evdw>
-28.1866245269775

> <r_i_glide_ecoul>
-1.40417075157166

> <r_i_glide_erotb>
0

> <r_i_glide_esite>
0

> <r_i_glide_emodel>
-37.3238347272354

> <r_i_glide_energy>
-29.5907952785492

> <r_i_glide_einternal>
0

> <i_i_glide_confnum>
1

> <i_i_glide_posenum>
3

> <r_i_glide_eff_state_penalty>
0

> <s_user_duplicate_titles>
CHEMBL1900_lig103,101837

> <s_m_subgroup_title>
dock_pv

> <s_m_subgroupid>
dock_pv

> <b_m_subgroup_collapsed>
1

$$$$
CHEMBL1900_lig68
                    3D
 Schrodinger Suite 2021-1.
 24 25  0  0  1  0            999 V2000
   18.3545   -7.6050   13.8837 S   0  0  0  0  0  0
   17.3458   -6.6109   12.7540 C   0  0  0  0  0  0
   17.2687   -8.3946   15.0852 C   0  0  0  0  0  0
   16.0889   -6.8686   12.6570 N   0  0  0  0  0  0
   15.3010   -6.1150   11.7805 N   0  0  0  0  0  0
   16.3646   -7.6609   15.8655 C   0  0  0  0  0  0
   17.9058   -5.5636   11.9356 C   0  0  0  0  0  0
   15.7038   -5.1199   10.9376 C   0  0  0  0  0  0
   17.3465   -9.7825   15.2487 C   0  0  0  0  0  0
   19.2042   -6.6455   14.5955 O   0  0  0  0  0  0
   18.9442   -8.6653   13.0586 O   0  0  0  0  0  0
   17.1303   -4.8693   11.0678 C   0  0  0  0  0  0
   15.5508   -8.3139   16.7927 C   0  0  0  0  0  0
   14.9508   -4.5151   10.1817 O   0  0  0  0  0  0
   15.6387   -9.6963   16.9520 C   0  0  0  0  0  0
   16.2553   -6.3217   15.7336 F   0  0  0  0  0  0
   16.5343  -10.4305   16.1778 C   0  0  0  0  0  0
   14.5450  -10.5850   18.2288 Br  0  0  0  0  0  0
   18.9449   -5.3149   12.0259 H   0  0  0  0  0  0
   18.0371  -10.3670   14.6567 H   0  0  0  0  0  0
   17.5571   -4.0800   10.4671 H   0  0  0  0  0  0
   14.8520   -7.7467   17.3893 H   0  0  0  0  0  0
   14.3208   -6.3553   11.7683 H   0  0  0  0  0  0
   16.5999  -11.5022   16.2970 H   0  0  0  0  0  0
  1  3  1  0  0  0
  1 10  2  0  0  0
  1 11  2  0  0  0
  1  2  1  0  0  0
  2  7  1  0  0  0
  2  4  2  0  0  0
  3  6  2  0  0  0
  3  9  1  0  0  0
  4  5  1  0  0  0
  5  8  1  0  0  0
  5 23  1  0  0  0
  6 13  1  0  0  0
  6 16  1  0  0  0
  7 12  2  0  0  0
  7 19  1  0  0  0
  8 14  2  0  0  0
  8 12  1  0  0  0
  9 17  2  0  0  0
  9 20  1  0  0  0
 12 21  1  0  0  0
 13 15  2  0  0  0
 13 22  1  0  0  0
 15 17  1  0  0  0
 15 18  1  0  0  0
 17 24  1  0  0  0
M  END
> <s_m_entry_id>
6729

> <s_m_entry_name>
dock_pv.564

> <s_m_Source_Path>
/home/csk/Desktop/cluster/DUD-E-result/aldr

> <s_m_Source_File>
dock_pv.maegz

> <i_m_Source_File_Index>
564

> <chembl_id>
CHEMBL307279

> <chembl_pref_name>
None

> <i_lp_mmshare_version>
53161

> <i_f3d_flags>
0

> <r_lp_tautomer_probability>
0.998994762270461

> <s_lp_Force_Field>
OPLS_2005

> <r_lp_Energy>
20.287397

> <b_lp_Chiralities_Consistent>
1

> <s_lp_Variant>
CHEMBL1900_lig68-1

> <s_i_glide_gridfile>
glide-grid_2hv5

> <i_i_glide_lignum>
104

> <i_i_glide_rotatable_bonds>
2

> <r_i_docking_score>
-6.89737767294742

> <r_i_glide_ligand_efficiency>
-0.383187648497079

> <r_i_glide_ligand_efficiency_sa>
-1.00423573119832

> <r_i_glide_ligand_efficiency_ln>
-1.77293536509667

> <r_i_glide_gscore>
-6.89737767294742

> <r_i_glide_lipo>
-3.02467792525716

> <r_i_glide_hbond>
0

> <r_i_glide_metal>
0

> <r_i_glide_rewards>
-2.64550669546772

> <r_i_glide_evdw>
-38.0425987243652

> <r_i_glide_ecoul>
2.2356538772583

> <r_i_glide_erotb>
0.339588802406979

> <r_i_glide_esite>
0

> <r_i_glide_emodel>
-48.193086590604

> <r_i_glide_energy>
-35.8069448471069

> <r_i_glide_einternal>
2.46621513366699

> <i_i_glide_confnum>
1

> <i_i_glide_posenum>
177

> <r_i_glide_eff_state_penalty>
0

> <s_user_duplicate_titles>
CHEMBL1900_lig68,117485

> <s_m_subgroup_title>
dock_pv

> <s_m_subgroupid>
dock_pv

> <b_m_subgroup_collapsed>
1

$$$$
CHEMBL1900_lig531
                    3D
 Schrodinger Suite 2021-1.
 46 48  0  0  1  0            999 V2000
   19.1332  -13.9064   13.5863 O   0  0  0  0  0  0
   19.0801  -12.8141   12.6104 S   0  0  0  0  0  0
   20.2475  -12.5150   11.7810 O   0  0  0  0  0  0
   20.1061   -6.9150   14.6721 O   0  0  0  0  0  0
   19.2156   -7.8487   13.9727 S   0  0  0  0  0  0
   19.7391   -8.9129   13.1170 O   0  0  0  0  0  0
   16.0346  -12.2775   15.9434 C   0  0  0  0  0  0
   16.9450  -12.3280   14.9008 C   0  0  0  0  0  0
   17.7125  -11.2204   14.5179 C   0  0  0  0  0  0
   15.8402  -11.1219   16.6821 C   0  0  0  0  0  0
   16.6047  -10.0024   16.3321 C   0  0  0  0  0  0
   17.5377  -10.0036   15.2335 C   0  0  0  0  0  0
   18.0813   -8.6542   15.1779 C   0  0  0  0  0  0
   17.6445   -8.0269   16.3159 C   0  0  0  0  0  0
   16.6443   -8.7543   16.9219 N   0  0  0  0  0  0
   18.1812   -6.7975   12.9781 C   0  0  0  0  0  0
   18.5311   -5.4838   12.7120 C   0  0  0  0  0  0
   17.8048   -4.7427   11.7810 C   0  0  0  0  0  0
   16.5983   -5.2426   11.3050 C   0  0  0  0  0  0
   16.1806   -6.5150   11.6752 C   0  0  0  0  0  0
   17.0430   -7.3196   12.4215 C   0  0  0  0  0  0
   15.8923   -8.3493   18.1187 C   0  0  0  0  0  0
   18.1450   -6.7391   16.8712 C   0  0  0  0  0  0
   15.6123   -4.2779   10.2677 Cl  0  0  0  0  0  0
   18.6502  -11.3202   13.4757 N   0  0  0  0  0  0
   17.5972  -13.0476   11.4797 C   0  0  0  0  0  0
   15.3449   -6.9216   18.0700 C   0  0  0  0  0  0
   14.6860   -6.6658   16.9030 O   0  0  0  0  0  0
   15.5183   -6.1150   18.9811 O   0  0  0  0  0  0
   15.4667  -13.1644   16.1877 H   0  0  0  0  0  0
   17.0212  -13.2718   14.3880 H   0  0  0  0  0  0
   15.1329  -11.1143   17.4986 H   0  0  0  0  0  0
   19.3450   -5.0552   13.2585 H   0  0  0  0  0  0
   18.1284   -3.7537   11.4927 H   0  0  0  0  0  0
   15.2143   -6.8603   11.3397 H   0  0  0  0  0  0
   16.9450   -8.3734   12.5848 H   0  0  0  0  0  0
   15.0433   -9.0148   18.2691 H   0  0  0  0  0  0
   16.5450   -8.4658   18.9810 H   0  0  0  0  0  0
   18.1296   -5.9609   16.1150 H   0  0  0  0  0  0
   17.7492   -6.3440   17.7975 H   0  0  0  0  0  0
   19.1882   -6.9150   17.1229 H   0  0  0  0  0  0
   19.1577  -10.4760   13.2115 H   0  0  0  0  0  0
   17.8241  -13.8426   10.7727 H   0  0  0  0  0  0
   17.4149  -12.1150   10.9484 H   0  0  0  0  0  0
   16.7270  -13.3111   12.0764 H   0  0  0  0  0  0
   14.6559   -7.4385   16.3351 H   0  0  0  0  0  0
  1  2  2  0  0  0
  2  3  2  0  0  0
  2 25  1  0  0  0
  2 26  1  0  0  0
  4  5  2  0  0  0
  5 13  1  0  0  0
  5 16  1  0  0  0
  5  6  2  0  0  0
  7 10  1  0  0  0
  7  8  2  0  0  0
  7 30  1  0  0  0
  8  9  1  0  0  0
  8 31  1  0  0  0
  9 12  2  0  0  0
  9 25  1  0  0  0
 10 11  2  0  0  0
 10 32  1  0  0  0
 11 15  1  0  0  0
 11 12  1  0  0  0
 12 13  1  0  0  0
 13 14  2  0  0  0
 14 23  1  0  0  0
 14 15  1  0  0  0
 15 22  1  0  0  0
 16 17  2  0  0  0
 16 21  1  0  0  0
 17 18  1  0  0  0
 17 33  1  0  0  0
 18 19  2  0  0  0
 18 34  1  0  0  0
 19 20  1  0  0  0
 19 24  1  0  0  0
 20 21  2  0  0  0
 20 35  1  0  0  0
 21 36  1  0  0  0
 22 27  1  0  0  0
 22 37  1  0  0  0
 22 38  1  0  0  0
 23 39  1  0  0  0
 23 40  1  0  0  0
 23 41  1  0  0  0
 25 42  1  0  0  0
 26 43  1  0  0  0
 26 44  1  0  0  0
 26 45  1  0  0  0
 27 28  1  0  0  0
 27 29  2  0  0  0
 28 46  1  0  0  0
M  END
> <s_m_entry_id>
6731

> <s_m_entry_name>
dock_pv.566

> <s_m_Source_Path>
/home/csk/Desktop/cluster/DUD-E-result/aldr

> <s_m_Source_File>
dock_pv.maegz

> <i_m_Source_File_Index>
566

> <chembl_id>
CHEMBL1917450

> <chembl_pref_name>
None

> <i_lp_mmshare_version>
53161

> <i_f3d_flags>
0

> <r_lp_tautomer_probability>
1

> <s_lp_Force_Field>
OPLS_2005

> <r_lp_Energy>
10.083384

> <b_lp_Chiralities_Consistent>
1

> <s_lp_Variant>
CHEMBL1900_lig531-1

> <s_i_glide_gridfile>
glide-grid_2hv5

> <i_i_glide_lignum>
654

> <i_i_glide_rotatable_bonds>
7

> <r_i_docking_score>
-6.89171050964015

> <r_i_glide_ligand_efficiency>
-0.237645189987591

> <r_i_glide_ligand_efficiency_sa>
-0.730121314922675

> <r_i_glide_ligand_efficiency_ln>
-1.57802694800766

> <r_i_glide_gscore>
-6.89171050964015

> <r_i_glide_lipo>
-3.69875853222301

> <r_i_glide_hbond>
-0.0292302186665385

> <r_i_glide_metal>
0

> <r_i_glide_rewards>
-2.32425089761413

> <r_i_glide_evdw>
-24.3181953430176

> <r_i_glide_ecoul>
-0.699692010879517

> <r_i_glide_erotb>
0.48139270764634

> <r_i_glide_esite>
0

> <r_i_glide_emodel>
-39.6391663769215

> <r_i_glide_energy>
-25.0178873538971

> <r_i_glide_einternal>
15.3531637191772

> <i_i_glide_confnum>
4

> <i_i_glide_posenum>
65

> <r_i_glide_eff_state_penalty>
0

> <s_user_duplicate_titles>
CHEMBL1900_lig531

> <s_m_subgroup_title>
dock_pv

> <s_m_subgroupid>
dock_pv

> <b_m_subgroup_collapsed>
1

$$$$
CHEMBL1900_lig136
                    3D
 Schrodinger Suite 2021-1.
 28 30  0  0  1  0            999 V2000
   16.8038   -8.1286   16.5679 C   0  0  2  0  0  0
   17.7543   -8.1574   15.3928 N   0  0  0  0  0  0
   16.0901   -9.4879   16.8118 C   0  0  0  0  0  0
   15.7374   -7.0614   16.3659 C   0  0  0  0  0  0
   17.9902   -9.2567   14.6057 C   0  0  0  0  0  0
   17.3885   -7.5966   17.7789 N   0  0  0  0  0  0
   15.7437   -6.3015   17.4641 N   0  0  0  0  0  0
   17.3604  -10.3803   14.9834 N   0  0  0  0  0  0
   16.6805   -6.6242   18.3635 C   0  0  0  0  0  0
   16.4385  -10.5725   16.0000 C   0  0  0  0  0  0
   18.7213   -9.3015   13.6176 O   0  0  0  0  0  0
   15.0243   -6.9177   15.3817 O   0  0  0  0  0  0
   15.8663  -11.8368   16.1802 C   0  0  0  0  0  0
   16.9449   -6.0005   19.3846 O   0  0  0  0  0  0
   18.4518   -6.9092   15.0170 C   0  0  0  0  0  0
   15.1302   -9.7161   17.8159 C   0  0  0  0  0  0
   16.2176  -12.8752   15.3850 F   0  0  0  0  0  0
   14.5460  -10.9695   17.9973 C   0  0  0  0  0  0
   14.9195  -12.0320   17.1813 C   0  0  0  0  0  0
   17.9871   -8.1947   18.3290 H   0  0  0  0  0  0
   15.1906   -5.4675   17.5497 H   0  0  0  0  0  0
   17.5731  -11.1664   14.3877 H   0  0  0  0  0  0
   19.1455   -7.0168   14.1796 H   0  0  0  0  0  0
   19.0258   -6.5297   15.8593 H   0  0  0  0  0  0
   17.7354   -6.1379   14.7327 H   0  0  0  0  0  0
   14.8300   -8.9148   18.4726 H   0  0  0  0  0  0
   13.8036  -11.1227   18.7669 H   0  0  0  0  0  0
   14.4670  -13.0034   17.3186 H   0  0  0  0  0  0
  1  2  1  0  0  0
  1  3  1  0  0  0
  1  4  1  0  0  0
  1  6  1  0  0  0
  2  5  1  0  0  0
  2 15  1  0  0  0
  3 10  1  0  0  0
  3 16  2  0  0  0
  4  7  1  0  0  0
  4 12  2  0  0  0
  5 11  2  0  0  0
  5  8  1  0  0  0
  6  9  1  0  0  0
  6 20  1  0  0  0
  7  9  1  0  0  0
  7 21  1  0  0  0
  8 10  1  0  0  0
  8 22  1  0  0  0
  9 14  2  0  0  0
 10 13  2  0  0  0
 13 17  1  0  0  0
 13 19  1  0  0  0
 15 23  1  0  0  0
 15 24  1  0  0  0
 15 25  1  0  0  0
 16 18  1  0  0  0
 16 26  1  0  0  0
 18 19  2  0  0  0
 18 27  1  0  0  0
 19 28  1  0  0  0
M  END
> <s_m_entry_id>
6732

> <s_m_entry_name>
dock_pv.567

> <s_m_Source_Path>
/home/csk/Desktop/cluster/DUD-E-result/aldr

> <s_m_Source_File>
dock_pv.maegz

> <i_m_Source_File_Index>
567

> <chembl_id>
CHEMBL303779

> <chembl_pref_name>
None

> <i_lp_mmshare_version>
53161

> <i_f3d_flags>
0

> <r_lp_tautomer_probability>
0.99999999978137

> <s_lp_Force_Field>
OPLS_2005

> <r_lp_Energy>
34.782687

> <b_lp_Chiralities_Consistent>
1

> <s_lp_Variant>
CHEMBL1900_lig136-1

> <s_i_glide_gridfile>
glide-grid_2hv5

> <i_i_glide_lignum>
208

> <i_i_glide_rotatable_bonds>
0

> <r_i_docking_score>
-6.89100976016928

> <r_i_glide_ligand_efficiency>
-0.362684724219436

> <r_i_glide_ligand_efficiency_sa>
-0.967788515123542

> <r_i_glide_ligand_efficiency_ln>
-1.74701897952178

> <r_i_glide_gscore>
-6.89100976016928

> <r_i_glide_lipo>
-1.3863858115068

> <r_i_glide_hbond>
-0.178697826529955

> <r_i_glide_metal>
0

> <r_i_glide_rewards>
-3.78860690302013

> <r_i_glide_evdw>
-29.6534271240234

> <r_i_glide_ecoul>
-0.364319086074829

> <r_i_glide_erotb>
0

> <r_i_glide_esite>
0

> <r_i_glide_emodel>
-39.5495714818223

> <r_i_glide_energy>
-30.0177462100983

> <r_i_glide_einternal>
0

> <i_i_glide_confnum>
1

> <i_i_glide_posenum>
15

> <r_i_glide_eff_state_penalty>
0

> <s_user_duplicate_titles>
CHEMBL1900_lig136

> <s_m_subgroup_title>
dock_pv

> <s_m_subgroupid>
dock_pv

> <b_m_subgroup_collapsed>
1

$$$$
CHEMBL1900_lig99
                    3D
 Schrodinger Suite 2021-1.
 27 29  0  0  1  0            999 V2000
   16.2802   -9.9729   16.6054 C   0  0  2  0  0  0
   16.0580   -8.6981   17.3839 N   0  0  0  0  0  0
   14.9448  -10.5784   16.1956 C   0  0  0  0  0  0
   16.7640  -11.0922   17.3802 N   0  0  0  0  0  0
   15.9854   -7.4755   16.7607 C   0  0  0  0  0  0
   14.7587  -11.6408   16.9948 N   0  0  0  0  0  0
   17.1849   -9.7299   15.3821 C   0  0  0  0  0  0
   15.8096  -11.9380   17.7777 C   0  0  0  0  0  0
   16.7920   -7.3800   15.6866 N   0  0  0  0  0  0
   17.4597   -8.4031   15.0259 C   0  0  0  0  0  0
   14.1547  -10.1147   15.3809 O   0  0  0  0  0  0
   15.3460   -6.4945   17.1470 O   0  0  0  0  0  0
   15.3450   -8.8332   18.5810 N   0  0  0  0  0  0
   15.9405  -12.9068   18.5177 O   0  0  0  0  0  0
   17.8211  -10.7548   14.6643 C   0  0  0  0  0  0
   18.3746   -8.0976   14.0214 C   0  0  0  0  0  0
   18.7357  -10.4589   13.6582 C   0  0  0  0  0  0
   19.0285   -9.1317   13.3604 C   0  0  0  0  0  0
   17.6248  -10.9707   17.8887 H   0  0  0  0  0  0
   13.9457  -12.2326   16.9318 H   0  0  0  0  0  0
   16.8792   -6.4422   15.3272 H   0  0  0  0  0  0
   16.0094   -8.7392   19.3394 H   0  0  0  0  0  0
   14.7365   -8.0254   18.6203 H   0  0  0  0  0  0
   17.6266  -11.7902   14.9052 H   0  0  0  0  0  0
   18.5908   -7.0716   13.7584 H   0  0  0  0  0  0
   19.2303  -11.2557   13.1215 H   0  0  0  0  0  0
   19.7452   -8.9112   12.5859 H   0  0  0  0  0  0
  1  2  1  0  0  0
  1  3  1  0  0  0
  1  4  1  0  0  0
  1  7  1  0  0  0
  2  5  1  0  0  0
  2 13  1  0  0  0
  3  6  1  0  0  0
  3 11  2  0  0  0
  4  8  1  0  0  0
  4 19  1  0  0  0
  5 12  2  0  0  0
  5  9  1  0  0  0
  6  8  1  0  0  0
  6 20  1  0  0  0
  7 10  1  0  0  0
  7 15  2  0  0  0
  8 14  2  0  0  0
  9 10  1  0  0  0
  9 21  1  0  0  0
 10 16  2  0  0  0
 13 22  1  0  0  0
 13 23  1  0  0  0
 15 17  1  0  0  0
 15 24  1  0  0  0
 16 18  1  0  0  0
 16 25  1  0  0  0
 17 18  2  0  0  0
 17 26  1  0  0  0
 18 27  1  0  0  0
M  END
> <s_m_entry_id>
6733

> <s_m_entry_name>
dock_pv.568

> <s_m_Source_Path>
/home/csk/Desktop/cluster/DUD-E-result/aldr

> <s_m_Source_File>
dock_pv.maegz

> <i_m_Source_File_Index>
568

> <chembl_id>
CHEMBL65472

> <chembl_pref_name>
None

> <i_lp_mmshare_version>
53161

> <i_f3d_flags>
0

> <r_lp_tautomer_probability>
0.99999999978137

> <s_lp_Force_Field>
OPLS_2005

> <r_lp_Energy>
35.016539

> <b_lp_Chiralities_Consistent>
1

> <s_lp_Variant>
CHEMBL1900_lig99-1

> <s_i_glide_gridfile>
glide-grid_2hv5

> <i_i_glide_lignum>
140

> <i_i_glide_rotatable_bonds>
0

> <r_i_docking_score>
-6.88307498281361

> <r_i_glide_ligand_efficiency>
-0.382393054600756

> <r_i_glide_ligand_efficiency_sa>
-1.00215330608465

> <r_i_glide_ligand_efficiency_ln>
-1.76925893234837

> <r_i_glide_gscore>
-6.88307498281361

> <r_i_glide_lipo>
-1.37013968745888

> <r_i_glide_hbond>
-0.188475306848147

> <r_i_glide_metal>
0

> <r_i_glide_rewards>
-3.52015368622776

> <r_i_glide_evdw>
-25.9064979553223

> <r_i_glide_ecoul>
-3.2117714881897

> <r_i_glide_erotb>
0

> <r_i_glide_esite>
-0.0272156812842546

> <r_i_glide_emodel>
-38.4143229629584

> <r_i_glide_energy>
-29.118269443512

> <r_i_glide_einternal>
0

> <i_i_glide_confnum>
1

> <i_i_glide_posenum>
9

> <r_i_glide_eff_state_penalty>
0

> <s_user_duplicate_titles>
CHEMBL1900_lig99

> <s_m_subgroup_title>
dock_pv

> <s_m_subgroupid>
dock_pv

> <b_m_subgroup_collapsed>
1

$$$$
CHEMBL1900_lig472
                    3D
 Schrodinger Suite 2021-1.
 18 18  0  0  1  0            999 V2000
   17.6562   -8.3117   15.7549 C   0  0  0  0  0  0
   17.3332   -9.6771   15.9152 C   0  0  0  0  0  0
   17.5747  -10.5891   14.8896 C   0  0  0  0  0  0
   18.1455  -10.1687   13.6952 C   0  0  0  0  0  0
   18.4730   -8.8290   13.5193 C   0  0  0  0  0  0
   18.2385   -7.9009   14.5351 C   0  0  0  0  0  0
   17.4628   -7.3146   16.9127 C   0  0  0  0  0  0
   16.0039   -7.0634   17.3146 C   0  0  0  0  0  0
   16.6719  -10.3098   17.3810 Cl  0  0  0  0  0  0
   18.7028   -6.2606   14.2266 Cl  0  0  0  0  0  0
   15.1837   -6.5164   16.5813 O   0  0  0  0  0  0
   15.7452   -7.4978   18.5795 O   0  0  0  0  0  0
   17.3248  -11.6320   15.0220 H   0  0  0  0  0  0
   18.3307  -10.8802   12.9037 H   0  0  0  0  0  0
   18.9148   -8.5147   12.5851 H   0  0  0  0  0  0
   17.8683   -6.3361   16.6728 H   0  0  0  0  0  0
   18.0662   -7.6489   17.7573 H   0  0  0  0  0  0
   16.4863   -7.9678   18.9679 H   0  0  0  0  0  0
  1  2  2  0  0  0
  1  6  1  0  0  0
  1  7  1  0  0  0
  2  3  1  0  0  0
  2  9  1  0  0  0
  3  4  2  0  0  0
  3 13  1  0  0  0
  4  5  1  0  0  0
  4 14  1  0  0  0
  5  6  2  0  0  0
  5 15  1  0  0  0
  6 10  1  0  0  0
  7  8  1  0  0  0
  7 16  1  0  0  0
  7 17  1  0  0  0
  8 11  2  0  0  0
  8 12  1  0  0  0
 12 18  1  0  0  0
M  END
> <s_m_entry_id>
6734

> <s_m_entry_name>
dock_pv.569

> <s_m_Source_Path>
/home/csk/Desktop/cluster/DUD-E-result/aldr

> <s_m_Source_File>
dock_pv.maegz

> <i_m_Source_File_Index>
569

> <chembl_id>
CHEMBL240293

> <chembl_pref_name>
None

> <i_lp_mmshare_version>
53161

> <i_f3d_flags>
0

> <r_lp_tautomer_probability>
1

> <s_lp_Force_Field>
OPLS_2005

> <r_lp_Energy>
6.436732

> <b_lp_Chiralities_Consistent>
1

> <s_lp_Variant>
CHEMBL1900_lig472-1

> <s_i_glide_gridfile>
glide-grid_2hv5

> <i_i_glide_lignum>
594

> <i_i_glide_rotatable_bonds>
3

> <r_i_docking_score>
-6.863287460221

> <r_i_glide_ligand_efficiency>
-0.571940621685083

> <r_i_glide_ligand_efficiency_sa>
-1.30941714999085

> <r_i_glide_ligand_efficiency_ln>
-1.96943222586422

> <r_i_glide_gscore>
-6.863287460221

> <r_i_glide_lipo>
-1.98685862635096

> <r_i_glide_hbond>
-0.32

> <r_i_glide_metal>
0

> <r_i_glide_rewards>
-3.19304291142356

> <r_i_glide_evdw>
-21.1738471984863

> <r_i_glide_ecoul>
-4.64278125762939

> <r_i_glide_erotb>
0.391723626122245

> <r_i_glide_esite>
0

> <r_i_glide_emodel>
-35.5757547849534

> <r_i_glide_energy>
-25.8166284561157

> <r_i_glide_einternal>
1.5811173915863

> <i_i_glide_confnum>
3

> <i_i_glide_posenum>
267

> <r_i_glide_eff_state_penalty>
0

> <s_user_duplicate_titles>
CHEMBL1900_lig472

> <s_m_subgroup_title>
dock_pv

> <s_m_subgroupid>
dock_pv

> <b_m_subgroup_collapsed>
1

$$$$
CHEMBL1900_lig229
                    3D
 Schrodinger Suite 2021-1.
 22 24  0  0  1  0            999 V2000
   16.5536   -7.4768   17.3590 C   0  0  0  0  0  0
   16.0053   -8.7225   17.3831 C   0  0  0  0  0  0
   16.4381   -6.3984   18.3487 C   0  0  0  0  0  0
   17.3453   -7.0363   16.3427 O   0  0  0  0  0  0
   16.2780   -9.7037   16.3321 C   0  0  0  0  0  0
   16.6879   -5.0667   18.1190 N   0  0  0  0  0  0
   16.5454   -4.3376   19.2243 N   0  0  0  0  0  0
   16.1887   -5.2622   20.1807 N   0  0  0  0  0  0
   17.3093   -9.2581   15.3603 C   0  0  0  0  0  0
   16.1451   -6.5352   19.6185 N   0  0  0  0  0  0
   17.7875   -7.9425   15.4047 C   0  0  0  0  0  0
   15.7734  -10.8254   16.2652 O   0  0  0  0  0  0
   14.9451   -9.3121   18.6666 Cl  0  0  0  0  0  0
   17.8402  -10.1420   14.4123 C   0  0  0  0  0  0
   18.7828   -7.5125   14.5320 C   0  0  0  0  0  0
   18.8587   -9.7242   13.5609 C   0  0  0  0  0  0
   19.3323   -8.4153   13.6235 C   0  0  0  0  0  0
   16.9894   -4.6736   17.2411 H   0  0  0  0  0  0
   17.4946  -11.1658   14.3503 H   0  0  0  0  0  0
   19.1565   -6.5012   14.5919 H   0  0  0  0  0  0
   19.2948  -10.4281   12.8687 H   0  0  0  0  0  0
   20.1445   -8.1155   12.9818 H   0  0  0  0  0  0
  1  2  2  0  0  0
  1  4  1  0  0  0
  1  3  1  0  0  0
  2  5  1  0  0  0
  2 13  1  0  0  0
  3 10  2  0  0  0
  3  6  1  0  0  0
  4 11  1  0  0  0
  5 12  2  0  0  0
  5  9  1  0  0  0
  6  7  1  0  0  0
  6 18  1  0  0  0
  7  8  2  0  0  0
  8 10  1  0  0  0
  9 11  2  0  0  0
  9 14  1  0  0  0
 11 15  1  0  0  0
 14 16  2  0  0  0
 14 19  1  0  0  0
 15 17  2  0  0  0
 15 20  1  0  0  0
 16 17  1  0  0  0
 16 21  1  0  0  0
 17 22  1  0  0  0
M  END
> <s_m_entry_id>
6735

> <s_m_entry_name>
dock_pv.570

> <s_m_Source_Path>
/home/csk/Desktop/cluster/DUD-E-result/aldr

> <s_m_Source_File>
dock_pv.maegz

> <i_m_Source_File_Index>
570

> <chembl_id>
CHEMBL168453

> <chembl_pref_name>
None

> <i_lp_mmshare_version>
53161

> <i_f3d_flags>
0

> <r_lp_tautomer_probability>
0.3

> <s_lp_Force_Field>
OPLS_2005

> <r_lp_Energy>
11.84102

> <b_lp_Chiralities_Consistent>
1

> <s_lp_Variant>
CHEMBL1900_lig229-1

> <s_i_glide_gridfile>
glide-grid_2hv5

> <i_i_glide_lignum>
305

> <i_i_glide_rotatable_bonds>
1

> <r_i_docking_score>
-6.85926486475491

> <r_i_glide_ligand_efficiency>
-0.403486168514995

> <r_i_glide_ligand_efficiency_sa>
-1.03747655620804

> <r_i_glide_ligand_efficiency_ln>
-1.78942945489609

> <r_i_glide_gscore>
-6.85926486475491

> <r_i_glide_lipo>
-2.4156507912896

> <r_i_glide_hbond>
0

> <r_i_glide_metal>
0

> <r_i_glide_rewards>
-3.03555353306882

> <r_i_glide_evdw>
-29.3403091430664

> <r_i_glide_ecoul>
-1.49136030673981

> <r_i_glide_erotb>
0.282658962767794

> <r_i_glide_esite>
0

> <r_i_glide_emodel>
-42.4983641464239

> <r_i_glide_energy>
-30.8316694498062

> <r_i_glide_einternal>
0.696117043495178

> <i_i_glide_confnum>
1

> <i_i_glide_posenum>
135

> <r_i_glide_eff_state_penalty>
0

> <s_user_duplicate_titles>
CHEMBL1900_lig229

> <s_m_subgroup_title>
dock_pv

> <s_m_subgroupid>
dock_pv

> <b_m_subgroup_collapsed>
1

$$$$
CHEMBL1900_lig346
                    3D
 Schrodinger Suite 2021-1.
 36 37  0  0  1  0            999 V2000
   17.4440   -7.5565   16.1291 C   0  0  2  0  0  0
   16.4730  -12.6417   17.3825 S   0  0  0  0  0  0
   17.4275   -9.0423   15.7296 C   0  0  0  0  0  0
   17.7446   -9.4217   14.4037 C   0  0  0  0  0  0
   16.0069   -6.9638   16.2872 C   0  0  0  0  0  0
   17.0889  -10.0588   16.6317 C   0  0  0  0  0  0
   17.0231  -11.3948   16.2292 C   0  0  0  0  0  0
   18.1040   -8.5201   13.4132 O   0  0  0  0  0  0
   18.2095   -6.7845   15.0386 C   0  0  0  0  0  0
   15.2762   -7.2594   17.5987 C   0  0  0  0  0  0
   16.3881  -13.9138   16.6589 O   0  0  0  0  0  0
   17.3082  -12.5154   18.5804 O   0  0  0  0  0  0
   17.6979   -7.1695   13.6461 C   0  0  1  0  0  0
   17.7452  -10.7608   14.0181 C   0  0  0  0  0  0
   17.3677  -11.7470   14.9239 C   0  0  0  0  0  0
   15.3453   -6.5151   18.5756 O   0  0  0  0  0  0
   18.1450   -7.3157   17.3314 O   0  0  0  0  0  0
   14.7284  -12.0993   17.8207 C   0  0  0  0  0  0
   14.5452   -8.4056   17.5256 O   0  0  0  0  0  0
   18.2459   -6.2240   12.5798 C   0  0  0  0  0  0
   16.6102   -7.1032   13.5919 H   0  0  0  0  0  0
   15.3693   -7.2474   15.4500 H   0  0  0  0  0  0
   16.0640   -5.8777   16.2438 H   0  0  0  0  0  0
   16.8479   -9.7955   17.6520 H   0  0  0  0  0  0
   18.1461   -5.7152   15.1869 H   0  0  0  0  0  0
   19.2813   -6.9924   15.0847 H   0  0  0  0  0  0
   18.0097  -11.0314   13.0058 H   0  0  0  0  0  0
   17.3366  -12.7787   14.6022 H   0  0  0  0  0  0
   18.2412   -6.3671   17.4482 H   0  0  0  0  0  0
   14.2912  -12.8385   18.4909 H   0  0  0  0  0  0
   14.7636  -11.1279   18.3119 H   0  0  0  0  0  0
   14.1451  -12.0438   16.9036 H   0  0  0  0  0  0
   14.6021   -8.8157   16.6610 H   0  0  0  0  0  0
   17.9104   -5.2005   12.7473 H   0  0  0  0  0  0
   19.3360   -6.2225   12.5814 H   0  0  0  0  0  0
   17.9068   -6.5168   11.5863 H   0  0  0  0  0  0
  1  3  1  0  0  0
  1  5  1  0  0  0
  1  9  1  0  0  0
  1 17  1  0  0  0
  2  7  1  0  0  0
  2 11  2  0  0  0
  2 12  2  0  0  0
  2 18  1  0  0  0
  3  4  2  0  0  0
  3  6  1  0  0  0
  4 14  1  0  0  0
  4  8  1  0  0  0
  5 10  1  0  0  0
  5 22  1  0  0  0
  5 23  1  0  0  0
  6  7  2  0  0  0
  6 24  1  0  0  0
  7 15  1  0  0  0
  8 13  1  0  0  0
  9 13  1  0  0  0
  9 25  1  0  0  0
  9 26  1  0  0  0
 10 16  2  0  0  0
 10 19  1  0  0  0
 13 20  1  0  0  0
 13 21  1  0  0  0
 14 15  2  0  0  0
 14 27  1  0  0  0
 15 28  1  0  0  0
 17 29  1  0  0  0
 18 30  1  0  0  0
 18 31  1  0  0  0
 18 32  1  0  0  0
 19 33  1  0  0  0
 20 34  1  0  0  0
 20 35  1  0  0  0
 20 36  1  0  0  0
M  END
> <s_m_entry_id>
6736

> <s_m_entry_name>
dock_pv.571

> <s_m_Source_Path>
/home/csk/Desktop/cluster/DUD-E-result/aldr

> <s_m_Source_File>
dock_pv.maegz

> <i_m_Source_File_Index>
571

> <chembl_id>
CHEMBL70116

> <chembl_pref_name>
None

> <i_lp_mmshare_version>
53161

> <i_f3d_flags>
0

> <r_lp_tautomer_probability>
1

> <s_lp_Force_Field>
OPLS_2005

> <r_lp_Energy>
9.849017

> <b_lp_Chiralities_Consistent>
1

> <s_lp_Variant>
CHEMBL1900_lig346-1

> <s_i_glide_gridfile>
glide-grid_2hv5

> <i_i_glide_lignum>
467

> <i_i_glide_rotatable_bonds>
5

> <r_i_docking_score>
-6.85586033482714

> <r_i_glide_ligand_efficiency>
-0.342793016741357

> <r_i_glide_ligand_efficiency_sa>
-0.930483402559292

> <r_i_glide_ligand_efficiency_ln>
-1.71579572039976

> <r_i_glide_gscore>
-6.85586033482714

> <r_i_glide_lipo>
-2.39248605832741

> <r_i_glide_hbond>
0

> <r_i_glide_metal>
0

> <r_i_glide_rewards>
-2.69049226038603

> <r_i_glide_evdw>
-26.6672534942627

> <r_i_glide_ecoul>
-4.97717666625977

> <r_i_glide_erotb>
0.407551900320952

> <r_i_glide_esite>
-0.100494741782553

> <r_i_glide_emodel>
-39.0014229120136

> <r_i_glide_energy>
-31.6444301605225

> <r_i_glide_einternal>
6.27836990356445

> <i_i_glide_confnum>
7

> <i_i_glide_posenum>
60

> <r_i_glide_eff_state_penalty>
0

> <s_user_duplicate_titles>
CHEMBL1900_lig346

> <s_m_subgroup_title>
dock_pv

> <s_m_subgroupid>
dock_pv

> <b_m_subgroup_collapsed>
1

$$$$
CHEMBL1900_lig423
                    3D
 Schrodinger Suite 2021-1.
 37 40  0  0  1  0            999 V2000
   15.1958   -9.4455   17.0422 S   0  0  0  0  0  0
   16.5934  -10.1708   16.1416 C   0  0  0  0  0  0
   15.7126   -7.8005   17.5967 C   0  0  0  0  0  0
   17.4051   -9.6684   15.1189 C   0  0  0  0  0  0
   16.8722  -11.4773   16.4113 O   0  0  0  0  0  0
   18.1405  -10.8014   14.6332 C   0  0  0  0  0  0
   16.5548   -7.7264   18.5630 N   0  0  0  0  0  0
   17.8054  -11.8634   15.4982 C   0  0  0  0  0  0
   17.0224   -6.4863   18.9830 N   0  0  0  0  0  0
   15.2612   -6.5799   16.9786 C   0  0  0  0  0  0
   16.6459   -5.2598   18.5319 C   0  0  0  0  0  0
   14.1435   -9.2304   16.0487 O   0  0  0  0  0  0
   14.9495  -10.2653   18.2316 O   0  0  0  0  0  0
   15.7453   -5.3832   17.3998 C   0  0  0  0  0  0
   19.0437  -11.0449   13.5824 C   0  0  0  0  0  0
   17.4921   -8.3083   14.5307 C   0  0  0  0  0  0
   18.3810  -13.1339   15.3990 C   0  0  0  0  0  0
   16.9824   -4.1950   19.0431 O   0  0  0  0  0  0
   19.6207  -12.3100   13.4665 C   0  0  0  0  0  0
   19.3020  -13.3288   14.3654 C   0  0  0  0  0  0
   20.7638  -12.5976   12.2035 Cl  0  0  0  0  0  0
   16.3312   -7.6250   14.1849 C   0  0  0  0  0  0
   18.7365   -7.7956   14.1534 C   0  0  0  0  0  0
   18.8007   -6.6454   13.3789 C   0  0  0  0  0  0
   16.3937   -6.5146   13.3562 C   0  0  0  0  0  0
   17.6321   -6.0342   12.9504 C   0  0  0  0  0  0
   14.5410   -6.6208   16.1775 H   0  0  0  0  0  0
   15.4023   -4.4499   16.9815 H   0  0  0  0  0  0
   19.3101  -10.2580   12.8924 H   0  0  0  0  0  0
   18.1149  -13.9192   16.0911 H   0  0  0  0  0  0
   17.6659   -6.5223   19.7608 H   0  0  0  0  0  0
   19.7818  -14.2885   14.2552 H   0  0  0  0  0  0
   15.3553   -7.9921   14.4710 H   0  0  0  0  0  0
   19.6530   -8.3001   14.4111 H   0  0  0  0  0  0
   19.7444   -6.2590   13.0443 H   0  0  0  0  0  0
   15.4874   -6.0242   13.0317 H   0  0  0  0  0  0
   17.6894   -5.1524   12.3278 H   0  0  0  0  0  0
  1  2  1  0  0  0
  1 12  2  0  0  0
  1 13  2  0  0  0
  1  3  1  0  0  0
  2  4  2  0  0  0
  2  5  1  0  0  0
  3 10  1  0  0  0
  3  7  2  0  0  0
  4  6  1  0  0  0
  4 16  1  0  0  0
  5  8  1  0  0  0
  6 15  1  0  0  0
  6  8  2  0  0  0
  7  9  1  0  0  0
  8 17  1  0  0  0
  9 11  1  0  0  0
  9 31  1  0  0  0
 10 14  2  0  0  0
 10 27  1  0  0  0
 11 18  2  0  0  0
 11 14  1  0  0  0
 14 28  1  0  0  0
 15 19  2  0  0  0
 15 29  1  0  0  0
 16 22  1  0  0  0
 16 23  2  0  0  0
 17 20  2  0  0  0
 17 30  1  0  0  0
 19 21  1  0  0  0
 19 20  1  0  0  0
 20 32  1  0  0  0
 22 25  2  0  0  0
 22 33  1  0  0  0
 23 24  1  0  0  0
 23 34  1  0  0  0
 24 26  2  0  0  0
 24 35  1  0  0  0
 25 26  1  0  0  0
 25 36  1  0  0  0
 26 37  1  0  0  0
M  END
> <s_m_entry_id>
6737

> <s_m_entry_name>
dock_pv.572

> <s_m_Source_Path>
/home/csk/Desktop/cluster/DUD-E-result/aldr

> <s_m_Source_File>
dock_pv.maegz

> <i_m_Source_File_Index>
572

> <chembl_id>
CHEMBL425920

> <chembl_pref_name>
None

> <i_lp_mmshare_version>
53161

> <i_f3d_flags>
0

> <r_lp_tautomer_probability>
0.998994762270461

> <s_lp_Force_Field>
OPLS_2005

> <r_lp_Energy>
26.606362

> <b_lp_Chiralities_Consistent>
1

> <s_lp_Variant>
CHEMBL1900_lig423-1

> <s_i_glide_gridfile>
glide-grid_2hv5

> <i_i_glide_lignum>
545

> <i_i_glide_rotatable_bonds>
3

> <r_i_docking_score>
-6.8481999653508

> <r_i_glide_ligand_efficiency>
-0.263392306359646

> <r_i_glide_ligand_efficiency_sa>
-0.780298671191772

> <r_i_glide_ligand_efficiency_ln>
-1.60827729108575

> <r_i_glide_gscore>
-6.8481999653508

> <r_i_glide_lipo>
-3.48841046385886

> <r_i_glide_hbond>
-0.00419743397911491

> <r_i_glide_metal>
0

> <r_i_glide_rewards>
-2.10021018358226

> <r_i_glide_evdw>
-33.0136833190918

> <r_i_glide_ecoul>
0.0331548452377319

> <r_i_glide_erotb>
0.39032905523837

> <r_i_glide_esite>
0

> <r_i_glide_emodel>
-32.9680684620898

> <r_i_glide_energy>
-32.9805284738541

> <r_i_glide_einternal>
4.43316125869751

> <i_i_glide_confnum>
18

> <i_i_glide_posenum>
58

> <r_i_glide_eff_state_penalty>
0

> <s_user_duplicate_titles>
CHEMBL1900_lig423,329793

> <s_m_subgroup_title>
dock_pv

> <s_m_subgroupid>
dock_pv

> <b_m_subgroup_collapsed>
1

$$$$
CHEMBL1900_lig617
                    3D
 Schrodinger Suite 2021-1.
 26 28  0  0  1  0            999 V2000
   18.5450   -6.1175   13.3583 S   0  0  0  0  0  0
   15.7450   -5.9922   19.4183 O   0  0  0  0  0  0
   17.4869   -6.8914   18.2416 O   0  0  0  0  0  0
   15.8294   -8.6176   16.8528 N   0  0  0  0  0  0
   17.0867   -7.3350   15.1992 N   0  0  0  0  0  0
   18.0101   -9.8662   14.3736 N   0  0  0  0  0  0
   18.4448   -8.7440   13.7672 N   0  0  0  0  0  0
   16.6910   -8.4741   15.7771 C   0  0  0  0  0  0
   17.1315   -9.7564   15.3812 C   0  0  0  0  0  0
   16.4884  -10.6995   16.1929 C   0  0  0  0  0  0
   15.6764   -9.9774   17.1172 C   0  0  0  0  0  0
   15.2200   -7.5111   17.5996 C   0  0  0  0  0  0
   16.5157  -12.1018   16.2377 C   0  0  0  0  0  0
   14.9059  -10.6452   18.0788 C   0  0  0  0  0  0
   17.9689   -7.5431   14.1915 C   0  0  0  0  0  0
   15.7331  -12.7540   17.1881 C   0  0  0  0  0  0
   14.9452  -12.0393   18.0855 C   0  0  0  0  0  0
   16.1646   -6.7307   18.5323 C   0  0  0  0  0  0
   19.4312   -6.7890   12.5815 H   0  0  0  0  0  0
   17.6348   -7.4428   17.4703 H   0  0  0  0  0  0
   14.7960   -6.8155   16.8762 H   0  0  0  0  0  0
   14.3822   -7.8967   18.1780 H   0  0  0  0  0  0
   17.1221  -12.6677   15.5453 H   0  0  0  0  0  0
   14.2930  -10.1132   18.7868 H   0  0  0  0  0  0
   15.7350  -13.8330   17.2279 H   0  0  0  0  0  0
   14.3429  -12.5788   18.8035 H   0  0  0  0  0  0
  1 15  1  0  0  0
  1 19  1  0  0  0
  2 18  2  0  0  0
  3 18  1  0  0  0
  3 20  1  0  0  0
  4  8  1  0  0  0
  4 11  1  0  0  0
  4 12  1  0  0  0
  5  8  2  0  0  0
  5 15  1  0  0  0
  6  7  1  0  0  0
  6  9  2  0  0  0
  7 15  2  0  0  0
  8  9  1  0  0  0
  9 10  1  0  0  0
 10 11  1  0  0  0
 10 13  2  0  0  0
 11 14  2  0  0  0
 12 18  1  0  0  0
 12 21  1  0  0  0
 12 22  1  0  0  0
 13 16  1  0  0  0
 13 23  1  0  0  0
 14 17  1  0  0  0
 14 24  1  0  0  0
 16 17  2  0  0  0
 16 25  1  0  0  0
 17 26  1  0  0  0
M  END
> <s_m_entry_id>
6738

> <s_m_entry_name>
dock_pv.573

> <s_m_Source_Path>
/home/csk/Desktop/cluster/DUD-E-result/aldr

> <s_m_Source_File>
dock_pv.maegz

> <i_m_Source_File_Index>
573

> <chembl_id>
CHEMBL1405739

> <chembl_pref_name>
None

> <i_lp_mmshare_version>
53161

> <i_f3d_flags>
0

> <r_lp_tautomer_probability>
1

> <s_lp_Force_Field>
OPLS_2005

> <r_lp_Energy>
19.492973

> <b_lp_Chiralities_Consistent>
1

> <s_lp_Variant>
CHEMBL1900_lig617-1

> <s_i_glide_gridfile>
glide-grid_2hv5

> <i_i_glide_lignum>
741

> <i_i_glide_rotatable_bonds>
4

> <r_i_docking_score>
-6.84765252750377

> <r_i_glide_ligand_efficiency>
-0.380425140416876

> <r_i_glide_ligand_efficiency_sa>
-0.996995911927676

> <r_i_glide_ligand_efficiency_ln>
-1.76015377286382

> <r_i_glide_gscore>
-6.84765252750377

> <r_i_glide_lipo>
-1.28041006096003

> <r_i_glide_hbond>
-0.207758785734433

> <r_i_glide_metal>
0

> <r_i_glide_rewards>
-3.89979103137316

> <r_i_glide_evdw>
-33.1556282043457

> <r_i_glide_ecoul>
-2.1631383895874

> <r_i_glide_erotb>
0.522559519219242

> <r_i_glide_esite>
0

> <r_i_glide_emodel>
-48.4327150340848

> <r_i_glide_energy>
-35.3187665939331

> <r_i_glide_einternal>
1.72529256343842

> <i_i_glide_confnum>
1

> <i_i_glide_posenum>
132

> <r_i_glide_eff_state_penalty>
0

> <s_user_duplicate_titles>
CHEMBL1900_lig617

> <s_m_subgroup_title>
dock_pv

> <s_m_subgroupid>
dock_pv

> <b_m_subgroup_collapsed>
1

$$$$
CHEMBL1900_lig33
                    3D
 Schrodinger Suite 2021-1.
 30 31  0  0  1  0            999 V2000
   15.3449   -6.5150   18.0084 N   0  0  0  0  0  0
   17.2607   -8.7251   16.4163 C   0  0  0  0  0  0
   15.6749   -6.8471   16.7607 C   0  0  0  0  0  0
   18.8023   -8.0380   14.1165 S   0  0  0  0  0  0
   17.1205   -7.2401   16.8137 C   0  0  1  0  0  0
   16.3708   -6.4504   18.8702 C   0  0  0  0  0  0
   17.8732   -9.1754   15.2160 C   0  0  0  0  0  0
   17.4201   -6.9152   18.1848 N   0  0  0  0  0  0
   17.7451  -10.5493   14.8716 C   0  0  0  0  0  0
   16.6495   -9.6625   17.2662 C   0  0  0  0  0  0
   19.3476   -6.9152   14.8817 O   0  0  0  0  0  0
   19.7449   -8.8371   13.3350 O   0  0  0  0  0  0
   17.1282  -11.4443   15.7484 C   0  0  0  0  0  0
   14.9451   -6.9152   15.7811 O   0  0  0  0  0  0
   16.3553   -5.9240   19.9775 O   0  0  0  0  0  0
   16.5959  -11.0084   16.9489 C   0  0  0  0  0  0
   17.4878   -7.3541   12.9612 C   0  0  0  0  0  0
   15.8341  -12.1207   18.0268 Cl  0  0  0  0  0  0
   18.2065  -11.1406   13.5444 C   0  0  0  0  0  0
   14.3989   -6.2856   18.2661 H   0  0  0  0  0  0
   17.6245   -6.5119   16.1999 H   0  0  0  0  0  0
   18.2539   -7.2667   18.6342 H   0  0  0  0  0  0
   16.1700   -9.3364   18.1787 H   0  0  0  0  0  0
   17.0460  -12.4909   15.4925 H   0  0  0  0  0  0
   17.9612   -6.6349   12.2951 H   0  0  0  0  0  0
   17.0618   -8.1716   12.3858 H   0  0  0  0  0  0
   16.7187   -6.8610   13.5553 H   0  0  0  0  0  0
   17.7272  -12.0970   13.3304 H   0  0  0  0  0  0
   19.2864  -11.2900   13.5363 H   0  0  0  0  0  0
   17.9346  -10.4896   12.7151 H   0  0  0  0  0  0
  1  3  1  0  0  0
  1  6  1  0  0  0
  1 20  1  0  0  0
  2  5  1  0  0  0
  2  7  1  0  0  0
  2 10  2  0  0  0
  3  5  1  0  0  0
  3 14  2  0  0  0
  4  7  1  0  0  0
  4 11  2  0  0  0
  4 12  2  0  0  0
  4 17  1  0  0  0
  5  8  1  0  0  0
  5 21  1  0  0  0
  6  8  1  0  0  0
  6 15  2  0  0  0
  7  9  2  0  0  0
  8 22  1  0  0  0
  9 19  1  0  0  0
  9 13  1  0  0  0
 10 16  1  0  0  0
 10 23  1  0  0  0
 13 16  2  0  0  0
 13 24  1  0  0  0
 16 18  1  0  0  0
 17 25  1  0  0  0
 17 26  1  0  0  0
 17 27  1  0  0  0
 19 28  1  0  0  0
 19 29  1  0  0  0
 19 30  1  0  0  0
M  END
> <s_m_entry_id>
6739

> <s_m_entry_name>
dock_pv.574

> <s_m_Source_Path>
/home/csk/Desktop/cluster/DUD-E-result/aldr

> <s_m_Source_File>
dock_pv.maegz

> <i_m_Source_File_Index>
574

> <chembl_id>
CHEMBL19502

> <chembl_pref_name>
None

> <i_lp_mmshare_version>
53161

> <i_f3d_flags>
0

> <r_lp_tautomer_probability>
0.999999999781369

> <s_lp_Force_Field>
OPLS_2005

> <r_lp_Energy>
25.659137

> <b_lp_Chiralities_Consistent>
1

> <s_lp_Variant>
CHEMBL1900_lig33-2

> <s_i_glide_gridfile>
glide-grid_2hv5

> <i_i_glide_lignum>
65

> <i_i_glide_rotatable_bonds>
2

> <r_i_docking_score>
-6.8424241786052

> <r_i_glide_ligand_efficiency>
-0.360127588347642

> <r_i_glide_ligand_efficiency_sa>
-0.960965049553939

> <r_i_glide_ligand_efficiency_ln>
-1.73470149107268

> <r_i_glide_gscore>
-6.8424241786052

> <r_i_glide_lipo>
-1.72967283885307

> <r_i_glide_hbond>
-0.319200615456791

> <r_i_glide_metal>
0

> <r_i_glide_rewards>
-3.10912935717031

> <r_i_glide_evdw>
-31.2446022033691

> <r_i_glide_ecoul>
-2.1542649269104

> <r_i_glide_erotb>
0.20094848207998

> <r_i_glide_esite>
0

> <r_i_glide_emodel>
-46.1682691260774

> <r_i_glide_energy>
-33.3988671302795

> <r_i_glide_einternal>
0.15519206225872

> <i_i_glide_confnum>
1

> <i_i_glide_posenum>
391

> <r_i_glide_eff_state_penalty>
0

> <s_user_duplicate_titles>
CHEMBL1900_lig33

> <s_m_subgroup_title>
dock_pv

> <s_m_subgroupid>
dock_pv

> <b_m_subgroup_collapsed>
1

$$$$
CHEMBL1900_lig414
                    3D
 Schrodinger Suite 2021-1.
 24 25  0  0  1  0            999 V2000
   18.1733   -7.7691   14.1407 S   0  0  0  0  0  0
   17.3862   -6.7060   12.9089 C   0  0  0  0  0  0
   16.9202   -8.1591   15.3936 C   0  0  0  0  0  0
   16.1450   -6.9109   12.6289 N   0  0  0  0  0  0
   16.7451   -9.4431   15.9532 C   0  0  0  0  0  0
   15.5176   -6.1134   11.6694 N   0  0  0  0  0  0
   18.0991   -5.6663   12.2070 C   0  0  0  0  0  0
   16.0741   -5.1207   10.9142 C   0  0  0  0  0  0
   19.1914   -6.9249   14.7757 O   0  0  0  0  0  0
   18.5464   -8.9716   13.3887 O   0  0  0  0  0  0
   17.4727   -4.9153   11.2674 C   0  0  0  0  0  0
   15.7472   -9.6480   16.9214 C   0  0  0  0  0  0
   15.4668   -4.4941   10.0500 O   0  0  0  0  0  0
   17.7452  -10.7845   15.4984 Cl  0  0  0  0  0  0
   16.1167   -7.1083   15.8496 C   0  0  0  0  0  0
   15.4759  -11.2025   17.6364 Cl  0  0  0  0  0  0
   15.1274   -7.3203   16.8035 C   0  0  0  0  0  0
   14.9415   -8.5904   17.3334 C   0  0  0  0  0  0
   19.1287   -5.4627   12.4562 H   0  0  0  0  0  0
   18.0039   -4.1262   10.7572 H   0  0  0  0  0  0
   14.5441   -6.3231   11.5073 H   0  0  0  0  0  0
   16.2484   -6.1157   15.4500 H   0  0  0  0  0  0
   14.4984   -6.5091   17.1381 H   0  0  0  0  0  0
   14.1607   -8.7549   18.0657 H   0  0  0  0  0  0
  1  3  1  0  0  0
  1  9  2  0  0  0
  1 10  2  0  0  0
  1  2  1  0  0  0
  2  7  1  0  0  0
  2  4  2  0  0  0
  3  5  2  0  0  0
  3 15  1  0  0  0
  4  6  1  0  0  0
  5 12  1  0  0  0
  5 14  1  0  0  0
  6  8  1  0  0  0
  6 21  1  0  0  0
  7 11  2  0  0  0
  7 19  1  0  0  0
  8 13  2  0  0  0
  8 11  1  0  0  0
 11 20  1  0  0  0
 12 16  1  0  0  0
 12 18  2  0  0  0
 15 17  2  0  0  0
 15 22  1  0  0  0
 17 18  1  0  0  0
 17 23  1  0  0  0
 18 24  1  0  0  0
M  END
> <s_m_entry_id>
6740

> <s_m_entry_name>
dock_pv.575

> <s_m_Source_Path>
/home/csk/Desktop/cluster/DUD-E-result/aldr

> <s_m_Source_File>
dock_pv.maegz

> <i_m_Source_File_Index>
575

> <chembl_id>
CHEMBL198764

> <chembl_pref_name>
None

> <i_lp_mmshare_version>
53161

> <i_f3d_flags>
0

> <r_lp_tautomer_probability>
0.998994762270461

> <s_lp_Force_Field>
OPLS_2005

> <r_lp_Energy>
21.570335

> <b_lp_Chiralities_Consistent>
1

> <s_lp_Variant>
CHEMBL1900_lig414-1

> <s_i_glide_gridfile>
glide-grid_2hv5

> <i_i_glide_lignum>
536

> <i_i_glide_rotatable_bonds>
2

> <r_i_docking_score>
-6.83143314791204

> <r_i_glide_ligand_efficiency>
-0.379524063772891

> <r_i_glide_ligand_efficiency_sa>
-0.994634423069706

> <r_i_glide_ligand_efficiency_ln>
-1.7559846649736

> <r_i_glide_gscore>
-6.83143314791204

> <r_i_glide_lipo>
-3.07287132837915

> <r_i_glide_hbond>
0

> <r_i_glide_metal>
0

> <r_i_glide_rewards>
-2.63371362323008

> <r_i_glide_evdw>
-38.7986335754395

> <r_i_glide_ecoul>
2.79144191741943

> <r_i_glide_erotb>
0.396367194856246

> <r_i_glide_esite>
0

> <r_i_glide_emodel>
-49.0607700773028

> <r_i_glide_energy>
-36.00719165802

> <r_i_glide_einternal>
2.82622766494751

> <i_i_glide_confnum>
6

> <i_i_glide_posenum>
350

> <r_i_glide_eff_state_penalty>
0

> <s_user_duplicate_titles>
CHEMBL1900_lig414,329746

> <s_m_subgroup_title>
dock_pv

> <s_m_subgroupid>
dock_pv

> <b_m_subgroup_collapsed>
1

$$$$
CHEMBL1900_lig116
                    3D
 Schrodinger Suite 2021-1.
 31 33  0  0  1  0            999 V2000
   17.1707   -8.0918   16.1927 C   0  0  2  0  0  0
   18.1489   -7.9626   15.0485 N   0  0  0  0  0  0
   16.5969   -9.5318   16.3337 C   0  0  0  0  0  0
   16.0013   -7.1258   16.0310 C   0  0  0  0  0  0
   18.4850   -8.9711   14.1809 C   0  0  0  0  0  0
   17.6694   -7.5696   17.4475 N   0  0  0  0  0  0
   15.8300   -6.5382   17.2202 N   0  0  0  0  0  0
   16.7976   -6.7974   18.1103 C   0  0  0  0  0  0
   17.8297  -10.1268   14.3637 N   0  0  0  0  0  0
   16.9837  -10.4920   15.3931 C   0  0  0  0  0  0
   15.7617   -9.9608   17.3814 C   0  0  0  0  0  0
   19.3312   -8.9153   13.2921 O   0  0  0  0  0  0
   15.3451   -6.9183   15.0175 O   0  0  0  0  0  0
   16.9455   -6.2401   19.1916 O   0  0  0  0  0  0
   16.5629  -11.8194   15.4788 C   0  0  0  0  0  0
   18.8489   -6.6781   14.8634 C   0  0  0  0  0  0
   15.3329  -11.2870   17.4801 C   0  0  0  0  0  0
   15.7329  -12.2164   16.5216 C   0  0  0  0  0  0
   14.4395  -11.7090   18.6277 C   0  0  0  0  0  0
   18.3486   -8.1145   17.9574 H   0  0  0  0  0  0
   15.1399   -5.8254   17.3810 H   0  0  0  0  0  0
   18.0957  -10.8319   13.6937 H   0  0  0  0  0  0
   15.4458   -9.2621   18.1419 H   0  0  0  0  0  0
   16.8755  -12.5457   14.7420 H   0  0  0  0  0  0
   19.4656   -6.6280   13.9636 H   0  0  0  0  0  0
   18.1446   -5.8504   14.8076 H   0  0  0  0  0  0
   19.5088   -6.5151   15.7128 H   0  0  0  0  0  0
   15.4066  -13.2446   16.5829 H   0  0  0  0  0  0
   14.1416  -12.7556   18.5564 H   0  0  0  0  0  0
   13.5389  -11.0973   18.6282 H   0  0  0  0  0  0
   14.9421  -11.5573   19.5814 H   0  0  0  0  0  0
  1  2  1  0  0  0
  1  3  1  0  0  0
  1  4  1  0  0  0
  1  6  1  0  0  0
  2  5  1  0  0  0
  2 16  1  0  0  0
  3 10  1  0  0  0
  3 11  2  0  0  0
  4  7  1  0  0  0
  4 13  2  0  0  0
  5 12  2  0  0  0
  5  9  1  0  0  0
  6  8  1  0  0  0
  6 20  1  0  0  0
  7  8  1  0  0  0
  7 21  1  0  0  0
  8 14  2  0  0  0
  9 10  1  0  0  0
  9 22  1  0  0  0
 10 15  2  0  0  0
 11 17  1  0  0  0
 11 23  1  0  0  0
 15 18  1  0  0  0
 15 24  1  0  0  0
 16 25  1  0  0  0
 16 26  1  0  0  0
 16 27  1  0  0  0
 17 18  2  0  0  0
 17 19  1  0  0  0
 18 28  1  0  0  0
 19 29  1  0  0  0
 19 30  1  0  0  0
 19 31  1  0  0  0
M  END
> <s_m_entry_id>
6741

> <s_m_entry_name>
dock_pv.576

> <s_m_Source_Path>
/home/csk/Desktop/cluster/DUD-E-result/aldr

> <s_m_Source_File>
dock_pv.maegz

> <i_m_Source_File_Index>
576

> <chembl_id>
CHEMBL291842

> <chembl_pref_name>
None

> <i_lp_mmshare_version>
53161

> <i_f3d_flags>
0

> <r_lp_tautomer_probability>
0.99999999978137

> <s_lp_Force_Field>
OPLS_2005

> <r_lp_Energy>
35.482651

> <b_lp_Chiralities_Consistent>
1

> <s_lp_Variant>
CHEMBL1900_lig116-1

> <s_i_glide_gridfile>
glide-grid_2hv5

> <i_i_glide_lignum>
172

> <i_i_glide_rotatable_bonds>
0

> <r_i_docking_score>
-6.82966419226483

> <r_i_glide_ligand_efficiency>
-0.359456010119202

> <r_i_glide_ligand_efficiency_sa>
-0.959173009103681

> <r_i_glide_ligand_efficiency_ln>
-1.73146656047601

> <r_i_glide_gscore>
-6.82966419226483

> <r_i_glide_lipo>
-1.36253428226558

> <r_i_glide_hbond>
-0.0711916811367537

> <r_i_glide_metal>
0

> <r_i_glide_rewards>
-3.93873593737385

> <r_i_glide_evdw>
-30.1562957763672

> <r_i_glide_ecoul>
0.337416648864746

> <r_i_glide_erotb>
0

> <r_i_glide_esite>
0

> <r_i_glide_emodel>
-39.2989735152242

> <r_i_glide_energy>
-29.8188791275024

> <r_i_glide_einternal>
0

> <i_i_glide_confnum>
1

> <i_i_glide_posenum>
17

> <r_i_glide_eff_state_penalty>
0

> <s_user_duplicate_titles>
CHEMBL1900_lig116,102111

> <s_m_subgroup_title>
dock_pv

> <s_m_subgroupid>
dock_pv

> <b_m_subgroup_collapsed>
1

$$$$
CHEMBL1900_lig107
                    3D
 Schrodinger Suite 2021-1.
 25 27  0  0  1  0            999 V2000
   16.6104   -8.0290   17.2190 C   0  0  1  0  0  0
   17.3698   -7.2772   18.1789 N   0  0  0  0  0  0
   16.0505   -9.2820   17.7809 N   0  0  0  0  0  0
   15.4981   -7.0224   16.9821 C   0  0  0  0  0  0
   15.7450   -5.9945   17.7989 N   0  0  0  0  0  0
   17.3769   -8.2693   15.8996 C   0  0  0  0  0  0
   16.7415   -6.2057   18.6655 C   0  0  0  0  0  0
   15.9292  -10.4701   17.1405 C   0  0  0  0  0  0
   16.5761  -10.5378   15.9614 N   0  0  0  0  0  0
   17.3422   -9.5545   15.3422 C   0  0  0  0  0  0
   14.5785   -7.1137   16.1807 O   0  0  0  0  0  0
   16.9624   -5.5964   19.7065 O   0  0  0  0  0  0
   15.2952  -11.4060   17.6132 O   0  0  0  0  0  0
   18.1442   -7.2909   15.2476 C   0  0  0  0  0  0
   18.0511   -9.8599   14.1796 C   0  0  0  0  0  0
   18.8484   -7.5832   14.0801 C   0  0  0  0  0  0
   18.8012   -8.8698   13.5474 C   0  0  0  0  0  0
   18.3414   -7.4778   18.3654 H   0  0  0  0  0  0
   15.5481   -9.2083   18.6525 H   0  0  0  0  0  0
   15.2248   -5.1359   17.7784 H   0  0  0  0  0  0
   16.5069  -11.4411   15.5186 H   0  0  0  0  0  0
   18.1994   -6.2911   15.6526 H   0  0  0  0  0  0
   18.0143  -10.8542   13.7560 H   0  0  0  0  0  0
   19.4350   -6.8154   13.5923 H   0  0  0  0  0  0
   19.3450   -9.0993   12.6438 H   0  0  0  0  0  0
  1  2  1  0  0  0
  1  3  1  0  0  0
  1  4  1  0  0  0
  1  6  1  0  0  0
  2  7  1  0  0  0
  2 18  1  0  0  0
  3  8  1  0  0  0
  3 19  1  0  0  0
  4  5  1  0  0  0
  4 11  2  0  0  0
  5  7  1  0  0  0
  5 20  1  0  0  0
  6 10  1  0  0  0
  6 14  2  0  0  0
  7 12  2  0  0  0
  8 13  2  0  0  0
  8  9  1  0  0  0
  9 10  1  0  0  0
  9 21  1  0  0  0
 10 15  2  0  0  0
 14 16  1  0  0  0
 14 22  1  0  0  0
 15 17  1  0  0  0
 15 23  1  0  0  0
 16 17  2  0  0  0
 16 24  1  0  0  0
 17 25  1  0  0  0
M  END
> <s_m_entry_id>
6742

> <s_m_entry_name>
dock_pv.577

> <s_m_Source_Path>
/home/csk/Desktop/cluster/DUD-E-result/aldr

> <s_m_Source_File>
dock_pv.maegz

> <i_m_Source_File_Index>
577

> <chembl_id>
CHEMBL63855

> <chembl_pref_name>
None

> <i_lp_mmshare_version>
53161

> <i_f3d_flags>
0

> <r_lp_tautomer_probability>
0.99999999978137

> <s_lp_Force_Field>
OPLS_2005

> <r_lp_Energy>
29.446932

> <b_lp_Chiralities_Consistent>
1

> <s_lp_Variant>
CHEMBL1900_lig107-1

> <s_i_glide_gridfile>
glide-grid_2hv5

> <i_i_glide_lignum>
154

> <i_i_glide_rotatable_bonds>
0

> <r_i_docking_score>
-6.82444394151084

> <r_i_glide_ligand_efficiency>
-0.401437878912402

> <r_i_glide_ligand_efficiency_sa>
-1.03220982686553

> <r_i_glide_ligand_efficiency_ln>
-1.78034545144554

> <r_i_glide_gscore>
-6.82444394151084

> <r_i_glide_lipo>
-1.51322304644132

> <r_i_glide_hbond>
-0.217916103077602

> <r_i_glide_metal>
0

> <r_i_glide_rewards>
-3.43719895178577

> <r_i_glide_evdw>
-29.1761360168457

> <r_i_glide_ecoul>
-1.31532692909241

> <r_i_glide_erotb>
0

> <r_i_glide_esite>
0

> <r_i_glide_emodel>
-42.5340219278355

> <r_i_glide_energy>
-30.4914629459381

> <r_i_glide_einternal>
0

> <i_i_glide_confnum>
1

> <i_i_glide_posenum>
6

> <r_i_glide_eff_state_penalty>
0

> <s_user_duplicate_titles>
CHEMBL1900_lig107

> <s_m_subgroup_title>
dock_pv

> <s_m_subgroupid>
dock_pv

> <b_m_subgroup_collapsed>
1

$$$$
CHEMBL1900_lig375
                    3D
 Schrodinger Suite 2021-1.
 30 32  0  0  1  0            999 V2000
   14.1472   -6.3220   16.5810 O   0  0  0  0  0  0
   18.1454   -7.7149   17.7804 O   0  0  0  0  0  0
   15.2376   -8.2543   16.0636 N   0  0  0  0  0  0
   15.0152   -7.1340   16.7543 C   0  0  0  0  0  0
   16.0857   -6.9017   17.5012 N   0  0  0  0  0  0
   16.4764  -11.8292   15.8622 O   0  0  0  0  0  0
   18.0120  -11.4725   14.1333 C   0  0  0  0  0  0
   17.2338  -10.9149   15.1472 C   0  0  0  0  0  0
   17.2826   -9.5286   15.4310 C   0  0  0  0  0  0
   18.1353   -8.7394   14.6436 C   0  0  0  0  0  0
   18.9360   -9.3015   13.6558 C   0  0  0  0  0  0
   18.8629  -10.6654   13.3834 C   0  0  0  0  0  0
   15.4526  -11.2883   16.7048 C   0  0  1  0  0  0
   17.0278   -7.8037   17.3259 C   0  0  0  0  0  0
   19.7971   -8.5150   12.9815 F   0  0  0  0  0  0
   15.4299  -12.5150   18.8024 O   0  0  0  0  0  0
   14.1514  -13.3265   17.1701 N   0  0  0  0  0  0
   15.0157  -12.4322   17.6456 C   0  0  0  0  0  0
   16.3908   -8.9496   16.5449 C   0  0  1  0  0  0
   16.0073  -10.0908   17.5037 C   0  0  0  0  0  0
   14.4686   -8.7784   15.6746 H   0  0  0  0  0  0
   16.2624   -6.0209   17.9549 H   0  0  0  0  0  0
   17.9637  -12.5331   13.9376 H   0  0  0  0  0  0
   18.2079   -7.6753   14.8153 H   0  0  0  0  0  0
   19.4738  -11.1039   12.6099 H   0  0  0  0  0  0
   14.5766  -11.0028   16.1185 H   0  0  0  0  0  0
   13.8010  -14.0268   17.8028 H   0  0  0  0  0  0
   13.8221  -13.2855   16.2165 H   0  0  0  0  0  0
   15.3031   -9.7673   18.2752 H   0  0  0  0  0  0
   16.9138  -10.4343   18.0036 H   0  0  0  0  0  0
  1  4  2  0  0  0
  2 14  2  0  0  0
  3  4  1  0  0  0
  3 19  1  0  0  0
  3 21  1  0  0  0
  4  5  1  0  0  0
  5 14  1  0  0  0
  5 22  1  0  0  0
  6  8  1  0  0  0
  6 13  1  0  0  0
  7  8  2  0  0  0
  7 12  1  0  0  0
  7 23  1  0  0  0
  8  9  1  0  0  0
  9 10  2  0  0  0
  9 19  1  0  0  0
 10 11  1  0  0  0
 10 24  1  0  0  0
 11 12  2  0  0  0
 11 15  1  0  0  0
 12 25  1  0  0  0
 13 18  1  0  0  0
 13 20  1  0  0  0
 13 26  1  0  0  0
 14 19  1  0  0  0
 16 18  2  0  0  0
 17 18  1  0  0  0
 17 27  1  0  0  0
 17 28  1  0  0  0
 19 20  1  0  0  0
 20 29  1  0  0  0
 20 30  1  0  0  0
M  END
> <s_m_entry_id>
6743

> <s_m_entry_name>
dock_pv.578

> <s_m_Source_Path>
/home/csk/Desktop/cluster/DUD-E-result/aldr

> <s_m_Source_File>
dock_pv.maegz

> <i_m_Source_File_Index>
578

> <chembl_id>
CHEMBL84060

> <chembl_pref_name>
(R,S)-FIDARESTAT

> <i_lp_mmshare_version>
53161

> <i_f3d_flags>
0

> <r_lp_tautomer_probability>
0.99999999978137

> <s_lp_Force_Field>
OPLS_2005

> <r_lp_Energy>
24.421829

> <b_lp_Chiralities_Consistent>
1

> <s_lp_Variant>
CHEMBL1900_lig375-1

> <s_i_glide_gridfile>
glide-grid_2hv5

> <i_i_glide_lignum>
496

> <i_i_glide_rotatable_bonds>
1

> <r_i_docking_score>
-6.81904364107423

> <r_i_glide_ligand_efficiency>
-0.340952182053711

> <r_i_glide_ligand_efficiency_sa>
-0.925486608458898

> <r_i_glide_ligand_efficiency_ln>
-1.70658171624923

> <r_i_glide_gscore>
-6.81904364107423

> <r_i_glide_lipo>
-1.81585131329066

> <r_i_glide_hbond>
-0.471074252191411

> <r_i_glide_metal>
0

> <r_i_glide_rewards>
-2.96459357093059

> <r_i_glide_evdw>
-11.6206827163696

> <r_i_glide_ecoul>
-6.57660245895386

> <r_i_glide_erotb>
0

> <r_i_glide_esite>
0

> <r_i_glide_emodel>
-19.1856249627

> <r_i_glide_energy>
-18.1972851753235

> <r_i_glide_einternal>
1.01394867897034

> <i_i_glide_confnum>
1

> <i_i_glide_posenum>
1

> <r_i_glide_eff_state_penalty>
0

> <s_user_duplicate_titles>
CHEMBL1900_lig375,132420

> <s_m_subgroup_title>
dock_pv

> <s_m_subgroupid>
dock_pv

> <b_m_subgroup_collapsed>
1

$$$$
CHEMBL1900_lig115
                    3D
 Schrodinger Suite 2021-1.
 28 30  0  0  1  0            999 V2000
   16.2162   -9.5861   16.6936 C   0  0  1  0  0  0
   16.1675  -11.0318   17.1237 N   0  0  0  0  0  0
   17.2234   -9.3363   15.5460 C   0  0  0  0  0  0
   14.8457   -9.1323   16.2055 C   0  0  0  0  0  0
   16.5510  -12.0691   16.3080 C   0  0  0  0  0  0
   16.3601   -8.6488   17.7818 N   0  0  0  0  0  0
   14.5448   -8.0251   16.9001 N   0  0  0  0  0  0
   17.3044  -11.7132   15.2530 N   0  0  0  0  0  0
   17.7189  -10.4483   14.8559 C   0  0  0  0  0  0
   15.5097   -7.6204   17.7418 C   0  0  0  0  0  0
   18.6025  -10.2988   13.7808 C   0  0  0  0  0  0
   17.6813   -8.0632   15.1623 C   0  0  0  0  0  0
   19.0170   -9.0237   13.4084 C   0  0  0  0  0  0
   16.2737  -13.2579   16.4649 O   0  0  0  0  0  0
   14.1451   -9.7150   15.3830 O   0  0  0  0  0  0
   15.6388   -6.5167   18.2610 O   0  0  0  0  0  0
   18.5642   -7.9041   14.0996 C   0  0  0  0  0  0
   15.2432  -11.3916   18.2167 C   0  0  0  0  0  0
   19.2083  -11.6630   12.9040 Cl  0  0  0  0  0  0
   19.0892   -6.3233   13.6487 Cl  0  0  0  0  0  0
   17.0126   -8.7967   18.5378 H   0  0  0  0  0  0
   13.6532   -7.5614   16.8261 H   0  0  0  0  0  0
   17.5784  -12.4994   14.6830 H   0  0  0  0  0  0
   17.3395   -7.1785   15.6789 H   0  0  0  0  0  0
   19.7026   -8.9148   12.5886 H   0  0  0  0  0  0
   14.2107  -11.3641   17.8646 H   0  0  0  0  0  0
   15.3254  -10.6832   19.0364 H   0  0  0  0  0  0
   15.4273  -12.3883   18.6217 H   0  0  0  0  0  0
  1  2  1  0  0  0
  1  3  1  0  0  0
  1  4  1  0  0  0
  1  6  1  0  0  0
  2  5  1  0  0  0
  2 18  1  0  0  0
  3  9  1  0  0  0
  3 12  2  0  0  0
  4  7  1  0  0  0
  4 15  2  0  0  0
  5 14  2  0  0  0
  5  8  1  0  0  0
  6 10  1  0  0  0
  6 21  1  0  0  0
  7 10  1  0  0  0
  7 22  1  0  0  0
  8  9  1  0  0  0
  8 23  1  0  0  0
  9 11  2  0  0  0
 10 16  2  0  0  0
 11 19  1  0  0  0
 11 13  1  0  0  0
 12 17  1  0  0  0
 12 24  1  0  0  0
 13 17  2  0  0  0
 13 25  1  0  0  0
 17 20  1  0  0  0
 18 26  1  0  0  0
 18 27  1  0  0  0
 18 28  1  0  0  0
M  END
> <s_m_entry_id>
6744

> <s_m_entry_name>
dock_pv.579

> <s_m_Source_Path>
/home/csk/Desktop/cluster/DUD-E-result/aldr

> <s_m_Source_File>
dock_pv.maegz

> <i_m_Source_File_Index>
579

> <chembl_id>
CHEMBL416870

> <chembl_pref_name>
None

> <i_lp_mmshare_version>
53161

> <i_f3d_flags>
0

> <r_lp_tautomer_probability>
0.99999999978137

> <s_lp_Force_Field>
OPLS_2005

> <r_lp_Energy>
33.773933

> <b_lp_Chiralities_Consistent>
1

> <s_lp_Variant>
CHEMBL1900_lig115-2

> <s_i_glide_gridfile>
glide-grid_2hv5

> <i_i_glide_lignum>
171

> <i_i_glide_rotatable_bonds>
0

> <r_i_docking_score>
-6.81637886756239

> <r_i_glide_ligand_efficiency>
-0.34081894337812

> <r_i_glide_ligand_efficiency_sa>
-0.925124943051021

> <r_i_glide_ligand_efficiency_ln>
-1.70591481132934

> <r_i_glide_gscore>
-6.81637886756239

> <r_i_glide_lipo>
-1.93095243165905

> <r_i_glide_hbond>
0

> <r_i_glide_metal>
0

> <r_i_glide_rewards>
-3.09503168864611

> <r_i_glide_evdw>
-30.6704425811768

> <r_i_glide_ecoul>
-1.71248412132263

> <r_i_glide_erotb>
0

> <r_i_glide_esite>
0

> <r_i_glide_emodel>
-40.8496160975716

> <r_i_glide_energy>
-32.3829267024994

> <r_i_glide_einternal>
0

> <i_i_glide_confnum>
1

> <i_i_glide_posenum>
34

> <r_i_glide_eff_state_penalty>
0

> <s_user_duplicate_titles>
CHEMBL1900_lig115,101979

> <s_m_subgroup_title>
dock_pv

> <s_m_subgroupid>
dock_pv

> <b_m_subgroup_collapsed>
1

$$$$
CHEMBL1900_lig94
                    3D
 Schrodinger Suite 2021-1.
 28 30  0  0  1  0            999 V2000
   16.9386   -7.7604   16.8775 C   0  0  1  0  0  0
   16.6296   -9.2704   16.8288 C   0  0  0  0  0  0
   15.3458   -6.5137   17.9166 N   0  0  0  0  0  0
   15.6227   -7.0220   16.7202 C   0  0  0  0  0  0
   17.1908  -10.0755   15.8192 C   0  0  0  0  0  0
   16.3612   -6.5428   18.7883 C   0  0  0  0  0  0
   17.3094   -7.2663   18.1814 N   0  0  0  0  0  0
   18.0410   -9.5867   14.8531 O   0  0  0  0  0  0
   16.9922  -11.4133   15.7148 N   0  0  0  0  0  0
   17.9063   -7.3146   15.7426 C   0  0  0  0  0  0
   15.7978   -9.9275   17.7537 C   0  0  0  0  0  0
   14.9451   -6.9186   15.7089 O   0  0  0  0  0  0
   17.8409   -8.2208   14.4973 C   0  0  1  0  0  0
   16.3414   -6.1156   19.9377 O   0  0  0  0  0  0
   16.1951  -12.0085   16.6344 C   0  0  0  0  0  0
   15.5879  -11.3034   17.6706 C   0  0  0  0  0  0
   14.5443  -12.1995   18.9822 Br  0  0  0  0  0  0
   18.8910   -7.8486   13.4496 C   0  0  0  0  0  0
   14.4478   -6.1145   18.1340 H   0  0  0  0  0  0
   18.2833   -7.1812   18.4324 H   0  0  0  0  0  0
   18.9283   -7.3119   16.1117 H   0  0  0  0  0  0
   17.7442   -6.2785   15.4414 H   0  0  0  0  0  0
   15.3389   -9.3741   18.5606 H   0  0  0  0  0  0
   16.8595   -8.1145   14.0297 H   0  0  0  0  0  0
   16.0601  -13.0762   16.5382 H   0  0  0  0  0  0
   18.7632   -6.8243   13.0998 H   0  0  0  0  0  0
   19.9042   -7.9451   13.8424 H   0  0  0  0  0  0
   18.8100   -8.5102   12.5866 H   0  0  0  0  0  0
  1  2  1  0  0  0
  1  4  1  0  0  0
  1  7  1  0  0  0
  1 10  1  0  0  0
  2  5  1  0  0  0
  2 11  2  0  0  0
  3  4  1  0  0  0
  3  6  1  0  0  0
  3 19  1  0  0  0
  4 12  2  0  0  0
  5  9  2  0  0  0
  5  8  1  0  0  0
  6  7  1  0  0  0
  6 14  2  0  0  0
  7 20  1  0  0  0
  8 13  1  0  0  0
  9 15  1  0  0  0
 10 13  1  0  0  0
 10 21  1  0  0  0
 10 22  1  0  0  0
 11 16  1  0  0  0
 11 23  1  0  0  0
 13 18  1  0  0  0
 13 24  1  0  0  0
 15 16  2  0  0  0
 15 25  1  0  0  0
 16 17  1  0  0  0
 18 26  1  0  0  0
 18 27  1  0  0  0
 18 28  1  0  0  0
M  END
> <s_m_entry_id>
6745

> <s_m_entry_name>
dock_pv.580

> <s_m_Source_Path>
/home/csk/Desktop/cluster/DUD-E-result/aldr

> <s_m_Source_File>
dock_pv.maegz

> <i_m_Source_File_Index>
580

> <chembl_id>
CHEMBL54342

> <chembl_pref_name>
None

> <i_lp_mmshare_version>
53161

> <i_f3d_flags>
0

> <r_lp_tautomer_probability>
0.99999999978137

> <s_lp_Force_Field>
OPLS_2005

> <r_lp_Energy>
19.897836

> <b_lp_Chiralities_Consistent>
1

> <s_lp_Variant>
CHEMBL1900_lig94-1

> <s_i_glide_gridfile>
glide-grid_2hv5

> <i_i_glide_lignum>
133

> <i_i_glide_rotatable_bonds>
0

> <r_i_docking_score>
-6.81125646885334

> <r_i_glide_ligand_efficiency>
-0.378403137158519

> <r_i_glide_ligand_efficiency_sa>
-0.99169676429438

> <r_i_glide_ligand_efficiency_ln>
-1.75079835366087

> <r_i_glide_gscore>
-6.81125646885334

> <r_i_glide_lipo>
-1.82109984628717

> <r_i_glide_hbond>
-0.275392083728336

> <r_i_glide_metal>
0

> <r_i_glide_rewards>
-2.78137047631876

> <r_i_glide_evdw>
-29.7302551269531

> <r_i_glide_ecoul>
-2.97920870780945

> <r_i_glide_erotb>
0

> <r_i_glide_esite>
0

> <r_i_glide_emodel>
-43.3376118211639

> <r_i_glide_energy>
-32.7094638347626

> <r_i_glide_einternal>
0

> <i_i_glide_confnum>
1

> <i_i_glide_posenum>
55

> <r_i_glide_eff_state_penalty>
0

> <s_user_duplicate_titles>
CHEMBL1900_lig94,83790

> <s_m_subgroup_title>
dock_pv

> <s_m_subgroupid>
dock_pv

> <b_m_subgroup_collapsed>
1

$$$$
CHEMBL1900_lig138
                    3D
 Schrodinger Suite 2021-1.
 30 32  0  0  1  0            999 V2000
   16.2905   -9.9033   16.6385 C   0  0  2  0  0  0
   16.1292   -8.6715   17.4948 N   0  0  0  0  0  0
   17.2053   -9.6549   15.4242 C   0  0  0  0  0  0
   14.9341  -10.4332   16.1927 C   0  0  0  0  0  0
   16.2550   -7.3981   16.9941 C   0  0  0  0  0  0
   16.7280  -11.0777   17.3532 N   0  0  0  0  0  0
   14.7051  -11.5299   16.9322 N   0  0  0  0  0  0
   17.0104   -7.3146   15.8866 N   0  0  0  0  0  0
   17.5859   -8.3368   15.1384 C   0  0  0  0  0  0
   15.7453  -11.9170   17.6896 C   0  0  0  0  0  0
   18.5093   -8.0558   14.1203 C   0  0  0  0  0  0
   17.7447  -10.6901   14.6443 C   0  0  0  0  0  0
   19.0342   -9.1096   13.3809 C   0  0  0  0  0  0
   15.7459   -6.3714   17.4493 O   0  0  0  0  0  0
   14.1736   -9.9147   15.3810 O   0  0  0  0  0  0
   15.8385  -12.9346   18.3653 O   0  0  0  0  0  0
   18.6468  -10.4215   13.6239 C   0  0  0  0  0  0
   15.3453   -8.7607   18.7303 C   0  0  0  0  0  0
   18.9448   -6.7585   13.8267 N   0  0  0  0  0  0
   19.3018  -11.7109   12.6820 Cl  0  0  0  0  0  0
   17.5981  -11.0294   17.8586 H   0  0  0  0  0  0
   13.8773  -12.0946   16.8245 H   0  0  0  0  0  0
   17.1646   -6.3654   15.5883 H   0  0  0  0  0  0
   17.4688  -11.7166   14.8389 H   0  0  0  0  0  0
   19.7448   -8.9149   12.6026 H   0  0  0  0  0  0
   14.3037   -8.5151   18.5221 H   0  0  0  0  0  0
   15.7451   -8.0712   19.4777 H   0  0  0  0  0  0
   15.3450   -9.7509   19.1749 H   0  0  0  0  0  0
   19.7127   -6.6507   13.1783 H   0  0  0  0  0  0
   18.7088   -5.9989   14.4476 H   0  0  0  0  0  0
  1  2  1  0  0  0
  1  3  1  0  0  0
  1  4  1  0  0  0
  1  6  1  0  0  0
  2  5  1  0  0  0
  2 18  1  0  0  0
  3  9  1  0  0  0
  3 12  2  0  0  0
  4  7  1  0  0  0
  4 15  2  0  0  0
  5 14  2  0  0  0
  5  8  1  0  0  0
  6 10  1  0  0  0
  6 21  1  0  0  0
  7 10  1  0  0  0
  7 22  1  0  0  0
  8  9  1  0  0  0
  8 23  1  0  0  0
  9 11  2  0  0  0
 10 16  2  0  0  0
 11 19  1  0  0  0
 11 13  1  0  0  0
 12 17  1  0  0  0
 12 24  1  0  0  0
 13 17  2  0  0  0
 13 25  1  0  0  0
 17 20  1  0  0  0
 18 26  1  0  0  0
 18 27  1  0  0  0
 18 28  1  0  0  0
 19 29  1  0  0  0
 19 30  1  0  0  0
M  END
> <s_m_entry_id>
6746

> <s_m_entry_name>
dock_pv.581

> <s_m_Source_Path>
/home/csk/Desktop/cluster/DUD-E-result/aldr

> <s_m_Source_File>
dock_pv.maegz

> <i_m_Source_File_Index>
581

> <chembl_id>
CHEMBL65181

> <chembl_pref_name>
None

> <i_lp_mmshare_version>
53161

> <i_f3d_flags>
0

> <r_lp_tautomer_probability>
0.99999999978137

> <s_lp_Force_Field>
OPLS_2005

> <r_lp_Energy>
35.209984

> <b_lp_Chiralities_Consistent>
1

> <s_lp_Variant>
CHEMBL1900_lig138-1

> <s_i_glide_gridfile>
glide-grid_2hv5

> <i_i_glide_lignum>
212

> <i_i_glide_rotatable_bonds>
0

> <r_i_docking_score>
-6.80687029871337

> <r_i_glide_ligand_efficiency>
-0.340343514935669

> <r_i_glide_ligand_efficiency_sa>
-0.923834431712691

> <r_i_glide_ligand_efficiency_ln>
-1.70353513016002

> <r_i_glide_gscore>
-6.80687029871337

> <r_i_glide_lipo>
-1.84231222954451

> <r_i_glide_hbond>
-0.0679652672137633

> <r_i_glide_metal>
0

> <r_i_glide_rewards>
-3.13476685838208

> <r_i_glide_evdw>
-28.836389541626

> <r_i_glide_ecoul>
-2.04167652130127

> <r_i_glide_erotb>
0

> <r_i_glide_esite>
-0.0137549882965292

> <r_i_glide_emodel>
-37.2425628869351

> <r_i_glide_energy>
-30.8780660629272

> <r_i_glide_einternal>
0

> <i_i_glide_confnum>
1

> <i_i_glide_posenum>
8

> <r_i_glide_eff_state_penalty>
0

> <s_user_duplicate_titles>
CHEMBL1900_lig138,101890

> <s_m_subgroup_title>
dock_pv

> <s_m_subgroupid>
dock_pv

> <b_m_subgroup_collapsed>
1

$$$$
CHEMBL1900_lig9
                    3D
 Schrodinger Suite 2021-1.
 48 50  0  0  1  0            999 V2000
   18.4679   -7.7470   14.3628 S   0  0  0  0  0  0
   17.0896   -6.4732   19.0529 N   0  0  0  0  0  0
   16.4159   -8.3779   16.3231 C   0  0  0  0  0  0
   17.5599   -6.9150   17.9149 C   0  0  0  0  0  0
   16.4547   -6.9532   16.9005 C   0  0  2  0  0  0
   15.8491   -6.0621   18.9656 C   0  0  0  0  0  0
   17.3204   -8.8153   15.3142 C   0  0  0  0  0  0
   15.3896   -6.5150   17.7827 N   0  0  0  0  0  0
   19.1019   -8.5867   13.3426 O   0  0  0  0  0  0
   19.2848   -6.9150   15.2398 O   0  0  0  0  0  0
   17.3450  -10.1780   14.9810 C   0  0  0  0  0  0
   15.5479   -9.3147   16.9107 C   0  0  0  0  0  0
   17.4750   -6.5999   13.5451 N   0  0  1  0  0  0
   18.6785   -7.3150   17.7810 O   0  0  0  0  0  0
   15.3450   -5.3150   19.7810 O   0  0  0  0  0  0
   15.5912  -10.6586   16.5576 C   0  0  0  0  0  0
   16.4983  -11.0921   15.5995 C   0  0  0  0  0  0
   14.5450  -11.7887   17.3353 Cl  0  0  0  0  0  0
   15.5657   -4.1150   10.0904 C   0  0  0  0  0  0
   16.5188   -7.0435   12.5532 C   0  0  0  0  0  0
   14.2872   -4.8043   10.5810 C   0  0  0  0  0  0
   16.8057   -4.7614   10.0199 C   0  0  0  0  0  0
   15.4957   -2.7608    9.7810 C   0  0  0  0  0  0
   15.3796   -6.0342   12.5206 C   0  0  0  0  0  0
   14.4687   -6.1527   11.2904 C   0  0  0  0  0  0
   16.6440   -2.0452    9.5078 C   0  0  0  0  0  0
   17.9695   -4.0394    9.7810 C   0  0  0  0  0  0
   17.8824   -2.6723    9.5463 C   0  0  0  0  0  0
   17.6399   -6.4241   19.8955 H   0  0  0  0  0  0
   16.6058   -6.2062   16.1228 H   0  0  0  0  0  0
   14.4122   -6.6766   17.5843 H   0  0  0  0  0  0
   18.0235  -10.5521   14.2282 H   0  0  0  0  0  0
   14.8612   -9.0210   17.6905 H   0  0  0  0  0  0
   17.2659   -5.7298   14.0396 H   0  0  0  0  0  0
   16.5410  -12.1361   15.3250 H   0  0  0  0  0  0
   16.1769   -8.0287   12.8263 H   0  0  0  0  0  0
   17.0546   -7.1642   11.6157 H   0  0  0  0  0  0
   13.7975   -4.1295   11.2793 H   0  0  0  0  0  0
   13.5738   -4.9150    9.7752 H   0  0  0  0  0  0
   16.8849   -5.8221   10.1569 H   0  0  0  0  0  0
   14.5538   -2.2333    9.8152 H   0  0  0  0  0  0
   15.8078   -5.0324   12.5625 H   0  0  0  0  0  0
   14.7995   -6.1150   13.4335 H   0  0  0  0  0  0
   13.4857   -6.5150   11.5893 H   0  0  0  0  0  0
   14.8458   -6.8879   10.5810 H   0  0  0  0  0  0
   16.5450   -0.9897    9.3348 H   0  0  0  0  0  0
   18.9259   -4.5399    9.7670 H   0  0  0  0  0  0
   18.7767   -2.0920    9.3810 H   0  0  0  0  0  0
  1  7  1  0  0  0
  1  9  2  0  0  0
  1 10  2  0  0  0
  1 13  1  0  0  0
  2  4  1  0  0  0
  2  6  1  0  0  0
  2 29  1  0  0  0
  3  7  1  0  0  0
  3  5  1  0  0  0
  3 12  2  0  0  0
  4  5  1  0  0  0
  4 14  2  0  0  0
  5  8  1  0  0  0
  5 30  1  0  0  0
  6  8  1  0  0  0
  6 15  2  0  0  0
  7 11  2  0  0  0
  8 31  1  0  0  0
 11 17  1  0  0  0
 11 32  1  0  0  0
 12 16  1  0  0  0
 12 33  1  0  0  0
 13 20  1  0  0  0
 13 34  1  0  0  0
 16 17  2  0  0  0
 16 18  1  0  0  0
 17 35  1  0  0  0
 19 21  1  0  0  0
 19 22  2  0  0  0
 19 23  1  0  0  0
 20 24  1  0  0  0
 20 36  1  0  0  0
 20 37  1  0  0  0
 21 25  1  0  0  0
 21 38  1  0  0  0
 21 39  1  0  0  0
 22 27  1  0  0  0
 22 40  1  0  0  0
 23 26  2  0  0  0
 23 41  1  0  0  0
 24 25  1  0  0  0
 24 42  1  0  0  0
 24 43  1  0  0  0
 25 44  1  0  0  0
 25 45  1  0  0  0
 26 28  1  0  0  0
 26 46  1  0  0  0
 27 28  2  0  0  0
 27 47  1  0  0  0
 28 48  1  0  0  0
M  END
> <s_m_entry_id>
6747

> <s_m_entry_name>
dock_pv.582

> <s_m_Source_Path>
/home/csk/Desktop/cluster/DUD-E-result/aldr

> <s_m_Source_File>
dock_pv.maegz

> <i_m_Source_File_Index>
582

> <chembl_id>
CHEMBL19392

> <chembl_pref_name>
None

> <i_lp_mmshare_version>
53161

> <i_f3d_flags>
0

> <r_lp_tautomer_probability>
0.999999999781369

> <s_lp_Force_Field>
OPLS_2005

> <r_lp_Energy>
24.77871

> <b_lp_Chiralities_Consistent>
1

> <s_lp_Variant>
CHEMBL1900_lig9-1

> <s_i_glide_gridfile>
glide-grid_2hv5

> <i_i_glide_lignum>
13

> <i_i_glide_rotatable_bonds>
8

> <r_i_docking_score>
-6.80673387037913

> <r_i_glide_ligand_efficiency>
-0.243097638227826

> <r_i_glide_ligand_efficiency_sa>
-0.738187606511705

> <r_i_glide_ligand_efficiency_ln>
-1.57119403167415

> <r_i_glide_gscore>
-6.80673387037913

> <r_i_glide_lipo>
-4.12653450844806

> <r_i_glide_hbond>
-0.32

> <r_i_glide_metal>
0

> <r_i_glide_rewards>
-1.46999570857816

> <r_i_glide_evdw>
-20.3455829620361

> <r_i_glide_ecoul>
-4.34535789489746

> <r_i_glide_erotb>
0.778879178983518

> <r_i_glide_esite>
0

> <r_i_glide_emodel>
-21.7528920983707

> <r_i_glide_energy>
-24.6909408569336

> <r_i_glide_einternal>
9.90477085113525

> <i_i_glide_confnum>
14

> <i_i_glide_posenum>
85

> <r_i_glide_eff_state_penalty>
0

> <s_user_duplicate_titles>
CHEMBL1900_lig9

> <s_m_subgroup_title>
dock_pv

> <s_m_subgroupid>
dock_pv

> <b_m_subgroup_collapsed>
1

$$$$
CHEMBL1900_lig118
                    3D
 Schrodinger Suite 2021-1.
 28 30  0  0  1  0            999 V2000
   16.3133   -9.8969   16.6561 C   0  0  2  0  0  0
   16.1571   -8.6619   17.5054 N   0  0  0  0  0  0
   17.2346   -9.6600   15.4442 C   0  0  0  0  0  0
   14.9577  -10.4120   16.1836 C   0  0  0  0  0  0
   16.3348   -7.3875   17.0207 C   0  0  0  0  0  0
   16.7280  -11.0732   17.3805 N   0  0  0  0  0  0
   14.7517  -11.5736   16.8247 N   0  0  0  0  0  0
   15.7405  -11.9247   17.6632 C   0  0  0  0  0  0
   17.1167   -7.3142   15.9296 N   0  0  0  0  0  0
   17.6382   -8.3486   15.1710 C   0  0  0  0  0  0
   17.7472  -10.6910   14.6411 C   0  0  0  0  0  0
   15.8502   -6.3519   17.4813 O   0  0  0  0  0  0
   14.2096   -9.8569   15.3868 O   0  0  0  0  0  0
   15.7127  -12.7546   18.5646 O   0  0  0  0  0  0
   18.5362   -8.0633   14.1447 C   0  0  0  0  0  0
   15.3469   -8.7501   18.7234 C   0  0  0  0  0  0
   18.6483  -10.4168   13.6171 C   0  0  0  0  0  0
   19.0494   -9.1054   13.3809 C   0  0  0  0  0  0
   19.3424  -11.8336   12.5561 Br  0  0  0  0  0  0
   17.7029  -11.2773   17.5368 H   0  0  0  0  0  0
   13.9234  -12.1332   16.6958 H   0  0  0  0  0  0
   17.3205   -6.3678   15.6488 H   0  0  0  0  0  0
   17.4565  -11.7162   14.8188 H   0  0  0  0  0  0
   18.8437   -7.0476   13.9398 H   0  0  0  0  0  0
   14.3076   -8.5141   18.4975 H   0  0  0  0  0  0
   15.7451   -8.0653   19.4766 H   0  0  0  0  0  0
   15.3449   -9.7415   19.1662 H   0  0  0  0  0  0
   19.7447   -8.8985   12.5838 H   0  0  0  0  0  0
  1  2  1  0  0  0
  1  3  1  0  0  0
  1  4  1  0  0  0
  1  6  1  0  0  0
  2  5  1  0  0  0
  2 16  1  0  0  0
  3 10  1  0  0  0
  3 11  2  0  0  0
  4  7  1  0  0  0
  4 13  2  0  0  0
  5 12  2  0  0  0
  5  9  1  0  0  0
  6  8  1  0  0  0
  6 20  1  0  0  0
  7  8  1  0  0  0
  7 21  1  0  0  0
  8 14  2  0  0  0
  9 10  1  0  0  0
  9 22  1  0  0  0
 10 15  2  0  0  0
 11 17  1  0  0  0
 11 23  1  0  0  0
 15 18  1  0  0  0
 15 24  1  0  0  0
 16 25  1  0  0  0
 16 26  1  0  0  0
 16 27  1  0  0  0
 17 18  2  0  0  0
 17 19  1  0  0  0
 18 28  1  0  0  0
M  END
> <s_m_entry_id>
6748

> <s_m_entry_name>
dock_pv.583

> <s_m_Source_Path>
/home/csk/Desktop/cluster/DUD-E-result/aldr

> <s_m_Source_File>
dock_pv.maegz

> <i_m_Source_File_Index>
583

> <chembl_id>
CHEMBL303058

> <chembl_pref_name>
None

> <i_lp_mmshare_version>
53161

> <i_f3d_flags>
0

> <r_lp_tautomer_probability>
0.99999999978137

> <s_lp_Force_Field>
OPLS_2005

> <r_lp_Energy>
34.620036

> <b_lp_Chiralities_Consistent>
1

> <s_lp_Variant>
CHEMBL1900_lig118-1

> <s_i_glide_gridfile>
glide-grid_2hv5

> <i_i_glide_lignum>
176

> <i_i_glide_rotatable_bonds>
0

> <r_i_docking_score>
-6.8025220428574

> <r_i_glide_ligand_efficiency>
-0.358027475939863

> <r_i_glide_ligand_efficiency_sa>
-0.95536110614802

> <r_i_glide_ligand_efficiency_ln>
-1.72458544264131

> <r_i_glide_gscore>
-6.8025220428574

> <r_i_glide_lipo>
-1.82696078072861

> <r_i_glide_hbond>
-0.13711570631202

> <r_i_glide_metal>
0

> <r_i_glide_rewards>
-3.03237965167515

> <r_i_glide_evdw>
-28.1516857147217

> <r_i_glide_ecoul>
-2.5700569152832

> <r_i_glide_erotb>
0

> <r_i_glide_esite>
-0.0129730811130642

> <r_i_glide_emodel>
-41.2813409017619

> <r_i_glide_energy>
-30.7217426300049

> <r_i_glide_einternal>
0

> <i_i_glide_confnum>
1

> <i_i_glide_posenum>
2

> <r_i_glide_eff_state_penalty>
0

> <s_user_duplicate_titles>
CHEMBL1900_lig118,102336

> <s_m_subgroup_title>
dock_pv

> <s_m_subgroupid>
dock_pv

> <b_m_subgroup_collapsed>
1

$$$$
CHEMBL1900_lig220
                    3D
 Schrodinger Suite 2021-1.
 25 26  0  0  1  0            999 V2000
   15.6428   -8.7642   16.6612 C   0  0  0  0  0  0
   15.8884  -10.1377   16.5547 C   0  0  0  0  0  0
   16.8879  -10.5987   15.6849 C   0  0  0  0  0  0
   17.6268   -9.6838   14.9210 C   0  0  0  0  0  0
   17.3839   -8.3125   15.0409 C   0  0  0  0  0  0
   16.4018   -7.8578   15.9260 C   0  0  0  0  0  0
   18.1058   -7.4230   14.2740 O   0  0  0  0  0  0
   17.5228   -6.6949   13.2439 C   0  0  0  0  0  0
   16.2484   -6.9150   12.7663 C   0  0  0  0  0  0
   15.6732   -6.1151   11.7810 C   0  0  0  0  0  0
   16.4448   -5.1462   11.1394 C   0  0  0  0  0  0
   17.7498   -4.9150   11.5862 C   0  0  0  0  0  0
   18.2302   -5.6478   12.6901 C   0  0  0  0  0  0
   16.1698   -6.5150   16.0592 O   0  0  0  0  0  0
   19.3450   -5.3151   13.3810 O   0  0  0  0  0  0
   18.8063   -3.5767   10.7173 Br  0  0  0  0  0  0
   15.7038   -4.1150    9.7103 Br  0  0  0  0  0  0
   13.8329   -6.3454   11.3809 Br  0  0  0  0  0  0
   18.9449  -10.2835   13.6761 Br  0  0  0  0  0  0
   17.2268  -12.4719   15.5209 Br  0  0  0  0  0  0
   14.8555  -11.3707   17.5886 Br  0  0  0  0  0  0
   14.2575   -8.0934   17.7810 Br  0  0  0  0  0  0
   15.7450   -7.7150   13.2357 H   0  0  0  0  0  0
   16.7932   -6.0016   15.5401 H   0  0  0  0  0  0
   19.5592   -5.9658   14.0555 H   0  0  0  0  0  0
  1  6  1  0  0  0
  1  2  2  0  0  0
  1 22  1  0  0  0
  2 21  1  0  0  0
  2  3  1  0  0  0
  3  4  2  0  0  0
  3 20  1  0  0  0
  4 19  1  0  0  0
  4  5  1  0  0  0
  5  6  2  0  0  0
  5  7  1  0  0  0
  6 14  1  0  0  0
  7  8  1  0  0  0
  8 13  1  0  0  0
  8  9  2  0  0  0
  9 10  1  0  0  0
  9 23  1  0  0  0
 10 11  2  0  0  0
 10 18  1  0  0  0
 11 12  1  0  0  0
 11 17  1  0  0  0
 12 13  2  0  0  0
 12 16  1  0  0  0
 13 15  1  0  0  0
 14 24  1  0  0  0
 15 25  1  0  0  0
M  END
> <s_m_entry_id>
6749

> <s_m_entry_name>
dock_pv.584

> <s_m_Source_Path>
/home/csk/Desktop/cluster/DUD-E-result/aldr

> <s_m_Source_File>
dock_pv.maegz

> <i_m_Source_File_Index>
584

> <chembl_id>
CHEMBL357100

> <chembl_pref_name>
None

> <i_lp_mmshare_version>
53161

> <i_f3d_flags>
0

> <r_lp_tautomer_probability>
0.999999999999776

> <s_lp_Force_Field>
OPLS_2005

> <r_lp_Energy>
12.744625

> <b_lp_Chiralities_Consistent>
1

> <s_lp_Variant>
CHEMBL1900_lig220-1

> <s_i_glide_gridfile>
glide-grid_2hv5

> <i_i_glide_lignum>
296

> <i_i_glide_rotatable_bonds>
4

> <r_i_docking_score>
-6.80128131970969

> <r_i_glide_ligand_efficiency>
-0.309149150895895

> <r_i_glide_ligand_efficiency_sa>
-0.866248078956478

> <r_i_glide_ligand_efficiency_ln>
-1.66248123730091

> <r_i_glide_gscore>
-6.80128131970969

> <r_i_glide_lipo>
-4.39487256603434

> <r_i_glide_hbond>
0

> <r_i_glide_metal>
0

> <r_i_glide_rewards>
-0.9

> <r_i_glide_evdw>
-29.1055660247803

> <r_i_glide_ecoul>
-0.847576677799225

> <r_i_glide_erotb>
0.0760060492335506

> <r_i_glide_esite>
0

> <r_i_glide_emodel>
-37.2569899961023

> <r_i_glide_energy>
-29.9531427025795

> <r_i_glide_einternal>
0.408626705408096

> <i_i_glide_confnum>
1

> <i_i_glide_posenum>
1

> <r_i_glide_eff_state_penalty>
0

> <s_user_duplicate_titles>
CHEMBL1900_lig220

> <s_m_subgroup_title>
dock_pv

> <s_m_subgroupid>
dock_pv

> <b_m_subgroup_collapsed>
1

$$$$
69145
                    3D
 Schrodinger Suite 2021-1.
 36 38  0  0  1  0            999 V2000
   16.8232   -8.9900   15.5522 C   0  0  0  0  0  0
   17.6104   -7.8363   15.4903 C   0  0  0  0  0  0
   17.5233   -6.9105   16.5258 C   0  0  0  0  0  0
   16.6527   -7.0751   17.6141 C   0  0  0  0  0  0
   15.8604   -8.2314   17.6430 C   0  0  0  0  0  0
   15.9285   -9.1815   16.6146 C   0  0  0  0  0  0
   15.0149  -10.4074   16.6529 C   0  0  0  0  0  0
   15.5463  -11.5325   17.5497 C   0  0  0  0  0  0
   16.7407  -11.7165   17.7784 O   0  0  0  0  0  0
   14.5445  -12.3228   18.0315 O   0  0  0  0  0  0
   16.5354   -6.0319   18.7099 C   0  0  0  0  0  0
   15.7450   -6.1246   19.6433 O   0  0  0  0  0  0
   17.3450   -4.9504   18.5809 O   0  0  0  0  0  0
   18.5088   -7.5212   14.2840 C   0  0  0  0  0  0
   17.8454   -6.6164   13.2454 C   0  0  0  0  0  0
   18.4892   -5.7366   12.5160 N   0  0  0  0  0  0
   17.6791   -5.1091   11.6067 C   0  0  0  0  0  0
   18.0665   -4.1236   10.6752 C   0  0  0  0  0  0
   17.0901   -3.5643    9.8475 C   0  0  0  0  0  0
   15.7629   -3.9752    9.9133 C   0  0  0  0  0  0
   15.3562   -4.9502   10.8162 C   0  0  0  0  0  0
   16.3242   -5.5132   11.6550 C   0  0  0  0  0  0
   16.1450   -6.7312   12.8885 S   0  0  0  0  0  0
   14.0586   -5.3211   10.8884 F   0  0  0  0  0  0
   17.4295   -2.5864    8.9810 F   0  0  0  0  0  0
   19.3449   -3.6975   10.5808 F   0  0  0  0  0  0
   16.8814   -9.7184   14.7563 H   0  0  0  0  0  0
   18.1437   -6.0422   16.4265 H   0  0  0  0  0  0
   15.1744   -8.3985   18.4620 H   0  0  0  0  0  0
   14.0217  -10.0990   16.9805 H   0  0  0  0  0  0
   14.8935  -10.8068   15.6456 H   0  0  0  0  0  0
   13.6563  -12.0588   17.7768 H   0  0  0  0  0  0
   17.9347   -5.0412   17.8320 H   0  0  0  0  0  0
   19.4438   -7.0832   14.6382 H   0  0  0  0  0  0
   18.8005   -8.4615   13.8149 H   0  0  0  0  0  0
   15.0276   -3.5183    9.2669 H   0  0  0  0  0  0
  1  6  1  0  0  0
  1  2  2  0  0  0
  1 27  1  0  0  0
  2  3  1  0  0  0
  2 14  1  0  0  0
  3  4  2  0  0  0
  3 28  1  0  0  0
  4  5  1  0  0  0
  4 11  1  0  0  0
  5  6  2  0  0  0
  5 29  1  0  0  0
  6  7  1  0  0  0
  7  8  1  0  0  0
  7 30  1  0  0  0
  7 31  1  0  0  0
  8  9  2  0  0  0
  8 10  1  0  0  0
 10 32  1  0  0  0
 11 12  2  0  0  0
 11 13  1  0  0  0
 13 33  1  0  0  0
 14 15  1  0  0  0
 14 34  1  0  0  0
 14 35  1  0  0  0
 15 23  1  0  0  0
 15 16  2  0  0  0
 16 17  1  0  0  0
 17 22  2  0  0  0
 17 18  1  0  0  0
 18 19  2  0  0  0
 18 26  1  0  0  0
 19 20  1  0  0  0
 19 25  1  0  0  0
 20 21  2  0  0  0
 20 36  1  0  0  0
 21 22  1  0  0  0
 21 24  1  0  0  0
 22 23  1  0  0  0
M  END
> <s_m_entry_id>
6861

> <s_m_entry_name>
ligand_docking-pose.3

> <s_m_Source_Path>
/home/csk/Desktop/cluster/DUD-E-result/aldr

> <s_m_Source_File>
ligand_docking-pose.sdf

> <i_m_Source_File_Index>
3

> <i_lp_mmshare_version>
53161

> <r_lp_tautomer_probability>
1

> <s_lp_Force_Field>
OPLS_2005

> <r_lp_Energy>
13.142095

> <b_lp_Chiralities_Consistent>
1

> <s_lp_Variant>
69145-1

> <s_i_glide_gridfile>
glide-grid_2hv5

> <i_i_glide_lignum>
354

> <i_i_glide_rotatable_bonds>
7

> <r_i_docking_score>
-11.0233790375267

> <r_i_glide_ligand_efficiency>
-0.42397611682795

> <r_i_glide_ligand_efficiency_sa>
-1.25602757783734

> <r_i_glide_ligand_efficiency_ln>
-2.58880439630631

> <r_i_glide_gscore>
-11.0233790375267

> <r_i_glide_lipo>
-4.59960717489055

> <r_i_glide_hbond>
-0.534558951895138

> <r_i_glide_metal>
0

> <r_i_glide_rewards>
-2.87549659710087

> <r_i_glide_evdw>
-40.9270896911621

> <r_i_glide_ecoul>
-10.6169586181641

> <r_i_glide_erotb>
0.667419202567952

> <r_i_glide_esite>
-0.0422372389253761

> <r_i_glide_emodel>
-82.7813631473638

> <r_i_glide_energy>
-51.5440483093262

> <r_i_glide_einternal>
2.51613736152649

> <i_i_glide_confnum>
12

> <i_i_glide_posenum>
146

> <r_i_glide_eff_state_penalty>
0

> <i_f3d_flags>
0

> <s_user_duplicate_titles>
69145

> <s_m_subgroup_title>
dock_pv

> <s_m_subgroupid>
dock_pv1

> <b_m_subgroup_collapsed>
0

$$$$
544633
                    3D
 Schrodinger Suite 2021-1.
 41 43  0  0  1  0            999 V2000
   15.5400  -12.0654   16.6414 C   0  0  0  0  0  0
   16.6986  -11.4640   15.9784 N   0  0  0  0  0  0
   17.3652  -12.2922   14.9717 C   0  0  0  0  0  0
   16.8093  -10.0457   15.9168 C   0  0  0  0  0  0
   17.6485   -9.4152   14.9775 C   0  0  0  0  0  0
   17.7448   -8.0231   14.9033 C   0  0  0  0  0  0
   17.0186   -7.2435   15.7985 C   0  0  0  0  0  0
   16.1788   -7.8310   16.7406 C   0  0  0  0  0  0
   16.0829   -9.2235   16.7982 C   0  0  0  0  0  0
   15.4040   -6.9490   17.7187 C   0  0  0  0  0  0
   16.2496   -6.3281   18.8451 C   0  0  0  0  0  0
   15.7450   -5.7145   19.7811 O   0  0  0  0  0  0
   17.5886   -6.5146   18.7020 O   0  0  0  0  0  0
   18.6229   -7.3443   13.8554 C   0  0  0  0  0  0
   17.8700   -6.4362   12.8879 C   0  0  0  0  0  0
   18.4986   -5.5399   12.1811 N   0  0  0  0  0  0
   17.6727   -4.8604   11.3391 C   0  0  0  0  0  0
   18.0610   -3.8119   10.4884 C   0  0  0  0  0  0
   17.0716   -3.1792    9.7370 C   0  0  0  0  0  0
   15.7467   -3.6018    9.7679 C   0  0  0  0  0  0
   15.3450   -4.6521   10.5810 C   0  0  0  0  0  0
   16.3155   -5.2622   11.3820 C   0  0  0  0  0  0
   16.1450   -6.5151   12.5809 S   0  0  0  0  0  0
   14.0488   -5.0329   10.6150 F   0  0  0  0  0  0
   17.3935   -2.1151    8.9809 F   0  0  0  0  0  0
   19.3450   -3.3858   10.4204 F   0  0  0  0  0  0
   15.4817  -11.7730   17.6897 H   0  0  0  0  0  0
   14.6167  -11.7413   16.1575 H   0  0  0  0  0  0
   15.5672  -13.1559   16.6030 H   0  0  0  0  0  0
   16.9440  -12.1012   13.9841 H   0  0  0  0  0  0
   18.4309  -12.0690   14.9207 H   0  0  0  0  0  0
   17.2603  -13.3581   15.1823 H   0  0  0  0  0  0
   18.2242   -9.9972   14.2764 H   0  0  0  0  0  0
   17.1023   -6.1688   15.7570 H   0  0  0  0  0  0
   15.4376   -9.6517   17.5482 H   0  0  0  0  0  0
   14.5999   -7.5262   18.1751 H   0  0  0  0  0  0
   14.9338   -6.1374   17.1661 H   0  0  0  0  0  0
   18.0636   -6.1476   19.4491 H   0  0  0  0  0  0
   19.3706   -6.7550   14.3902 H   0  0  0  0  0  0
   19.1830   -8.0967   13.2991 H   0  0  0  0  0  0
   15.0071   -3.0901    9.1683 H   0  0  0  0  0  0
  1  2  1  0  0  0
  1 27  1  0  0  0
  1 28  1  0  0  0
  1 29  1  0  0  0
  2  3  1  0  0  0
  2  4  1  0  0  0
  3 30  1  0  0  0
  3 31  1  0  0  0
  3 32  1  0  0  0
  4  9  1  0  0  0
  4  5  2  0  0  0
  5  6  1  0  0  0
  5 33  1  0  0  0
  6  7  2  0  0  0
  6 14  1  0  0  0
  7  8  1  0  0  0
  7 34  1  0  0  0
  8  9  2  0  0  0
  8 10  1  0  0  0
  9 35  1  0  0  0
 10 11  1  0  0  0
 10 36  1  0  0  0
 10 37  1  0  0  0
 11 12  2  0  0  0
 11 13  1  0  0  0
 13 38  1  0  0  0
 14 15  1  0  0  0
 14 39  1  0  0  0
 14 40  1  0  0  0
 15 23  1  0  0  0
 15 16  2  0  0  0
 16 17  1  0  0  0
 17 22  2  0  0  0
 17 18  1  0  0  0
 18 19  2  0  0  0
 18 26  1  0  0  0
 19 20  1  0  0  0
 19 25  1  0  0  0
 20 21  2  0  0  0
 20 41  1  0  0  0
 21 22  1  0  0  0
 21 24  1  0  0  0
 22 23  1  0  0  0
M  END
> <s_m_entry_id>
6899

> <s_m_entry_name>
ligand_docking-pose.41

> <s_m_Source_Path>
/home/csk/Desktop/cluster/DUD-E-result/aldr

> <s_m_Source_File>
ligand_docking-pose.sdf

> <i_m_Source_File_Index>
41

> <i_lp_mmshare_version>
53161

> <r_lp_tautomer_probability>
1

> <s_lp_Force_Field>
OPLS_2005

> <r_lp_Energy>
15.523085

> <b_lp_Chiralities_Consistent>
1

> <s_lp_Variant>
544633-1

> <s_i_glide_gridfile>
glide-grid_2hv5

> <i_i_glide_lignum>
692

> <i_i_glide_rotatable_bonds>
6

> <r_i_docking_score>
-10.3212803078372

> <r_i_glide_ligand_efficiency>
-0.396972319532201

> <r_i_glide_ligand_efficiency_sa>
-1.17602893460349

> <r_i_glide_ligand_efficiency_ln>
-2.42391881341257

> <r_i_glide_gscore>
-10.3212803078372

> <r_i_glide_lipo>
-4.58242132489061

> <r_i_glide_hbond>
-0.32

> <r_i_glide_metal>
0

> <r_i_glide_rewards>
-2.90588132303057

> <r_i_glide_evdw>
-43.7258491516113

> <r_i_glide_ecoul>
-5.75327777862549

> <r_i_glide_erotb>
0.536306464458364

> <r_i_glide_esite>
0

> <r_i_glide_emodel>
-77.1357331612806

> <r_i_glide_energy>
-49.4791269302368

> <r_i_glide_einternal>
3.64509868621826

> <i_i_glide_confnum>
6

> <i_i_glide_posenum>
73

> <r_i_glide_eff_state_penalty>
0

> <i_f3d_flags>
0

> <s_user_duplicate_titles>
544633

> <s_m_subgroup_title>
dock_pv

> <s_m_subgroupid>
dock_pv1

> <b_m_subgroup_collapsed>
0

$$$$
69194
                    3D
 Schrodinger Suite 2021-1.
 33 35  0  0  1  0            999 V2000
   16.9816   -9.0350   15.5163 C   0  0  0  0  0  0
   17.5951   -7.7762   15.5910 C   0  0  0  0  0  0
   17.2847   -6.9330   16.6619 C   0  0  0  0  0  0
   16.3607   -7.3220   17.6296 C   0  0  0  0  0  0
   15.7380   -8.5647   17.5360 C   0  0  0  0  0  0
   16.0413   -9.4296   16.4780 C   0  0  0  0  0  0
   15.3138  -10.7692   16.3541 C   0  0  0  0  0  0
   15.6923  -11.7613   17.4618 C   0  0  0  0  0  0
   16.8541  -12.0004   17.7819 O   0  0  0  0  0  0
   14.5996  -12.3337   18.0455 O   0  0  0  0  0  0
   16.0461   -6.4819   18.6425 F   0  0  0  0  0  0
   18.5415   -7.2932   14.4865 C   0  0  0  0  0  0
   17.8467   -6.5373   13.3565 C   0  0  0  0  0  0
   18.4871   -5.7149   12.5648 N   0  0  0  0  0  0
   17.6733   -5.1358   11.6331 C   0  0  0  0  0  0
   18.0523   -4.1732   10.6727 C   0  0  0  0  0  0
   17.0685   -3.6553    9.8275 C   0  0  0  0  0  0
   15.7453   -4.0827    9.9005 C   0  0  0  0  0  0
   15.3475   -5.0311   10.8380 C   0  0  0  0  0  0
   16.3207   -5.5519   11.6957 C   0  0  0  0  0  0
   16.1450   -6.7150   12.9817 S   0  0  0  0  0  0
   14.0546   -5.4106   10.9290 F   0  0  0  0  0  0
   17.3955   -2.6944    8.9359 F   0  0  0  0  0  0
   19.3227   -3.7158   10.5790 F   0  0  0  0  0  0
   17.2137   -9.6933   14.6889 H   0  0  0  0  0  0
   17.7446   -5.9605   16.7380 H   0  0  0  0  0  0
   15.0108   -8.8487   18.2792 H   0  0  0  0  0  0
   15.5505  -11.2385   15.3987 H   0  0  0  0  0  0
   14.2401  -10.5823   16.3481 H   0  0  0  0  0  0
   13.7569  -12.0463   17.6898 H   0  0  0  0  0  0
   19.3089   -6.6626   14.9419 H   0  0  0  0  0  0
   19.0747   -8.1535   14.0746 H   0  0  0  0  0  0
   15.0049   -3.6555    9.2366 H   0  0  0  0  0  0
  1  6  1  0  0  0
  1  2  2  0  0  0
  1 25  1  0  0  0
  2  3  1  0  0  0
  2 12  1  0  0  0
  3  4  2  0  0  0
  3 26  1  0  0  0
  4  5  1  0  0  0
  4 11  1  0  0  0
  5  6  2  0  0  0
  5 27  1  0  0  0
  6  7  1  0  0  0
  7  8  1  0  0  0
  7 28  1  0  0  0
  7 29  1  0  0  0
  8  9  2  0  0  0
  8 10  1  0  0  0
 10 30  1  0  0  0
 12 13  1  0  0  0
 12 31  1  0  0  0
 12 32  1  0  0  0
 13 21  1  0  0  0
 13 14  2  0  0  0
 14 15  1  0  0  0
 15 20  2  0  0  0
 15 16  1  0  0  0
 16 17  2  0  0  0
 16 24  1  0  0  0
 17 18  1  0  0  0
 17 23  1  0  0  0
 18 19  2  0  0  0
 18 33  1  0  0  0
 19 20  1  0  0  0
 19 22  1  0  0  0
 20 21  1  0  0  0
M  END
> <s_m_entry_id>
6904

> <s_m_entry_name>
ligand_docking-pose.46

> <s_m_Source_Path>
/home/csk/Desktop/cluster/DUD-E-result/aldr

> <s_m_Source_File>
ligand_docking-pose.sdf

> <i_m_Source_File_Index>
46

> <i_lp_mmshare_version>
53161

> <r_lp_tautomer_probability>
1

> <s_lp_Force_Field>
OPLS_2005

> <r_lp_Energy>
11.055002

> <b_lp_Chiralities_Consistent>
1

> <s_lp_Variant>
69194-1

> <s_i_glide_gridfile>
glide-grid_2hv5

> <i_i_glide_lignum>
355

> <i_i_glide_rotatable_bonds>
5

> <r_i_docking_score>
-10.3032884639334

> <r_i_glide_ligand_efficiency>
-0.429303685997224

> <r_i_glide_ligand_efficiency_sa>
-1.23832611200994

> <r_i_glide_ligand_efficiency_ln>
-2.46604971651965

> <r_i_glide_gscore>
-10.3032884639334

> <r_i_glide_lipo>
-4.64663358666668

> <r_i_glide_hbond>
-0.316492973949438

> <r_i_glide_metal>
0

> <r_i_glide_rewards>
-2.93258896739269

> <r_i_glide_evdw>
-39.2850189208984

> <r_i_glide_ecoul>
-6.71783971786499

> <r_i_glide_erotb>
0.60578191624512

> <r_i_glide_esite>
-0.0414279484450184

> <r_i_glide_emodel>
-73.9167190144422

> <r_i_glide_energy>
-46.0028586387634

> <r_i_glide_einternal>
0.696917474269867

> <i_i_glide_confnum>
3

> <i_i_glide_posenum>
23

> <r_i_glide_eff_state_penalty>
0

> <i_f3d_flags>
0

> <s_user_duplicate_titles>
69194

> <s_m_subgroup_title>
dock_pv

> <s_m_subgroupid>
dock_pv1

> <b_m_subgroup_collapsed>
0

$$$$
69185
                    3D
 Schrodinger Suite 2021-1.
 39 42  0  0  1  0            999 V2000
   18.6108  -11.2872   13.4606 C   0  0  0  0  0  0
   17.8681  -12.2179   14.1800 C   0  0  0  0  0  0
   17.0421  -11.7930   15.2164 C   0  0  0  0  0  0
   16.9636  -10.4402   15.5522 C   0  0  0  0  0  0
   17.7428   -9.4794   14.8531 C   0  0  0  0  0  0
   18.5476   -9.9354   13.7919 C   0  0  0  0  0  0
   17.7201   -8.0968   15.2318 N   0  0  0  0  0  0
   16.7778   -7.5698   16.0630 C   0  0  0  0  0  0
   16.1621   -6.5150   15.9057 O   0  0  0  0  0  0
   16.6278   -8.4659   17.3142 C   0  0  2  0  0  0
   15.7371   -9.9340   16.7436 S   0  0  0  0  0  0
   15.9129   -7.7279   18.4917 C   0  0  0  0  0  0
   16.6859   -6.5173   19.0509 C   0  0  0  0  0  0
   17.7442   -6.1155   18.5898 O   0  0  0  0  0  0
   16.1078   -5.9795   20.1546 O   0  0  0  0  0  0
   18.5093   -7.1119   14.4426 C   0  0  0  0  0  0
   17.8665   -6.5628   13.1760 C   0  0  0  0  0  0
   18.5017   -5.6994   12.4332 N   0  0  0  0  0  0
   17.7013   -5.1342   11.4848 C   0  0  0  0  0  0
   18.0779   -4.1111   10.5950 C   0  0  0  0  0  0
   17.0950   -3.5525    9.7772 C   0  0  0  0  0  0
   15.7852   -4.0207    9.7938 C   0  0  0  0  0  0
   15.3998   -5.0554   10.6398 C   0  0  0  0  0  0
   16.3701   -5.6151   11.4781 C   0  0  0  0  0  0
   16.2332   -6.9028   12.6570 S   0  0  0  0  0  0
   14.1140   -5.4674   10.6752 F   0  0  0  0  0  0
   17.4082   -2.5129    8.9756 F   0  0  0  0  0  0
   19.3429   -3.6310   10.5541 F   0  0  0  0  0  0
   19.2381  -11.6119   12.6424 H   0  0  0  0  0  0
   17.9139  -13.2649   13.9180 H   0  0  0  0  0  0
   16.4318  -12.5155   15.7382 H   0  0  0  0  0  0
   19.1468   -9.2607   13.2007 H   0  0  0  0  0  0
   17.6177   -8.7962   17.6362 H   0  0  0  0  0  0
   14.9252   -7.3871   18.1792 H   0  0  0  0  0  0
   15.7516   -8.4324   19.3088 H   0  0  0  0  0  0
   16.6620   -5.2634   20.4739 H   0  0  0  0  0  0
   18.7093   -6.2547   15.0904 H   0  0  0  0  0  0
   19.5120   -7.4964   14.2579 H   0  0  0  0  0  0
   15.0455   -3.5594    9.1569 H   0  0  0  0  0  0
  1  6  1  0  0  0
  1  2  2  0  0  0
  1 29  1  0  0  0
  2  3  1  0  0  0
  2 30  1  0  0  0
  3  4  2  0  0  0
  3 31  1  0  0  0
  4 11  1  0  0  0
  4  5  1  0  0  0
  5  6  2  0  0  0
  5  7  1  0  0  0
  6 32  1  0  0  0
  7  8  1  0  0  0
  7 16  1  0  0  0
  8  9  2  0  0  0
  8 10  1  0  0  0
 10 11  1  0  0  0
 10 12  1  0  0  0
 10 33  1  0  0  0
 12 13  1  0  0  0
 12 34  1  0  0  0
 12 35  1  0  0  0
 13 14  2  0  0  0
 13 15  1  0  0  0
 15 36  1  0  0  0
 16 17  1  0  0  0
 16 37  1  0  0  0
 16 38  1  0  0  0
 17 25  1  0  0  0
 17 18  2  0  0  0
 18 19  1  0  0  0
 19 24  2  0  0  0
 19 20  1  0  0  0
 20 21  2  0  0  0
 20 28  1  0  0  0
 21 22  1  0  0  0
 21 27  1  0  0  0
 22 23  2  0  0  0
 22 39  1  0  0  0
 23 24  1  0  0  0
 23 26  1  0  0  0
 24 25  1  0  0  0
M  END
> <s_m_entry_id>
6910

> <s_m_entry_name>
ligand_docking-pose.52

> <s_m_Source_Path>
/home/csk/Desktop/cluster/DUD-E-result/aldr

> <s_m_Source_File>
ligand_docking-pose.sdf

> <i_m_Source_File_Index>
52

> <i_lp_mmshare_version>
53161

> <r_lp_tautomer_probability>
1

> <s_lp_Force_Field>
OPLS_2005

> <r_lp_Energy>
25.056817

> <b_lp_Chiralities_Consistent>
1

> <s_lp_Variant>
69185-2

> <s_i_glide_gridfile>
glide-grid_2hv5

> <i_i_glide_lignum>
271

> <i_i_glide_rotatable_bonds>
5

> <r_i_docking_score>
-10.2461557125176

> <r_i_glide_ligand_efficiency>
-0.365934132589916

> <r_i_glide_ligand_efficiency_sa>
-1.11119155022119

> <r_i_glide_ligand_efficiency_ln>
-2.36511357865311

> <r_i_glide_gscore>
-10.2461557125176

> <r_i_glide_lipo>
-4.52138081809125

> <r_i_glide_hbond>
-0.0319357954954295

> <r_i_glide_metal>
0

> <r_i_glide_rewards>
-2.99111776189539

> <r_i_glide_evdw>
-45.4715461730957

> <r_i_glide_ecoul>
-5.58228492736816

> <r_i_glide_erotb>
0.44030468303559

> <r_i_glide_esite>
-0.0311059723111504

> <r_i_glide_emodel>
-72.9298264426903

> <r_i_glide_energy>
-51.0538311004639

> <r_i_glide_einternal>
9.56683921813965

> <i_i_glide_confnum>
8

> <i_i_glide_posenum>
156

> <r_i_glide_eff_state_penalty>
0

> <i_f3d_flags>
0

> <s_user_duplicate_titles>
69185

> <s_m_subgroup_title>
dock_pv

> <s_m_subgroupid>
dock_pv1

> <b_m_subgroup_collapsed>
0

$$$$
69323
                    3D
 Schrodinger Suite 2021-1.
 33 35  0  0  1  0            999 V2000
   16.9773   -9.0296   15.5183 C   0  0  0  0  0  0
   17.5885   -7.7739   15.6251 C   0  0  0  0  0  0
   17.2983   -6.9697   16.7305 C   0  0  0  0  0  0
   16.4107   -7.4066   17.7144 C   0  0  0  0  0  0
   15.7910   -8.6506   17.5904 C   0  0  0  0  0  0
   16.0694   -9.4707   16.4908 C   0  0  0  0  0  0
   15.3479  -10.8099   16.3255 C   0  0  0  0  0  0
   15.6661  -11.8113   17.4467 C   0  0  0  0  0  0
   16.8138  -12.1022   17.7797 O   0  0  0  0  0  0
   14.5445  -12.3147   18.0400 O   0  0  0  0  0  0
   16.0684   -6.3975   19.0732 Cl  0  0  0  0  0  0
   18.5321   -7.2631   14.5279 C   0  0  0  0  0  0
   17.8363   -6.5390   13.3778 C   0  0  0  0  0  0
   18.4709   -5.7148   12.5811 N   0  0  0  0  0  0
   17.6546   -5.1519   11.6401 C   0  0  0  0  0  0
   18.0213   -4.1887   10.6760 C   0  0  0  0  0  0
   17.0291   -3.6850    9.8307 C   0  0  0  0  0  0
   15.7087   -4.1186    9.9206 C   0  0  0  0  0  0
   15.3302   -5.0708   10.8603 C   0  0  0  0  0  0
   16.3093   -5.5835   11.7083 C   0  0  0  0  0  0
   16.1464   -6.7587   12.9891 S   0  0  0  0  0  0
   14.0418   -5.4619   10.9712 F   0  0  0  0  0  0
   17.3450   -2.7319    8.9281 F   0  0  0  0  0  0
   19.2887   -3.7171   10.5781 F   0  0  0  0  0  0
   17.1877   -9.6515   14.6609 H   0  0  0  0  0  0
   17.7447   -5.9949   16.8298 H   0  0  0  0  0  0
   15.0975   -8.9773   18.3515 H   0  0  0  0  0  0
   15.6345  -11.2802   15.3842 H   0  0  0  0  0  0
   14.2747  -10.6214   16.2592 H   0  0  0  0  0  0
   13.7142  -11.9953   17.6782 H   0  0  0  0  0  0
   19.2797   -6.6112   14.9835 H   0  0  0  0  0  0
   19.0898   -8.1140   14.1303 H   0  0  0  0  0  0
   14.9490   -3.7016    9.2710 H   0  0  0  0  0  0
  1  6  1  0  0  0
  1  2  2  0  0  0
  1 25  1  0  0  0
  2  3  1  0  0  0
  2 12  1  0  0  0
  3  4  2  0  0  0
  3 26  1  0  0  0
  4  5  1  0  0  0
  4 11  1  0  0  0
  5  6  2  0  0  0
  5 27  1  0  0  0
  6  7  1  0  0  0
  7  8  1  0  0  0
  7 28  1  0  0  0
  7 29  1  0  0  0
  8  9  2  0  0  0
  8 10  1  0  0  0
 10 30  1  0  0  0
 12 13  1  0  0  0
 12 31  1  0  0  0
 12 32  1  0  0  0
 13 21  1  0  0  0
 13 14  2  0  0  0
 14 15  1  0  0  0
 15 20  2  0  0  0
 15 16  1  0  0  0
 16 17  2  0  0  0
 16 24  1  0  0  0
 17 18  1  0  0  0
 17 23  1  0  0  0
 18 19  2  0  0  0
 18 33  1  0  0  0
 19 20  1  0  0  0
 19 22  1  0  0  0
 20 21  1  0  0  0
M  END
> <s_m_entry_id>
6916

> <s_m_entry_name>
ligand_docking-pose.58

> <s_m_Source_Path>
/home/csk/Desktop/cluster/DUD-E-result/aldr

> <s_m_Source_File>
ligand_docking-pose.sdf

> <i_m_Source_File_Index>
58

> <i_lp_mmshare_version>
53161

> <r_lp_tautomer_probability>
1

> <s_lp_Force_Field>
OPLS_2005

> <r_lp_Energy>
10.944139

> <b_lp_Chiralities_Consistent>
1

> <s_lp_Variant>
69323-1

> <s_i_glide_gridfile>
glide-grid_2hv5

> <i_i_glide_lignum>
352

> <i_i_glide_rotatable_bonds>
5

> <r_i_docking_score>
-10.178334169752

> <r_i_glide_ligand_efficiency>
-0.424097257073001

> <r_i_glide_ligand_efficiency_sa>
-1.22330817226826

> <r_i_glide_ligand_efficiency_ln>
-2.43614242014311

> <r_i_glide_gscore>
-10.178334169752

> <r_i_glide_lipo>
-4.86091233660759

> <r_i_glide_hbond>
-0.297985905461278

> <r_i_glide_metal>
0

> <r_i_glide_rewards>
-2.50821579415382

> <r_i_glide_evdw>
-40.8671493530273

> <r_i_glide_ecoul>
-6.60724592208862

> <r_i_glide_erotb>
0.558776302736077

> <r_i_glide_esite>
-0.0355520803007575

> <r_i_glide_emodel>
-75.7983923767359

> <r_i_glide_energy>
-47.474395275116

> <r_i_glide_einternal>
0.934238493442535

> <i_i_glide_confnum>
3

> <i_i_glide_posenum>
395

> <r_i_glide_eff_state_penalty>
0

> <i_f3d_flags>
0

> <s_user_duplicate_titles>
69323

> <s_m_subgroup_title>
dock_pv

> <s_m_subgroupid>
dock_pv1

> <b_m_subgroup_collapsed>
0

$$$$
69184
                    3D
 Schrodinger Suite 2021-1.
 33 35  0  0  1  0            999 V2000
   17.4697  -10.9234   14.9851 C   0  0  0  0  0  0
   16.7914  -10.7362   16.1855 C   0  0  0  0  0  0
   16.7793   -9.4807   16.7882 C   0  0  0  0  0  0
   17.4302   -8.3857   16.1975 C   0  0  0  0  0  0
   18.1446   -8.5883   14.9947 C   0  0  0  0  0  0
   18.1458   -9.8567   14.3983 C   0  0  0  0  0  0
   18.8977   -7.4615   14.2787 C   0  0  0  0  0  0
   18.0365   -6.6530   13.3190 C   0  0  0  0  0  0
   18.5451   -5.7149   12.5697 N   0  0  0  0  0  0
   17.6543   -5.2061   11.6763 C   0  0  0  0  0  0
   17.9368   -4.2417   10.6917 C   0  0  0  0  0  0
   16.8992   -3.8321    9.8540 C   0  0  0  0  0  0
   15.6186   -4.3626    9.9820 C   0  0  0  0  0  0
   15.3151   -5.3121   10.9531 C   0  0  0  0  0  0
   16.3475   -5.7346   11.7923 C   0  0  0  0  0  0
   16.3253   -6.9148   13.0793 S   0  0  0  0  0  0
   14.0649   -5.8151   11.0563 F   0  0  0  0  0  0
   17.1378   -2.9061    8.8984 F   0  0  0  0  0  0
   19.1761   -3.7152   10.5464 F   0  0  0  0  0  0
   17.3978   -7.0217   16.9050 C   0  0  0  0  0  0
   15.9958   -6.5817   17.3488 C   0  0  0  0  0  0
   15.0346   -6.5150   16.5834 O   0  0  0  0  0  0
   15.9607   -6.2665   18.6761 O   0  0  0  0  0  0
   17.4785  -11.8954   14.5127 H   0  0  0  0  0  0
   16.2703  -11.5619   16.6481 H   0  0  0  0  0  0
   16.2456   -9.3624   17.7208 H   0  0  0  0  0  0
   18.6720  -10.0154   13.4669 H   0  0  0  0  0  0
   19.3929   -6.8152   15.0040 H   0  0  0  0  0  0
   19.7287   -7.9025   13.7250 H   0  0  0  0  0  0
   14.8427   -4.0399    9.3072 H   0  0  0  0  0  0
   18.0936   -7.0564   17.7440 H   0  0  0  0  0  0
   17.7450   -6.2217   16.2576 H   0  0  0  0  0  0
   16.8117   -6.3925   19.0987 H   0  0  0  0  0  0
  1  6  1  0  0  0
  1  2  2  0  0  0
  1 24  1  0  0  0
  2  3  1  0  0  0
  2 25  1  0  0  0
  3  4  2  0  0  0
  3 26  1  0  0  0
  4  5  1  0  0  0
  4 20  1  0  0  0
  5  6  2  0  0  0
  5  7  1  0  0  0
  6 27  1  0  0  0
  7  8  1  0  0  0
  7 28  1  0  0  0
  7 29  1  0  0  0
  8 16  1  0  0  0
  8  9  2  0  0  0
  9 10  1  0  0  0
 10 15  2  0  0  0
 10 11  1  0  0  0
 11 12  2  0  0  0
 11 19  1  0  0  0
 12 13  1  0  0  0
 12 18  1  0  0  0
 13 14  2  0  0  0
 13 30  1  0  0  0
 14 15  1  0  0  0
 14 17  1  0  0  0
 15 16  1  0  0  0
 20 21  1  0  0  0
 20 31  1  0  0  0
 20 32  1  0  0  0
 21 22  2  0  0  0
 21 23  1  0  0  0
 23 33  1  0  0  0
M  END
> <s_m_entry_id>
6938

> <s_m_entry_name>
ligand_docking-pose.80

> <s_m_Source_Path>
/home/csk/Desktop/cluster/DUD-E-result/aldr

> <s_m_Source_File>
ligand_docking-pose.sdf

> <i_m_Source_File_Index>
80

> <i_lp_mmshare_version>
53161

> <r_lp_tautomer_probability>
1

> <s_lp_Force_Field>
OPLS_2005

> <r_lp_Energy>
12.870693

> <b_lp_Chiralities_Consistent>
1

> <s_lp_Variant>
69184-1

> <s_i_glide_gridfile>
glide-grid_2hv5

> <i_i_glide_lignum>
343

> <i_i_glide_rotatable_bonds>
5

> <r_i_docking_score>
-10.0586034555623

> <r_i_glide_ligand_efficiency>
-0.43733058502445

> <r_i_glide_ligand_efficiency_sa>
-1.24371000873032

> <r_i_glide_ligand_efficiency_ln>
-2.4322615219285

> <r_i_glide_gscore>
-10.0586034555623

> <r_i_glide_lipo>
-4.31573109336285

> <r_i_glide_hbond>
-0.32

> <r_i_glide_metal>
0

> <r_i_glide_rewards>
-2.98730346263463

> <r_i_glide_evdw>
-40.2321701049805

> <r_i_glide_ecoul>
-7.14468908309937

> <r_i_glide_erotb>
0.664340580482263

> <r_i_glide_esite>
-0.0165976123332061

> <r_i_glide_emodel>
-74.1079845616605

> <r_i_glide_energy>
-47.3768591880798

> <r_i_glide_einternal>
2.57376313209534

> <i_i_glide_confnum>
13

> <i_i_glide_posenum>
84

> <r_i_glide_eff_state_penalty>
0

> <i_f3d_flags>
0

> <s_user_duplicate_titles>
69184

> <s_m_subgroup_title>
dock_pv

> <s_m_subgroupid>
dock_pv1

> <b_m_subgroup_collapsed>
0

$$$$
68819
                    3D
 Schrodinger Suite 2021-1.
 43 45  0  0  1  0            999 V2000
   16.1658  -13.3132   18.9856 C   0  0  0  0  0  0
   14.9432  -12.6549   18.8878 C   0  0  0  0  0  0
   14.7924  -11.6112   17.9799 C   0  0  0  0  0  0
   15.8671  -11.2298   17.1702 C   0  0  0  0  0  0
   17.0902  -11.8983   17.2718 C   0  0  0  0  0  0
   17.2408  -12.9417   18.1814 C   0  0  0  0  0  0
   15.6782  -10.1105   16.1509 C   0  0  0  0  0  0
   16.6227   -8.9682   16.2708 N   0  0  0  0  0  0
   16.4815   -8.1663   17.5124 C   0  0  0  0  0  0
   15.3166   -7.1801   17.3657 C   0  0  0  0  0  0
   15.4455   -6.0252   16.9808 O   0  0  0  0  0  0
   14.1450   -7.7154   17.7806 O   0  0  0  0  0  0
   17.6299   -8.7245   15.3426 C   0  0  0  0  0  0
   18.1450   -9.8332   14.1806 S   0  0  0  0  0  0
   18.2785   -7.3173   15.4458 C   0  0  0  0  0  0
   19.0338   -6.7252   14.2179 C   0  0  0  0  0  0
   18.1262   -6.2230   13.1041 C   0  0  0  0  0  0
   18.5449   -5.3502   12.2309 N   0  0  0  0  0  0
   17.5746   -4.9698   11.3637 C   0  0  0  0  0  0
   17.7256   -4.0221   10.3389 C   0  0  0  0  0  0
   16.6071   -3.7154    9.5626 C   0  0  0  0  0  0
   15.3876   -4.3562    9.7791 C   0  0  0  0  0  0
   15.2226   -5.3097   10.7782 C   0  0  0  0  0  0
   16.3275   -5.6015   11.5687 C   0  0  0  0  0  0
   16.4509   -6.6926   12.9145 S   0  0  0  0  0  0
   14.0269   -5.9042   10.9876 F   0  0  0  0  0  0
   16.7061   -2.7909    8.5823 F   0  0  0  0  0  0
   18.9116   -3.4046   10.1159 F   0  0  0  0  0  0
   16.2809  -14.1141   19.6986 H   0  0  0  0  0  0
   14.1120  -12.9561   19.5094 H   0  0  0  0  0  0
   13.8381  -11.1100   17.9066 H   0  0  0  0  0  0
   17.9258  -11.6217   16.6463 H   0  0  0  0  0  0
   18.1835  -13.4624   18.2601 H   0  0  0  0  0  0
   15.6783  -10.5630   15.1604 H   0  0  0  0  0  0
   14.6662   -9.7190   16.2494 H   0  0  0  0  0  0
   16.2829   -8.8267   18.3578 H   0  0  0  0  0  0
   17.3819   -7.6217   17.7918 H   0  0  0  0  0  0
   13.4295   -7.0713   17.7550 H   0  0  0  0  0  0
   17.5136   -6.5866   15.6954 H   0  0  0  0  0  0
   18.9448   -7.3137   16.3005 H   0  0  0  0  0  0
   19.6291   -5.8835   14.5761 H   0  0  0  0  0  0
   19.7762   -7.4235   13.8314 H   0  0  0  0  0  0
   14.5462   -4.1151    9.1526 H   0  0  0  0  0  0
  1  6  1  0  0  0
  1  2  2  0  0  0
  1 29  1  0  0  0
  2  3  1  0  0  0
  2 30  1  0  0  0
  3  4  2  0  0  0
  3 31  1  0  0  0
  4  5  1  0  0  0
  4  7  1  0  0  0
  5  6  2  0  0  0
  5 32  1  0  0  0
  6 33  1  0  0  0
  7  8  1  0  0  0
  7 34  1  0  0  0
  7 35  1  0  0  0
  8  9  1  0  0  0
  8 13  1  0  0  0
  9 10  1  0  0  0
  9 36  1  0  0  0
  9 37  1  0  0  0
 10 11  2  0  0  0
 10 12  1  0  0  0
 12 38  1  0  0  0
 13 14  2  0  0  0
 13 15  1  0  0  0
 15 16  1  0  0  0
 15 39  1  0  0  0
 15 40  1  0  0  0
 16 17  1  0  0  0
 16 41  1  0  0  0
 16 42  1  0  0  0
 17 25  1  0  0  0
 17 18  2  0  0  0
 18 19  1  0  0  0
 19 24  2  0  0  0
 19 20  1  0  0  0
 20 21  2  0  0  0
 20 28  1  0  0  0
 21 22  1  0  0  0
 21 27  1  0  0  0
 22 23  2  0  0  0
 22 43  1  0  0  0
 23 24  1  0  0  0
 23 26  1  0  0  0
 24 25  1  0  0  0
M  END
> <s_m_entry_id>
6944

> <s_m_entry_name>
ligand_docking-pose.86

> <s_m_Source_Path>
/home/csk/Desktop/cluster/DUD-E-result/aldr

> <s_m_Source_File>
ligand_docking-pose.sdf

> <i_m_Source_File_Index>
86

> <i_lp_mmshare_version>
53161

> <r_lp_tautomer_probability>
1

> <s_lp_Force_Field>
OPLS_2005

> <r_lp_Energy>
15.186148

> <b_lp_Chiralities_Consistent>
1

> <s_lp_Variant>
68819-1

> <s_i_glide_gridfile>
glide-grid_2hv5

> <i_i_glide_lignum>
404

> <i_i_glide_rotatable_bonds>
9

> <r_i_docking_score>
-10.017063009583

> <r_i_glide_ligand_efficiency>
-0.357752250342251

> <r_i_glide_ligand_efficiency_sa>
-1.08634653684634

> <r_i_glide_ligand_efficiency_ln>
-2.31223225636176

> <r_i_glide_gscore>
-10.017063009583

> <r_i_glide_lipo>
-3.6926639640796

> <r_i_glide_hbond>
-0.275181037994293

> <r_i_glide_metal>
0

> <r_i_glide_rewards>
-3.15457811074387

> <r_i_glide_evdw>
-44.0274505615234

> <r_i_glide_ecoul>
-9.02402114868164

> <r_i_glide_erotb>
0.660335803613168

> <r_i_glide_esite>
0

> <r_i_glide_emodel>
-76.1093942581216

> <r_i_glide_energy>
-53.0514717102051

> <r_i_glide_einternal>
6.08832883834839

> <i_i_glide_confnum>
1

> <i_i_glide_posenum>
352

> <r_i_glide_eff_state_penalty>
0

> <i_f3d_flags>
0

> <s_user_duplicate_titles>
68819

> <s_m_subgroup_title>
dock_pv

> <s_m_subgroupid>
dock_pv1

> <b_m_subgroup_collapsed>
0

$$$$
69290
                    3D
 Schrodinger Suite 2021-1.
 33 35  0  0  1  0            999 V2000
   16.9729   -9.0380   15.5040 C   0  0  0  0  0  0
   17.5879   -7.7780   15.5726 C   0  0  0  0  0  0
   17.2809   -6.9302   16.6408 C   0  0  0  0  0  0
   16.3661   -7.3164   17.6174 C   0  0  0  0  0  0
   15.7342   -8.5560   17.5247 C   0  0  0  0  0  0
   16.0304   -9.4255   16.4683 C   0  0  0  0  0  0
   15.3092  -10.7704   16.3624 C   0  0  0  0  0  0
   15.7025  -11.7469   17.4813 C   0  0  0  0  0  0
   16.8693  -11.9879   17.7814 O   0  0  0  0  0  0
   14.6184  -12.3006   18.1018 O   0  0  0  0  0  0
   15.9636   -6.1402   19.0604 Br  0  0  0  0  0  0
   18.5390   -7.3032   14.4663 C   0  0  0  0  0  0
   17.8443   -6.5374   13.3403 C   0  0  0  0  0  0
   18.4850   -5.7141   12.5485 N   0  0  0  0  0  0
   17.6700   -5.1350   11.6166 C   0  0  0  0  0  0
   18.0485   -4.1716   10.6586 C   0  0  0  0  0  0
   17.0659   -3.6610    9.8061 C   0  0  0  0  0  0
   15.7467   -4.0956    9.8754 C   0  0  0  0  0  0
   15.3475   -5.0413   10.8138 C   0  0  0  0  0  0
   16.3192   -5.5582   11.6775 C   0  0  0  0  0  0
   16.1455   -6.7183   12.9678 S   0  0  0  0  0  0
   14.0542   -5.4214   10.8993 F   0  0  0  0  0  0
   17.3857   -2.7056    8.9064 F   0  0  0  0  0  0
   19.3205   -3.7161   10.5711 F   0  0  0  0  0  0
   17.2097   -9.7021   14.6856 H   0  0  0  0  0  0
   17.7444   -5.9588   16.7129 H   0  0  0  0  0  0
   15.0109   -8.8372   18.2758 H   0  0  0  0  0  0
   15.5509  -11.2508   15.4159 H   0  0  0  0  0  0
   14.2340  -10.5950   16.3522 H   0  0  0  0  0  0
   13.7679  -12.0261   17.7573 H   0  0  0  0  0  0
   19.3238   -6.6837   14.9065 H   0  0  0  0  0  0
   19.0533   -8.1709   14.0482 H   0  0  0  0  0  0
   15.0078   -3.6784    9.2032 H   0  0  0  0  0  0
  1  6  1  0  0  0
  1  2  2  0  0  0
  1 25  1  0  0  0
  2  3  1  0  0  0
  2 12  1  0  0  0
  3  4  2  0  0  0
  3 26  1  0  0  0
  4  5  1  0  0  0
  4 11  1  0  0  0
  5  6  2  0  0  0
  5 27  1  0  0  0
  6  7  1  0  0  0
  7  8  1  0  0  0
  7 28  1  0  0  0
  7 29  1  0  0  0
  8  9  2  0  0  0
  8 10  1  0  0  0
 10 30  1  0  0  0
 12 13  1  0  0  0
 12 31  1  0  0  0
 12 32  1  0  0  0
 13 21  1  0  0  0
 13 14  2  0  0  0
 14 15  1  0  0  0
 15 20  2  0  0  0
 15 16  1  0  0  0
 16 17  2  0  0  0
 16 24  1  0  0  0
 17 18  1  0  0  0
 17 23  1  0  0  0
 18 19  2  0  0  0
 18 33  1  0  0  0
 19 20  1  0  0  0
 19 22  1  0  0  0
 20 21  1  0  0  0
M  END
> <s_m_entry_id>
6950

> <s_m_entry_name>
ligand_docking-pose.92

> <s_m_Source_Path>
/home/csk/Desktop/cluster/DUD-E-result/aldr

> <s_m_Source_File>
ligand_docking-pose.sdf

> <i_m_Source_File_Index>
92

> <i_lp_mmshare_version>
53161

> <r_lp_tautomer_probability>
1

> <s_lp_Force_Field>
OPLS_2005

> <r_lp_Energy>
10.688271

> <b_lp_Chiralities_Consistent>
1

> <s_lp_Variant>
69290-1

> <s_i_glide_gridfile>
glide-grid_2hv5

> <i_i_glide_lignum>
350

> <i_i_glide_rotatable_bonds>
5

> <r_i_docking_score>
-9.95824270321834

> <r_i_glide_ligand_efficiency>
-0.414926779300764

> <r_i_glide_ligand_efficiency_sa>
-1.19685593704324

> <r_i_glide_ligand_efficiency_ln>
-2.38346443286228

> <r_i_glide_gscore>
-9.95824270321834

> <r_i_glide_lipo>
-4.79744633484912

> <r_i_glide_hbond>
-0.314265541129647

> <r_i_glide_metal>
0

> <r_i_glide_rewards>
-2.16732736921152

> <r_i_glide_evdw>
-41.1400032043457

> <r_i_glide_ecoul>
-6.91442918777466

> <r_i_glide_erotb>
0.456121771117548

> <r_i_glide_esite>
-0.0411606907621214

> <r_i_glide_emodel>
-76.3133419986742

> <r_i_glide_energy>
-48.0544323921204

> <r_i_glide_einternal>
0.725421011447906

> <i_i_glide_confnum>
3

> <i_i_glide_posenum>
352

> <r_i_glide_eff_state_penalty>
0

> <i_f3d_flags>
0

> <s_user_duplicate_titles>
69290

> <s_m_subgroup_title>
dock_pv

> <s_m_subgroupid>
dock_pv1

> <b_m_subgroup_collapsed>
0

$$$$
219047
                    3D
 Schrodinger Suite 2021-1.
 40 43  0  0  1  0            999 V2000
   16.8792   -3.6072    9.8440 C   0  0  0  0  0  0
   18.0571   -3.9022   10.5257 C   0  0  0  0  0  0
   18.1388   -5.0665   11.2852 C   0  0  0  0  0  0
   17.0564   -5.9481   11.3525 C   0  0  0  0  0  0
   15.8746   -5.6331   10.6749 C   0  0  0  0  0  0
   15.7841   -4.4630    9.9245 C   0  0  0  0  0  0
   17.1321   -7.2504   12.1523 C   0  0  0  0  0  0
   18.1410   -7.2648   13.3287 C   0  0  0  0  0  0
   17.7251   -8.1844   14.4202 N   0  0  0  0  0  0
   18.1450   -9.4920   14.3086 C   0  0  0  0  0  0
   18.8582   -9.8874   13.3832 O   0  0  0  0  0  0
   17.6677  -10.3462   15.3785 C   0  0  0  0  0  0
   17.8411  -11.7140   15.5840 C   0  0  0  0  0  0
   17.2029  -12.0756   16.7671 C   0  0  0  0  0  0
   16.6320  -10.9236   17.2669 C   0  0  0  0  0  0
   16.9136   -9.8616   16.4292 N   0  0  0  0  0  0
   16.4625   -8.4675   16.5473 C   0  0  2  0  0  0
   16.8273   -7.6196   15.2912 C   0  0  0  0  0  0
   16.3014   -6.5169   15.1099 O   0  0  0  0  0  0
   16.9650   -7.7266   17.7793 C   0  0  0  0  0  0
   15.7456   -6.9874   18.3027 C   0  0  0  0  0  0
   15.7477   -6.1162   19.1691 O   0  0  0  0  0  0
   14.6708   -7.4769   17.6552 N   0  0  0  0  0  0
   14.9479   -8.4257   16.7421 C   0  0  0  0  0  0
   14.1444   -9.1191   16.1324 O   0  0  0  0  0  0
   16.8077   -2.7020    9.2587 H   0  0  0  0  0  0
   18.8975   -3.2263   10.4737 H   0  0  0  0  0  0
   19.0478   -5.2920   11.8148 H   0  0  0  0  0  0
   15.0229   -6.2958   10.7259 H   0  0  0  0  0  0
   14.8716   -4.2227    9.4002 H   0  0  0  0  0  0
   16.1308   -7.4139   12.5549 H   0  0  0  0  0  0
   17.3459   -8.1017   11.4980 H   0  0  0  0  0  0
   19.1418   -7.5231   12.9808 H   0  0  0  0  0  0
   18.2663   -6.2545   13.7244 H   0  0  0  0  0  0
   18.3842  -12.3816   14.9294 H   0  0  0  0  0  0
   17.1484  -13.0675   17.1932 H   0  0  0  0  0  0
   16.0169  -10.7630   18.1408 H   0  0  0  0  0  0
   17.2877   -8.4162   18.5496 H   0  0  0  0  0  0
   17.7889   -7.0294   17.6066 H   0  0  0  0  0  0
   13.7253   -7.1966   17.8742 H   0  0  0  0  0  0
  1  6  1  0  0  0
  1  2  2  0  0  0
  1 26  1  0  0  0
  2  3  1  0  0  0
  2 27  1  0  0  0
  3  4  2  0  0  0
  3 28  1  0  0  0
  4  5  1  0  0  0
  4  7  1  0  0  0
  5  6  2  0  0  0
  5 29  1  0  0  0
  6 30  1  0  0  0
  7  8  1  0  0  0
  7 31  1  0  0  0
  7 32  1  0  0  0
  8  9  1  0  0  0
  8 33  1  0  0  0
  8 34  1  0  0  0
  9 18  1  0  0  0
  9 10  1  0  0  0
 10 11  2  0  0  0
 10 12  1  0  0  0
 12 16  1  0  0  0
 12 13  2  0  0  0
 13 14  1  0  0  0
 13 35  1  0  0  0
 14 15  2  0  0  0
 14 36  1  0  0  0
 15 16  1  0  0  0
 15 37  1  0  0  0
 16 17  1  0  0  0
 17 24  1  0  0  0
 17 18  1  0  0  0
 17 20  1  0  0  0
 18 19  2  0  0  0
 20 21  1  0  0  0
 20 38  1  0  0  0
 20 39  1  0  0  0
 21 22  2  0  0  0
 21 23  1  0  0  0
 23 24  1  0  0  0
 23 40  1  0  0  0
 24 25  2  0  0  0
M  END
> <s_m_entry_id>
6958

> <s_m_entry_name>
ligand_docking-pose.100

> <s_m_Source_Path>
/home/csk/Desktop/cluster/DUD-E-result/aldr

> <s_m_Source_File>
ligand_docking-pose.sdf

> <i_m_Source_File_Index>
100

> <i_lp_mmshare_version>
53161

> <r_lp_tautomer_probability>
0.99995

> <s_lp_Force_Field>
OPLS_2005

> <r_lp_Energy>
33.344638

> <b_lp_Chiralities_Consistent>
1

> <s_lp_Variant>
219047-2

> <s_i_glide_gridfile>
glide-grid_2hv5

> <i_i_glide_lignum>
348

> <i_i_glide_rotatable_bonds>
3

> <r_i_docking_score>
-9.89832057242606

> <r_i_glide_ligand_efficiency>
-0.395932822897043

> <r_i_glide_ligand_efficiency_sa>
-1.15771459604947

> <r_i_glide_ligand_efficiency_ln>
-2.34619860439606

> <r_i_glide_gscore>
-9.89832057242606

> <r_i_glide_lipo>
-3.32811114979138

> <r_i_glide_hbond>
-0.0682728564591391

> <r_i_glide_metal>
0

> <r_i_glide_rewards>
-4.48860765221404

> <r_i_glide_evdw>
-42.0353775024414

> <r_i_glide_ecoul>
-1.73544466495514

> <r_i_glide_erotb>
0.348756660903836

> <r_i_glide_esite>
0

> <r_i_glide_emodel>
-62.9736692378216

> <r_i_glide_energy>
-43.7708221673965

> <r_i_glide_einternal>
5.45311546325684

> <i_i_glide_confnum>
10

> <i_i_glide_posenum>
71

> <r_i_glide_eff_state_penalty>
0

> <i_f3d_flags>
0

> <s_user_duplicate_titles>
219047

> <s_m_subgroup_title>
dock_pv

> <s_m_subgroupid>
dock_pv1

> <b_m_subgroup_collapsed>
0

$$$$
69322
                    3D
 Schrodinger Suite 2021-1.
 33 35  0  0  1  0            999 V2000
   16.9275   -9.0577   15.4999 C   0  0  0  0  0  0
   17.5918   -7.8260   15.5772 C   0  0  0  0  0  0
   17.3453   -6.9943   16.6731 C   0  0  0  0  0  0
   16.4476   -7.3676   17.6692 C   0  0  0  0  0  0
   15.7596   -8.5735   17.5634 C   0  0  0  0  0  0
   15.9938   -9.4297   16.4801 C   0  0  0  0  0  0
   15.2278  -10.7497   16.3771 C   0  0  0  0  0  0
   15.6226  -11.7461   17.4781 C   0  0  0  0  0  0
   16.7919  -11.9794   17.7802 O   0  0  0  0  0  0
   14.5466  -12.3247   18.0856 O   0  0  0  0  0  0
   16.1444   -6.1154   19.3183 I   0  0  0  0  0  0
   18.5374   -7.3577   14.4629 C   0  0  0  0  0  0
   17.8491   -6.5640   13.3562 C   0  0  0  0  0  0
   18.4829   -5.7223   12.5809 N   0  0  0  0  0  0
   17.6683   -5.1447   11.6455 C   0  0  0  0  0  0
   18.0437   -4.1829   10.6836 C   0  0  0  0  0  0
   17.0578   -3.6733    9.8351 C   0  0  0  0  0  0
   15.7396   -4.1109    9.9094 C   0  0  0  0  0  0
   15.3455   -5.0589   10.8465 C   0  0  0  0  0  0
   16.3210   -5.5721   11.7055 C   0  0  0  0  0  0
   16.1545   -6.7469   12.9816 S   0  0  0  0  0  0
   14.0553   -5.4511   10.9334 F   0  0  0  0  0  0
   17.3767   -2.7176    8.9370 F   0  0  0  0  0  0
   19.3144   -3.7255   10.5807 F   0  0  0  0  0  0
   17.1188   -9.7124   14.6611 H   0  0  0  0  0  0
   17.8518   -6.0503   16.7547 H   0  0  0  0  0  0
   15.0499   -8.8489   18.3296 H   0  0  0  0  0  0
   15.4294  -11.2229   15.4157 H   0  0  0  0  0  0
   14.1570  -10.5421   16.3973 H   0  0  0  0  0  0
   13.6825  -12.0440   17.7692 H   0  0  0  0  0  0
   19.3431   -6.7645   14.9007 H   0  0  0  0  0  0
   19.0220   -8.2331   14.0267 H   0  0  0  0  0  0
   14.9967   -3.6940    9.2442 H   0  0  0  0  0  0
  1  6  1  0  0  0
  1  2  2  0  0  0
  1 25  1  0  0  0
  2  3  1  0  0  0
  2 12  1  0  0  0
  3  4  2  0  0  0
  3 26  1  0  0  0
  4  5  1  0  0  0
  4 11  1  0  0  0
  5  6  2  0  0  0
  5 27  1  0  0  0
  6  7  1  0  0  0
  7  8  1  0  0  0
  7 28  1  0  0  0
  7 29  1  0  0  0
  8  9  2  0  0  0
  8 10  1  0  0  0
 10 30  1  0  0  0
 12 13  1  0  0  0
 12 31  1  0  0  0
 12 32  1  0  0  0
 13 21  1  0  0  0
 13 14  2  0  0  0
 14 15  1  0  0  0
 15 20  2  0  0  0
 15 16  1  0  0  0
 16 17  2  0  0  0
 16 24  1  0  0  0
 17 18  1  0  0  0
 17 23  1  0  0  0
 18 19  2  0  0  0
 18 33  1  0  0  0
 19 20  1  0  0  0
 19 22  1  0  0  0
 20 21  1  0  0  0
M  END
> <s_m_entry_id>
6962

> <s_m_entry_name>
ligand_docking-pose.104

> <s_m_Source_Path>
/home/csk/Desktop/cluster/DUD-E-result/aldr

> <s_m_Source_File>
ligand_docking-pose.sdf

> <i_m_Source_File_Index>
104

> <i_lp_mmshare_version>
53161

> <r_lp_tautomer_probability>
1

> <s_lp_Force_Field>
OPLS_2005

> <r_lp_Energy>
10.725477

> <b_lp_Chiralities_Consistent>
1

> <s_lp_Variant>
69322-1

> <s_i_glide_gridfile>
glide-grid_2hv5

> <i_i_glide_lignum>
356

> <i_i_glide_rotatable_bonds>
5

> <r_i_docking_score>
-9.87911245534804

> <r_i_glide_ligand_efficiency>
-0.411629685639501

> <r_i_glide_ligand_efficiency_sa>
-1.18734547322087

> <r_i_glide_ligand_efficiency_ln>
-2.36452493349644

> <r_i_glide_gscore>
-9.87911245534804

> <r_i_glide_lipo>
-4.84876491209788

> <r_i_glide_hbond>
-0.313219732699858

> <r_i_glide_metal>
0

> <r_i_glide_rewards>
-1.88808862467301

> <r_i_glide_evdw>
-42.4622421264648

> <r_i_glide_ecoul>
-6.9466667175293

> <r_i_glide_erotb>
0.37563948135907

> <r_i_glide_esite>
-0.0395665532837215

> <r_i_glide_emodel>
-77.9791526642986

> <r_i_glide_energy>
-49.4089088439941

> <r_i_glide_einternal>
0.681489050388336

> <i_i_glide_confnum>
3

> <i_i_glide_posenum>
222

> <r_i_glide_eff_state_penalty>
0

> <i_f3d_flags>
0

> <s_user_duplicate_titles>
69322

> <s_m_subgroup_title>
dock_pv

> <s_m_subgroupid>
dock_pv1

> <b_m_subgroup_collapsed>
0

$$$$
68497
                    3D
 Schrodinger Suite 2021-1.
 33 35  0  0  1  0            999 V2000
   17.7446   -9.6648   14.7703 C   0  0  0  0  0  0
   16.8711  -10.5620   15.3823 C   0  0  0  0  0  0
   15.9655  -10.1141   16.3501 C   0  0  0  0  0  0
   15.9852   -8.7734   16.7480 C   0  0  0  0  0  0
   16.8621   -7.8777   16.1413 C   0  0  0  0  0  0
   17.7221   -8.3143   15.1279 C   0  0  0  0  0  0
   18.5913   -7.3078   14.3726 C   0  0  0  0  0  0
   17.8640   -6.5483   13.2638 C   0  0  0  0  0  0
   18.4985   -5.7133   12.4866 N   0  0  0  0  0  0
   17.6792   -5.0992   11.5833 C   0  0  0  0  0  0
   18.0663   -4.1157   10.6519 C   0  0  0  0  0  0
   17.0863   -3.5552    9.8310 C   0  0  0  0  0  0
   15.7605   -3.9751    9.8972 C   0  0  0  0  0  0
   15.3546   -4.9455   10.8066 C   0  0  0  0  0  0
   16.3228   -5.4973   11.6515 C   0  0  0  0  0  0
   16.1451   -6.6706   12.9328 S   0  0  0  0  0  0
   14.0569   -5.3136   10.8866 F   0  0  0  0  0  0
   17.4164   -2.5616    8.9802 F   0  0  0  0  0  0
   19.3449   -3.6793   10.5711 F   0  0  0  0  0  0
   14.9392  -11.0766   16.9539 C   0  0  0  0  0  0
   15.5204  -12.0673   17.9711 C   0  0  0  0  0  0
   16.7228  -12.2182   18.1804 O   0  0  0  0  0  0
   14.5408  -12.7524   18.6241 O   0  0  0  0  0  0
   18.4116  -10.0157   13.9933 H   0  0  0  0  0  0
   16.8779  -11.5986   15.0782 H   0  0  0  0  0  0
   15.3002   -8.4161   17.5042 H   0  0  0  0  0  0
   16.8441   -6.8365   16.4307 H   0  0  0  0  0  0
   18.9834   -6.5904   15.0953 H   0  0  0  0  0  0
   19.4661   -7.8192   13.9646 H   0  0  0  0  0  0
   15.0223   -3.5203    9.2533 H   0  0  0  0  0  0
   14.4759  -11.6435   16.1449 H   0  0  0  0  0  0
   14.1446  -10.5090   17.4376 H   0  0  0  0  0  0
   13.6412  -12.5153   18.3736 H   0  0  0  0  0  0
  1  6  1  0  0  0
  1  2  2  0  0  0
  1 24  1  0  0  0
  2  3  1  0  0  0
  2 25  1  0  0  0
  3  4  2  0  0  0
  3 20  1  0  0  0
  4  5  1  0  0  0
  4 26  1  0  0  0
  5  6  2  0  0  0
  5 27  1  0  0  0
  6  7  1  0  0  0
  7  8  1  0  0  0
  7 28  1  0  0  0
  7 29  1  0  0  0
  8 16  1  0  0  0
  8  9  2  0  0  0
  9 10  1  0  0  0
 10 15  2  0  0  0
 10 11  1  0  0  0
 11 12  2  0  0  0
 11 19  1  0  0  0
 12 13  1  0  0  0
 12 18  1  0  0  0
 13 14  2  0  0  0
 13 30  1  0  0  0
 14 15  1  0  0  0
 14 17  1  0  0  0
 15 16  1  0  0  0
 20 21  1  0  0  0
 20 31  1  0  0  0
 20 32  1  0  0  0
 21 22  2  0  0  0
 21 23  1  0  0  0
 23 33  1  0  0  0
M  END
> <s_m_entry_id>
6975

> <s_m_entry_name>
ligand_docking-pose.117

> <s_m_Source_Path>
/home/csk/Desktop/cluster/DUD-E-result/aldr

> <s_m_Source_File>
ligand_docking-pose.sdf

> <i_m_Source_File_Index>
117

> <i_lp_mmshare_version>
53161

> <r_lp_tautomer_probability>
1

> <s_lp_Force_Field>
OPLS_2005

> <r_lp_Energy>
12.827869

> <b_lp_Chiralities_Consistent>
1

> <s_lp_Variant>
68497-1

> <s_i_glide_gridfile>
glide-grid_2hv5

> <i_i_glide_lignum>
342

> <i_i_glide_rotatable_bonds>
5

> <r_i_docking_score>
-9.80380721511716

> <r_i_glide_ligand_efficiency>
-0.42625248761379

> <r_i_glide_ligand_efficiency_sa>
-1.21220537333749

> <r_i_glide_ligand_efficiency_ln>
-2.37064948062428

> <r_i_glide_gscore>
-9.80380721511716

> <r_i_glide_lipo>
-4.31003858486519

> <r_i_glide_hbond>
-0.304897820173451

> <r_i_glide_metal>
0

> <r_i_glide_rewards>
-2.64823545705901

> <r_i_glide_evdw>
-36.3472747802734

> <r_i_glide_ecoul>
-8.91201305389404

> <r_i_glide_erotb>
0.664340580482263

> <r_i_glide_esite>
-0.0508102364039906

> <r_i_glide_emodel>
-71.3475162842815

> <r_i_glide_energy>
-45.2592878341675

> <r_i_glide_einternal>
0.780518531799316

> <i_i_glide_confnum>
13

> <i_i_glide_posenum>
133

> <r_i_glide_eff_state_penalty>
0

> <i_f3d_flags>
0

> <s_user_duplicate_titles>
68497

> <s_m_subgroup_title>
dock_pv

> <s_m_subgroupid>
dock_pv1

> <b_m_subgroup_collapsed>
0

$$$$
69230
                    3D
 Schrodinger Suite 2021-1.
 36 38  0  0  1  0            999 V2000
   16.4829  -11.6136   15.5921 C   0  0  0  0  0  0
   16.9217  -10.1734   15.7813 C   0  0  0  0  0  0
   17.6448   -9.5196   14.7806 C   0  0  0  0  0  0
   18.0468   -8.1932   14.9545 C   0  0  0  0  0  0
   17.7442   -7.5318   16.1444 C   0  0  0  0  0  0
   17.0279   -8.1758   17.1582 C   0  0  0  0  0  0
   16.6189   -9.4999   16.9676 C   0  0  0  0  0  0
   16.7839   -7.4856   18.4988 C   0  0  0  0  0  0
   16.1455   -6.0986   18.4183 C   0  0  0  0  0  0
   15.7451   -5.5768   17.3809 O   0  0  0  0  0  0
   16.0806   -5.5303   19.6567 O   0  0  0  0  0  0
   18.8195   -7.4658   13.8671 C   0  0  0  0  0  0
   17.9722   -6.5791   12.9687 C   0  0  0  0  0  0
   18.5448   -5.7051   12.1987 N   0  0  0  0  0  0
   17.6830   -5.0503   11.3835 C   0  0  0  0  0  0
   18.0419   -4.0522   10.4631 C   0  0  0  0  0  0
   17.0262   -3.4563    9.7194 C   0  0  0  0  0  0
   15.7038   -3.8683    9.8415 C   0  0  0  0  0  0
   15.3301   -4.8641   10.7401 C   0  0  0  0  0  0
   16.3328   -5.4435   11.5226 C   0  0  0  0  0  0
   16.2316   -6.6601   12.7823 S   0  0  0  0  0  0
   14.0351   -5.2276   10.8685 F   0  0  0  0  0  0
   17.3233   -2.4539    8.8681 F   0  0  0  0  0  0
   19.3280   -3.6562   10.3035 F   0  0  0  0  0  0
   16.6711  -12.1893   16.4988 H   0  0  0  0  0  0
   15.4150  -11.6586   15.3812 H   0  0  0  0  0  0
   17.0268  -12.1013   14.7827 H   0  0  0  0  0  0
   17.8815  -10.0365   13.8612 H   0  0  0  0  0  0
   18.0820   -6.5151   16.2839 H   0  0  0  0  0  0
   16.0753  -10.0126   17.7483 H   0  0  0  0  0  0
   17.7511   -7.3680   18.9819 H   0  0  0  0  0  0
   16.1691   -8.1155   19.1436 H   0  0  0  0  0  0
   16.5450   -6.0573   20.3108 H   0  0  0  0  0  0
   19.5993   -6.8671   14.3417 H   0  0  0  0  0  0
   19.3512   -8.2000   13.2603 H   0  0  0  0  0  0
   14.9450   -3.3883    9.2434 H   0  0  0  0  0  0
  1  2  1  0  0  0
  1 25  1  0  0  0
  1 26  1  0  0  0
  1 27  1  0  0  0
  2  7  1  0  0  0
  2  3  2  0  0  0
  3  4  1  0  0  0
  3 28  1  0  0  0
  4  5  2  0  0  0
  4 12  1  0  0  0
  5  6  1  0  0  0
  5 29  1  0  0  0
  6  7  2  0  0  0
  6  8  1  0  0  0
  7 30  1  0  0  0
  8  9  1  0  0  0
  8 31  1  0  0  0
  8 32  1  0  0  0
  9 10  2  0  0  0
  9 11  1  0  0  0
 11 33  1  0  0  0
 12 13  1  0  0  0
 12 34  1  0  0  0
 12 35  1  0  0  0
 13 21  1  0  0  0
 13 14  2  0  0  0
 14 15  1  0  0  0
 15 20  2  0  0  0
 15 16  1  0  0  0
 16 17  2  0  0  0
 16 24  1  0  0  0
 17 18  1  0  0  0
 17 23  1  0  0  0
 18 19  2  0  0  0
 18 36  1  0  0  0
 19 20  1  0  0  0
 19 22  1  0  0  0
 20 21  1  0  0  0
M  END
> <s_m_entry_id>
6987

> <s_m_entry_name>
ligand_docking-pose.129

> <s_m_Source_Path>
/home/csk/Desktop/cluster/DUD-E-result/aldr

> <s_m_Source_File>
ligand_docking-pose.sdf

> <i_m_Source_File_Index>
129

> <i_lp_mmshare_version>
53161

> <r_lp_tautomer_probability>
1

> <s_lp_Force_Field>
OPLS_2005

> <r_lp_Energy>
10.407944

> <b_lp_Chiralities_Consistent>
1

> <s_lp_Variant>
69230-1

> <s_i_glide_gridfile>
glide-grid_2hv5

> <i_i_glide_lignum>
506

> <i_i_glide_rotatable_bonds>
5

> <r_i_docking_score>
-9.75356451892041

> <r_i_glide_ligand_efficiency>
-0.406398521621684

> <r_i_glide_ligand_efficiency_sa>
-1.17225618512305

> <r_i_glide_ligand_efficiency_ln>
-2.3344755512899

> <r_i_glide_gscore>
-9.75356451892041

> <r_i_glide_lipo>
-4.44165204090667

> <r_i_glide_hbond>
-0.0493891999574575

> <r_i_glide_metal>
0

> <r_i_glide_rewards>
-2.84508247091737

> <r_i_glide_evdw>
-40.316535949707

> <r_i_glide_ecoul>
-6.54262113571167

> <r_i_glide_erotb>
0.617996627170754

> <r_i_glide_esite>
-0.0382174664675648

> <r_i_glide_emodel>
-72.2681662044464

> <r_i_glide_energy>
-46.8591570854187

> <r_i_glide_einternal>
1.45409715175629

> <i_i_glide_confnum>
5

> <i_i_glide_posenum>
390

> <r_i_glide_eff_state_penalty>
0

> <i_f3d_flags>
0

> <s_user_duplicate_titles>
69230

> <s_m_subgroup_title>
dock_pv

> <s_m_subgroupid>
dock_pv1

> <b_m_subgroup_collapsed>
0

$$$$
68695
                    3D
 Schrodinger Suite 2021-1.
 33 35  0  0  1  0            999 V2000
   17.0747  -10.0860   15.6822 C   0  0  0  0  0  0
   17.7438   -9.3907   14.6751 C   0  0  0  0  0  0
   18.0815   -8.0474   14.8583 C   0  0  0  0  0  0
   17.7589   -7.4140   16.0604 C   0  0  0  0  0  0
   17.1028   -8.1072   17.0842 C   0  0  0  0  0  0
   16.7601   -9.4487   16.8829 C   0  0  0  0  0  0
   16.8519   -7.4525   18.4453 C   0  0  0  0  0  0
   16.1598   -6.0900   18.4044 C   0  0  0  0  0  0
   15.7451   -5.5518   17.3813 O   0  0  0  0  0  0
   16.0648   -5.5647   19.6596 O   0  0  0  0  0  0
   18.8369   -7.2849   13.7814 C   0  0  0  0  0  0
   17.9829   -6.4072   12.8800 C   0  0  0  0  0  0
   18.5450   -5.4678   12.1812 N   0  0  0  0  0  0
   17.6895   -4.8343   11.3467 C   0  0  0  0  0  0
   18.0421   -3.7775   10.4944 C   0  0  0  0  0  0
   17.0317   -3.1876    9.7404 C   0  0  0  0  0  0
   15.7260   -3.6653    9.7774 C   0  0  0  0  0  0
   15.3630   -4.7291   10.5967 C   0  0  0  0  0  0
   16.3564   -5.3012   11.3974 C   0  0  0  0  0  0
   16.2599   -6.5746   12.5976 S   0  0  0  0  0  0
   14.0819   -5.1564   10.6446 F   0  0  0  0  0  0
   17.3174   -2.1150    8.9799 F   0  0  0  0  0  0
   19.3127   -3.3113   10.4238 F   0  0  0  0  0  0
   16.8088  -11.1225   15.5355 H   0  0  0  0  0  0
   17.9912   -9.8961   13.7525 H   0  0  0  0  0  0
   18.0495   -6.3843   16.2081 H   0  0  0  0  0  0
   16.2621  -10.0068   17.6622 H   0  0  0  0  0  0
   17.8113   -7.3163   18.9440 H   0  0  0  0  0  0
   16.2538   -8.1157   19.0717 H   0  0  0  0  0  0
   16.5412   -6.0951   20.3013 H   0  0  0  0  0  0
   19.5979   -6.6737   14.2706 H   0  0  0  0  0  0
   19.3934   -7.9981   13.1721 H   0  0  0  0  0  0
   14.9594   -3.1871    9.1836 H   0  0  0  0  0  0
  1  6  1  0  0  0
  1  2  2  0  0  0
  1 24  1  0  0  0
  2  3  1  0  0  0
  2 25  1  0  0  0
  3  4  2  0  0  0
  3 11  1  0  0  0
  4  5  1  0  0  0
  4 26  1  0  0  0
  5  6  2  0  0  0
  5  7  1  0  0  0
  6 27  1  0  0  0
  7  8  1  0  0  0
  7 28  1  0  0  0
  7 29  1  0  0  0
  8  9  2  0  0  0
  8 10  1  0  0  0
 10 30  1  0  0  0
 11 12  1  0  0  0
 11 31  1  0  0  0
 11 32  1  0  0  0
 12 20  1  0  0  0
 12 13  2  0  0  0
 13 14  1  0  0  0
 14 19  2  0  0  0
 14 15  1  0  0  0
 15 16  2  0  0  0
 15 23  1  0  0  0
 16 17  1  0  0  0
 16 22  1  0  0  0
 17 18  2  0  0  0
 17 33  1  0  0  0
 18 19  1  0  0  0
 18 21  1  0  0  0
 19 20  1  0  0  0
M  END
> <s_m_entry_id>
6992

> <s_m_entry_name>
ligand_docking-pose.134

> <s_m_Source_Path>
/home/csk/Desktop/cluster/DUD-E-result/aldr

> <s_m_Source_File>
ligand_docking-pose.sdf

> <i_m_Source_File_Index>
134

> <i_lp_mmshare_version>
53161

> <r_lp_tautomer_probability>
1

> <s_lp_Force_Field>
OPLS_2005

> <r_lp_Energy>
10.636266

> <b_lp_Chiralities_Consistent>
1

> <s_lp_Variant>
68695-1

> <s_i_glide_gridfile>
glide-grid_2hv5

> <i_i_glide_lignum>
351

> <i_i_glide_rotatable_bonds>
5

> <r_i_docking_score>
-9.7203610322954

> <r_i_glide_ligand_efficiency>
-0.422624392708496

> <r_i_glide_ligand_efficiency_sa>
-1.20188755404734

> <r_i_glide_ligand_efficiency_ln>
-2.35047143696983

> <r_i_glide_gscore>
-9.7203610322954

> <r_i_glide_lipo>
-4.28397697216129

> <r_i_glide_hbond>
-0.0516667412760808

> <r_i_glide_metal>
0

> <r_i_glide_rewards>
-3.01854744993081

> <r_i_glide_evdw>
-40.4578514099121

> <r_i_glide_ecoul>
-6.71745252609253

> <r_i_glide_erotb>
0.664340580482263

> <r_i_glide_esite>
0

> <r_i_glide_emodel>
-72.1785532478787

> <r_i_glide_energy>
-47.1753039360046

> <r_i_glide_einternal>
1.61297464370728

> <i_i_glide_confnum>
5

> <i_i_glide_posenum>
338

> <r_i_glide_eff_state_penalty>
0

> <i_f3d_flags>
0

> <s_user_duplicate_titles>
68695

> <s_m_subgroup_title>
dock_pv

> <s_m_subgroupid>
dock_pv1

> <b_m_subgroup_collapsed>
0

$$$$
219835
                    3D
 Schrodinger Suite 2021-1.
 39 41  0  0  1  0            999 V2000
   17.1907  -12.0945   16.1311 C   0  0  0  0  0  0
   17.8960  -11.4638   15.1083 C   0  0  0  0  0  0
   17.5798  -10.1075   15.1160 C   0  0  0  0  0  0
   16.6882   -9.9021   16.1515 N   0  0  0  0  0  0
   16.4405  -11.1155   16.7526 C   0  0  0  0  0  0
   16.0296   -8.6358   16.4366 C   0  0  2  0  0  0
   16.3971   -7.5497   15.4041 C   0  0  0  0  0  0
   15.7449   -6.5151   15.4080 O   0  0  0  0  0  0
   17.4564   -7.8114   14.5665 N   0  0  0  0  0  0
   18.0640   -9.0186   14.2860 C   0  0  0  0  0  0
   18.9446   -9.1487   13.4321 O   0  0  0  0  0  0
   17.9864   -6.6269   13.8192 C   0  0  0  0  0  0
   17.2646   -6.0689   12.5836 C   0  0  0  0  0  0
   15.9359   -6.3135   12.2589 C   0  0  0  0  0  0
   15.3326   -5.7117   11.1568 C   0  0  0  0  0  0
   16.0758   -4.8564   10.3384 C   0  0  0  0  0  0
   17.4078   -4.5879   10.6563 C   0  0  0  0  0  0
   17.9663   -5.1839   11.7800 C   0  0  0  0  0  0
   18.3785   -3.5058    9.7190 Cl  0  0  0  0  0  0
   15.3450   -4.1149    8.9659 Cl  0  0  0  0  0  0
   16.1725   -8.0811   17.9037 C   0  0  0  0  0  0
   17.2187   -6.9495   18.2378 C   0  0  0  0  0  0
   16.6367   -5.7142   18.9449 C   0  0  0  0  0  0
   15.7450   -5.7636   19.7809 O   0  0  0  0  0  0
   17.2526   -4.5603   18.5813 O   0  0  0  0  0  0
   17.2135  -13.1478   16.3742 H   0  0  0  0  0  0
   18.5754  -11.9452   14.4185 H   0  0  0  0  0  0
   15.7297  -11.1787   17.5633 H   0  0  0  0  0  0
   14.9686   -8.8261   16.2607 H   0  0  0  0  0  0
   18.0962   -5.8023   14.5258 H   0  0  0  0  0  0
   19.0183   -6.8097   13.5108 H   0  0  0  0  0  0
   15.3523   -6.9158   12.9026 H   0  0  0  0  0  0
   14.2827   -5.8882   10.9797 H   0  0  0  0  0  0
   18.9450   -4.9151   12.0713 H   0  0  0  0  0  0
   15.1733   -7.7381   18.1813 H   0  0  0  0  0  0
   16.3434   -8.9149   18.5816 H   0  0  0  0  0  0
   17.9973   -7.3177   18.8977 H   0  0  0  0  0  0
   17.7715   -6.6140   17.3624 H   0  0  0  0  0  0
   16.8952   -3.8174   19.0715 H   0  0  0  0  0  0
  1  5  2  0  0  0
  1  2  1  0  0  0
  1 26  1  0  0  0
  2  3  2  0  0  0
  2 27  1  0  0  0
  3 10  1  0  0  0
  3  4  1  0  0  0
  4  5  1  0  0  0
  4  6  1  0  0  0
  5 28  1  0  0  0
  6  7  1  0  0  0
  6 21  1  0  0  0
  6 29  1  0  0  0
  7  8  2  0  0  0
  7  9  1  0  0  0
  9 10  1  0  0  0
  9 12  1  0  0  0
 10 11  2  0  0  0
 12 13  1  0  0  0
 12 30  1  0  0  0
 12 31  1  0  0  0
 13 18  1  0  0  0
 13 14  2  0  0  0
 14 15  1  0  0  0
 14 32  1  0  0  0
 15 16  2  0  0  0
 15 33  1  0  0  0
 16 17  1  0  0  0
 16 20  1  0  0  0
 17 18  2  0  0  0
 17 19  1  0  0  0
 18 34  1  0  0  0
 21 22  1  0  0  0
 21 35  1  0  0  0
 21 36  1  0  0  0
 22 23  1  0  0  0
 22 37  1  0  0  0
 22 38  1  0  0  0
 23 24  2  0  0  0
 23 25  1  0  0  0
 25 39  1  0  0  0
M  END
> <s_m_entry_id>
6994

> <s_m_entry_name>
ligand_docking-pose.136

> <s_m_Source_Path>
/home/csk/Desktop/cluster/DUD-E-result/aldr

> <s_m_Source_File>
ligand_docking-pose.sdf

> <i_m_Source_File_Index>
136

> <i_lp_mmshare_version>
53161

> <r_lp_tautomer_probability>
1

> <s_lp_Force_Field>
OPLS_2005

> <r_lp_Energy>
19.737081

> <b_lp_Chiralities_Consistent>
1

> <s_lp_Variant>
219835-2

> <s_i_glide_gridfile>
glide-grid_2hv5

> <i_i_glide_lignum>
115

> <i_i_glide_rotatable_bonds>
6

> <r_i_docking_score>
-9.69441350614326

> <r_i_glide_ligand_efficiency>
-0.387776540245731

> <r_i_glide_ligand_efficiency_sa>
-1.13386548092474

> <r_i_glide_ligand_efficiency_ln>
-2.29786651908536

> <r_i_glide_gscore>
-9.69441350614326

> <r_i_glide_lipo>
-3.78146353259368

> <r_i_glide_hbond>
-0.419990002387732

> <r_i_glide_metal>
0

> <r_i_glide_rewards>
-3.40598965054606

> <r_i_glide_evdw>
-40.5152854919434

> <r_i_glide_ecoul>
-4.85995674133301

> <r_i_glide_erotb>
0.667787465181322

> <r_i_glide_esite>
0

> <r_i_glide_emodel>
-61.7286417045979

> <r_i_glide_energy>
-45.3752422332764

> <r_i_glide_einternal>
12.4062480926514

> <i_i_glide_confnum>
10

> <i_i_glide_posenum>
19

> <r_i_glide_eff_state_penalty>
0

> <i_f3d_flags>
0

> <s_user_duplicate_titles>
219835

> <s_m_subgroup_title>
dock_pv

> <s_m_subgroupid>
dock_pv1

> <b_m_subgroup_collapsed>
0

$$$$
267871
                    3D
 Schrodinger Suite 2021-1.
 33 35  0  0  1  0            999 V2000
   15.7330   -3.7813    9.3808 C   0  0  0  0  0  0
   15.3450   -4.7783   10.2713 C   0  0  0  0  0  0
   16.3045   -5.2760   11.1566 C   0  0  0  0  0  0
   17.6261   -4.7651   11.1699 C   0  0  0  0  0  0
   17.9953   -3.7607   10.2452 C   0  0  0  0  0  0
   17.0285   -3.2817    9.3643 C   0  0  0  0  0  0
   19.5735   -3.0695   10.1810 Cl  0  0  0  0  0  0
   18.4152   -5.3000   12.1426 N   0  0  0  0  0  0
   17.7952   -6.1781   12.8838 C   0  0  0  0  0  0
   16.1483   -6.5149   12.3873 S   0  0  0  0  0  0
   18.4959   -6.7635   14.1061 C   0  0  0  0  0  0
   17.8020   -7.8643   14.8277 N   0  0  0  0  0  0
   18.1443   -9.1576   14.4799 C   0  0  0  0  0  0
   18.9508   -9.4789   13.6072 O   0  0  0  0  0  0
   17.5064  -10.1527   15.3256 C   0  0  0  0  0  0
   16.8769   -9.7473   16.4482 C   0  0  0  0  0  0
   16.7183   -8.4314   16.8071 N   0  0  0  0  0  0
   16.8817   -7.4959   15.8000 C   0  0  0  0  0  0
   16.1445   -6.5152   15.7111 O   0  0  0  0  0  0
   15.9877   -8.0516   18.0504 C   0  0  0  0  0  0
   16.4686   -6.7592   18.7611 C   0  0  0  0  0  0
   15.7437   -6.0823   19.4522 O   0  0  0  0  0  0
   17.7905   -6.5110   18.5804 O   0  0  0  0  0  0
   14.9864   -3.3887    8.7020 H   0  0  0  0  0  0
   14.3261   -5.1382   10.2866 H   0  0  0  0  0  0
   17.2825   -2.5024    8.6605 H   0  0  0  0  0  0
   18.6827   -5.9540   14.8141 H   0  0  0  0  0  0
   19.5002   -7.0839   13.8202 H   0  0  0  0  0  0
   17.5549  -11.1959   15.0483 H   0  0  0  0  0  0
   16.3410  -10.4281   17.0956 H   0  0  0  0  0  0
   16.0986   -8.8480   18.7862 H   0  0  0  0  0  0
   14.9216   -7.9737   17.8329 H   0  0  0  0  0  0
   18.2305   -7.1650   18.0378 H   0  0  0  0  0  0
  1  6  1  0  0  0
  1  2  2  0  0  0
  1 24  1  0  0  0
  2  3  1  0  0  0
  2 25  1  0  0  0
  3 10  1  0  0  0
  3  4  2  0  0  0
  4  5  1  0  0  0
  4  8  1  0  0  0
  5  6  2  0  0  0
  5  7  1  0  0  0
  6 26  1  0  0  0
  8  9  2  0  0  0
  9 10  1  0  0  0
  9 11  1  0  0  0
 11 12  1  0  0  0
 11 27  1  0  0  0
 11 28  1  0  0  0
 12 18  1  0  0  0
 12 13  1  0  0  0
 13 14  2  0  0  0
 13 15  1  0  0  0
 15 16  2  0  0  0
 15 29  1  0  0  0
 16 17  1  0  0  0
 16 30  1  0  0  0
 17 18  1  0  0  0
 17 20  1  0  0  0
 18 19  2  0  0  0
 20 21  1  0  0  0
 20 31  1  0  0  0
 20 32  1  0  0  0
 21 22  2  0  0  0
 21 23  1  0  0  0
 23 33  1  0  0  0
M  END
> <s_m_entry_id>
6997

> <s_m_entry_name>
ligand_docking-pose.139

> <s_m_Source_Path>
/home/csk/Desktop/cluster/DUD-E-result/aldr

> <s_m_Source_File>
ligand_docking-pose.sdf

> <i_m_Source_File_Index>
139

> <i_lp_mmshare_version>
53161

> <r_lp_tautomer_probability>
1

> <s_lp_Force_Field>
OPLS_2005

> <r_lp_Energy>
14.229942

> <b_lp_Chiralities_Consistent>
1

> <s_lp_Variant>
267871-1

> <s_i_glide_gridfile>
glide-grid_2hv5

> <i_i_glide_lignum>
36

> <i_i_glide_rotatable_bonds>
5

> <r_i_docking_score>
-9.67859244982951

> <r_i_glide_ligand_efficiency>
-0.420808367383892

> <r_i_glide_ligand_efficiency_sa>
-1.19672301959752

> <r_i_glide_ligand_efficiency_ln>
-2.34037141499301

> <r_i_glide_gscore>
-9.67859244982951

> <r_i_glide_lipo>
-3.55266699648824

> <r_i_glide_hbond>
-0.249058495269568

> <r_i_glide_metal>
0

> <r_i_glide_rewards>
-3.3997203631072

> <r_i_glide_evdw>
-43.2532691955566

> <r_i_glide_ecoul>
-6.20775127410889

> <r_i_glide_erotb>
0.61667955592966

> <r_i_glide_esite>
0

> <r_i_glide_emodel>
-71.3186536342332

> <r_i_glide_energy>
-49.4610204696655

> <r_i_glide_einternal>
7.32232522964478

> <i_i_glide_confnum>
11

> <i_i_glide_posenum>
145

> <r_i_glide_eff_state_penalty>
0

> <i_f3d_flags>
0

> <s_user_duplicate_titles>
267871

> <s_m_subgroup_title>
dock_pv

> <s_m_subgroupid>
dock_pv1

> <b_m_subgroup_collapsed>
0

$$$$
45541
                    3D
 Schrodinger Suite 2021-1.
 40 42  0  0  1  0            999 V2000
   17.6637  -12.2382   14.5922 C   0  0  0  0  0  0
   18.3577  -11.7201   13.4957 C   0  0  0  0  0  0
   18.6075  -10.3492   13.4130 C   0  0  0  0  0  0
   18.1443   -9.5076   14.4237 C   0  0  0  0  0  0
   17.4675  -10.0171   15.5190 C   0  0  0  0  0  0
   17.2213  -11.3902   15.6111 C   0  0  0  0  0  0
   17.1322   -8.8819   16.4436 C   0  0  1  0  0  0
   17.7457   -7.6747   15.7083 C   0  0  0  0  0  0
   17.7441   -6.5186   16.1211 O   0  0  0  0  0  0
   18.2901   -8.1290   14.5604 N   0  0  0  0  0  0
   18.8580   -7.1855   13.5868 C   0  0  0  0  0  0
   17.8589   -6.4700   12.6665 C   0  0  0  0  0  0
   18.3083   -5.3953   11.9015 C   0  0  0  0  0  0
   17.4532   -4.6893   11.0651 C   0  0  0  0  0  0
   16.1067   -5.0371   11.0139 C   0  0  0  0  0  0
   15.6428   -6.1151   11.7807 C   0  0  0  0  0  0
   16.5138   -6.8288   12.5950 C   0  0  0  0  0  0
   15.1422   -4.2247   10.1621 C   0  0  0  0  0  0
   15.3102   -4.5150    8.8827 F   0  0  0  0  0  0
   13.8992   -4.5150   10.5621 F   0  0  0  0  0  0
   15.3452   -2.9150   10.2243 F   0  0  0  0  0  0
   15.6038   -8.7157   16.7536 C   0  0  1  0  0  0
   15.0881   -9.8459   17.5432 C   0  0  0  0  0  0
   14.6857  -10.7337   18.1684 N   0  0  0  0  0  0
   15.2027   -7.3572   17.3471 C   0  0  0  0  0  0
   14.5450   -6.5342   16.7174 O   0  0  0  0  0  0
   15.7450   -7.1430   18.5817 O   0  0  0  0  0  0
   17.4726  -13.2992   14.6525 H   0  0  0  0  0  0
   18.7046  -12.3804   12.7143 H   0  0  0  0  0  0
   19.1663   -9.9575   12.5811 H   0  0  0  0  0  0
   16.6980  -11.8146   16.4536 H   0  0  0  0  0  0
   17.6872   -8.9848   17.3763 H   0  0  0  0  0  0
   19.4197   -6.4167   14.1245 H   0  0  0  0  0  0
   19.5828   -7.7253   12.9812 H   0  0  0  0  0  0
   19.3417   -5.1160   11.9477 H   0  0  0  0  0  0
   17.8317   -3.8599   10.4854 H   0  0  0  0  0  0
   14.6027   -6.4068   11.7625 H   0  0  0  0  0  0
   16.1282   -7.6463   13.1799 H   0  0  0  0  0  0
   15.0655   -8.7864   15.8072 H   0  0  0  0  0  0
   16.2693   -7.8739   18.9154 H   0  0  0  0  0  0
  1  6  1  0  0  0
  1  2  2  0  0  0
  1 28  1  0  0  0
  2  3  1  0  0  0
  2 29  1  0  0  0
  3  4  2  0  0  0
  3 30  1  0  0  0
  4 10  1  0  0  0
  4  5  1  0  0  0
  5  6  2  0  0  0
  5  7  1  0  0  0
  6 31  1  0  0  0
  7  8  1  0  0  0
  7 22  1  0  0  0
  7 32  1  0  0  0
  8  9  2  0  0  0
  8 10  1  0  0  0
 10 11  1  0  0  0
 11 12  1  0  0  0
 11 33  1  0  0  0
 11 34  1  0  0  0
 12 17  1  0  0  0
 12 13  2  0  0  0
 13 14  1  0  0  0
 13 35  1  0  0  0
 14 15  2  0  0  0
 14 36  1  0  0  0
 15 16  1  0  0  0
 15 18  1  0  0  0
 16 17  2  0  0  0
 16 37  1  0  0  0
 17 38  1  0  0  0
 18 19  1  0  0  0
 18 20  1  0  0  0
 18 21  1  0  0  0
 22 23  1  0  0  0
 22 25  1  0  0  0
 22 39  1  0  0  0
 23 24  3  0  0  0
 25 26  2  0  0  0
 25 27  1  0  0  0
 27 40  1  0  0  0
M  END
> <s_m_entry_id>
7003

> <s_m_entry_name>
ligand_docking-pose.145

> <s_m_Source_Path>
/home/csk/Desktop/cluster/DUD-E-result/aldr

> <s_m_Source_File>
ligand_docking-pose.sdf

> <i_m_Source_File_Index>
145

> <i_lp_mmshare_version>
53161

> <r_lp_tautomer_probability>
1

> <s_lp_Force_Field>
OPLS_2005

> <r_lp_Energy>
35.217187

> <b_lp_Chiralities_Consistent>
1

> <s_lp_Variant>
45541-3

> <s_i_glide_gridfile>
glide-grid_2hv5

> <i_i_glide_lignum>
160

> <i_i_glide_rotatable_bonds>
6

> <r_i_docking_score>
-9.628619406849

> <r_i_glide_ligand_efficiency>
-0.356615533587

> <r_i_glide_ligand_efficiency_sa>
-1.06984659958565

> <r_i_glide_ligand_efficiency_ln>
-2.24138385771731

> <r_i_glide_gscore>
-9.628619406849

> <r_i_glide_lipo>
-4.04394341499221

> <r_i_glide_hbond>
-0.32

> <r_i_glide_metal>
0

> <r_i_glide_rewards>
-3.556954575

> <r_i_glide_evdw>
-34.2633972167969

> <r_i_glide_ecoul>
-3.55176138877869

> <r_i_glide_erotb>
0.55198268439208

> <r_i_glide_esite>
-0.0137700320922242

> <r_i_glide_emodel>
-54.2045654043006

> <r_i_glide_energy>
-37.8151586055756

> <r_i_glide_einternal>
3.90091514587402

> <i_i_glide_confnum>
30

> <i_i_glide_posenum>
264

> <r_i_glide_eff_state_penalty>
0

> <i_f3d_flags>
0

> <s_user_duplicate_titles>
45541

> <s_m_subgroup_title>
dock_pv

> <s_m_subgroupid>
dock_pv1

> <b_m_subgroup_collapsed>
0

$$$$
2126
                    3D
 Schrodinger Suite 2021-1.
 34 35  0  0  1  0            999 V2000
   19.0119   -5.7986   13.7422 C   0  0  0  0  0  0
   18.1201   -6.7934   13.0069 C   0  0  0  0  0  0
   17.3717   -6.5069   11.9129 C   0  0  0  0  0  0
   17.2534   -5.2646   11.1178 C   0  0  0  0  0  0
   16.0120   -4.9133   10.5790 C   0  0  0  0  0  0
   15.8916   -3.7767    9.7804 C   0  0  0  0  0  0
   17.0012   -2.9782    9.5259 C   0  0  0  0  0  0
   18.2390   -3.3142   10.0593 C   0  0  0  0  0  0
   18.3574   -4.4577   10.8420 C   0  0  0  0  0  0
   18.0678   -8.1551   13.5229 C   0  0  0  0  0  0
   17.3452   -8.5991   14.5792 C   0  0  0  0  0  0
   16.4606   -7.7745   15.3801 C   0  0  0  0  0  0
   16.1648   -6.5980   15.1688 O   0  0  0  0  0  0
   15.9860   -8.4798   16.4368 N   0  0  0  0  0  0
   16.1808   -9.8335   16.4431 C   0  0  0  0  0  0
   15.5021  -11.0329   17.3808 S   0  0  0  0  0  0
   17.3411  -10.2432   15.2069 S   0  0  0  0  0  0
   15.2480   -7.7732   17.5271 C   0  0  0  0  0  0
   16.1732   -6.8968   18.4197 C   0  0  0  0  0  0
   15.7450   -6.1151   19.2421 O   0  0  0  0  0  0
   17.5022   -7.0812   18.1829 O   0  0  0  0  0  0
   18.7216   -5.7751   14.7927 H   0  0  0  0  0  0
   20.0517   -6.1318   13.7627 H   0  0  0  0  0  0
   18.9466   -4.7785   13.3772 H   0  0  0  0  0  0
   16.7762   -7.3143   11.5151 H   0  0  0  0  0  0
   15.1394   -5.5230   10.7667 H   0  0  0  0  0  0
   14.9456   -3.5095    9.3480 H   0  0  0  0  0  0
   16.8979   -2.0974    8.9090 H   0  0  0  0  0  0
   19.1010   -2.6960    9.8571 H   0  0  0  0  0  0
   19.3252   -4.7346   11.2163 H   0  0  0  0  0  0
   18.6911   -8.8786   13.0153 H   0  0  0  0  0  0
   14.7040   -8.4586   18.1751 H   0  0  0  0  0  0
   14.4890   -7.1222   17.0920 H   0  0  0  0  0  0
   18.0299   -6.5288   18.7625 H   0  0  0  0  0  0
  1  2  1  0  0  0
  1 22  1  0  0  0
  1 23  1  0  0  0
  1 24  1  0  0  0
  2  3  2  0  0  0
  2 10  1  0  0  0
  3  4  1  0  0  0
  3 25  1  0  0  0
  4  9  1  0  0  0
  4  5  2  0  0  0
  5  6  1  0  0  0
  5 26  1  0  0  0
  6  7  2  0  0  0
  6 27  1  0  0  0
  7  8  1  0  0  0
  7 28  1  0  0  0
  8  9  2  0  0  0
  8 29  1  0  0  0
  9 30  1  0  0  0
 10 11  2  0  0  0
 10 31  1  0  0  0
 11 17  1  0  0  0
 11 12  1  0  0  0
 12 13  2  0  0  0
 12 14  1  0  0  0
 14 15  1  0  0  0
 14 18  1  0  0  0
 15 16  2  0  0  0
 15 17  1  0  0  0
 18 19  1  0  0  0
 18 32  1  0  0  0
 18 33  1  0  0  0
 19 20  2  0  0  0
 19 21  1  0  0  0
 21 34  1  0  0  0
M  END
> <s_m_entry_id>
7004

> <s_m_entry_name>
ligand_docking-pose.146

> <s_m_Source_Path>
/home/csk/Desktop/cluster/DUD-E-result/aldr

> <s_m_Source_File>
ligand_docking-pose.sdf

> <i_m_Source_File_Index>
146

> <i_lp_mmshare_version>
53161

> <r_lp_tautomer_probability>
1

> <s_lp_Force_Field>
OPLS_2005

> <r_lp_Energy>
19.671511

> <b_lp_Chiralities_Consistent>
1

> <s_lp_Variant>
2126-1

> <s_i_glide_gridfile>
glide-grid_2hv5

> <i_i_glide_lignum>
552

> <i_i_glide_rotatable_bonds>
5

> <r_i_docking_score>
-9.62518887173051

> <r_i_glide_ligand_efficiency>
-0.458342327225263

> <r_i_glide_ligand_efficiency_sa>
-1.26453172635727

> <r_i_glide_ligand_efficiency_ln>
-2.37980849900992

> <r_i_glide_gscore>
-9.62518887173051

> <r_i_glide_lipo>
-3.80351987849328

> <r_i_glide_hbond>
-0.0902389880301732

> <r_i_glide_metal>
0

> <r_i_glide_rewards>
-3.73544331993131

> <r_i_glide_evdw>
-41.9553260803223

> <r_i_glide_ecoul>
-2.9793643951416

> <r_i_glide_erotb>
0.548684278011611

> <r_i_glide_esite>
0

> <r_i_glide_emodel>
-60.0395465893051

> <r_i_glide_energy>
-44.9346904754639

> <r_i_glide_einternal>
12.7274789810181

> <i_i_glide_confnum>
4

> <i_i_glide_posenum>
170

> <r_i_glide_eff_state_penalty>
0

> <i_f3d_flags>
0

> <s_user_duplicate_titles>
2126,466503

> <s_m_subgroup_title>
dock_pv

> <s_m_subgroupid>
dock_pv1

> <b_m_subgroup_collapsed>
0

$$$$
267837
                    3D
 Schrodinger Suite 2021-1.
 33 35  0  0  1  0            999 V2000
   15.7221   -4.0842    9.8096 C   0  0  0  0  0  0
   15.3459   -5.1550   10.6154 C   0  0  0  0  0  0
   16.3006   -5.6633   11.5010 C   0  0  0  0  0  0
   17.6136   -5.1422   11.5605 C   0  0  0  0  0  0
   17.9780   -4.0855   10.7137 C   0  0  0  0  0  0
   17.0020   -3.5417    9.8775 C   0  0  0  0  0  0
   17.3480   -2.1166    8.9812 Cl  0  0  0  0  0  0
   18.4122   -5.7031   12.5099 N   0  0  0  0  0  0
   17.7862   -6.6021   13.2177 C   0  0  0  0  0  0
   16.1450   -6.9145   12.7026 S   0  0  0  0  0  0
   18.4539   -7.2517   14.4236 C   0  0  0  0  0  0
   17.6046   -8.1786   15.2212 N   0  0  0  0  0  0
   17.7450   -9.5344   14.9890 C   0  0  0  0  0  0
   18.5111  -10.0466   14.1718 O   0  0  0  0  0  0
   16.9381  -10.3460   15.8847 C   0  0  0  0  0  0
   16.3550   -9.7550   16.9482 C   0  0  0  0  0  0
   16.4028   -8.4049   17.1937 N   0  0  0  0  0  0
   16.7232   -7.5949   16.1200 C   0  0  0  0  0  0
   16.1549   -6.5182   15.9269 O   0  0  0  0  0  0
   15.7449   -7.8104   18.3887 C   0  0  0  0  0  0
   16.4190   -6.5462   18.9827 C   0  0  0  0  0  0
   15.8212   -5.7594   19.6856 O   0  0  0  0  0  0
   17.7440   -6.4648   18.6790 O   0  0  0  0  0  0
   14.9871   -3.6385    9.1539 H   0  0  0  0  0  0
   14.3368   -5.5419   10.5959 H   0  0  0  0  0  0
   18.9547   -3.6377   10.7737 H   0  0  0  0  0  0
   18.8162   -6.4662   15.0892 H   0  0  0  0  0  0
   19.3667   -7.7559   14.1004 H   0  0  0  0  0  0
   16.8267  -11.4031   15.6908 H   0  0  0  0  0  0
   15.7016  -10.2831   17.6292 H   0  0  0  0  0  0
   15.7463   -8.5452   19.1932 H   0  0  0  0  0  0
   14.7020   -7.5956   18.1552 H   0  0  0  0  0  0
   18.1358   -5.6902   19.0860 H   0  0  0  0  0  0
  1  6  1  0  0  0
  1  2  2  0  0  0
  1 24  1  0  0  0
  2  3  1  0  0  0
  2 25  1  0  0  0
  3 10  1  0  0  0
  3  4  2  0  0  0
  4  5  1  0  0  0
  4  8  1  0  0  0
  5  6  2  0  0  0
  5 26  1  0  0  0
  6  7  1  0  0  0
  8  9  2  0  0  0
  9 10  1  0  0  0
  9 11  1  0  0  0
 11 12  1  0  0  0
 11 27  1  0  0  0
 11 28  1  0  0  0
 12 18  1  0  0  0
 12 13  1  0  0  0
 13 14  2  0  0  0
 13 15  1  0  0  0
 15 16  2  0  0  0
 15 29  1  0  0  0
 16 17  1  0  0  0
 16 30  1  0  0  0
 17 18  1  0  0  0
 17 20  1  0  0  0
 18 19  2  0  0  0
 20 21  1  0  0  0
 20 31  1  0  0  0
 20 32  1  0  0  0
 21 22  2  0  0  0
 21 23  1  0  0  0
 23 33  1  0  0  0
M  END
> <s_m_entry_id>
7006

> <s_m_entry_name>
ligand_docking-pose.148

> <s_m_Source_Path>
/home/csk/Desktop/cluster/DUD-E-result/aldr

> <s_m_Source_File>
ligand_docking-pose.sdf

> <i_m_Source_File_Index>
148

> <i_lp_mmshare_version>
53161

> <r_lp_tautomer_probability>
1

> <s_lp_Force_Field>
OPLS_2005

> <r_lp_Energy>
11.180888

> <b_lp_Chiralities_Consistent>
1

> <s_lp_Variant>
267837-1

> <s_i_glide_gridfile>
glide-grid_2hv5

> <i_i_glide_lignum>
37

> <i_i_glide_rotatable_bonds>
5

> <r_i_docking_score>
-9.59919307774135

> <r_i_glide_ligand_efficiency>
-0.417356220771363

> <r_i_glide_ligand_efficiency_sa>
-1.18690557384681

> <r_i_glide_ligand_efficiency_ln>
-2.32117192686839

> <r_i_glide_gscore>
-9.59919307774135

> <r_i_glide_lipo>
-3.71544955525659

> <r_i_glide_hbond>
-0.352629916810326

> <r_i_glide_metal>
0

> <r_i_glide_rewards>
-3.36854401800363

> <r_i_glide_evdw>
-42.0222778320312

> <r_i_glide_ecoul>
-4.52090167999268

> <r_i_glide_erotb>
0.61667955592966

> <r_i_glide_esite>
0

> <r_i_glide_emodel>
-68.1642989189867

> <r_i_glide_energy>
-46.5431795120239

> <r_i_glide_einternal>
6.63808965682983

> <i_i_glide_confnum>
8

> <i_i_glide_posenum>
36

> <r_i_glide_eff_state_penalty>
0

> <i_f3d_flags>
0

> <s_user_duplicate_titles>
267837

> <s_m_subgroup_title>
dock_pv

> <s_m_subgroupid>
dock_pv1

> <b_m_subgroup_collapsed>
0

$$$$
490412
                    3D
 Schrodinger Suite 2021-1.
 38 40  0  0  1  0            999 V2000
   17.9326  -12.1200   16.6381 C   0  0  0  0  0  0
   17.9337  -11.0810   15.6653 O   0  0  0  0  0  0
   17.3782   -9.8463   15.9532 C   0  0  0  0  0  0
   16.7866   -9.5650   17.1848 C   0  0  0  0  0  0
   16.2197   -8.3283   17.4477 C   0  0  0  0  0  0
   16.1375   -7.3492   16.4560 C   0  0  0  0  0  0
   16.6800   -7.6429   15.2046 C   0  0  0  0  0  0
   17.3782   -8.8463   14.9681 C   0  0  0  0  0  0
   18.1091   -9.0143   13.6743 C   0  0  0  0  0  0
   18.8780   -9.9378   13.4191 O   0  0  0  0  0  0
   17.7706   -7.9984   12.7098 C   0  0  0  0  0  0
   16.9918   -6.9440   12.9833 C   0  0  0  0  0  0
   16.4961   -6.6892   14.2165 O   0  0  0  0  0  0
   16.6699   -5.9177   11.9812 C   0  0  0  0  0  0
   15.3464   -5.7076   11.5800 C   0  0  0  0  0  0
   15.0466   -4.7665   10.5937 C   0  0  0  0  0  0
   16.0668   -4.0159   10.0137 C   0  0  0  0  0  0
   17.3962   -4.2302   10.3960 C   0  0  0  0  0  0
   17.6921   -5.1798   11.3731 C   0  0  0  0  0  0
   18.4092   -3.5046    9.8249 O   0  0  0  0  0  0
   15.7450   -3.0584    9.0881 O   0  0  0  0  0  0
   15.5414   -6.1214   16.6673 O   0  0  0  0  0  0
   16.1441   -5.3067   17.6707 C   0  0  0  0  0  0
   15.7453   -8.1142   18.7028 O   0  0  0  0  0  0
   18.4122  -13.0039   16.2177 H   0  0  0  0  0  0
   16.9176  -12.4013   16.9233 H   0  0  0  0  0  0
   18.4940  -11.8344   17.5285 H   0  0  0  0  0  0
   16.7730  -10.3064   17.9630 H   0  0  0  0  0  0
   18.1435   -8.1144   11.7157 H   0  0  0  0  0  0
   14.5445   -6.2709   12.0326 H   0  0  0  0  0  0
   14.0173   -4.6073   10.3062 H   0  0  0  0  0  0
   18.7200   -5.3400   11.6631 H   0  0  0  0  0  0
   18.0309   -2.8479    9.2325 H   0  0  0  0  0  0
   14.7873   -2.9620    8.9810 H   0  0  0  0  0  0
   15.8797   -4.2653   17.4874 H   0  0  0  0  0  0
   15.7810   -5.5616   18.6660 H   0  0  0  0  0  0
   17.2337   -5.3743   17.6678 H   0  0  0  0  0  0
   15.9871   -8.8277   19.2999 H   0  0  0  0  0  0
  1  2  1  0  0  0
  1 25  1  0  0  0
  1 26  1  0  0  0
  1 27  1  0  0  0
  2  3  1  0  0  0
  3  8  1  0  0  0
  3  4  2  0  0  0
  4  5  1  0  0  0
  4 28  1  0  0  0
  5  6  2  0  0  0
  5 24  1  0  0  0
  6  7  1  0  0  0
  6 22  1  0  0  0
  7 13  1  0  0  0
  7  8  2  0  0  0
  8  9  1  0  0  0
  9 10  2  0  0  0
  9 11  1  0  0  0
 11 12  2  0  0  0
 11 29  1  0  0  0
 12 13  1  0  0  0
 12 14  1  0  0  0
 14 19  1  0  0  0
 14 15  2  0  0  0
 15 16  1  0  0  0
 15 30  1  0  0  0
 16 17  2  0  0  0
 16 31  1  0  0  0
 17 18  1  0  0  0
 17 21  1  0  0  0
 18 19  2  0  0  0
 18 20  1  0  0  0
 19 32  1  0  0  0
 20 33  1  0  0  0
 21 34  1  0  0  0
 22 23  1  0  0  0
 23 35  1  0  0  0
 23 36  1  0  0  0
 23 37  1  0  0  0
 24 38  1  0  0  0
M  END
> <s_m_entry_id>
7008

> <s_m_entry_name>
ligand_docking-pose.150

> <s_m_Source_Path>
/home/csk/Desktop/cluster/DUD-E-result/aldr

> <s_m_Source_File>
ligand_docking-pose.sdf

> <i_m_Source_File_Index>
150

> <i_lp_mmshare_version>
53161

> <r_lp_tautomer_probability>
0.999999999999776

> <s_lp_Force_Field>
OPLS_2005

> <r_lp_Energy>
26.106331

> <b_lp_Chiralities_Consistent>
1

> <s_lp_Variant>
490412-1

> <s_i_glide_gridfile>
glide-grid_2hv5

> <i_i_glide_lignum>
747

> <i_i_glide_rotatable_bonds>
6

> <r_i_docking_score>
-9.57815479403688

> <r_i_glide_ligand_efficiency>
-0.39908978308487

> <r_i_glide_ligand_efficiency_sa>
-1.15117413511696

> <r_i_glide_ligand_efficiency_ln>
-2.29249195509748

> <r_i_glide_gscore>
-9.57815479403688

> <r_i_glide_lipo>
-4.30924328985524

> <r_i_glide_hbond>
-0.254102822898428

> <r_i_glide_metal>
0

> <r_i_glide_rewards>
-2.05712140909091

> <r_i_glide_evdw>
-38.410961151123

> <r_i_glide_ecoul>
-8.06352806091309

> <r_i_glide_erotb>
0.17238999450081

> <r_i_glide_esite>
0

> <r_i_glide_emodel>
-63.9859335927395

> <r_i_glide_energy>
-46.4744892120361

> <r_i_glide_einternal>
8.62452411651611

> <i_i_glide_confnum>
2

> <i_i_glide_posenum>
24

> <r_i_glide_eff_state_penalty>
0

> <i_f3d_flags>
0

> <s_user_duplicate_titles>
490412

> <s_m_subgroup_title>
dock_pv

> <s_m_subgroupid>
dock_pv1

> <b_m_subgroup_collapsed>
0

$$$$
69098
                    3D
 Schrodinger Suite 2021-1.
 33 35  0  0  1  0            999 V2000
   17.9309  -10.7625   14.5152 C   0  0  0  0  0  0
   18.4768   -9.5301   14.1700 C   0  0  0  0  0  0
   17.8925   -8.3419   14.6189 C   0  0  0  0  0  0
   16.7440   -8.3986   15.4365 C   0  0  0  0  0  0
   16.1566   -9.6458   15.7318 C   0  0  0  0  0  0
   16.7752  -10.8188   15.2874 C   0  0  0  0  0  0
   14.7968   -9.7684   16.4222 C   0  0  0  0  0  0
   14.9454  -10.0300   17.9129 C   0  0  0  0  0  0
   14.7610  -11.1269   18.4313 O   0  0  0  0  0  0
   15.3453   -8.9169   18.5808 O   0  0  0  0  0  0
   16.0412   -6.9370   16.0609 Cl  0  0  0  0  0  0
   18.5241   -7.0176   14.1789 C   0  0  0  0  0  0
   17.8377   -6.3257   13.0051 C   0  0  0  0  0  0
   18.4761   -5.4492   12.2807 N   0  0  0  0  0  0
   17.6706   -4.8270   11.3782 C   0  0  0  0  0  0
   18.0634   -3.7831   10.5245 C   0  0  0  0  0  0
   17.0821   -3.1805    9.7374 C   0  0  0  0  0  0
   15.7636   -3.6261    9.7445 C   0  0  0  0  0  0
   15.3603   -4.6741   10.5626 C   0  0  0  0  0  0
   16.3244   -5.2635   11.3829 C   0  0  0  0  0  0
   16.1452   -6.5152   12.5810 S   0  0  0  0  0  0
   14.0681   -5.0690   10.5902 F   0  0  0  0  0  0
   17.4034   -2.1149    8.9810 F   0  0  0  0  0  0
   19.3386   -3.3237   10.5019 F   0  0  0  0  0  0
   18.3887  -11.6740   14.1602 H   0  0  0  0  0  0
   19.3584   -9.5021   13.5452 H   0  0  0  0  0  0
   16.3373  -11.7815   15.5093 H   0  0  0  0  0  0
   14.2185  -10.5718   15.9641 H   0  0  0  0  0  0
   14.1892   -8.8771   16.2669 H   0  0  0  0  0  0
   15.5600   -9.1493   19.4886 H   0  0  0  0  0  0
   18.5483   -6.3456   15.0373 H   0  0  0  0  0  0
   19.5782   -7.1836   13.9466 H   0  0  0  0  0  0
   15.0294   -3.1313    9.1263 H   0  0  0  0  0  0
  1  6  1  0  0  0
  1  2  2  0  0  0
  1 25  1  0  0  0
  2  3  1  0  0  0
  2 26  1  0  0  0
  3  4  2  0  0  0
  3 12  1  0  0  0
  4  5  1  0  0  0
  4 11  1  0  0  0
  5  6  2  0  0  0
  5  7  1  0  0  0
  6 27  1  0  0  0
  7  8  1  0  0  0
  7 28  1  0  0  0
  7 29  1  0  0  0
  8  9  2  0  0  0
  8 10  1  0  0  0
 10 30  1  0  0  0
 12 13  1  0  0  0
 12 31  1  0  0  0
 12 32  1  0  0  0
 13 21  1  0  0  0
 13 14  2  0  0  0
 14 15  1  0  0  0
 15 20  2  0  0  0
 15 16  1  0  0  0
 16 17  2  0  0  0
 16 24  1  0  0  0
 17 18  1  0  0  0
 17 23  1  0  0  0
 18 19  2  0  0  0
 18 33  1  0  0  0
 19 20  1  0  0  0
 19 22  1  0  0  0
 20 21  1  0  0  0
M  END
> <s_m_entry_id>
7010

> <s_m_entry_name>
ligand_docking-pose.152

> <s_m_Source_Path>
/home/csk/Desktop/cluster/DUD-E-result/aldr

> <s_m_Source_File>
ligand_docking-pose.sdf

> <i_m_Source_File_Index>
152

> <i_lp_mmshare_version>
53161

> <r_lp_tautomer_probability>
1

> <s_lp_Force_Field>
OPLS_2005

> <r_lp_Energy>
10.472463

> <b_lp_Chiralities_Consistent>
1

> <s_lp_Variant>
69098-1

> <s_i_glide_gridfile>
glide-grid_2hv5

> <i_i_glide_lignum>
353

> <i_i_glide_rotatable_bonds>
5

> <r_i_docking_score>
-9.55403071213561

> <r_i_glide_ligand_efficiency>
-0.39808461300565

> <r_i_glide_ligand_efficiency_sa>
-1.14827472289035

> <r_i_glide_ligand_efficiency_ln>
-2.28671795531652

> <r_i_glide_gscore>
-9.55403071213561

> <r_i_glide_lipo>
-4.45902004124416

> <r_i_glide_hbond>
0

> <r_i_glide_metal>
0

> <r_i_glide_rewards>
-2.75962849107595

> <r_i_glide_evdw>
-41.1957168579102

> <r_i_glide_ecoul>
-5.56248426437378

> <r_i_glide_erotb>
0.558776302736077

> <r_i_glide_esite>
0

> <r_i_glide_emodel>
-71.2521575679589

> <r_i_glide_energy>
-46.7582011222839

> <r_i_glide_einternal>
2.73462462425232

> <i_i_glide_confnum>
20

> <i_i_glide_posenum>
349

> <r_i_glide_eff_state_penalty>
0

> <i_f3d_flags>
0

> <s_user_duplicate_titles>
69098

> <s_m_subgroup_title>
dock_pv

> <s_m_subgroupid>
dock_pv1

> <b_m_subgroup_collapsed>
0

$$$$
45477
                    3D
 Schrodinger Suite 2021-1.
 40 42  0  0  1  0            999 V2000
   16.5201   -6.8199   12.6007 C   0  0  0  0  0  0
   15.6430   -6.1148   11.7835 C   0  0  0  0  0  0
   16.1014   -5.0401   11.0090 C   0  0  0  0  0  0
   17.4470   -4.6884   11.0527 C   0  0  0  0  0  0
   18.3091   -5.3870   11.8875 C   0  0  0  0  0  0
   17.8659   -6.4584   12.6620 C   0  0  0  0  0  0
   18.8659   -7.1662   13.5849 C   0  0  0  0  0  0
   18.2955   -8.1161   14.5508 N   0  0  0  0  0  0
   18.1465   -9.4935   14.4025 C   0  0  0  0  0  0
   18.6361  -10.3300   13.3999 C   0  0  0  0  0  0
   18.4025  -11.7036   13.4808 C   0  0  0  0  0  0
   17.6984  -12.2301   14.5661 C   0  0  0  0  0  0
   17.2331  -11.3880   15.5785 C   0  0  0  0  0  0
   17.4657  -10.0126   15.4913 C   0  0  0  0  0  0
   17.1301   -8.8840   16.4212 C   0  0  1  0  0  0
   17.7452   -7.6699   15.7000 C   0  0  0  0  0  0
   17.7420   -6.5164   16.1230 O   0  0  0  0  0  0
   15.6054   -8.7265   16.7505 C   0  0  1  0  0  0
   15.1098   -9.8646   17.5439 C   0  0  0  0  0  0
   14.7237  -10.7585   18.1693 N   0  0  0  0  0  0
   15.2035   -7.3685   17.3475 C   0  0  0  0  0  0
   14.5452   -6.5439   16.7204 O   0  0  0  0  0  0
   15.7452   -7.1544   18.5811 O   0  0  0  0  0  0
   17.4761  -13.5609   14.6439 F   0  0  0  0  0  0
   15.1292   -4.2255   10.1645 C   0  0  0  0  0  0
   15.2797   -4.5152    8.8811 F   0  0  0  0  0  0
   13.8900   -4.5141   10.5805 F   0  0  0  0  0  0
   15.3487   -2.9156   10.2280 F   0  0  0  0  0  0
   16.1399   -7.6351   13.1947 H   0  0  0  0  0  0
   14.6009   -6.4046   11.7782 H   0  0  0  0  0  0
   17.8166   -3.8580   10.4671 H   0  0  0  0  0  0
   19.3447   -5.1088   11.9261 H   0  0  0  0  0  0
   19.4168   -6.3944   14.1292 H   0  0  0  0  0  0
   19.5994   -7.6957   12.9814 H   0  0  0  0  0  0
   19.2133   -9.9342   12.5814 H   0  0  0  0  0  0
   18.7728  -12.3610   12.7087 H   0  0  0  0  0  0
   16.7068  -11.8184   16.4163 H   0  0  0  0  0  0
   17.6953   -9.0009   17.3449 H   0  0  0  0  0  0
   15.0570   -8.8011   15.8096 H   0  0  0  0  0  0
   16.2791   -7.8826   18.9050 H   0  0  0  0  0  0
  1  6  1  0  0  0
  1  2  2  0  0  0
  1 29  1  0  0  0
  2  3  1  0  0  0
  2 30  1  0  0  0
  3  4  2  0  0  0
  3 25  1  0  0  0
  4  5  1  0  0  0
  4 31  1  0  0  0
  5  6  2  0  0  0
  5 32  1  0  0  0
  6  7  1  0  0  0
  7  8  1  0  0  0
  7 33  1  0  0  0
  7 34  1  0  0  0
  8 16  1  0  0  0
  8  9  1  0  0  0
  9 14  2  0  0  0
  9 10  1  0  0  0
 10 11  2  0  0  0
 10 35  1  0  0  0
 11 12  1  0  0  0
 11 36  1  0  0  0
 12 13  2  0  0  0
 12 24  1  0  0  0
 13 14  1  0  0  0
 13 37  1  0  0  0
 14 15  1  0  0  0
 15 16  1  0  0  0
 15 18  1  0  0  0
 15 38  1  0  0  0
 16 17  2  0  0  0
 18 19  1  0  0  0
 18 21  1  0  0  0
 18 39  1  0  0  0
 19 20  3  0  0  0
 21 22  2  0  0  0
 21 23  1  0  0  0
 23 40  1  0  0  0
 25 26  1  0  0  0
 25 27  1  0  0  0
 25 28  1  0  0  0
M  END
> <s_m_entry_id>
7011

> <s_m_entry_name>
ligand_docking-pose.153

> <s_m_Source_Path>
/home/csk/Desktop/cluster/DUD-E-result/aldr

> <s_m_Source_File>
ligand_docking-pose.sdf

> <i_m_Source_File_Index>
153

> <i_lp_mmshare_version>
53161

> <r_lp_tautomer_probability>
1

> <s_lp_Force_Field>
OPLS_2005

> <r_lp_Energy>
33.828145

> <b_lp_Chiralities_Consistent>
1

> <s_lp_Variant>
45477-3

> <s_i_glide_gridfile>
glide-grid_2hv5

> <i_i_glide_lignum>
382

> <i_i_glide_rotatable_bonds>
6

> <r_i_docking_score>
-9.55227464492335

> <r_i_glide_ligand_efficiency>
-0.34115266589012

> <r_i_glide_ligand_efficiency_sa>
-1.03594042181726

> <r_i_glide_ligand_efficiency_ln>
-2.20494545501894

> <r_i_glide_gscore>
-9.55227464492335

> <r_i_glide_lipo>
-4.04206155704349

> <r_i_glide_hbond>
-0.32

> <r_i_glide_metal>
0

> <r_i_glide_rewards>
-3.43429232727273

> <r_i_glide_evdw>
-34.5948371887207

> <r_i_glide_ecoul>
-3.46990966796875

> <r_i_glide_erotb>
0.507423280489603

> <r_i_glide_esite>
-0.0131157314653911

> <r_i_glide_emodel>
-53.056438574318

> <r_i_glide_energy>
-38.0647468566895

> <r_i_glide_einternal>
5.22677373886108

> <i_i_glide_confnum>
27

> <i_i_glide_posenum>
332

> <r_i_glide_eff_state_penalty>
0

> <i_f3d_flags>
0

> <s_user_duplicate_titles>
45477

> <s_m_subgroup_title>
dock_pv

> <s_m_subgroupid>
dock_pv1

> <b_m_subgroup_collapsed>
0

$$$$
489468
                    3D
 Schrodinger Suite 2021-1.
 35 37  0  0  1  0            999 V2000
   16.1448   -5.3098   17.7504 C   0  0  0  0  0  0
   15.5384   -6.1155   16.7416 O   0  0  0  0  0  0
   16.1173   -7.3492   16.5249 C   0  0  0  0  0  0
   16.1840   -8.3351   17.5155 C   0  0  0  0  0  0
   16.7057   -9.5877   17.2375 C   0  0  0  0  0  0
   17.2673   -9.8595   16.0044 C   0  0  0  0  0  0
   17.3064   -8.8676   15.0176 C   0  0  0  0  0  0
   16.6472   -7.6460   15.2655 C   0  0  0  0  0  0
   16.4933   -6.6839   14.2790 O   0  0  0  0  0  0
   17.0099   -6.9365   13.0521 C   0  0  0  0  0  0
   17.7498   -8.0178   12.7711 C   0  0  0  0  0  0
   18.0122   -9.0697   13.7213 C   0  0  0  0  0  0
   18.6887  -10.0666   13.4737 O   0  0  0  0  0  0
   16.7592   -5.8813   12.0607 C   0  0  0  0  0  0
   15.4701   -5.6524   11.5677 C   0  0  0  0  0  0
   15.2521   -4.6882   10.5812 C   0  0  0  0  0  0
   16.3189   -3.9366   10.0897 C   0  0  0  0  0  0
   17.6107   -4.1572   10.5809 C   0  0  0  0  0  0
   17.8258   -5.1324   11.5533 C   0  0  0  0  0  0
   18.6646   -3.4123   10.1209 O   0  0  0  0  0  0
   16.0828   -2.9770    9.1390 O   0  0  0  0  0  0
   17.7452  -11.1246   15.7983 O   0  0  0  0  0  0
   15.7450   -8.1148   18.7816 O   0  0  0  0  0  0
   15.8885   -4.2654   17.5733 H   0  0  0  0  0  0
   15.7800   -5.5685   18.7443 H   0  0  0  0  0  0
   17.2342   -5.3847   17.7465 H   0  0  0  0  0  0
   16.6960  -10.3619   17.9857 H   0  0  0  0  0  0
   18.1437   -8.1149   11.7811 H   0  0  0  0  0  0
   14.6319   -6.2210   11.9431 H   0  0  0  0  0  0
   14.2494   -4.5185   10.2157 H   0  0  0  0  0  0
   18.8268   -5.3049   11.9214 H   0  0  0  0  0  0
   18.3337   -2.7389    9.5186 H   0  0  0  0  0  0
   15.1437   -2.9135    8.9293 H   0  0  0  0  0  0
   18.1296  -11.1977   14.9163 H   0  0  0  0  0  0
   15.9833   -8.8402   19.3666 H   0  0  0  0  0  0
  1  2  1  0  0  0
  1 24  1  0  0  0
  1 25  1  0  0  0
  1 26  1  0  0  0
  2  3  1  0  0  0
  3  8  1  0  0  0
  3  4  2  0  0  0
  4  5  1  0  0  0
  4 23  1  0  0  0
  5  6  2  0  0  0
  5 27  1  0  0  0
  6  7  1  0  0  0
  6 22  1  0  0  0
  7 12  1  0  0  0
  7  8  2  0  0  0
  8  9  1  0  0  0
  9 10  1  0  0  0
 10 11  2  0  0  0
 10 14  1  0  0  0
 11 12  1  0  0  0
 11 28  1  0  0  0
 12 13  2  0  0  0
 14 19  1  0  0  0
 14 15  2  0  0  0
 15 16  1  0  0  0
 15 29  1  0  0  0
 16 17  2  0  0  0
 16 30  1  0  0  0
 17 18  1  0  0  0
 17 21  1  0  0  0
 18 19  2  0  0  0
 18 20  1  0  0  0
 19 31  1  0  0  0
 20 32  1  0  0  0
 21 33  1  0  0  0
 22 34  1  0  0  0
 23 35  1  0  0  0
M  END
> <s_m_entry_id>
7014

> <s_m_entry_name>
ligand_docking-pose.156

> <s_m_Source_Path>
/home/csk/Desktop/cluster/DUD-E-result/aldr

> <s_m_Source_File>
ligand_docking-pose.sdf

> <i_m_Source_File_Index>
156

> <i_lp_mmshare_version>
53161

> <r_lp_tautomer_probability>
0.999999999999776

> <s_lp_Force_Field>
OPLS_2005

> <r_lp_Energy>
23.43614

> <b_lp_Chiralities_Consistent>
1

> <s_lp_Variant>
489468-1

> <s_i_glide_gridfile>
glide-grid_2hv5

> <i_i_glide_lignum>
753

> <i_i_glide_rotatable_bonds>
6

> <r_i_docking_score>
-9.52864247957429

> <r_i_glide_ligand_efficiency>
-0.414288803459752

> <r_i_glide_ligand_efficiency_sa>
-1.17818224705001

> <r_i_glide_ligand_efficiency_ln>
-2.30411215251414

> <r_i_glide_gscore>
-9.52864247957429

> <r_i_glide_lipo>
-4.30768815101482

> <r_i_glide_hbond>
-0.270243664917381

> <r_i_glide_metal>
0

> <r_i_glide_rewards>
-2.15275718181818

> <r_i_glide_evdw>
-38.0595016479492

> <r_i_glide_ecoul>
-7.20720434188843

> <r_i_glide_erotb>
0.186102251856818

> <r_i_glide_esite>
0

> <r_i_glide_emodel>
-62.0105279884793

> <r_i_glide_energy>
-45.2667059898376

> <r_i_glide_einternal>
8.38297557830811

> <i_i_glide_confnum>
2

> <i_i_glide_posenum>
182

> <r_i_glide_eff_state_penalty>
0

> <i_f3d_flags>
0

> <s_user_duplicate_titles>
489468

> <s_m_subgroup_title>
dock_pv

> <s_m_subgroupid>
dock_pv1

> <b_m_subgroup_collapsed>
0

$$$$
227385
                    3D
 Schrodinger Suite 2021-1.
 40 43  0  0  1  0            999 V2000
   15.9981   -5.1930   10.9136 C   0  0  0  0  0  0
   15.4184   -6.1136   11.7810 C   0  0  0  0  0  0
   16.2120   -6.7730   12.7165 C   0  0  0  0  0  0
   17.5910   -6.5461   12.7722 C   0  0  0  0  0  0
   18.1439   -5.5780   11.9308 C   0  0  0  0  0  0
   17.3595   -4.9163   10.9893 C   0  0  0  0  0  0
   18.4988   -7.2156   13.8163 C   0  0  0  0  0  0
   17.9876   -8.4628   14.4048 N   0  0  0  0  0  0
   18.3383   -9.7751   14.1330 C   0  0  0  0  0  0
   19.2091  -10.3354   13.2199 C   0  0  0  0  0  0
   19.3481  -11.7216   13.1356 C   0  0  0  0  0  0
   18.6099  -12.5459   13.9890 C   0  0  0  0  0  0
   17.7416  -11.9854   14.9292 C   0  0  0  0  0  0
   17.6166  -10.5912   14.9993 C   0  0  0  0  0  0
   16.8626   -9.7851   15.8499 N   0  0  0  0  0  0
   17.1042   -8.4859   15.5011 C   0  0  0  0  0  0
   16.5597   -7.5058   16.1113 N   0  0  0  0  0  0
   15.6986   -7.7756   17.1557 N   0  0  0  0  0  0
   15.3759   -9.0333   17.6341 C   0  0  0  0  0  0
   14.6438   -9.3152   18.5801 O   0  0  0  0  0  0
   16.0467  -10.1671   16.8836 C   0  0  0  0  0  0
   15.8376  -11.3261   17.2536 O   0  0  0  0  0  0
   15.1636   -6.5850   17.8250 C   0  0  0  0  0  0
   16.1449   -6.0073   18.8686 C   0  0  0  0  0  0
   15.7478   -5.3275   19.7881 O   0  0  0  0  0  0
   17.4511   -6.2869   18.5975 O   0  0  0  0  0  0
   15.3831   -4.6754   10.1914 H   0  0  0  0  0  0
   14.3559   -6.3032   11.7372 H   0  0  0  0  0  0
   15.7452   -7.4640   13.3946 H   0  0  0  0  0  0
   19.1914   -5.3410   12.0022 H   0  0  0  0  0  0
   17.7990   -4.1818   10.3311 H   0  0  0  0  0  0
   18.6560   -6.4940   14.6201 H   0  0  0  0  0  0
   19.4837   -7.3897   13.3810 H   0  0  0  0  0  0
   19.7448   -9.6646   12.5810 H   0  0  0  0  0  0
   20.0218  -12.1549   12.4107 H   0  0  0  0  0  0
   18.7154  -13.6187   13.9239 H   0  0  0  0  0  0
   17.1886  -12.6409   15.5856 H   0  0  0  0  0  0
   14.9674   -5.8116   17.0823 H   0  0  0  0  0  0
   14.1854   -6.7886   18.2548 H   0  0  0  0  0  0
   17.5494   -6.7729   17.7741 H   0  0  0  0  0  0
  1  6  1  0  0  0
  1  2  2  0  0  0
  1 27  1  0  0  0
  2  3  1  0  0  0
  2 28  1  0  0  0
  3  4  2  0  0  0
  3 29  1  0  0  0
  4  5  1  0  0  0
  4  7  1  0  0  0
  5  6  2  0  0  0
  5 30  1  0  0  0
  6 31  1  0  0  0
  7  8  1  0  0  0
  7 32  1  0  0  0
  7 33  1  0  0  0
  8 16  1  0  0  0
  8  9  1  0  0  0
  9 14  2  0  0  0
  9 10  1  0  0  0
 10 11  2  0  0  0
 10 34  1  0  0  0
 11 12  1  0  0  0
 11 35  1  0  0  0
 12 13  2  0  0  0
 12 36  1  0  0  0
 13 14  1  0  0  0
 13 37  1  0  0  0
 14 15  1  0  0  0
 15 21  1  0  0  0
 15 16  1  0  0  0
 16 17  2  0  0  0
 17 18  1  0  0  0
 18 19  1  0  0  0
 18 23  1  0  0  0
 19 20  2  0  0  0
 19 21  1  0  0  0
 21 22  2  0  0  0
 23 24  1  0  0  0
 23 38  1  0  0  0
 23 39  1  0  0  0
 24 25  2  0  0  0
 24 26  1  0  0  0
 26 40  1  0  0  0
M  END
> <s_m_entry_id>
7017

> <s_m_entry_name>
ligand_docking-pose.159

> <s_m_Source_Path>
/home/csk/Desktop/cluster/DUD-E-result/aldr

> <s_m_Source_File>
ligand_docking-pose.sdf

> <i_m_Source_File_Index>
159

> <i_lp_mmshare_version>
53161

> <r_lp_tautomer_probability>
1

> <s_lp_Force_Field>
OPLS_2005

> <r_lp_Energy>
54.005473

> <b_lp_Chiralities_Consistent>
1

> <s_lp_Variant>
227385-1

> <s_i_glide_gridfile>
glide-grid_2hv5

> <i_i_glide_lignum>
388

> <i_i_glide_rotatable_bonds>
5

> <r_i_docking_score>
-9.50585479483686

> <r_i_glide_ligand_efficiency>
-0.365609799801418

> <r_i_glide_ligand_efficiency_sa>
-1.08311759330661

> <r_i_glide_ligand_efficiency_ln>
-2.23241880731378

> <r_i_glide_gscore>
-9.50585479483686

> <r_i_glide_lipo>
-3.8265415989498

> <r_i_glide_hbond>
-0.32

> <r_i_glide_metal>
0

> <r_i_glide_rewards>
-3.61074373201754

> <r_i_glide_evdw>
-40.3641929626465

> <r_i_glide_ecoul>
-2.34364128112793

> <r_i_glide_erotb>
0.621186376431983

> <r_i_glide_esite>
0

> <r_i_glide_emodel>
-61.9466616215372

> <r_i_glide_energy>
-42.7078342437744

> <r_i_glide_einternal>
2.55349659919739

> <i_i_glide_confnum>
10

> <i_i_glide_posenum>
277

> <r_i_glide_eff_state_penalty>
0

> <i_f3d_flags>
0

> <s_user_duplicate_titles>
227385

> <s_m_subgroup_title>
dock_pv

> <s_m_subgroupid>
dock_pv1

> <b_m_subgroup_collapsed>
0

$$$$
99437
                    3D
 Schrodinger Suite 2021-1.
 42 45  0  0  1  0            999 V2000
   17.8039   -3.2260    9.4404 C   0  0  0  0  0  0
   17.1131   -4.2479   10.3238 C   0  0  0  0  0  0
   15.7528   -4.5179   10.1608 C   0  0  0  0  0  0
   15.1280   -5.4549   10.9810 C   0  0  0  0  0  0
   15.8565   -6.1145   11.9663 C   0  0  0  0  0  0
   17.2030   -5.8124   12.1897 C   0  0  0  0  0  0
   17.8279   -4.8965   11.3358 C   0  0  0  0  0  0
   18.0006   -6.3621   13.3849 C   0  0  0  0  0  0
   17.6960   -7.7130   13.9552 N   0  0  0  0  0  0
   18.6615   -8.6658   13.7361 C   0  0  0  0  0  0
   19.8098   -8.3964   13.3808 O   0  0  0  0  0  0
   18.2649  -10.0848   14.0598 C   0  0  0  0  0  0
   19.0542  -11.1221   13.5382 C   0  0  0  0  0  0
   18.8178  -12.4424   13.9047 C   0  0  0  0  0  0
   17.8148  -12.7306   14.8215 C   0  0  0  0  0  0
   17.0497  -11.6982   15.3583 C   0  0  0  0  0  0
   17.2468  -10.3537   14.9811 C   0  0  0  0  0  0
   16.4229   -9.1616   15.5261 C   0  0  1  0  0  0
   16.5680   -7.8165   14.7420 C   0  0  0  0  0  0
   15.7472   -6.9146   14.9165 O   0  0  0  0  0  0
   14.9593   -9.5664   15.7663 C   0  0  0  0  0  0
   14.9513   -9.9883   17.2242 C   0  0  0  0  0  0
   14.1450  -10.7204   17.7800 O   0  0  0  0  0  0
   16.0389   -9.4517   17.7836 N   0  0  0  0  0  0
   16.8790   -8.8325   16.9510 C   0  0  0  0  0  0
   17.8299   -8.1310   17.2866 O   0  0  0  0  0  0
   17.0993   -2.6859    8.8066 H   0  0  0  0  0  0
   18.3257   -2.4907   10.0539 H   0  0  0  0  0  0
   18.5449   -3.7148    8.8092 H   0  0  0  0  0  0
   15.1774   -4.0102    9.3990 H   0  0  0  0  0  0
   14.0766   -5.6701   10.8542 H   0  0  0  0  0  0
   15.3449   -6.8382   12.5695 H   0  0  0  0  0  0
   18.8692   -4.6543   11.4833 H   0  0  0  0  0  0
   19.0528   -6.2670   13.1118 H   0  0  0  0  0  0
   17.9079   -5.6481   14.1967 H   0  0  0  0  0  0
   19.8639  -10.9162   12.8528 H   0  0  0  0  0  0
   19.4238  -13.2363   13.4934 H   0  0  0  0  0  0
   17.6317  -13.7523   15.1211 H   0  0  0  0  0  0
   16.2855  -11.9734   16.0681 H   0  0  0  0  0  0
   14.2341   -8.7585   15.6537 H   0  0  0  0  0  0
   14.6173  -10.3825   15.1303 H   0  0  0  0  0  0
   16.2073   -9.4894   18.7793 H   0  0  0  0  0  0
  1  2  1  0  0  0
  1 27  1  0  0  0
  1 28  1  0  0  0
  1 29  1  0  0  0
  2  7  1  0  0  0
  2  3  2  0  0  0
  3  4  1  0  0  0
  3 30  1  0  0  0
  4  5  2  0  0  0
  4 31  1  0  0  0
  5  6  1  0  0  0
  5 32  1  0  0  0
  6  7  2  0  0  0
  6  8  1  0  0  0
  7 33  1  0  0  0
  8  9  1  0  0  0
  8 34  1  0  0  0
  8 35  1  0  0  0
  9 19  1  0  0  0
  9 10  1  0  0  0
 10 11  2  0  0  0
 10 12  1  0  0  0
 12 17  2  0  0  0
 12 13  1  0  0  0
 13 14  2  0  0  0
 13 36  1  0  0  0
 14 15  1  0  0  0
 14 37  1  0  0  0
 15 16  2  0  0  0
 15 38  1  0  0  0
 16 17  1  0  0  0
 16 39  1  0  0  0
 17 18  1  0  0  0
 18 25  1  0  0  0
 18 19  1  0  0  0
 18 21  1  0  0  0
 19 20  2  0  0  0
 21 22  1  0  0  0
 21 40  1  0  0  0
 21 41  1  0  0  0
 22 23  2  0  0  0
 22 24  1  0  0  0
 24 25  1  0  0  0
 24 42  1  0  0  0
 25 26  2  0  0  0
M  END
> <s_m_entry_id>
7018

> <s_m_entry_name>
ligand_docking-pose.160

> <s_m_Source_Path>
/home/csk/Desktop/cluster/DUD-E-result/aldr

> <s_m_Source_File>
ligand_docking-pose.sdf

> <i_m_Source_File_Index>
160

> <i_lp_mmshare_version>
53161

> <r_lp_tautomer_probability>
0.99999999995914

> <s_lp_Force_Field>
OPLS_2005

> <r_lp_Energy>
32.935498

> <b_lp_Chiralities_Consistent>
1

> <s_lp_Variant>
99437-2

> <s_i_glide_gridfile>
glide-grid_2hv5

> <i_i_glide_lignum>
520

> <i_i_glide_rotatable_bonds>
2

> <r_i_docking_score>
-9.50437897876187

> <r_i_glide_ligand_efficiency>
-0.365553037644687

> <r_i_glide_ligand_efficiency_sa>
-1.08294943564064

> <r_i_glide_ligand_efficiency_ln>
-2.23207221675112

> <r_i_glide_gscore>
-9.50437897876187

> <r_i_glide_lipo>
-3.94499769459585

> <r_i_glide_hbond>
-0.00729502960214249

> <r_i_glide_metal>
0

> <r_i_glide_rewards>
-3.73396336363636

> <r_i_glide_evdw>
-42.9003105163574

> <r_i_glide_ecoul>
0.0877387523651123

> <r_i_glide_erotb>
0.313731822035587

> <r_i_glide_esite>
0

> <r_i_glide_emodel>
-50.9445250694745

> <r_i_glide_energy>
-42.8125717639923

> <r_i_glide_einternal>
0.833124756813049

> <i_i_glide_confnum>
8

> <i_i_glide_posenum>
35

> <r_i_glide_eff_state_penalty>
0

> <i_f3d_flags>
0

> <s_user_duplicate_titles>
99437

> <s_m_subgroup_title>
dock_pv

> <s_m_subgroupid>
dock_pv1

> <b_m_subgroup_collapsed>
0

$$$$
267916
                    3D
 Schrodinger Suite 2021-1.
 32 34  0  0  1  0            999 V2000
   17.0922   -4.2828   10.1194 C   0  0  0  0  0  0
   18.0868   -4.6544   11.0192 C   0  0  0  0  0  0
   17.7428   -5.5236   12.0638 C   0  0  0  0  0  0
   16.4243   -6.0294   12.2090 C   0  0  0  0  0  0
   15.4371   -5.6334   11.2771 C   0  0  0  0  0  0
   15.7932   -4.7630   10.2468 C   0  0  0  0  0  0
   13.7898   -6.1245   11.3813 Cl  0  0  0  0  0  0
   16.2523   -6.8346   13.3049 N   0  0  0  0  0  0
   17.3433   -6.9287   14.0316 C   0  0  0  0  0  0
   18.7321   -6.1175   13.3812 S   0  0  0  0  0  0
   17.4841   -7.5961   15.3932 C   0  0  0  0  0  0
   16.3746   -8.4470   15.8435 N   0  0  0  0  0  0
   15.2517   -7.9508   16.3946 C   0  0  0  0  0  0
   14.9445   -6.7732   16.5907 O   0  0  0  0  0  0
   14.4076   -9.1527   16.7152 C   0  0  0  0  0  0
   15.2296  -10.2227   16.2174 N   0  0  0  0  0  0
   16.4309   -9.8003   15.7806 C   0  0  0  0  0  0
   17.3910  -10.4974   15.4424 O   0  0  0  0  0  0
   14.7960  -11.6289   16.1491 C   0  0  0  0  0  0
   15.0788  -12.3501   17.4747 C   0  0  0  0  0  0
   16.0277  -12.1143   18.1911 O   0  0  0  0  0  0
   14.1462  -13.3185   17.6923 O   0  0  0  0  0  0
   17.3218   -3.6024    9.3131 H   0  0  0  0  0  0
   19.0818   -4.2533   10.9353 H   0  0  0  0  0  0
   15.0408   -4.4450    9.5415 H   0  0  0  0  0  0
   17.6522   -6.8339   16.1566 H   0  0  0  0  0  0
   18.4068   -8.1784   15.4143 H   0  0  0  0  0  0
   13.4615   -9.1147   16.1816 H   0  0  0  0  0  0
   14.2086   -9.2736   17.7812 H   0  0  0  0  0  0
   15.3577  -12.1610   15.3808 H   0  0  0  0  0  0
   13.7451  -11.6770   15.8675 H   0  0  0  0  0  0
   13.4316  -13.3139   17.0557 H   0  0  0  0  0  0
  1  6  1  0  0  0
  1  2  2  0  0  0
  1 23  1  0  0  0
  2  3  1  0  0  0
  2 24  1  0  0  0
  3 10  1  0  0  0
  3  4  2  0  0  0
  4  5  1  0  0  0
  4  8  1  0  0  0
  5  6  2  0  0  0
  5  7  1  0  0  0
  6 25  1  0  0  0
  8  9  2  0  0  0
  9 10  1  0  0  0
  9 11  1  0  0  0
 11 12  1  0  0  0
 11 26  1  0  0  0
 11 27  1  0  0  0
 12 17  1  0  0  0
 12 13  1  0  0  0
 13 14  2  0  0  0
 13 15  1  0  0  0
 15 16  1  0  0  0
 15 28  1  0  0  0
 15 29  1  0  0  0
 16 17  1  0  0  0
 16 19  1  0  0  0
 17 18  2  0  0  0
 19 20  1  0  0  0
 19 30  1  0  0  0
 19 31  1  0  0  0
 20 21  2  0  0  0
 20 22  1  0  0  0
 22 32  1  0  0  0
M  END
> <s_m_entry_id>
7021

> <s_m_entry_name>
ligand_docking-pose.163

> <s_m_Source_Path>
/home/csk/Desktop/cluster/DUD-E-result/aldr

> <s_m_Source_File>
ligand_docking-pose.sdf

> <i_m_Source_File_Index>
163

> <i_lp_mmshare_version>
53161

> <r_lp_tautomer_probability>
1

> <s_lp_Force_Field>
OPLS_2005

> <r_lp_Energy>
16.408949

> <b_lp_Chiralities_Consistent>
1

> <s_lp_Variant>
267916-1

> <s_i_glide_gridfile>
glide-grid_2hv5

> <i_i_glide_lignum>
38

> <i_i_glide_rotatable_bonds>
5

> <r_i_docking_score>
-9.49322974339087

> <r_i_glide_ligand_efficiency>
-0.431510442881403

> <r_i_glide_ligand_efficiency_sa>
-1.20910923129641

> <r_i_glide_ligand_efficiency_ln>
-2.32049162325312

> <r_i_glide_gscore>
-9.49322974339087

> <r_i_glide_lipo>
-3.38920853966822

> <r_i_glide_hbond>
-0.555103816258868

> <r_i_glide_metal>
0

> <r_i_glide_rewards>
-3.46522688475774

> <r_i_glide_evdw>
-40.515754699707

> <r_i_glide_ecoul>
-4.7588062286377

> <r_i_glide_erotb>
0.655918166574966

> <r_i_glide_esite>
0

> <r_i_glide_emodel>
-68.7890401100522

> <r_i_glide_energy>
-45.2745609283447

> <r_i_glide_einternal>
3.78763151168823

> <i_i_glide_confnum>
7

> <i_i_glide_posenum>
131

> <r_i_glide_eff_state_penalty>
0

> <i_f3d_flags>
0

> <s_user_duplicate_titles>
267916

> <s_m_subgroup_title>
dock_pv

> <s_m_subgroupid>
dock_pv1

> <b_m_subgroup_collapsed>
0

$$$$
44795
                    3D
 Schrodinger Suite 2021-1.
 37 39  0  0  1  0            999 V2000
   17.7240  -12.3468   14.8993 C   0  0  0  0  0  0
   18.3192  -11.9085   13.7140 C   0  0  0  0  0  0
   18.5053  -10.5444   13.4884 C   0  0  0  0  0  0
   18.0738   -9.6245   14.4464 C   0  0  0  0  0  0
   17.4883  -10.0546   15.6270 C   0  0  0  0  0  0
   17.3093  -11.4220   15.8600 C   0  0  0  0  0  0
   17.1538   -8.8505   16.4566 C   0  0  1  0  0  0
   17.7254   -7.6996   15.6070 C   0  0  0  0  0  0
   17.7442   -6.5169   15.9366 O   0  0  0  0  0  0
   18.1865   -8.2349   14.4568 N   0  0  0  0  0  0
   18.7005   -7.3742   13.3833 C   0  0  0  0  0  0
   17.6802   -6.5704   12.5648 C   0  0  0  0  0  0
   18.1449   -5.5107   11.7829 C   0  0  0  0  0  0
   17.2736   -4.7774   10.9814 C   0  0  0  0  0  0
   15.9188   -5.0888   10.9814 C   0  0  0  0  0  0
   15.4312   -6.1153   11.7836 C   0  0  0  0  0  0
   16.3098   -6.8494   12.5818 C   0  0  0  0  0  0
   15.0719   -4.3868   10.2001 F   0  0  0  0  0  0
   15.6267   -8.6838   16.7639 C   0  0  1  0  0  0
   15.1024   -9.8093   17.5548 C   0  0  0  0  0  0
   14.6954  -10.6962   18.1791 N   0  0  0  0  0  0
   15.2210   -7.3203   17.3421 C   0  0  0  0  0  0
   14.5462   -6.5151   16.7083 O   0  0  0  0  0  0
   15.7457   -7.0930   18.5812 O   0  0  0  0  0  0
   17.5848  -13.4040   15.0739 H   0  0  0  0  0  0
   18.6438  -12.6264   12.9755 H   0  0  0  0  0  0
   18.9882  -10.2230   12.5813 H   0  0  0  0  0  0
   16.8577  -11.7811   16.7737 H   0  0  0  0  0  0
   17.7260   -8.8715   17.3853 H   0  0  0  0  0  0
   19.4220   -6.6749   13.8112 H   0  0  0  0  0  0
   19.2522   -8.0155   12.7002 H   0  0  0  0  0  0
   19.1928   -5.2704   11.7813 H   0  0  0  0  0  0
   17.6404   -3.9724   10.3634 H   0  0  0  0  0  0
   14.3737   -6.3369   11.7795 H   0  0  0  0  0  0
   15.9231   -7.6468   13.1947 H   0  0  0  0  0  0
   15.0935   -8.7675   15.8152 H   0  0  0  0  0  0
   16.2697   -7.8197   18.9225 H   0  0  0  0  0  0
  1  6  1  0  0  0
  1  2  2  0  0  0
  1 25  1  0  0  0
  2  3  1  0  0  0
  2 26  1  0  0  0
  3  4  2  0  0  0
  3 27  1  0  0  0
  4 10  1  0  0  0
  4  5  1  0  0  0
  5  6  2  0  0  0
  5  7  1  0  0  0
  6 28  1  0  0  0
  7  8  1  0  0  0
  7 19  1  0  0  0
  7 29  1  0  0  0
  8  9  2  0  0  0
  8 10  1  0  0  0
 10 11  1  0  0  0
 11 12  1  0  0  0
 11 30  1  0  0  0
 11 31  1  0  0  0
 12 17  1  0  0  0
 12 13  2  0  0  0
 13 14  1  0  0  0
 13 32  1  0  0  0
 14 15  2  0  0  0
 14 33  1  0  0  0
 15 16  1  0  0  0
 15 18  1  0  0  0
 16 17  2  0  0  0
 16 34  1  0  0  0
 17 35  1  0  0  0
 19 20  1  0  0  0
 19 22  1  0  0  0
 19 36  1  0  0  0
 20 21  3  0  0  0
 22 23  2  0  0  0
 22 24  1  0  0  0
 24 37  1  0  0  0
M  END
> <s_m_entry_id>
7022

> <s_m_entry_name>
ligand_docking-pose.164

> <s_m_Source_Path>
/home/csk/Desktop/cluster/DUD-E-result/aldr

> <s_m_Source_File>
ligand_docking-pose.sdf

> <i_m_Source_File_Index>
164

> <i_lp_mmshare_version>
53161

> <r_lp_tautomer_probability>
1

> <s_lp_Force_Field>
OPLS_2005

> <r_lp_Energy>
33.216262

> <b_lp_Chiralities_Consistent>
1

> <s_lp_Variant>
44795-3

> <s_i_glide_gridfile>
glide-grid_2hv5

> <i_i_glide_lignum>
164

> <i_i_glide_rotatable_bonds>
5

> <r_i_docking_score>
-9.45318310587455

> <r_i_glide_ligand_efficiency>
-0.39388262941144

> <r_i_glide_ligand_efficiency_sa>
-1.13615410483682

> <r_i_glide_ligand_efficiency_ln>
-2.26258049554314

> <r_i_glide_gscore>
-9.45318310587455

> <r_i_glide_lipo>
-3.68813484252055

> <r_i_glide_hbond>
-0.32

> <r_i_glide_metal>
0

> <r_i_glide_rewards>
-3.89791484318182

> <r_i_glide_evdw>
-35.1952247619629

> <r_i_glide_ecoul>
-3.3303759098053

> <r_i_glide_erotb>
0.712184204396751

> <r_i_glide_esite>
0

> <r_i_glide_emodel>
-57.1454229532132

> <r_i_glide_energy>
-38.5256006717682

> <r_i_glide_einternal>
3.7476544380188

> <i_i_glide_confnum>
46

> <i_i_glide_posenum>
389

> <r_i_glide_eff_state_penalty>
0

> <i_f3d_flags>
0

> <s_user_duplicate_titles>
44795

> <s_m_subgroup_title>
dock_pv

> <s_m_subgroupid>
dock_pv1

> <b_m_subgroup_collapsed>
0

$$$$
237295
                    3D
 Schrodinger Suite 2021-1.
 33 35  0  0  1  0            999 V2000
   15.7451  -10.4789   17.3810 C   0  0  0  0  0  0
   15.1539   -9.2283   17.5228 C   0  0  0  0  0  0
   15.5332   -8.1686   16.7041 C   0  0  0  0  0  0
   16.5280   -8.3540   15.7119 C   0  0  0  0  0  0
   16.8989   -7.3152   14.8258 C   0  0  0  0  0  0
   17.8394   -7.5346   13.8149 C   0  0  0  0  0  0
   18.4833   -8.7676   13.7300 C   0  0  0  0  0  0
   18.1450   -9.8114   14.5868 C   0  0  0  0  0  0
   17.1515   -9.6316   15.5800 C   0  0  0  0  0  0
   16.7442  -10.6876   16.4331 C   0  0  0  0  0  0
   18.0988   -6.5202   12.7771 C   0  0  0  0  0  0
   17.1315   -5.8933   12.0695 C   0  0  0  0  0  0
   17.4287   -4.9490   11.0206 C   0  0  0  0  0  0
   18.5450   -4.5663   10.6890 O   0  0  0  0  0  0
   16.2912   -4.5419   10.4147 N   0  0  0  0  0  0
   15.1066   -4.9337   10.9007 C   0  0  0  0  0  0
   13.9909   -4.5490   10.5810 O   0  0  0  0  0  0
   15.3913   -6.1150   12.1810 S   0  0  0  0  0  0
   16.3321   -3.6889    9.2092 C   0  0  0  0  0  0
   16.5493   -2.2373    9.6057 C   0  0  0  0  0  0
   17.6422   -1.7478    9.7810 O   0  0  0  0  0  0
   15.3450   -1.6347    9.7810 O   0  0  0  0  0  0
   15.4263  -11.2920   18.0165 H   0  0  0  0  0  0
   14.3897   -9.0807   18.2707 H   0  0  0  0  0  0
   15.0573   -7.2051   16.8118 H   0  0  0  0  0  0
   16.4021   -6.3598   14.9080 H   0  0  0  0  0  0
   19.2183   -8.9432   12.9572 H   0  0  0  0  0  0
   18.6217  -10.7747   14.4790 H   0  0  0  0  0  0
   17.2016  -11.6612   16.3313 H   0  0  0  0  0  0
   19.1404   -6.2890   12.5979 H   0  0  0  0  0  0
   15.4422   -3.7959    8.5848 H   0  0  0  0  0  0
   17.1674   -3.9916    8.5810 H   0  0  0  0  0  0
   14.6046   -2.2228    9.5866 H   0  0  0  0  0  0
  1 10  1  0  0  0
  1  2  2  0  0  0
  1 23  1  0  0  0
  2  3  1  0  0  0
  2 24  1  0  0  0
  3  4  2  0  0  0
  3 25  1  0  0  0
  4  9  1  0  0  0
  4  5  1  0  0  0
  5  6  2  0  0  0
  5 26  1  0  0  0
  6  7  1  0  0  0
  6 11  1  0  0  0
  7  8  2  0  0  0
  7 27  1  0  0  0
  8  9  1  0  0  0
  8 28  1  0  0  0
  9 10  2  0  0  0
 10 29  1  0  0  0
 11 12  2  0  0  0
 11 30  1  0  0  0
 12 18  1  0  0  0
 12 13  1  0  0  0
 13 14  2  0  0  0
 13 15  1  0  0  0
 15 16  1  0  0  0
 15 19  1  0  0  0
 16 17  2  0  0  0
 16 18  1  0  0  0
 19 20  1  0  0  0
 19 31  1  0  0  0
 19 32  1  0  0  0
 20 21  2  0  0  0
 20 22  1  0  0  0
 22 33  1  0  0  0
M  END
> <s_m_entry_id>
7027

> <s_m_entry_name>
ligand_docking-pose.169

> <s_m_Source_Path>
/home/csk/Desktop/cluster/DUD-E-result/aldr

> <s_m_Source_File>
ligand_docking-pose.sdf

> <i_m_Source_File_Index>
169

> <i_lp_mmshare_version>
53161

> <r_lp_tautomer_probability>
1

> <s_lp_Force_Field>
OPLS_2005

> <r_lp_Energy>
17.256318

> <b_lp_Chiralities_Consistent>
1

> <s_lp_Variant>
237295-1

> <s_i_glide_gridfile>
glide-grid_2hv5

> <i_i_glide_lignum>
291

> <i_i_glide_rotatable_bonds>
4

> <r_i_docking_score>
-9.42993075695767

> <r_i_glide_ligand_efficiency>
-0.428633216225349

> <r_i_glide_ligand_efficiency_sa>
-1.20104712905125

> <r_i_glide_ligand_efficiency_ln>
-2.30501904208222

> <r_i_glide_gscore>
-9.42993075695767

> <r_i_glide_lipo>
-3.5085342055479

> <r_i_glide_hbond>
0

> <r_i_glide_metal>
0

> <r_i_glide_rewards>
-3.97275790909091

> <r_i_glide_evdw>
-38.9284133911133

> <r_i_glide_ecoul>
-3.7983410358429

> <r_i_glide_erotb>
0.567533182613238

> <r_i_glide_esite>
0

> <r_i_glide_emodel>
-57.5317073707767

> <r_i_glide_energy>
-42.7267544269562

> <r_i_glide_einternal>
6.38463306427002

> <i_i_glide_confnum>
13

> <i_i_glide_posenum>
140

> <r_i_glide_eff_state_penalty>
0

> <i_f3d_flags>
0

> <s_user_duplicate_titles>
237295

> <s_m_subgroup_title>
dock_pv

> <s_m_subgroupid>
dock_pv1

> <b_m_subgroup_collapsed>
0

$$$$
69407
                    3D
 Schrodinger Suite 2021-1.
 33 34  0  0  1  0            999 V2000
   14.8638   -8.6413   17.3555 C   0  0  0  0  0  0
   15.9470   -7.7264   16.9377 N   0  0  0  0  0  0
   15.7681   -6.3341   17.4202 C   0  0  0  0  0  0
   16.3709   -6.1608   18.8240 C   0  0  0  0  0  0
   15.7451   -5.7147   19.7805 O   0  0  0  0  0  0
   17.6790   -6.5125   18.8741 O   0  0  0  0  0  0
   17.0669   -8.1900   16.2520 C   0  0  0  0  0  0
   17.3371   -9.8091   15.8758 S   0  0  0  0  0  0
   18.1670   -7.1577   15.8997 C   0  0  0  0  0  0
   18.8287   -7.2317   14.4901 C   0  0  0  0  0  0
   18.0154   -6.5834   13.3809 C   0  0  0  0  0  0
   18.5453   -5.7042   12.5836 N   0  0  0  0  0  0
   17.6808   -5.2137   11.6618 C   0  0  0  0  0  0
   17.9902   -4.2511   10.6824 C   0  0  0  0  0  0
   16.9765   -3.8448    9.8170 C   0  0  0  0  0  0
   15.6953   -4.3762    9.9162 C   0  0  0  0  0  0
   15.3639   -5.3172   10.8894 C   0  0  0  0  0  0
   16.3743   -5.7423   11.7554 C   0  0  0  0  0  0
   16.3322   -6.9135   13.0611 S   0  0  0  0  0  0
   14.1077   -5.8084   10.9812 F   0  0  0  0  0  0
   17.2333   -2.9154    8.8693 F   0  0  0  0  0  0
   19.2298   -3.7146   10.5783 F   0  0  0  0  0  0
   14.4822   -9.2155   16.5092 H   0  0  0  0  0  0
   15.2261   -9.3404   18.1099 H   0  0  0  0  0  0
   14.0131   -8.1111   17.7840 H   0  0  0  0  0  0
   14.7044   -6.1153   17.4846 H   0  0  0  0  0  0
   16.1399   -5.5678   16.7520 H   0  0  0  0  0  0
   18.0231   -6.4306   19.7663 H   0  0  0  0  0  0
   17.8714   -6.1243   16.0409 H   0  0  0  0  0  0
   18.9435   -7.3051   16.6512 H   0  0  0  0  0  0
   19.7930   -6.7234   14.5617 H   0  0  0  0  0  0
   19.0995   -8.2505   14.2118 H   0  0  0  0  0  0
   14.9450   -4.0557    9.2157 H   0  0  0  0  0  0
  1  2  1  0  0  0
  1 23  1  0  0  0
  1 24  1  0  0  0
  1 25  1  0  0  0
  2  3  1  0  0  0
  2  7  1  0  0  0
  3  4  1  0  0  0
  3 26  1  0  0  0
  3 27  1  0  0  0
  4  5  2  0  0  0
  4  6  1  0  0  0
  6 28  1  0  0  0
  7  8  2  0  0  0
  7  9  1  0  0  0
  9 10  1  0  0  0
  9 29  1  0  0  0
  9 30  1  0  0  0
 10 11  1  0  0  0
 10 31  1  0  0  0
 10 32  1  0  0  0
 11 19  1  0  0  0
 11 12  2  0  0  0
 12 13  1  0  0  0
 13 18  2  0  0  0
 13 14  1  0  0  0
 14 15  2  0  0  0
 14 22  1  0  0  0
 15 16  1  0  0  0
 15 21  1  0  0  0
 16 17  2  0  0  0
 16 33  1  0  0  0
 17 18  1  0  0  0
 17 20  1  0  0  0
 18 19  1  0  0  0
M  END
> <s_m_entry_id>
7029

> <s_m_entry_name>
ligand_docking-pose.171

> <s_m_Source_Path>
/home/csk/Desktop/cluster/DUD-E-result/aldr

> <s_m_Source_File>
ligand_docking-pose.sdf

> <i_m_Source_File_Index>
171

> <i_lp_mmshare_version>
53161

> <r_lp_tautomer_probability>
1

> <s_lp_Force_Field>
OPLS_2005

> <r_lp_Energy>
12.732221

> <b_lp_Chiralities_Consistent>
1

> <s_lp_Variant>
69407-1

> <s_i_glide_gridfile>
glide-grid_2hv5

> <i_i_glide_lignum>
697

> <i_i_glide_rotatable_bonds>
7

> <r_i_docking_score>
-9.41236242850955

> <r_i_glide_ligand_efficiency>
-0.427834655841343

> <r_i_glide_ligand_efficiency_sa>
-1.19880953144966

> <r_i_glide_ligand_efficiency_ln>
-2.30072470178915

> <r_i_glide_gscore>
-9.41236242850955

> <r_i_glide_lipo>
-3.55747543036354

> <r_i_glide_hbond>
-0.32

> <r_i_glide_metal>
0

> <r_i_glide_rewards>
-3.59980722046022

> <r_i_glide_evdw>
-38.2134056091309

> <r_i_glide_ecoul>
-5.22148036956787

> <r_i_glide_erotb>
0.784274309541835

> <r_i_glide_esite>
-0.0254617513359024

> <r_i_glide_emodel>
-65.2231198610618

> <r_i_glide_energy>
-43.4348859786987

> <r_i_glide_einternal>
5.17947626113892

> <i_i_glide_confnum>
22

> <i_i_glide_posenum>
82

> <r_i_glide_eff_state_penalty>
0

> <i_f3d_flags>
0

> <s_user_duplicate_titles>
69407

> <s_m_subgroup_title>
dock_pv

> <s_m_subgroupid>
dock_pv1

> <b_m_subgroup_collapsed>
0

$$$$
268558
                    3D
 Schrodinger Suite 2021-1.
 31 33  0  0  1  0            999 V2000
   15.6749   -4.5067   10.0097 C   0  0  0  0  0  0
   15.3019   -5.4259   10.9855 C   0  0  0  0  0  0
   16.2840   -5.8293   11.8967 C   0  0  0  0  0  0
   17.6094   -5.3364   11.8357 C   0  0  0  0  0  0
   17.9561   -4.4190   10.8330 C   0  0  0  0  0  0
   16.9704   -4.0084    9.9373 C   0  0  0  0  0  0
   17.3452   -2.8472    8.7263 Cl  0  0  0  0  0  0
   18.4436   -5.8038   12.8088 N   0  0  0  0  0  0
   17.8396   -6.6199   13.6342 C   0  0  0  0  0  0
   16.1566   -6.9149   13.2534 S   0  0  0  0  0  0
   18.5632   -7.2393   14.8287 C   0  0  0  0  0  0
   17.7010   -8.0052   15.7579 N   0  0  0  0  0  0
   17.0277   -7.4681   16.7866 C   0  0  0  0  0  0
   17.0649   -6.3222   17.2358 O   0  0  0  0  0  0
   16.1596   -8.5074   17.2587 C   0  0  0  0  0  0
   15.3449   -8.3988   18.1773 O   0  0  0  0  0  0
   16.4104   -9.5648   16.4775 N   0  0  0  0  0  0
   17.4028   -9.3121   15.5975 C   0  0  0  0  0  0
   18.0382  -10.1399   14.9443 O   0  0  0  0  0  0
   15.4882  -10.7154   16.3824 C   0  0  0  0  0  0
   16.0323  -11.9406   17.1331 C   0  0  0  0  0  0
   17.0578  -11.9747   17.7803 O   0  0  0  0  0  0
   15.1721  -12.9792   16.9715 O   0  0  0  0  0  0
   14.9456   -4.1591    9.2952 H   0  0  0  0  0  0
   14.2868   -5.7928   11.0500 H   0  0  0  0  0  0
   18.9449   -4.0059   10.7701 H   0  0  0  0  0  0
   19.0895   -6.4656   15.3873 H   0  0  0  0  0  0
   19.3538   -7.8989   14.4661 H   0  0  0  0  0  0
   15.3323  -10.9795   15.3385 H   0  0  0  0  0  0
   14.5072  -10.4660   16.7912 H   0  0  0  0  0  0
   15.4924  -13.7551   17.4356 H   0  0  0  0  0  0
  1  6  1  0  0  0
  1  2  2  0  0  0
  1 24  1  0  0  0
  2  3  1  0  0  0
  2 25  1  0  0  0
  3 10  1  0  0  0
  3  4  2  0  0  0
  4  5  1  0  0  0
  4  8  1  0  0  0
  5  6  2  0  0  0
  5 26  1  0  0  0
  6  7  1  0  0  0
  8  9  2  0  0  0
  9 10  1  0  0  0
  9 11  1  0  0  0
 11 12  1  0  0  0
 11 27  1  0  0  0
 11 28  1  0  0  0
 12 18  1  0  0  0
 12 13  1  0  0  0
 13 14  2  0  0  0
 13 15  1  0  0  0
 15 16  2  0  0  0
 15 17  1  0  0  0
 17 18  1  0  0  0
 17 20  1  0  0  0
 18 19  2  0  0  0
 20 21  1  0  0  0
 20 29  1  0  0  0
 20 30  1  0  0  0
 21 22  2  0  0  0
 21 23  1  0  0  0
 23 31  1  0  0  0
M  END
> <s_m_entry_id>
7033

> <s_m_entry_name>
ligand_docking-pose.175

> <s_m_Source_Path>
/home/csk/Desktop/cluster/DUD-E-result/aldr

> <s_m_Source_File>
ligand_docking-pose.sdf

> <i_m_Source_File_Index>
175

> <i_lp_mmshare_version>
53161

> <r_lp_tautomer_probability>
1

> <s_lp_Force_Field>
OPLS_2005

> <r_lp_Energy>
9.2729

> <b_lp_Chiralities_Consistent>
1

> <s_lp_Variant>
268558-1

> <s_i_glide_gridfile>
glide-grid_2hv5

> <i_i_glide_lignum>
40

> <i_i_glide_rotatable_bonds>
5

> <r_i_docking_score>
-9.38116943722712

> <r_i_glide_ligand_efficiency>
-0.407876932053353

> <r_i_glide_ligand_efficiency_sa>
-1.15994773769735

> <r_i_glide_ligand_efficiency_ln>
-2.26845183366298

> <r_i_glide_gscore>
-9.38116943722712

> <r_i_glide_lipo>
-3.28595341666508

> <r_i_glide_hbond>
-0.307468082184861

> <r_i_glide_metal>
0

> <r_i_glide_rewards>
-3.51356618349433

> <r_i_glide_evdw>
-41.6700286865234

> <r_i_glide_ecoul>
-5.3416953086853

> <r_i_glide_erotb>
0.610573975746114

> <r_i_glide_esite>
0

> <r_i_glide_emodel>
-69.5819174601911

> <r_i_glide_energy>
-47.0117239952087

> <r_i_glide_einternal>
6.60712766647339

> <i_i_glide_confnum>
22

> <i_i_glide_posenum>
222

> <r_i_glide_eff_state_penalty>
0

> <i_f3d_flags>
0

> <s_user_duplicate_titles>
268558

> <s_m_subgroup_title>
dock_pv

> <s_m_subgroupid>
dock_pv1

> <b_m_subgroup_collapsed>
0

$$$$
68496
                    3D
 Schrodinger Suite 2021-1.
 40 42  0  0  1  0            999 V2000
   15.2737  -12.3223   17.8571 C   0  0  0  0  0  0
   16.6277  -12.3399   17.5390 C   0  0  0  0  0  0
   17.2592  -11.1608   17.1536 C   0  0  0  0  0  0
   16.5298   -9.9654   17.0463 C   0  0  0  0  0  0
   15.1653   -9.9642   17.3627 C   0  0  0  0  0  0
   14.5453  -11.1388   17.7817 C   0  0  0  0  0  0
   17.1800   -8.7387   16.7184 N   0  0  0  0  0  0
   17.1590   -7.7271   17.8181 C   0  0  0  0  0  0
   16.0677   -6.6531   17.6629 C   0  0  0  0  0  0
   15.2609   -6.5890   16.7367 O   0  0  0  0  0  0
   16.1440   -5.7611   18.6904 O   0  0  0  0  0  0
   17.9085   -8.4960   15.5507 C   0  0  0  0  0  0
   18.1450   -9.6296   14.3184 S   0  0  0  0  0  0
   18.5098   -7.0651   15.4312 C   0  0  0  0  0  0
   19.1563   -6.6130   14.0997 C   0  0  0  0  0  0
   18.1626   -6.1623   13.0455 C   0  0  0  0  0  0
   18.5450   -5.3135   12.1483 N   0  0  0  0  0  0
   17.5571   -4.9241   11.3180 C   0  0  0  0  0  0
   17.7028   -3.9743   10.2981 C   0  0  0  0  0  0
   16.5791   -3.6681    9.5384 C   0  0  0  0  0  0
   15.3708   -4.3215    9.7577 C   0  0  0  0  0  0
   15.2055   -5.2537   10.7750 C   0  0  0  0  0  0
   16.3159   -5.5483   11.5602 C   0  0  0  0  0  0
   16.4771   -6.6247   12.9289 S   0  0  0  0  0  0
   14.0102   -5.8516   10.9810 F   0  0  0  0  0  0
   16.6623   -2.7269    8.5769 F   0  0  0  0  0  0
   18.8873   -3.3574   10.0626 F   0  0  0  0  0  0
   14.7799  -13.2316   18.1700 H   0  0  0  0  0  0
   17.1890  -13.2612   17.6037 H   0  0  0  0  0  0
   18.3182  -11.1792   16.9437 H   0  0  0  0  0  0
   14.5796   -9.0591   17.3011 H   0  0  0  0  0  0
   13.5015  -11.1353   18.0515 H   0  0  0  0  0  0
   16.9450   -8.2314   18.7592 H   0  0  0  0  0  0
   18.1337   -7.2647   17.9715 H   0  0  0  0  0  0
   16.8664   -5.9581   19.2910 H   0  0  0  0  0  0
   17.7344   -6.3349   15.6463 H   0  0  0  0  0  0
   19.2589   -6.9150   16.2051 H   0  0  0  0  0  0
   19.8085   -5.7705   14.3352 H   0  0  0  0  0  0
   19.8436   -7.3631   13.7057 H   0  0  0  0  0  0
   14.5450   -4.1148    9.1070 H   0  0  0  0  0  0
  1  6  1  0  0  0
  1  2  2  0  0  0
  1 28  1  0  0  0
  2  3  1  0  0  0
  2 29  1  0  0  0
  3  4  2  0  0  0
  3 30  1  0  0  0
  4  5  1  0  0  0
  4  7  1  0  0  0
  5  6  2  0  0  0
  5 31  1  0  0  0
  6 32  1  0  0  0
  7  8  1  0  0  0
  7 12  1  0  0  0
  8  9  1  0  0  0
  8 33  1  0  0  0
  8 34  1  0  0  0
  9 10  2  0  0  0
  9 11  1  0  0  0
 11 35  1  0  0  0
 12 13  2  0  0  0
 12 14  1  0  0  0
 14 15  1  0  0  0
 14 36  1  0  0  0
 14 37  1  0  0  0
 15 16  1  0  0  0
 15 38  1  0  0  0
 15 39  1  0  0  0
 16 24  1  0  0  0
 16 17  2  0  0  0
 17 18  1  0  0  0
 18 23  2  0  0  0
 18 19  1  0  0  0
 19 20  2  0  0  0
 19 27  1  0  0  0
 20 21  1  0  0  0
 20 26  1  0  0  0
 21 22  2  0  0  0
 21 40  1  0  0  0
 22 23  1  0  0  0
 22 25  1  0  0  0
 23 24  1  0  0  0
M  END
> <s_m_entry_id>
7036

> <s_m_entry_name>
ligand_docking-pose.178

> <s_m_Source_Path>
/home/csk/Desktop/cluster/DUD-E-result/aldr

> <s_m_Source_File>
ligand_docking-pose.sdf

> <i_m_Source_File_Index>
178

> <i_lp_mmshare_version>
53161

> <r_lp_tautomer_probability>
1

> <s_lp_Force_Field>
OPLS_2005

> <r_lp_Energy>
27.730248

> <b_lp_Chiralities_Consistent>
1

> <s_lp_Variant>
68496-1

> <s_i_glide_gridfile>
glide-grid_2hv5

> <i_i_glide_lignum>
435

> <i_i_glide_rotatable_bonds>
8

> <r_i_docking_score>
-9.33972111135785

> <r_i_glide_ligand_efficiency>
-0.345915596716958

> <r_i_glide_ligand_efficiency_sa>
-1.03774678901079

> <r_i_glide_ligand_efficiency_ln>
-2.1741330973876

> <r_i_glide_gscore>
-9.33972111135785

> <r_i_glide_lipo>
-3.9686056846074

> <r_i_glide_hbond>
-0.233647390869392

> <r_i_glide_metal>
0

> <r_i_glide_rewards>
-2.39802109393229

> <r_i_glide_evdw>
-45.074634552002

> <r_i_glide_ecoul>
-7.13626050949097

> <r_i_glide_erotb>
0.584723862074971

> <r_i_glide_esite>
0

> <r_i_glide_emodel>
-73.3060181040601

> <r_i_glide_energy>
-52.2108950614929

> <r_i_glide_einternal>
7.38508939743042

> <i_i_glide_confnum>
46

> <i_i_glide_posenum>
387

> <r_i_glide_eff_state_penalty>
0

> <i_f3d_flags>
0

> <s_user_duplicate_titles>
68496

> <s_m_subgroup_title>
dock_pv

> <s_m_subgroupid>
dock_pv1

> <b_m_subgroup_collapsed>
0

$$$$
100292
                    3D
 Schrodinger Suite 2021-1.
 42 45  0  0  1  0            999 V2000
   18.7255  -12.5090   14.0778 C   0  0  0  0  0  0
   17.7526  -12.7605   15.0365 C   0  0  0  0  0  0
   17.0118  -11.7066   15.5650 C   0  0  0  0  0  0
   17.2048  -10.3762   15.1408 C   0  0  0  0  0  0
   18.1966  -10.1429   14.1809 C   0  0  0  0  0  0
   18.9575  -11.2021   13.6632 C   0  0  0  0  0  0
   18.6012   -8.7385   13.8076 C   0  0  0  0  0  0
   19.7317   -8.4955   13.3810 O   0  0  0  0  0  0
   17.6692   -7.7646   14.0704 N   0  0  0  0  0  0
   16.5450   -7.8409   14.8616 C   0  0  0  0  0  0
   15.7450   -6.9150   15.0260 O   0  0  0  0  0  0
   16.3973   -9.1663   15.6711 C   0  0  1  0  0  0
   14.9365   -9.5569   15.9256 C   0  0  0  0  0  0
   14.9364   -9.9219   17.3995 C   0  0  0  0  0  0
   14.1450  -10.6568   17.9740 O   0  0  0  0  0  0
   15.9897   -9.3149   17.9510 N   0  0  0  0  0  0
   16.8630   -8.7913   17.0829 C   0  0  0  0  0  0
   17.8437   -8.1149   17.3810 O   0  0  0  0  0  0
   17.9878   -6.4141   13.5316 C   0  0  0  0  0  0
   17.2120   -5.8773   12.3215 C   0  0  0  0  0  0
   15.8790   -6.1997   12.0436 C   0  0  0  0  0  0
   15.1951   -5.5833   10.9985 C   0  0  0  0  0  0
   15.8466   -4.6561   10.1917 C   0  0  0  0  0  0
   17.1929   -4.3567   10.4266 C   0  0  0  0  0  0
   17.8604   -4.9683   11.4884 C   0  0  0  0  0  0
   17.9647   -3.4065    9.5343 C   0  0  0  0  0  0
   17.1940   -2.8882    8.5810 F   0  0  0  0  0  0
   18.5034   -2.4071   10.2311 F   0  0  0  0  0  0
   18.9449   -4.1150    8.9810 F   0  0  0  0  0  0
   19.3105  -13.3206   13.6698 H   0  0  0  0  0  0
   17.5730  -13.7709   15.3733 H   0  0  0  0  0  0
   16.2688  -11.9532   16.3069 H   0  0  0  0  0  0
   19.7442  -11.0193   12.9443 H   0  0  0  0  0  0
   14.2121   -8.7527   15.7806 H   0  0  0  0  0  0
   14.5932  -10.3995   15.3247 H   0  0  0  0  0  0
   16.1550   -9.3093   18.9474 H   0  0  0  0  0  0
   19.0489   -6.3148   13.2947 H   0  0  0  0  0  0
   17.8662   -5.7147   14.3523 H   0  0  0  0  0  0
   15.3451   -6.9161   12.6360 H   0  0  0  0  0  0
   14.1569   -5.8211   10.8189 H   0  0  0  0  0  0
   15.3022   -4.1913    9.3813 H   0  0  0  0  0  0
   18.8945   -4.7222   11.6746 H   0  0  0  0  0  0
  1  6  1  0  0  0
  1  2  2  0  0  0
  1 30  1  0  0  0
  2  3  1  0  0  0
  2 31  1  0  0  0
  3  4  2  0  0  0
  3 32  1  0  0  0
  4 12  1  0  0  0
  4  5  1  0  0  0
  5  6  2  0  0  0
  5  7  1  0  0  0
  6 33  1  0  0  0
  7  8  2  0  0  0
  7  9  1  0  0  0
  9 10  1  0  0  0
  9 19  1  0  0  0
 10 11  2  0  0  0
 10 12  1  0  0  0
 12 17  1  0  0  0
 12 13  1  0  0  0
 13 14  1  0  0  0
 13 34  1  0  0  0
 13 35  1  0  0  0
 14 15  2  0  0  0
 14 16  1  0  0  0
 16 17  1  0  0  0
 16 36  1  0  0  0
 17 18  2  0  0  0
 19 20  1  0  0  0
 19 37  1  0  0  0
 19 38  1  0  0  0
 20 25  1  0  0  0
 20 21  2  0  0  0
 21 22  1  0  0  0
 21 39  1  0  0  0
 22 23  2  0  0  0
 22 40  1  0  0  0
 23 24  1  0  0  0
 23 41  1  0  0  0
 24 25  2  0  0  0
 24 26  1  0  0  0
 25 42  1  0  0  0
 26 27  1  0  0  0
 26 28  1  0  0  0
 26 29  1  0  0  0
M  END
> <s_m_entry_id>
7037

> <s_m_entry_name>
ligand_docking-pose.179

> <s_m_Source_Path>
/home/csk/Desktop/cluster/DUD-E-result/aldr

> <s_m_Source_File>
ligand_docking-pose.sdf

> <i_m_Source_File_Index>
179

> <i_lp_mmshare_version>
53161

> <r_lp_tautomer_probability>
0.99999999995914

> <s_lp_Force_Field>
OPLS_2005

> <r_lp_Energy>
33.078378

> <b_lp_Chiralities_Consistent>
1

> <s_lp_Variant>
100292-2

> <s_i_glide_gridfile>
glide-grid_2hv5

> <i_i_glide_lignum>
255

> <i_i_glide_rotatable_bonds>
3

> <r_i_docking_score>
-9.31649457543193

> <r_i_glide_ligand_efficiency>
-0.321258433635584

> <r_i_glide_ligand_efficiency_sa>
-0.987007689944236

> <r_i_glide_ligand_efficiency_ln>
-2.13324101185534

> <r_i_glide_gscore>
-9.31649457543193

> <r_i_glide_lipo>
-3.89949681878792

> <r_i_glide_hbond>
-0.0144162582705251

> <r_i_glide_metal>
0

> <r_i_glide_rewards>
-3.36597662045454

> <r_i_glide_evdw>
-40.3231201171875

> <r_i_glide_ecoul>
-1.75271546840668

> <r_i_glide_erotb>
0.242458448201431

> <r_i_glide_esite>
0

> <r_i_glide_emodel>
-48.5318451319029

> <r_i_glide_energy>
-42.0758355855942

> <r_i_glide_einternal>
0.806246936321259

> <i_i_glide_confnum>
8

> <i_i_glide_posenum>
93

> <r_i_glide_eff_state_penalty>
0

> <i_f3d_flags>
0

> <s_user_duplicate_titles>
100292

> <s_m_subgroup_title>
dock_pv

> <s_m_subgroupid>
dock_pv1

> <b_m_subgroup_collapsed>
0

$$$$
236877
                    3D
 Schrodinger Suite 2021-1.
 37 39  0  0  1  0            999 V2000
   19.1884  -10.8415   13.0421 C   0  0  0  0  0  0
   19.0334   -9.4204   13.1331 O   0  0  0  0  0  0
   18.1450   -8.9280   14.0710 C   0  0  0  0  0  0
   17.6764   -9.7263   15.1298 C   0  0  0  0  0  0
   16.6668   -9.2711   16.0000 C   0  0  0  0  0  0
   16.0842  -10.1098   16.9816 C   0  0  0  0  0  0
   15.0363   -9.6379   17.7679 C   0  0  0  0  0  0
   14.5765   -8.3352   17.6088 C   0  0  0  0  0  0
   15.1568   -7.4764   16.6907 C   0  0  0  0  0  0
   16.1960   -7.9378   15.8593 C   0  0  0  0  0  0
   16.7449   -7.1212   14.8603 C   0  0  0  0  0  0
   17.6596   -7.6155   13.9298 C   0  0  0  0  0  0
   18.0054   -6.7409   12.7799 C   0  0  0  0  0  0
   17.0875   -6.0674   12.0366 C   0  0  0  0  0  0
   17.4199   -5.1724   10.9560 C   0  0  0  0  0  0
   18.5450   -4.8784   10.5913 O   0  0  0  0  0  0
   16.3085   -4.6757   10.3667 N   0  0  0  0  0  0
   15.1104   -4.9606   10.8851 C   0  0  0  0  0  0
   14.0145   -4.5150   10.5810 O   0  0  0  0  0  0
   15.3450   -6.1150   12.1810 S   0  0  0  0  0  0
   16.3951   -3.8144    9.1677 C   0  0  0  0  0  0
   16.5647   -2.3635    9.5954 C   0  0  0  0  0  0
   17.6457   -1.8516    9.7810 O   0  0  0  0  0  0
   15.3450   -1.7896    9.7810 O   0  0  0  0  0  0
   19.7450  -11.1343   12.1606 H   0  0  0  0  0  0
   19.7376  -11.2361   13.8966 H   0  0  0  0  0  0
   18.2235  -11.3478   12.9743 H   0  0  0  0  0  0
   18.0228  -10.7383   15.2675 H   0  0  0  0  0  0
   16.4317  -11.1267   17.0902 H   0  0  0  0  0  0
   14.5692  -10.2877   18.4937 H   0  0  0  0  0  0
   13.7450   -7.9711   18.1810 H   0  0  0  0  0  0
   14.7817   -6.4714   16.5815 H   0  0  0  0  0  0
   16.3695   -6.1150   14.7695 H   0  0  0  0  0  0
   19.0618   -6.6289   12.5810 H   0  0  0  0  0  0
   15.5351   -3.9357    8.5064 H   0  0  0  0  0  0
   17.2710   -4.0824    8.5810 H   0  0  0  0  0  0
   14.6142   -2.3900    9.5826 H   0  0  0  0  0  0
  1  2  1  0  0  0
  1 25  1  0  0  0
  1 26  1  0  0  0
  1 27  1  0  0  0
  2  3  1  0  0  0
  3 12  1  0  0  0
  3  4  2  0  0  0
  4  5  1  0  0  0
  4 28  1  0  0  0
  5 10  2  0  0  0
  5  6  1  0  0  0
  6  7  2  0  0  0
  6 29  1  0  0  0
  7  8  1  0  0  0
  7 30  1  0  0  0
  8  9  2  0  0  0
  8 31  1  0  0  0
  9 10  1  0  0  0
  9 32  1  0  0  0
 10 11  1  0  0  0
 11 12  2  0  0  0
 11 33  1  0  0  0
 12 13  1  0  0  0
 13 14  2  0  0  0
 13 34  1  0  0  0
 14 20  1  0  0  0
 14 15  1  0  0  0
 15 16  2  0  0  0
 15 17  1  0  0  0
 17 18  1  0  0  0
 17 21  1  0  0  0
 18 19  2  0  0  0
 18 20  1  0  0  0
 21 22  1  0  0  0
 21 35  1  0  0  0
 21 36  1  0  0  0
 22 23  2  0  0  0
 22 24  1  0  0  0
 24 37  1  0  0  0
M  END
> <s_m_entry_id>
7038

> <s_m_entry_name>
ligand_docking-pose.180

> <s_m_Source_Path>
/home/csk/Desktop/cluster/DUD-E-result/aldr

> <s_m_Source_File>
ligand_docking-pose.sdf

> <i_m_Source_File_Index>
180

> <i_lp_mmshare_version>
53161

> <r_lp_tautomer_probability>
1

> <s_lp_Force_Field>
OPLS_2005

> <r_lp_Energy>
22.079494

> <b_lp_Chiralities_Consistent>
1

> <s_lp_Variant>
236877-1

> <s_i_glide_gridfile>
glide-grid_2hv5

> <i_i_glide_lignum>
710

> <i_i_glide_rotatable_bonds>
5

> <r_i_docking_score>
-9.30715957640294

> <r_i_glide_ligand_efficiency>
-0.387798315683456

> <r_i_glide_ligand_efficiency_sa>
-1.11860390713581

> <r_i_glide_ligand_efficiency_ln>
-2.22763036435743

> <r_i_glide_gscore>
-9.30715957640294

> <r_i_glide_lipo>
-3.61169876676437

> <r_i_glide_hbond>
0

> <r_i_glide_metal>
0

> <r_i_glide_rewards>
-3.76803531818182

> <r_i_glide_evdw>
-39.4733505249023

> <r_i_glide_ecoul>
-2.91057538986206

> <r_i_glide_erotb>
0.482828343267674

> <r_i_glide_esite>
0

> <r_i_glide_emodel>
-57.1620969436033

> <r_i_glide_energy>
-42.3839259147644

> <r_i_glide_einternal>
7.05333662033081

> <i_i_glide_confnum>
3

> <i_i_glide_posenum>
297

> <r_i_glide_eff_state_penalty>
0

> <i_f3d_flags>
0

> <s_user_duplicate_titles>
236877

> <s_m_subgroup_title>
dock_pv

> <s_m_subgroupid>
dock_pv1

> <b_m_subgroup_collapsed>
0

$$$$
237175
                    3D
 Schrodinger Suite 2021-1.
 33 35  0  0  1  0            999 V2000
   14.9316   -9.0635   17.6871 C   0  0  0  0  0  0
   15.5394  -10.3088   17.5946 C   0  0  0  0  0  0
   16.5692  -10.5233   16.6847 C   0  0  0  0  0  0
   16.9852   -9.4790   15.8237 C   0  0  0  0  0  0
   18.0338   -9.6577   14.8983 C   0  0  0  0  0  0
   18.4079   -8.6283   14.0419 C   0  0  0  0  0  0
   17.7263   -7.4066   14.0411 C   0  0  0  0  0  0
   16.7111   -7.1960   14.9802 C   0  0  0  0  0  0
   16.3282   -8.2143   15.8862 C   0  0  0  0  0  0
   15.3004   -8.0219   16.8411 C   0  0  0  0  0  0
   18.0114   -6.3976   12.9959 C   0  0  0  0  0  0
   17.0797   -5.8397   12.1889 C   0  0  0  0  0  0
   17.4191   -4.9150   11.1346 C   0  0  0  0  0  0
   18.5450   -4.5214   10.8548 O   0  0  0  0  0  0
   16.3089   -4.5349   10.4637 N   0  0  0  0  0  0
   15.1077   -4.9193   10.9128 C   0  0  0  0  0  0
   14.0037   -4.5150   10.5810 O   0  0  0  0  0  0
   15.3459   -6.1150   12.1810 S   0  0  0  0  0  0
   16.3939   -3.7059    9.2433 C   0  0  0  0  0  0
   16.5672   -2.2419    9.6163 C   0  0  0  0  0  0
   17.6446   -1.7157    9.7810 O   0  0  0  0  0  0
   15.3450   -1.6722    9.7810 O   0  0  0  0  0  0
   19.7346   -8.9150   12.9810 Cl  0  0  0  0  0  0
   14.1450   -8.9150   18.4101 H   0  0  0  0  0  0
   15.2173  -11.1086   18.2454 H   0  0  0  0  0  0
   17.0518  -11.4884   16.6268 H   0  0  0  0  0  0
   18.5450  -10.6080   14.8556 H   0  0  0  0  0  0
   16.1818   -6.2546   15.0040 H   0  0  0  0  0  0
   14.7979   -7.0681   16.9062 H   0  0  0  0  0  0
   19.0525   -6.1208   12.8887 H   0  0  0  0  0  0
   15.5288   -3.8361    8.5891 H   0  0  0  0  0  0
   17.2535   -4.0100    8.6471 H   0  0  0  0  0  0
   14.6195   -2.2822    9.5967 H   0  0  0  0  0  0
  1 10  1  0  0  0
  1  2  2  0  0  0
  1 24  1  0  0  0
  2  3  1  0  0  0
  2 25  1  0  0  0
  3  4  2  0  0  0
  3 26  1  0  0  0
  4  9  1  0  0  0
  4  5  1  0  0  0
  5  6  2  0  0  0
  5 27  1  0  0  0
  6  7  1  0  0  0
  6 23  1  0  0  0
  7  8  2  0  0  0
  7 11  1  0  0  0
  8  9  1  0  0  0
  8 28  1  0  0  0
  9 10  2  0  0  0
 10 29  1  0  0  0
 11 12  2  0  0  0
 11 30  1  0  0  0
 12 18  1  0  0  0
 12 13  1  0  0  0
 13 14  2  0  0  0
 13 15  1  0  0  0
 15 16  1  0  0  0
 15 19  1  0  0  0
 16 17  2  0  0  0
 16 18  1  0  0  0
 19 20  1  0  0  0
 19 31  1  0  0  0
 19 32  1  0  0  0
 20 21  2  0  0  0
 20 22  1  0  0  0
 22 33  1  0  0  0
M  END
> <s_m_entry_id>
7044

> <s_m_entry_name>
ligand_docking-pose.186

> <s_m_Source_Path>
/home/csk/Desktop/cluster/DUD-E-result/aldr

> <s_m_Source_File>
ligand_docking-pose.sdf

> <i_m_Source_File_Index>
186

> <i_lp_mmshare_version>
53161

> <r_lp_tautomer_probability>
1

> <s_lp_Force_Field>
OPLS_2005

> <r_lp_Energy>
18.070837

> <b_lp_Chiralities_Consistent>
1

> <s_lp_Variant>
237175-1

> <s_i_glide_gridfile>
glide-grid_2hv5

> <i_i_glide_lignum>
293

> <i_i_glide_rotatable_bonds>
4

> <r_i_docking_score>
-9.27184587334925

> <r_i_glide_ligand_efficiency>
-0.40312373362388

> <r_i_glide_ligand_efficiency_sa>
-1.14643027364922

> <r_i_glide_ligand_efficiency_ln>
-2.24201640462604

> <r_i_glide_gscore>
-9.27184587334925

> <r_i_glide_lipo>
-3.61253997755028

> <r_i_glide_hbond>
0

> <r_i_glide_metal>
0

> <r_i_glide_rewards>
-3.73790727272727

> <r_i_glide_evdw>
-38.6746864318848

> <r_i_glide_ecoul>
-3.06435799598694

> <r_i_glide_erotb>
0.471989397920585

> <r_i_glide_esite>
0

> <r_i_glide_emodel>
-55.5385834612865

> <r_i_glide_energy>
-41.7390444278717

> <r_i_glide_einternal>
5.67060279846191

> <i_i_glide_confnum>
13

> <i_i_glide_posenum>
88

> <r_i_glide_eff_state_penalty>
0

> <i_f3d_flags>
0

> <s_user_duplicate_titles>
237175

> <s_m_subgroup_title>
dock_pv

> <s_m_subgroupid>
dock_pv1

> <b_m_subgroup_collapsed>
0

$$$$
45536
                    3D
 Schrodinger Suite 2021-1.
 41 43  0  0  1  0            999 V2000
   15.7744   -3.2116    9.5369 C   0  0  0  0  0  0
   15.2806   -4.3390   10.2538 O   0  0  0  0  0  0
   16.1493   -5.0616   11.0453 C   0  0  0  0  0  0
   15.6078   -6.1152   11.7801 C   0  0  0  0  0  0
   16.4191   -6.9024   12.6007 C   0  0  0  0  0  0
   17.7832   -6.6260   12.7159 C   0  0  0  0  0  0
   18.3020   -5.5449   12.0170 C   0  0  0  0  0  0
   17.5145   -4.7831   11.1654 C   0  0  0  0  0  0
   18.7530   -7.4229   13.6026 C   0  0  0  0  0  0
   18.1726   -8.3555   14.5727 N   0  0  0  0  0  0
   17.9998   -9.7312   14.4407 C   0  0  0  0  0  0
   18.4359  -10.5864   13.4277 C   0  0  0  0  0  0
   18.1704  -11.9539   13.5257 C   0  0  0  0  0  0
   17.4902  -12.4576   14.6381 C   0  0  0  0  0  0
   17.0783  -11.5967   15.6587 C   0  0  0  0  0  0
   17.3418  -10.2282   15.5538 C   0  0  0  0  0  0
   17.0431   -9.0831   16.4743 C   0  0  1  0  0  0
   17.6914   -7.8936   15.7428 C   0  0  0  0  0  0
   17.7447   -6.7445   16.1723 O   0  0  0  0  0  0
   15.5212   -8.8678   16.7776 C   0  0  1  0  0  0
   14.9719   -9.9863   17.5619 C   0  0  0  0  0  0
   14.5461  -10.8657   18.1809 N   0  0  0  0  0  0
   15.1704   -7.4918   17.3642 C   0  0  0  0  0  0
   14.5451   -6.6464   16.7337 O   0  0  0  0  0  0
   15.7456   -7.2838   18.5811 O   0  0  0  0  0  0
   14.9451   -2.6701    9.0906 H   0  0  0  0  0  0
   16.2951   -2.5022   10.1806 H   0  0  0  0  0  0
   16.4413   -3.5201    8.7333 H   0  0  0  0  0  0
   14.5514   -6.3258   11.7050 H   0  0  0  0  0  0
   15.9811   -7.7149   13.1565 H   0  0  0  0  0  0
   19.3450   -5.3149   12.1194 H   0  0  0  0  0  0
   17.9766   -3.9730   10.6261 H   0  0  0  0  0  0
   19.3664   -6.6974   14.1409 H   0  0  0  0  0  0
   19.4499   -7.9770   12.9796 H   0  0  0  0  0  0
   18.9856  -10.2112   12.5811 H   0  0  0  0  0  0
   18.4947  -12.6217   12.7413 H   0  0  0  0  0  0
   17.2870  -13.5159   14.7117 H   0  0  0  0  0  0
   16.5649  -12.0070   16.5156 H   0  0  0  0  0  0
   17.5942   -9.2103   17.4050 H   0  0  0  0  0  0
   14.9852   -8.9229   15.8276 H   0  0  0  0  0  0
   16.2498   -8.0324   18.9080 H   0  0  0  0  0  0
  1  2  1  0  0  0
  1 26  1  0  0  0
  1 27  1  0  0  0
  1 28  1  0  0  0
  2  3  1  0  0  0
  3  8  1  0  0  0
  3  4  2  0  0  0
  4  5  1  0  0  0
  4 29  1  0  0  0
  5  6  2  0  0  0
  5 30  1  0  0  0
  6  7  1  0  0  0
  6  9  1  0  0  0
  7  8  2  0  0  0
  7 31  1  0  0  0
  8 32  1  0  0  0
  9 10  1  0  0  0
  9 33  1  0  0  0
  9 34  1  0  0  0
 10 18  1  0  0  0
 10 11  1  0  0  0
 11 16  2  0  0  0
 11 12  1  0  0  0
 12 13  2  0  0  0
 12 35  1  0  0  0
 13 14  1  0  0  0
 13 36  1  0  0  0
 14 15  2  0  0  0
 14 37  1  0  0  0
 15 16  1  0  0  0
 15 38  1  0  0  0
 16 17  1  0  0  0
 17 18  1  0  0  0
 17 20  1  0  0  0
 17 39  1  0  0  0
 18 19  2  0  0  0
 20 21  1  0  0  0
 20 23  1  0  0  0
 20 40  1  0  0  0
 21 22  3  0  0  0
 23 24  2  0  0  0
 23 25  1  0  0  0
 25 41  1  0  0  0
M  END
> <s_m_entry_id>
7045

> <s_m_entry_name>
ligand_docking-pose.187

> <s_m_Source_Path>
/home/csk/Desktop/cluster/DUD-E-result/aldr

> <s_m_Source_File>
ligand_docking-pose.sdf

> <i_m_Source_File_Index>
187

> <i_lp_mmshare_version>
53161

> <r_lp_tautomer_probability>
1

> <s_lp_Force_Field>
OPLS_2005

> <r_lp_Energy>
37.125443

> <b_lp_Chiralities_Consistent>
1

> <s_lp_Variant>
45536-3

> <s_i_glide_gridfile>
glide-grid_2hv5

> <i_i_glide_lignum>
759

> <i_i_glide_rotatable_bonds>
6

> <r_i_docking_score>
-9.26892314971084

> <r_i_glide_ligand_efficiency>
-0.370756925988434

> <r_i_glide_ligand_efficiency_sa>
-1.08409982699226

> <r_i_glide_ligand_efficiency_ln>
-2.19701255369383

> <r_i_glide_gscore>
-9.26892314971084

> <r_i_glide_lipo>
-3.76299736499716

> <r_i_glide_hbond>
-0.32

> <r_i_glide_metal>
0

> <r_i_glide_rewards>
-3.49798277993866

> <r_i_glide_evdw>
-38.4945602416992

> <r_i_glide_ecoul>
-2.87315702438354

> <r_i_glide_erotb>
0.667758560967472

> <r_i_glide_esite>
0

> <r_i_glide_emodel>
-57.1721255520216

> <r_i_glide_energy>
-41.3677172660828

> <r_i_glide_einternal>
9.76070499420166

> <i_i_glide_confnum>
28

> <i_i_glide_posenum>
358

> <r_i_glide_eff_state_penalty>
0

> <i_f3d_flags>
0

> <s_user_duplicate_titles>
45536

> <s_m_subgroup_title>
dock_pv

> <s_m_subgroupid>
dock_pv1

> <b_m_subgroup_collapsed>
0

$$$$
45249
                    3D
 Schrodinger Suite 2021-1.
 40 42  0  0  1  0            999 V2000
   14.8951   -4.4350   10.1768 C   0  0  0  0  0  0
   15.8867   -5.1708   11.0507 C   0  0  0  0  0  0
   15.4371   -6.1150   11.9687 C   0  0  0  0  0  0
   16.3464   -6.7733   12.7955 C   0  0  0  0  0  0
   17.7135   -6.4883   12.7076 C   0  0  0  0  0  0
   18.1448   -5.5356   11.7863 C   0  0  0  0  0  0
   17.2450   -4.8853   10.9500 C   0  0  0  0  0  0
   18.7656   -7.1515   13.6112 C   0  0  0  0  0  0
   18.2840   -8.1593   14.5707 N   0  0  0  0  0  0
   18.2234   -9.5394   14.3928 C   0  0  0  0  0  0
   18.7752  -10.3207   13.3809 C   0  0  0  0  0  0
   18.6175  -11.7066   13.4163 C   0  0  0  0  0  0
   17.9366  -12.3025   14.4791 C   0  0  0  0  0  0
   17.4248  -11.5180   15.5145 C   0  0  0  0  0  0
   17.5828  -10.1298   15.4682 C   0  0  0  0  0  0
   17.1904   -9.0497   16.4314 C   0  0  1  0  0  0
   17.7331   -7.7805   15.7424 C   0  0  0  0  0  0
   17.6653   -6.6419   16.1999 O   0  0  0  0  0  0
   15.6597   -8.9829   16.7545 C   0  0  1  0  0  0
   15.2059  -10.1941   17.4589 C   0  0  0  0  0  0
   14.8550  -11.1440   18.0163 N   0  0  0  0  0  0
   15.2089   -7.7055   17.4724 C   0  0  0  0  0  0
   14.4149   -6.9150   16.9795 O   0  0  0  0  0  0
   15.8580   -7.5152   18.6565 O   0  0  0  0  0  0
   15.2387   -4.4159    9.1429 H   0  0  0  0  0  0
   13.9153   -4.9138   10.1818 H   0  0  0  0  0  0
   14.7923   -3.4033   10.5133 H   0  0  0  0  0  0
   14.3808   -6.3241   12.0505 H   0  0  0  0  0  0
   15.9741   -7.4897   13.5117 H   0  0  0  0  0  0
   19.1908   -5.2959   11.7184 H   0  0  0  0  0  0
   17.5988   -4.1497   10.2438 H   0  0  0  0  0  0
   19.2650   -6.3526   14.1628 H   0  0  0  0  0  0
   19.5272   -7.6094   12.9811 H   0  0  0  0  0  0
   19.3417   -9.8703   12.5806 H   0  0  0  0  0  0
   19.0322  -12.3175   12.6273 H   0  0  0  0  0  0
   17.8194  -13.3762   14.5095 H   0  0  0  0  0  0
   16.9270  -12.0023   16.3413 H   0  0  0  0  0  0
   17.7500   -9.1668   17.3582 H   0  0  0  0  0  0
   15.1168   -9.0007   15.8079 H   0  0  0  0  0  0
   16.4622   -8.2204   18.8972 H   0  0  0  0  0  0
  1  2  1  0  0  0
  1 25  1  0  0  0
  1 26  1  0  0  0
  1 27  1  0  0  0
  2  7  1  0  0  0
  2  3  2  0  0  0
  3  4  1  0  0  0
  3 28  1  0  0  0
  4  5  2  0  0  0
  4 29  1  0  0  0
  5  6  1  0  0  0
  5  8  1  0  0  0
  6  7  2  0  0  0
  6 30  1  0  0  0
  7 31  1  0  0  0
  8  9  1  0  0  0
  8 32  1  0  0  0
  8 33  1  0  0  0
  9 17  1  0  0  0
  9 10  1  0  0  0
 10 15  2  0  0  0
 10 11  1  0  0  0
 11 12  2  0  0  0
 11 34  1  0  0  0
 12 13  1  0  0  0
 12 35  1  0  0  0
 13 14  2  0  0  0
 13 36  1  0  0  0
 14 15  1  0  0  0
 14 37  1  0  0  0
 15 16  1  0  0  0
 16 17  1  0  0  0
 16 19  1  0  0  0
 16 38  1  0  0  0
 17 18  2  0  0  0
 19 20  1  0  0  0
 19 22  1  0  0  0
 19 39  1  0  0  0
 20 21  3  0  0  0
 22 23  2  0  0  0
 22 24  1  0  0  0
 24 40  1  0  0  0
M  END
> <s_m_entry_id>
7047

> <s_m_entry_name>
ligand_docking-pose.189

> <s_m_Source_Path>
/home/csk/Desktop/cluster/DUD-E-result/aldr

> <s_m_Source_File>
ligand_docking-pose.sdf

> <i_m_Source_File_Index>
189

> <i_lp_mmshare_version>
53161

> <r_lp_tautomer_probability>
1

> <s_lp_Force_Field>
OPLS_2005

> <r_lp_Energy>
32.477272

> <b_lp_Chiralities_Consistent>
1

> <s_lp_Variant>
45249-3

> <s_i_glide_gridfile>
glide-grid_2hv5

> <i_i_glide_lignum>
509

> <i_i_glide_rotatable_bonds>
5

> <r_i_docking_score>
-9.25398460348299

> <r_i_glide_ligand_efficiency>
-0.385582691811791

> <r_i_glide_ligand_efficiency_sa>
-1.11221294198884

> <r_i_glide_ligand_efficiency_ln>
-2.21490315329717

> <r_i_glide_gscore>
-9.25398460348299

> <r_i_glide_lipo>
-3.94248574541164

> <r_i_glide_hbond>
-0.0742866342059984

> <r_i_glide_metal>
0

> <r_i_glide_rewards>
-3.62148108481115

> <r_i_glide_evdw>
-38.3818588256836

> <r_i_glide_ecoul>
-2.82956004142761

> <r_i_glide_erotb>
0.727795808444122

> <r_i_glide_esite>
0

> <r_i_glide_emodel>
-57.2969370352481

> <r_i_glide_energy>
-41.2114188671112

> <r_i_glide_einternal>
8.84429359436035

> <i_i_glide_confnum>
11

> <i_i_glide_posenum>
209

> <r_i_glide_eff_state_penalty>
0

> <i_f3d_flags>
0

> <s_user_duplicate_titles>
45249

> <s_m_subgroup_title>
dock_pv

> <s_m_subgroupid>
dock_pv1

> <b_m_subgroup_collapsed>
0

$$$$
45996
                    3D
 Schrodinger Suite 2021-1.
 40 42  0  0  1  0            999 V2000
   14.8643   -4.4250   10.1756 C   0  0  0  0  0  0
   15.8740   -5.1446   11.0432 C   0  0  0  0  0  0
   15.4501   -6.1126   11.9476 C   0  0  0  0  0  0
   16.3761   -6.7460   12.7714 C   0  0  0  0  0  0
   17.7320   -6.4163   12.6960 C   0  0  0  0  0  0
   18.1448   -5.4461   11.7813 C   0  0  0  0  0  0
   17.2244   -4.8154   10.9503 C   0  0  0  0  0  0
   18.7861   -7.0497   13.6115 C   0  0  0  0  0  0
   18.3077   -8.0515   14.5770 N   0  0  0  0  0  0
   18.2565   -9.4319   14.4056 C   0  0  0  0  0  0
   18.7907  -10.2117   13.3812 C   0  0  0  0  0  0
   18.6318  -11.5982   13.4179 C   0  0  0  0  0  0
   17.9634  -12.1962   14.4882 C   0  0  0  0  0  0
   17.4671  -11.4105   15.5297 C   0  0  0  0  0  0
   17.6231  -10.0218   15.4838 C   0  0  0  0  0  0
   17.2281   -8.9444   16.4471 C   0  0  1  0  0  0
   17.7434   -7.6705   15.7442 C   0  0  0  0  0  0
   17.6464   -6.5294   16.1839 O   0  0  0  0  0  0
   15.6976   -8.9128   16.7794 C   0  0  1  0  0  0
   15.2727  -10.1197   17.5026 C   0  0  0  0  0  0
   14.9436  -11.0711   18.0743 N   0  0  0  0  0  0
   15.2077   -7.6357   17.4689 C   0  0  0  0  0  0
   14.3484   -6.9149   16.9808 O   0  0  0  0  0  0
   15.8753   -7.3724   18.6272 O   0  0  0  0  0  0
   17.8098  -13.5375   14.5214 F   0  0  0  0  0  0
   15.2016   -4.4044    9.1407 H   0  0  0  0  0  0
   13.8887   -4.9133   10.1875 H   0  0  0  0  0  0
   14.7507   -3.3908   10.5077 H   0  0  0  0  0  0
   14.4019   -6.3555   12.0360 H   0  0  0  0  0  0
   16.0177   -7.4816   13.4740 H   0  0  0  0  0  0
   19.1808   -5.1721   11.7147 H   0  0  0  0  0  0
   17.5571   -4.0596   10.2538 H   0  0  0  0  0  0
   19.2672   -6.2356   14.1537 H   0  0  0  0  0  0
   19.5555   -7.5024   12.9856 H   0  0  0  0  0  0
   19.3380   -9.7530   12.5806 H   0  0  0  0  0  0
   19.0296  -12.2109   12.6218 H   0  0  0  0  0  0
   16.9763  -11.8980   16.3577 H   0  0  0  0  0  0
   17.7989   -9.0485   17.3723 H   0  0  0  0  0  0
   15.1568   -8.9653   15.8321 H   0  0  0  0  0  0
   16.5276   -8.0346   18.8627 H   0  0  0  0  0  0
  1  2  1  0  0  0
  1 26  1  0  0  0
  1 27  1  0  0  0
  1 28  1  0  0  0
  2  7  1  0  0  0
  2  3  2  0  0  0
  3  4  1  0  0  0
  3 29  1  0  0  0
  4  5  2  0  0  0
  4 30  1  0  0  0
  5  6  1  0  0  0
  5  8  1  0  0  0
  6  7  2  0  0  0
  6 31  1  0  0  0
  7 32  1  0  0  0
  8  9  1  0  0  0
  8 33  1  0  0  0
  8 34  1  0  0  0
  9 17  1  0  0  0
  9 10  1  0  0  0
 10 15  2  0  0  0
 10 11  1  0  0  0
 11 12  2  0  0  0
 11 35  1  0  0  0
 12 13  1  0  0  0
 12 36  1  0  0  0
 13 14  2  0  0  0
 13 25  1  0  0  0
 14 15  1  0  0  0
 14 37  1  0  0  0
 15 16  1  0  0  0
 16 17  1  0  0  0
 16 19  1  0  0  0
 16 38  1  0  0  0
 17 18  2  0  0  0
 19 20  1  0  0  0
 19 22  1  0  0  0
 19 39  1  0  0  0
 20 21  3  0  0  0
 22 23  2  0  0  0
 22 24  1  0  0  0
 24 40  1  0  0  0
M  END
> <s_m_entry_id>
7048

> <s_m_entry_name>
ligand_docking-pose.190

> <s_m_Source_Path>
/home/csk/Desktop/cluster/DUD-E-result/aldr

> <s_m_Source_File>
ligand_docking-pose.sdf

> <i_m_Source_File_Index>
190

> <i_lp_mmshare_version>
53161

> <r_lp_tautomer_probability>
1

> <s_lp_Force_Field>
OPLS_2005

> <r_lp_Energy>
33.632321

> <b_lp_Chiralities_Consistent>
1

> <s_lp_Variant>
45996-3

> <s_i_glide_gridfile>
glide-grid_2hv5

> <i_i_glide_lignum>
517

> <i_i_glide_rotatable_bonds>
5

> <r_i_docking_score>
-9.2408392564966

> <r_i_glide_ligand_efficiency>
-0.369633570259864

> <r_i_glide_ligand_efficiency_sa>
-1.08081511491912

> <r_i_glide_ligand_efficiency_ln>
-2.19035582939569

> <r_i_glide_gscore>
-9.2408392564966

> <r_i_glide_lipo>
-3.96672403870953

> <r_i_glide_hbond>
-0.0750105643842777

> <r_i_glide_metal>
0

> <r_i_glide_rewards>
-3.54961244959068

> <r_i_glide_evdw>
-38.2877616882324

> <r_i_glide_ecoul>
-2.63945078849792

> <r_i_glide_erotb>
0.660813498874195

> <r_i_glide_esite>
0

> <r_i_glide_emodel>
-56.4899698615561

> <r_i_glide_energy>
-40.9272124767303

> <r_i_glide_einternal>
9.11996173858643

> <i_i_glide_confnum>
9

> <i_i_glide_posenum>
275

> <r_i_glide_eff_state_penalty>
0

> <i_f3d_flags>
0

> <s_user_duplicate_titles>
45996

> <s_m_subgroup_title>
dock_pv

> <s_m_subgroupid>
dock_pv1

> <b_m_subgroup_collapsed>
0

$$$$
99551
                    3D
 Schrodinger Suite 2021-1.
 39 42  0  0  1  0            999 V2000
   18.7222  -12.5029   14.0639 C   0  0  0  0  0  0
   17.7478  -12.7592   15.0196 C   0  0  0  0  0  0
   17.0070  -11.7080   15.5530 C   0  0  0  0  0  0
   17.2019  -10.3753   15.1373 C   0  0  0  0  0  0
   18.1967  -10.1369   14.1810 C   0  0  0  0  0  0
   18.9566  -11.1939   13.6575 C   0  0  0  0  0  0
   18.6037   -8.7305   13.8159 C   0  0  0  0  0  0
   19.7304   -8.4851   13.3810 O   0  0  0  0  0  0
   17.6804   -7.7553   14.1002 N   0  0  0  0  0  0
   16.5447   -7.8403   14.8716 C   0  0  0  0  0  0
   15.7428   -6.9150   15.0277 O   0  0  0  0  0  0
   16.3923   -9.1690   15.6725 C   0  0  1  0  0  0
   14.9317   -9.5604   15.9268 C   0  0  0  0  0  0
   14.9333   -9.9291   17.3997 C   0  0  0  0  0  0
   14.1450  -10.6681   17.9732 O   0  0  0  0  0  0
   15.9860   -9.3208   17.9518 N   0  0  0  0  0  0
   16.8582   -8.7949   17.0841 C   0  0  0  0  0  0
   17.8372   -8.1146   17.3810 O   0  0  0  0  0  0
   18.0103   -6.3926   13.6072 C   0  0  0  0  0  0
   17.2812   -5.8503   12.3723 C   0  0  0  0  0  0
   15.9686   -6.1909   12.0254 C   0  0  0  0  0  0
   15.3595   -5.6161   10.9138 C   0  0  0  0  0  0
   16.0699   -4.7261   10.1088 C   0  0  0  0  0  0
   17.3756   -4.3728   10.4461 C   0  0  0  0  0  0
   17.9586   -4.9287   11.5768 C   0  0  0  0  0  0
   18.2904   -3.2558    9.4975 Cl  0  0  0  0  0  0
   15.3450   -4.1147    8.6721 Cl  0  0  0  0  0  0
   19.3067  -13.3128   13.6520 H   0  0  0  0  0  0
   17.5667  -13.7714   15.3500 H   0  0  0  0  0  0
   16.2624  -11.9583   16.2915 H   0  0  0  0  0  0
   19.7450  -11.0083   12.9407 H   0  0  0  0  0  0
   14.2075   -8.7558   15.7822 H   0  0  0  0  0  0
   14.5880  -10.4022   15.3255 H   0  0  0  0  0  0
   16.1517   -9.3155   18.9481 H   0  0  0  0  0  0
   19.0805   -6.2842   13.4199 H   0  0  0  0  0  0
   17.8490   -5.7149   14.4378 H   0  0  0  0  0  0
   15.3922   -6.8930   12.6007 H   0  0  0  0  0  0
   14.3425   -5.8795   10.6643 H   0  0  0  0  0  0
   18.9450   -4.6230   11.8502 H   0  0  0  0  0  0
  1  6  1  0  0  0
  1  2  2  0  0  0
  1 28  1  0  0  0
  2  3  1  0  0  0
  2 29  1  0  0  0
  3  4  2  0  0  0
  3 30  1  0  0  0
  4 12  1  0  0  0
  4  5  1  0  0  0
  5  6  2  0  0  0
  5  7  1  0  0  0
  6 31  1  0  0  0
  7  8  2  0  0  0
  7  9  1  0  0  0
  9 10  1  0  0  0
  9 19  1  0  0  0
 10 11  2  0  0  0
 10 12  1  0  0  0
 12 17  1  0  0  0
 12 13  1  0  0  0
 13 14  1  0  0  0
 13 32  1  0  0  0
 13 33  1  0  0  0
 14 15  2  0  0  0
 14 16  1  0  0  0
 16 17  1  0  0  0
 16 34  1  0  0  0
 17 18  2  0  0  0
 19 20  1  0  0  0
 19 35  1  0  0  0
 19 36  1  0  0  0
 20 25  1  0  0  0
 20 21  2  0  0  0
 21 22  1  0  0  0
 21 37  1  0  0  0
 22 23  2  0  0  0
 22 38  1  0  0  0
 23 24  1  0  0  0
 23 27  1  0  0  0
 24 25  2  0  0  0
 24 26  1  0  0  0
 25 39  1  0  0  0
M  END
> <s_m_entry_id>
7049

> <s_m_entry_name>
ligand_docking-pose.191

> <s_m_Source_Path>
/home/csk/Desktop/cluster/DUD-E-result/aldr

> <s_m_Source_File>
ligand_docking-pose.sdf

> <i_m_Source_File_Index>
191

> <i_lp_mmshare_version>
53161

> <r_lp_tautomer_probability>
0.99999999995914

> <s_lp_Force_Field>
OPLS_2005

> <r_lp_Energy>
33.433496

> <b_lp_Chiralities_Consistent>
1

> <s_lp_Variant>
99551-2

> <s_i_glide_gridfile>
glide-grid_2hv5

> <i_i_glide_lignum>
259

> <i_i_glide_rotatable_bonds>
2

> <r_i_docking_score>
-9.23026190445742

> <r_i_glide_ligand_efficiency>
-0.341861552016941

> <r_i_glide_ligand_efficiency_sa>
-1.0255846549241

> <r_i_glide_ligand_efficiency_ln>
-2.14865279859724

> <r_i_glide_gscore>
-9.23026190445742

> <r_i_glide_lipo>
-3.92353840790196

> <r_i_glide_hbond>
-0.0148258113846595

> <r_i_glide_metal>
0

> <r_i_glide_rewards>
-3.35989786363636

> <r_i_glide_evdw>
-41.2338371276855

> <r_i_glide_ecoul>
-0.745344638824463

> <r_i_glide_erotb>
0.241493730673515

> <r_i_glide_esite>
0

> <r_i_glide_emodel>
-45.929908247757

> <r_i_glide_energy>
-41.97918176651

> <r_i_glide_einternal>
2.17059922218323

> <i_i_glide_confnum>
7

> <i_i_glide_posenum>
47

> <r_i_glide_eff_state_penalty>
0

> <i_f3d_flags>
0

> <s_user_duplicate_titles>
99551

> <s_m_subgroup_title>
dock_pv

> <s_m_subgroupid>
dock_pv1

> <b_m_subgroup_collapsed>
0

$$$$
148481
                    3D
 Schrodinger Suite 2021-1.
 35 37  0  0  1  0            999 V2000
   16.3841  -12.7604   17.8154 C   0  0  0  0  0  0
   17.5342  -12.1046   17.3831 C   0  0  0  0  0  0
   17.4530  -10.7844   16.9465 C   0  0  0  0  0  0
   16.2187  -10.1237   16.9019 C   0  0  0  0  0  0
   15.0799  -10.7875   17.3800 C   0  0  0  0  0  0
   15.1576  -12.1028   17.8276 C   0  0  0  0  0  0
   16.0688   -8.7128   16.4091 C   0  0  0  0  0  0
   15.2102   -7.9727   16.9004 O   0  0  0  0  0  0
   16.7860   -8.2522   15.2058 C   0  0  0  0  0  0
   17.8433   -8.8312   14.4792 C   0  0  0  0  0  0
   18.1057   -8.0362   13.3752 C   0  0  0  0  0  0
   17.2018   -7.0035   13.3272 N   0  0  0  0  0  0
   16.4513   -7.1166   14.4735 C   0  0  0  0  0  0
   17.0123   -6.0588   12.2968 C   0  0  0  0  0  0
   15.7154   -5.7707   11.8645 C   0  0  0  0  0  0
   15.4843   -4.8100   10.8844 C   0  0  0  0  0  0
   16.5674   -4.1453   10.2843 C   0  0  0  0  0  0
   17.8700   -4.4351   10.7123 C   0  0  0  0  0  0
   18.0887   -5.3827   11.7177 C   0  0  0  0  0  0
   18.9278   -3.7763   10.1789 F   0  0  0  0  0  0
   16.3707   -3.1997    9.3029 O   0  0  0  0  0  0
   14.1531   -4.5171   10.5810 N   0  0  0  0  0  0
   16.4455  -13.7832   18.1569 H   0  0  0  0  0  0
   18.4878  -12.6134   17.4012 H   0  0  0  0  0  0
   18.3673  -10.2792   16.6798 H   0  0  0  0  0  0
   14.1221  -10.2912   17.3874 H   0  0  0  0  0  0
   14.2685  -12.6088   18.1767 H   0  0  0  0  0  0
   18.3687   -9.7496   14.6848 H   0  0  0  0  0  0
   18.8208   -8.1698   12.5817 H   0  0  0  0  0  0
   15.6719   -6.3958   14.6534 H   0  0  0  0  0  0
   14.8732   -6.2728   12.3145 H   0  0  0  0  0  0
   19.0918   -5.5841   12.0566 H   0  0  0  0  0  0
   15.4502   -3.1150    9.0440 H   0  0  0  0  0  0
   13.8953   -3.8211    9.8860 H   0  0  0  0  0  0
   13.4237   -5.0040   11.0835 H   0  0  0  0  0  0
  1  6  1  0  0  0
  1  2  2  0  0  0
  1 23  1  0  0  0
  2  3  1  0  0  0
  2 24  1  0  0  0
  3  4  2  0  0  0
  3 25  1  0  0  0
  4  5  1  0  0  0
  4  7  1  0  0  0
  5  6  2  0  0  0
  5 26  1  0  0  0
  6 27  1  0  0  0
  7  8  2  0  0  0
  7  9  1  0  0  0
  9 13  2  0  0  0
  9 10  1  0  0  0
 10 11  2  0  0  0
 10 28  1  0  0  0
 11 12  1  0  0  0
 11 29  1  0  0  0
 12 13  1  0  0  0
 12 14  1  0  0  0
 13 30  1  0  0  0
 14 19  1  0  0  0
 14 15  2  0  0  0
 15 16  1  0  0  0
 15 31  1  0  0  0
 16 17  2  0  0  0
 16 22  1  0  0  0
 17 18  1  0  0  0
 17 21  1  0  0  0
 18 19  2  0  0  0
 18 20  1  0  0  0
 19 32  1  0  0  0
 21 33  1  0  0  0
 22 34  1  0  0  0
 22 35  1  0  0  0
M  END
> <s_m_entry_id>
7052

> <s_m_entry_name>
ligand_docking-pose.194

> <s_m_Source_Path>
/home/csk/Desktop/cluster/DUD-E-result/aldr

> <s_m_Source_File>
ligand_docking-pose.sdf

> <i_m_Source_File_Index>
194

> <i_lp_mmshare_version>
53161

> <r_lp_tautomer_probability>
1

> <s_lp_Force_Field>
OPLS_2005

> <r_lp_Energy>
20.548129

> <b_lp_Chiralities_Consistent>
1

> <s_lp_Variant>
148481-1

> <s_i_glide_gridfile>
glide-grid_2hv5

> <i_i_glide_lignum>
408

> <i_i_glide_rotatable_bonds>
4

> <r_i_docking_score>
-9.20441940500682

> <r_i_glide_ligand_efficiency>
-0.418382700227583

> <r_i_glide_ligand_efficiency_sa>
-1.17232478009559

> <r_i_glide_ligand_efficiency_ln>
-2.249895841939

> <r_i_glide_gscore>
-9.20441940500682

> <r_i_glide_lipo>
-3.44428596581305

> <r_i_glide_hbond>
-0.32

> <r_i_glide_metal>
0

> <r_i_glide_rewards>
-3.01870072629348

> <r_i_glide_evdw>
-37.3604469299316

> <r_i_glide_ecoul>
-7.86243057250977

> <r_i_glide_erotb>
0.62595421947276

> <r_i_glide_esite>
0

> <r_i_glide_emodel>
-64.2842756729005

> <r_i_glide_energy>
-45.2228775024414

> <r_i_glide_einternal>
8.83028888702393

> <i_i_glide_confnum>
31

> <i_i_glide_posenum>
371

> <r_i_glide_eff_state_penalty>
0

> <i_f3d_flags>
0

> <s_user_duplicate_titles>
148481

> <s_m_subgroup_title>
dock_pv

> <s_m_subgroupid>
dock_pv1

> <b_m_subgroup_collapsed>
0

$$$$
490499
                    3D
 Schrodinger Suite 2021-1.
 38 40  0  0  1  0            999 V2000
   17.7880  -11.9637   16.8725 C   0  0  0  0  0  0
   17.9299  -10.9349   15.8999 O   0  0  0  0  0  0
   17.3456   -9.6984   16.1032 C   0  0  0  0  0  0
   16.7752   -9.3375   17.3285 C   0  0  0  0  0  0
   16.1665   -8.1070   17.5084 C   0  0  0  0  0  0
   15.9845   -7.2577   16.4246 C   0  0  0  0  0  0
   16.5672   -7.5850   15.2028 C   0  0  0  0  0  0
   17.3189   -8.7681   15.0473 C   0  0  0  0  0  0
   18.0579   -8.9878   13.7646 C   0  0  0  0  0  0
   18.8272   -9.9220   13.5548 O   0  0  0  0  0  0
   17.7450   -7.9957   12.7592 C   0  0  0  0  0  0
   16.9258   -6.9572   12.9704 C   0  0  0  0  0  0
   16.3565   -6.6943   14.1660 O   0  0  0  0  0  0
   16.6241   -5.9416   11.9500 C   0  0  0  0  0  0
   15.3024   -5.6914   11.5648 C   0  0  0  0  0  0
   15.0184   -4.7381   10.5860 C   0  0  0  0  0  0
   16.0525   -4.0150    9.9965 C   0  0  0  0  0  0
   17.3799   -4.2722   10.3593 C   0  0  0  0  0  0
   17.6605   -5.2353   11.3280 C   0  0  0  0  0  0
   18.4067   -3.5705    9.7818 O   0  0  0  0  0  0
   15.7454   -3.0412    9.0828 O   0  0  0  0  0  0
   15.2300   -6.1240   16.5831 O   0  0  0  0  0  0
   15.7450   -7.7658   18.7624 O   0  0  0  0  0  0
   16.5003   -6.7275   19.3807 C   0  0  0  0  0  0
   18.2232  -12.8858   16.4881 H   0  0  0  0  0  0
   16.7385  -12.1623   17.0954 H   0  0  0  0  0  0
   18.3127  -11.7149   17.7950 H   0  0  0  0  0  0
   16.8187   -9.9923   18.1809 H   0  0  0  0  0  0
   18.1450   -8.1149   11.7786 H   0  0  0  0  0  0
   14.4884   -6.2254   12.0324 H   0  0  0  0  0  0
   13.9915   -4.5443   10.3131 H   0  0  0  0  0  0
   18.6864   -5.4231   11.6070 H   0  0  0  0  0  0
   18.0394   -2.8976    9.2008 H   0  0  0  0  0  0
   14.7900   -2.9238    8.9796 H   0  0  0  0  0  0
   14.8205   -6.1205   17.4536 H   0  0  0  0  0  0
   16.2206   -6.6611   20.4326 H   0  0  0  0  0  0
   17.5739   -6.9164   19.3320 H   0  0  0  0  0  0
   16.3082   -5.7535   18.9314 H   0  0  0  0  0  0
  1  2  1  0  0  0
  1 25  1  0  0  0
  1 26  1  0  0  0
  1 27  1  0  0  0
  2  3  1  0  0  0
  3  8  1  0  0  0
  3  4  2  0  0  0
  4  5  1  0  0  0
  4 28  1  0  0  0
  5  6  2  0  0  0
  5 23  1  0  0  0
  6  7  1  0  0  0
  6 22  1  0  0  0
  7 13  1  0  0  0
  7  8  2  0  0  0
  8  9  1  0  0  0
  9 10  2  0  0  0
  9 11  1  0  0  0
 11 12  2  0  0  0
 11 29  1  0  0  0
 12 13  1  0  0  0
 12 14  1  0  0  0
 14 19  1  0  0  0
 14 15  2  0  0  0
 15 16  1  0  0  0
 15 30  1  0  0  0
 16 17  2  0  0  0
 16 31  1  0  0  0
 17 18  1  0  0  0
 17 21  1  0  0  0
 18 19  2  0  0  0
 18 20  1  0  0  0
 19 32  1  0  0  0
 20 33  1  0  0  0
 21 34  1  0  0  0
 22 35  1  0  0  0
 23 24  1  0  0  0
 24 36  1  0  0  0
 24 37  1  0  0  0
 24 38  1  0  0  0
M  END
> <s_m_entry_id>
7053

> <s_m_entry_name>
ligand_docking-pose.195

> <s_m_Source_Path>
/home/csk/Desktop/cluster/DUD-E-result/aldr

> <s_m_Source_File>
ligand_docking-pose.sdf

> <i_m_Source_File_Index>
195

> <i_lp_mmshare_version>
53161

> <r_lp_tautomer_probability>
0.999999999999776

> <s_lp_Force_Field>
OPLS_2005

> <r_lp_Energy>
20.111659

> <b_lp_Chiralities_Consistent>
1

> <s_lp_Variant>
490499-1

> <s_i_glide_gridfile>
glide-grid_2hv5

> <i_i_glide_lignum>
751

> <i_i_glide_rotatable_bonds>
6

> <r_i_docking_score>
-9.19446721456007

> <r_i_glide_ligand_efficiency>
-0.38310280060667

> <r_i_glide_ligand_efficiency_sa>
-1.10505969794642

> <r_i_glide_ligand_efficiency_ln>
-2.2006579110529

> <r_i_glide_gscore>
-9.19446721456007

> <r_i_glide_lipo>
-4.41706497782642

> <r_i_glide_hbond>
0

> <r_i_glide_metal>
0

> <r_i_glide_rewards>
-2.05712140909091

> <r_i_glide_evdw>
-37.0742301940918

> <r_i_glide_ecoul>
-6.92639541625977

> <r_i_glide_erotb>
0.17238999450081

> <r_i_glide_esite>
0

> <r_i_glide_emodel>
-56.5849455817567

> <r_i_glide_energy>
-44.0006256103516

> <r_i_glide_einternal>
11.5316534042358

> <i_i_glide_confnum>
2

> <i_i_glide_posenum>
32

> <r_i_glide_eff_state_penalty>
0

> <i_f3d_flags>
0

> <s_user_duplicate_titles>
490499

> <s_m_subgroup_title>
dock_pv

> <s_m_subgroupid>
dock_pv1

> <b_m_subgroup_collapsed>
0

$$$$
219791
                    3D
 Schrodinger Suite 2021-1.
 39 41  0  0  1  0            999 V2000
   15.7564  -12.3653   16.9277 C   0  0  0  0  0  0
   16.7740  -11.9914   16.0530 C   0  0  0  0  0  0
   16.6863  -10.6198   15.8279 C   0  0  0  0  0  0
   15.6195  -10.1469   16.5656 N   0  0  0  0  0  0
   15.0476  -11.2172   17.2197 C   0  0  0  0  0  0
   15.1549   -8.7660   16.5557 C   0  0  2  0  0  0
   16.0776   -7.8376   15.7211 C   0  0  0  0  0  0
   15.8413   -6.6290   15.6958 O   0  0  0  0  0  0
   17.1291   -8.4289   15.0573 N   0  0  0  0  0  0
   17.4862   -9.7595   14.9801 C   0  0  0  0  0  0
   18.4157  -10.1712   14.2820 O   0  0  0  0  0  0
   18.0272   -7.4788   14.3293 C   0  0  0  0  0  0
   17.5034   -6.6723   13.1302 C   0  0  0  0  0  0
   16.2948   -6.9033   12.5049 C   0  0  0  0  0  0
   15.8476   -6.1148   11.4391 C   0  0  0  0  0  0
   16.6637   -5.0978   10.9517 C   0  0  0  0  0  0
   17.8912   -4.8584   11.5628 C   0  0  0  0  0  0
   18.2682   -5.6240   12.6671 C   0  0  0  0  0  0
   19.3451   -5.3147   13.3844 F   0  0  0  0  0  0
   16.0936   -4.0243    9.4868 Br  0  0  0  0  0  0
   14.9099   -8.1523   17.9719 C   0  0  0  0  0  0
   16.1446   -7.6402   18.7831 C   0  0  0  0  0  0
   16.1626   -6.1291   19.0639 C   0  0  0  0  0  0
   16.1448   -5.6706   20.2006 O   0  0  0  0  0  0
   16.1838   -5.3699   17.9353 O   0  0  0  0  0  0
   15.5503  -13.3626   17.2884 H   0  0  0  0  0  0
   17.5048  -12.6560   15.6122 H   0  0  0  0  0  0
   14.1673  -11.0762   17.8310 H   0  0  0  0  0  0
   14.2008   -8.7741   16.0249 H   0  0  0  0  0  0
   18.4052   -6.7710   15.0708 H   0  0  0  0  0  0
   18.9378   -7.9624   13.9712 H   0  0  0  0  0  0
   15.7448   -7.7149   12.8839 H   0  0  0  0  0  0
   14.8869   -6.3050   10.9825 H   0  0  0  0  0  0
   18.5149   -4.0449   11.2272 H   0  0  0  0  0  0
   14.1645   -7.3585   17.8674 H   0  0  0  0  0  0
   14.4010   -8.9021   18.5805 H   0  0  0  0  0  0
   16.1446   -8.1152   19.7662 H   0  0  0  0  0  0
   17.0909   -7.9317   18.3276 H   0  0  0  0  0  0
   16.1444   -5.8927   17.1199 H   0  0  0  0  0  0
  1  5  2  0  0  0
  1  2  1  0  0  0
  1 26  1  0  0  0
  2  3  2  0  0  0
  2 27  1  0  0  0
  3 10  1  0  0  0
  3  4  1  0  0  0
  4  5  1  0  0  0
  4  6  1  0  0  0
  5 28  1  0  0  0
  6  7  1  0  0  0
  6 21  1  0  0  0
  6 29  1  0  0  0
  7  8  2  0  0  0
  7  9  1  0  0  0
  9 10  1  0  0  0
  9 12  1  0  0  0
 10 11  2  0  0  0
 12 13  1  0  0  0
 12 30  1  0  0  0
 12 31  1  0  0  0
 13 18  1  0  0  0
 13 14  2  0  0  0
 14 15  1  0  0  0
 14 32  1  0  0  0
 15 16  2  0  0  0
 15 33  1  0  0  0
 16 17  1  0  0  0
 16 20  1  0  0  0
 17 18  2  0  0  0
 17 34  1  0  0  0
 18 19  1  0  0  0
 21 22  1  0  0  0
 21 35  1  0  0  0
 21 36  1  0  0  0
 22 23  1  0  0  0
 22 37  1  0  0  0
 22 38  1  0  0  0
 23 24  2  0  0  0
 23 25  1  0  0  0
 25 39  1  0  0  0
M  END
> <s_m_entry_id>
7056

> <s_m_entry_name>
ligand_docking-pose.198

> <s_m_Source_Path>
/home/csk/Desktop/cluster/DUD-E-result/aldr

> <s_m_Source_File>
ligand_docking-pose.sdf

> <i_m_Source_File_Index>
198

> <i_lp_mmshare_version>
53161

> <r_lp_tautomer_probability>
1

> <s_lp_Force_Field>
OPLS_2005

> <r_lp_Energy>
20.362217

> <b_lp_Chiralities_Consistent>
1

> <s_lp_Variant>
219791-2

> <s_i_glide_gridfile>
glide-grid_2hv5

> <i_i_glide_lignum>
119

> <i_i_glide_rotatable_bonds>
6

> <r_i_docking_score>
-9.18491273356414

> <r_i_glide_ligand_efficiency>
-0.367396509342566

> <r_i_glide_ligand_efficiency_sa>
-1.0742739091225

> <r_i_glide_ligand_efficiency_ln>
-2.17709956747804

> <r_i_glide_gscore>
-9.18491273356414

> <r_i_glide_lipo>
-3.79090584356339

> <r_i_glide_hbond>
-0.369836202324912

> <r_i_glide_metal>
0

> <r_i_glide_rewards>
-3.31662557554021

> <r_i_glide_evdw>
-37.5746612548828

> <r_i_glide_ecoul>
-2.77804636955261

> <r_i_glide_erotb>
0.587894906041406

> <r_i_glide_esite>
0

> <r_i_glide_emodel>
-50.5917910871718

> <r_i_glide_energy>
-40.3527076244354

> <r_i_glide_einternal>
8.7385778427124

> <i_i_glide_confnum>
23

> <i_i_glide_posenum>
145

> <r_i_glide_eff_state_penalty>
0

> <i_f3d_flags>
0

> <s_user_duplicate_titles>
219791

> <s_m_subgroup_title>
dock_pv

> <s_m_subgroupid>
dock_pv1

> <b_m_subgroup_collapsed>
0

$$$$
236935
                    3D
 Schrodinger Suite 2021-1.
 37 39  0  0  1  0            999 V2000
   19.1543   -5.5311   13.7391 C   0  0  0  0  0  0
   18.9450   -5.7150   12.3424 O   0  0  0  0  0  0
   17.6797   -5.5312   11.8420 C   0  0  0  0  0  0
   16.6691   -6.4566   12.1232 C   0  0  0  0  0  0
   15.3845   -6.2441   11.6152 C   0  0  0  0  0  0
   15.1027   -5.1647   10.7877 C   0  0  0  0  0  0
   16.1262   -4.2743   10.4100 C   0  0  0  0  0  0
   17.4304   -4.4494   10.9511 C   0  0  0  0  0  0
   18.4297   -3.5167   10.5810 C   0  0  0  0  0  0
   18.1449   -2.4227    9.7810 C   0  0  0  0  0  0
   16.8866   -2.2847    9.2216 C   0  0  0  0  0  0
   15.8962   -3.2083    9.5109 C   0  0  0  0  0  0
   17.0382   -7.6961   12.8384 C   0  0  0  0  0  0
   16.8478   -7.9378   14.1526 C   0  0  0  0  0  0
   17.3450   -9.1323   14.7961 C   0  0  0  0  0  0
   17.9540  -10.0485   14.2387 O   0  0  0  0  0  0
   17.0272   -9.1053   16.1150 N   0  0  0  0  0  0
   16.4686   -7.9652   16.6262 C   0  0  0  0  0  0
   16.1450   -7.4764   18.1810 S   0  0  0  0  0  0
   16.0475   -6.9150   15.3254 S   0  0  0  0  0  0
   17.3450  -10.2664   16.9810 C   0  0  0  0  0  0
   16.1606  -11.2354   17.2033 C   0  0  0  0  0  0
   16.2654  -12.1780   17.9565 O   0  0  0  0  0  0
   15.0309  -10.9172   16.5030 O   0  0  0  0  0  0
   19.9465   -6.1980   14.0796 H   0  0  0  0  0  0
   19.4772   -4.5150   13.9373 H   0  0  0  0  0  0
   18.2840   -5.7150   14.3562 H   0  0  0  0  0  0
   14.5918   -6.9559   11.7813 H   0  0  0  0  0  0
   14.1055   -5.0222   10.3951 H   0  0  0  0  0  0
   19.4083   -3.6235   10.9810 H   0  0  0  0  0  0
   18.9141   -1.6969    9.5628 H   0  0  0  0  0  0
   16.6682   -1.4645    8.5544 H   0  0  0  0  0  0
   14.9450   -3.0964    9.0424 H   0  0  0  0  0  0
   17.5375   -8.4346   12.2260 H   0  0  0  0  0  0
   17.7077   -9.9265   17.9433 H   0  0  0  0  0  0
   18.1563  -10.8582   16.5572 H   0  0  0  0  0  0
   15.1219  -10.1153   15.9873 H   0  0  0  0  0  0
  1  2  1  0  0  0
  1 25  1  0  0  0
  1 26  1  0  0  0
  1 27  1  0  0  0
  2  3  1  0  0  0
  3  8  1  0  0  0
  3  4  2  0  0  0
  4  5  1  0  0  0
  4 13  1  0  0  0
  5  6  2  0  0  0
  5 28  1  0  0  0
  6  7  1  0  0  0
  6 29  1  0  0  0
  7 12  2  0  0  0
  7  8  1  0  0  0
  8  9  2  0  0  0
  9 10  1  0  0  0
  9 30  1  0  0  0
 10 11  2  0  0  0
 10 31  1  0  0  0
 11 12  1  0  0  0
 11 32  1  0  0  0
 12 33  1  0  0  0
 13 14  2  0  0  0
 13 34  1  0  0  0
 14 20  1  0  0  0
 14 15  1  0  0  0
 15 16  2  0  0  0
 15 17  1  0  0  0
 17 18  1  0  0  0
 17 21  1  0  0  0
 18 19  2  0  0  0
 18 20  1  0  0  0
 21 22  1  0  0  0
 21 35  1  0  0  0
 21 36  1  0  0  0
 22 23  2  0  0  0
 22 24  1  0  0  0
 24 37  1  0  0  0
M  END
> <s_m_entry_id>
7057

> <s_m_entry_name>
ligand_docking-pose.199

> <s_m_Source_Path>
/home/csk/Desktop/cluster/DUD-E-result/aldr

> <s_m_Source_File>
ligand_docking-pose.sdf

> <i_m_Source_File_Index>
199

> <i_lp_mmshare_version>
53161

> <r_lp_tautomer_probability>
1

> <s_lp_Force_Field>
OPLS_2005

> <r_lp_Energy>
25.380281

> <b_lp_Chiralities_Consistent>
1

> <s_lp_Variant>
236935-1

> <s_i_glide_gridfile>
glide-grid_2hv5

> <i_i_glide_lignum>
746

> <i_i_glide_rotatable_bonds>
5

> <r_i_docking_score>
-9.10847782355576

> <r_i_glide_ligand_efficiency>
-0.379519909314823

> <r_i_glide_ligand_efficiency_sa>
-1.09472485110512

> <r_i_glide_ligand_efficiency_ln>
-2.18007670398953

> <r_i_glide_gscore>
-9.10847782355576

> <r_i_glide_lipo>
-3.94889383109657

> <r_i_glide_hbond>
-0.284548261675342

> <r_i_glide_metal>
0

> <r_i_glide_rewards>
-3.25332061524914

> <r_i_glide_evdw>
-37.4192771911621

> <r_i_glide_ecoul>
-1.30577445030212

> <r_i_glide_erotb>
0.445114911568711

> <r_i_glide_esite>
0

> <r_i_glide_emodel>
-50.0196983916149

> <r_i_glide_energy>
-38.7250516414642

> <r_i_glide_einternal>
5.49546146392822

> <i_i_glide_confnum>
8

> <i_i_glide_posenum>
106

> <r_i_glide_eff_state_penalty>
0

> <i_f3d_flags>
0

> <s_user_duplicate_titles>
236935

> <s_m_subgroup_title>
dock_pv

> <s_m_subgroupid>
dock_pv1

> <b_m_subgroup_collapsed>
0

$$$$
116444
                    3D
 Schrodinger Suite 2021-1.
 38 40  0  0  1  0            999 V2000
   16.1657   -7.1692   19.6857 C   0  0  0  0  0  0
   15.3450   -7.3945   18.5754 O   0  0  0  0  0  0
   15.9867   -7.8247   17.4628 C   0  0  0  0  0  0
   16.5570   -9.0869   17.3569 C   0  0  0  0  0  0
   17.1998   -9.4659   16.1866 C   0  0  0  0  0  0
   17.2426   -8.5907   15.0903 C   0  0  0  0  0  0
   17.9601   -8.9201   13.8189 C   0  0  0  0  0  0
   18.6231   -9.9458   13.6764 O   0  0  0  0  0  0
   17.7450   -7.9441   12.7709 C   0  0  0  0  0  0
   16.9858   -6.8520   12.9446 C   0  0  0  0  0  0
   16.4191   -6.5150   14.1232 O   0  0  0  0  0  0
   16.5704   -7.3580   15.2003 C   0  0  0  0  0  0
   15.9984   -6.9438   16.4051 C   0  0  0  0  0  0
   15.4031   -5.7150   16.5810 O   0  0  0  0  0  0
   16.0694   -4.7959   17.4463 C   0  0  0  0  0  0
   16.7620   -5.8329   11.9093 C   0  0  0  0  0  0
   15.4670   -5.5009   11.4972 C   0  0  0  0  0  0
   15.2652   -4.5294   10.5163 C   0  0  0  0  0  0
   16.3567   -3.8844    9.9348 C   0  0  0  0  0  0
   17.6538   -4.2168   10.3373 C   0  0  0  0  0  0
   17.8507   -5.1867   11.3174 C   0  0  0  0  0  0
   18.7334   -3.5854    9.7810 O   0  0  0  0  0  0
   16.1450   -2.9223    8.9810 O   0  0  0  0  0  0
   17.7450  -10.7197   16.1401 O   0  0  0  0  0  0
   15.7450   -6.4185   20.3527 H   0  0  0  0  0  0
   16.1450   -8.1150   20.1810 H   0  0  0  0  0  0
   17.1934   -6.8906   19.4389 H   0  0  0  0  0  0
   16.4987   -9.7749   18.1810 H   0  0  0  0  0  0
   18.1450   -8.1150   11.7908 H   0  0  0  0  0  0
   15.8052   -3.7791   17.1547 H   0  0  0  0  0  0
   15.7451   -4.8980   18.4781 H   0  0  0  0  0  0
   17.1558   -4.8946   17.4161 H   0  0  0  0  0  0
   14.6117   -5.9848   11.9477 H   0  0  0  0  0  0
   14.2572   -4.2794   10.2182 H   0  0  0  0  0  0
   18.8564   -5.4313   11.6259 H   0  0  0  0  0  0
   18.4189   -2.8945    9.1899 H   0  0  0  0  0  0
   15.2040   -2.8033    8.8072 H   0  0  0  0  0  0
   18.1478  -10.8727   15.2766 H   0  0  0  0  0  0
  1  2  1  0  0  0
  1 25  1  0  0  0
  1 26  1  0  0  0
  1 27  1  0  0  0
  2  3  1  0  0  0
  3 13  1  0  0  0
  3  4  2  0  0  0
  4  5  1  0  0  0
  4 28  1  0  0  0
  5  6  2  0  0  0
  5 24  1  0  0  0
  6 12  1  0  0  0
  6  7  1  0  0  0
  7  8  2  0  0  0
  7  9  1  0  0  0
  9 10  2  0  0  0
  9 29  1  0  0  0
 10 11  1  0  0  0
 10 16  1  0  0  0
 11 12  1  0  0  0
 12 13  2  0  0  0
 13 14  1  0  0  0
 14 15  1  0  0  0
 15 30  1  0  0  0
 15 31  1  0  0  0
 15 32  1  0  0  0
 16 21  1  0  0  0
 16 17  2  0  0  0
 17 18  1  0  0  0
 17 33  1  0  0  0
 18 19  2  0  0  0
 18 34  1  0  0  0
 19 20  1  0  0  0
 19 23  1  0  0  0
 20 21  2  0  0  0
 20 22  1  0  0  0
 21 35  1  0  0  0
 22 36  1  0  0  0
 23 37  1  0  0  0
 24 38  1  0  0  0
M  END
> <s_m_entry_id>
7058

> <s_m_entry_name>
ligand_docking-pose.200

> <s_m_Source_Path>
/home/csk/Desktop/cluster/DUD-E-result/aldr

> <s_m_Source_File>
ligand_docking-pose.sdf

> <i_m_Source_File_Index>
200

> <i_lp_mmshare_version>
53161

> <r_lp_tautomer_probability>
0.999999999999776

> <s_lp_Force_Field>
OPLS_2005

> <r_lp_Energy>
26.498846

> <b_lp_Chiralities_Consistent>
1

> <s_lp_Variant>
116444-1

> <s_i_glide_gridfile>
glide-grid_2hv5

> <i_i_glide_lignum>
741

> <i_i_glide_rotatable_bonds>
6

> <r_i_docking_score>
-9.10021656680297

> <r_i_glide_ligand_efficiency>
-0.379175690283457

> <r_i_glide_ligand_efficiency_sa>
-1.09373195160601

> <r_i_glide_ligand_efficiency_ln>
-2.17809940616421

> <r_i_glide_gscore>
-9.10021656680297

> <r_i_glide_lipo>
-4.3710716455124

> <r_i_glide_hbond>
-0.237509684236004

> <r_i_glide_metal>
0

> <r_i_glide_rewards>
-2.05578429336873

> <r_i_glide_evdw>
-28.7352466583252

> <r_i_glide_ecoul>
-7.80985736846924

> <r_i_glide_erotb>
0.17238999450081

> <r_i_glide_esite>
0

> <r_i_glide_emodel>
-45.0221226336334

> <r_i_glide_energy>
-36.5451040267944

> <r_i_glide_einternal>
11.1487731933594

> <i_i_glide_confnum>
2

> <i_i_glide_posenum>
2

> <r_i_glide_eff_state_penalty>
0

> <i_f3d_flags>
0

> <s_user_duplicate_titles>
116444

> <s_m_subgroup_title>
dock_pv

> <s_m_subgroupid>
dock_pv1

> <b_m_subgroup_collapsed>
0

$$$$
397130
                    3D
 Schrodinger Suite 2021-1.
 38 39  0  0  1  0            999 V2000
   17.5545  -11.8469   16.4024 C   0  0  0  0  0  0
   17.5274  -10.4730   16.7734 O   0  0  0  0  0  0
   17.7691   -9.5033   15.8159 C   0  0  0  0  0  0
   18.1376   -9.7947   14.4931 C   0  0  0  0  0  0
   18.3737   -8.7693   13.5813 C   0  0  0  0  0  0
   18.2239   -7.4328   13.9473 C   0  0  0  0  0  0
   17.9142   -7.1373   15.2737 C   0  0  0  0  0  0
   17.6795   -8.1545   16.2010 C   0  0  0  0  0  0
   17.3450   -7.7841   17.4876 O   0  0  0  0  0  0
   16.0298   -8.1220   17.9580 C   0  0  0  0  0  0
   14.9294   -7.6708   16.9811 C   0  0  0  0  0  0
   14.8170   -6.5150   16.5810 O   0  0  0  0  0  0
   14.1450   -8.7080   16.5810 O   0  0  0  0  0  0
   18.3980   -6.3702   12.9397 C   0  0  0  0  0  0
   17.3973   -5.8897   12.1670 C   0  0  0  0  0  0
   17.5981   -4.9150   11.1183 C   0  0  0  0  0  0
   18.6660   -4.4018   10.8081 O   0  0  0  0  0  0
   16.4352   -4.6509   10.4753 N   0  0  0  0  0  0
   15.2934   -5.1806   10.9348 C   0  0  0  0  0  0
   14.1451   -4.9150   10.5820 O   0  0  0  0  0  0
   15.7083   -6.3360   12.2218 S   0  0  0  0  0  0
   16.3924   -3.8104    9.2535 C   0  0  0  0  0  0
   16.5644   -2.3395    9.6167 C   0  0  0  0  0  0
   17.6413   -1.8120    9.7810 O   0  0  0  0  0  0
   15.3450   -1.7620    9.7810 O   0  0  0  0  0  0
   17.3033  -12.4579   17.2691 H   0  0  0  0  0  0
   16.8231  -12.0656   15.6226 H   0  0  0  0  0  0
   18.5450  -12.1512   16.0616 H   0  0  0  0  0  0
   18.2494  -10.8119   14.1512 H   0  0  0  0  0  0
   18.6655   -9.0257   12.5810 H   0  0  0  0  0  0
   17.8223   -6.1150   15.5961 H   0  0  0  0  0  0
   15.9576   -9.1867   18.1812 H   0  0  0  0  0  0
   15.8657   -7.6129   18.9072 H   0  0  0  0  0  0
   13.4790   -8.4153   15.9546 H   0  0  0  0  0  0
   19.4011   -5.9946   12.8281 H   0  0  0  0  0  0
   15.4773   -3.9531    8.6742 H   0  0  0  0  0  0
   17.1994   -4.1008    8.5828 H   0  0  0  0  0  0
   14.6142   -2.3618    9.5859 H   0  0  0  0  0  0
  1  2  1  0  0  0
  1 26  1  0  0  0
  1 27  1  0  0  0
  1 28  1  0  0  0
  2  3  1  0  0  0
  3  8  1  0  0  0
  3  4  2  0  0  0
  4  5  1  0  0  0
  4 29  1  0  0  0
  5  6  2  0  0  0
  5 30  1  0  0  0
  6  7  1  0  0  0
  6 14  1  0  0  0
  7  8  2  0  0  0
  7 31  1  0  0  0
  8  9  1  0  0  0
  9 10  1  0  0  0
 10 11  1  0  0  0
 10 32  1  0  0  0
 10 33  1  0  0  0
 11 12  2  0  0  0
 11 13  1  0  0  0
 13 34  1  0  0  0
 14 15  2  0  0  0
 14 35  1  0  0  0
 15 21  1  0  0  0
 15 16  1  0  0  0
 16 17  2  0  0  0
 16 18  1  0  0  0
 18 19  1  0  0  0
 18 22  1  0  0  0
 19 20  2  0  0  0
 19 21  1  0  0  0
 22 23  1  0  0  0
 22 36  1  0  0  0
 22 37  1  0  0  0
 23 24  2  0  0  0
 23 25  1  0  0  0
 25 38  1  0  0  0
M  END
> <s_m_entry_id>
7059

> <s_m_entry_name>
ligand_docking-pose.201

> <s_m_Source_Path>
/home/csk/Desktop/cluster/DUD-E-result/aldr

> <s_m_Source_File>
ligand_docking-pose.sdf

> <i_m_Source_File_Index>
201

> <i_lp_mmshare_version>
53161

> <r_lp_tautomer_probability>
1

> <s_lp_Force_Field>
OPLS_2005

> <r_lp_Energy>
20.734448

> <b_lp_Chiralities_Consistent>
1

> <s_lp_Variant>
397130-1

> <s_i_glide_gridfile>
glide-grid_2hv5

> <i_i_glide_lignum>
779

> <i_i_glide_rotatable_bonds>
9

> <r_i_docking_score>
-9.09622143125259

> <r_i_glide_ligand_efficiency>
-0.363848857250104

> <r_i_glide_ligand_efficiency_sa>
-1.06390051148626

> <r_i_glide_ligand_efficiency_ln>
-2.15607707096635

> <r_i_glide_gscore>
-9.09622143125259

> <r_i_glide_lipo>
-2.80968492344609

> <r_i_glide_hbond>
-0.304145193628393

> <r_i_glide_metal>
0

> <r_i_glide_rewards>
-3.33789046969697

> <r_i_glide_evdw>
-42.9206047058105

> <r_i_glide_ecoul>
-9.03190803527832

> <r_i_glide_erotb>
0.856315596101132

> <r_i_glide_esite>
0

> <r_i_glide_emodel>
-68.0620899519116

> <r_i_glide_energy>
-51.9525127410889

> <r_i_glide_einternal>
18.3925819396973

> <i_i_glide_confnum>
11

> <i_i_glide_posenum>
317

> <r_i_glide_eff_state_penalty>
0

> <i_f3d_flags>
0

> <s_user_duplicate_titles>
397130

> <s_m_subgroup_title>
dock_pv

> <s_m_subgroupid>
dock_pv1

> <b_m_subgroup_collapsed>
0

$$$$
267836
                    3D
 Schrodinger Suite 2021-1.
 33 34  0  0  1  0            999 V2000
   18.9449   -9.5014   13.3963 C   0  0  0  0  0  0
   18.2156   -8.9710   14.3986 C   0  0  0  0  0  0
   17.6332   -9.7850   15.4144 C   0  0  0  0  0  0
   17.7418  -10.9992   15.5929 O   0  0  0  0  0  0
   16.9218   -8.9046   16.1541 N   0  0  0  0  0  0
   17.0578   -7.6253   15.7335 C   0  0  0  0  0  0
   16.4840   -6.6278   16.1763 O   0  0  0  0  0  0
   17.9136   -7.6962   14.6920 N   0  0  0  0  0  0
   18.3500   -6.5395   13.8904 C   0  0  0  0  0  0
   17.4514   -6.1166   12.7219 C   0  0  0  0  0  0
   16.1416   -6.5722   12.5804 C   0  0  0  0  0  0
   15.3351   -6.1132   11.5394 C   0  0  0  0  0  0
   15.8373   -5.1929   10.6196 C   0  0  0  0  0  0
   17.1579   -4.7358   10.7258 C   0  0  0  0  0  0
   17.9446   -5.2148   11.7813 C   0  0  0  0  0  0
   17.7083   -3.7527    9.7654 N   0  3  0  0  0  0
   18.9188   -3.5418    9.7822 O   0  5  0  0  0  0
   16.9418   -3.1952    8.9834 O   0  0  0  0  0  0
   16.1811   -9.2603   17.3875 C   0  0  0  0  0  0
   14.9998  -10.2042   17.0998 C   0  0  0  0  0  0
   14.5454  -10.4309   16.0002 O   0  0  0  0  0  0
   14.5453  -10.7416   18.2620 O   0  0  0  0  0  0
   19.3965   -8.8858   12.6329 H   0  0  0  0  0  0
   19.1052  -10.5682   13.3101 H   0  0  0  0  0  0
   18.4559   -5.6850   14.5593 H   0  0  0  0  0  0
   19.3555   -6.7355   13.5145 H   0  0  0  0  0  0
   15.7440   -7.2814   13.2869 H   0  0  0  0  0  0
   14.3155   -6.4603   11.4475 H   0  0  0  0  0  0
   15.1927   -4.8368    9.8263 H   0  0  0  0  0  0
   18.9451   -4.8491   11.8994 H   0  0  0  0  0  0
   16.8687   -9.7068   18.1038 H   0  0  0  0  0  0
   15.7764   -8.3718   17.8740 H   0  0  0  0  0  0
   13.8118  -11.3363   18.0898 H   0  0  0  0  0  0
  1  2  2  0  0  0
  1 23  1  0  0  0
  1 24  1  0  0  0
  2  8  1  0  0  0
  2  3  1  0  0  0
  3  4  2  0  0  0
  3  5  1  0  0  0
  5  6  1  0  0  0
  5 19  1  0  0  0
  6  7  2  0  0  0
  6  8  1  0  0  0
  8  9  1  0  0  0
  9 10  1  0  0  0
  9 25  1  0  0  0
  9 26  1  0  0  0
 10 15  1  0  0  0
 10 11  2  0  0  0
 11 12  1  0  0  0
 11 27  1  0  0  0
 12 13  2  0  0  0
 12 28  1  0  0  0
 13 14  1  0  0  0
 13 29  1  0  0  0
 14 15  2  0  0  0
 14 16  1  0  0  0
 15 30  1  0  0  0
 16 17  1  0  0  0
 16 18  2  0  0  0
 19 20  1  0  0  0
 19 31  1  0  0  0
 19 32  1  0  0  0
 20 21  2  0  0  0
 20 22  1  0  0  0
 22 33  1  0  0  0
M  CHG  2  16   1  17  -1
M  END
> <s_m_entry_id>
7062

> <s_m_entry_name>
ligand_docking-pose.204

> <s_m_Source_Path>
/home/csk/Desktop/cluster/DUD-E-result/aldr

> <s_m_Source_File>
ligand_docking-pose.sdf

> <i_m_Source_File_Index>
204

> <i_lp_mmshare_version>
53161

> <r_lp_tautomer_probability>
1

> <s_lp_Force_Field>
OPLS_2005

> <r_lp_Energy>
20.784656

> <b_lp_Chiralities_Consistent>
1

> <s_lp_Variant>
267836-1

> <s_i_glide_gridfile>
glide-grid_2hv5

> <i_i_glide_lignum>
532

> <i_i_glide_rotatable_bonds>
6

> <r_i_docking_score>
-9.06001964426295

> <r_i_glide_ligand_efficiency>
-0.411819074739225

> <r_i_glide_ligand_efficiency_sa>
-1.15393324334447

> <r_i_glide_ligand_efficiency_ln>
-2.21459927330395

> <r_i_glide_gscore>
-9.06001964426295

> <r_i_glide_lipo>
-3.00689627970143

> <r_i_glide_hbond>
0

> <r_i_glide_metal>
0

> <r_i_glide_rewards>
-3.98622237878788

> <r_i_glide_evdw>
-43.6275100708008

> <r_i_glide_ecoul>
-4.51853656768799

> <r_i_glide_erotb>
0.792255002919595

> <r_i_glide_esite>
0

> <r_i_glide_emodel>
-71.9462073909764

> <r_i_glide_energy>
-48.1460466384888

> <r_i_glide_einternal>
3.0546760559082

> <i_i_glide_confnum>
3

> <i_i_glide_posenum>
386

> <r_i_glide_eff_state_penalty>
0

> <i_f3d_flags>
0

> <s_user_duplicate_titles>
267836

> <s_m_subgroup_title>
dock_pv

> <s_m_subgroupid>
dock_pv1

> <b_m_subgroup_collapsed>
0

$$$$
267907
                    3D
 Schrodinger Suite 2021-1.
 33 34  0  0  1  0            999 V2000
   16.1194   -6.5149   12.1813 C   0  0  0  0  0  0
   15.5080   -5.9229   11.0780 C   0  0  0  0  0  0
   16.1449   -4.9000   10.3740 C   0  0  0  0  0  0
   17.4054   -4.4402   10.7960 C   0  0  0  0  0  0
   18.0022   -5.0695   11.8958 C   0  0  0  0  0  0
   17.3776   -6.0910   12.6060 C   0  0  0  0  0  0
   18.0881   -6.6420   13.8506 C   0  0  0  0  0  0
   17.5777   -7.9087   14.4436 N   0  0  0  0  0  0
   18.2811   -9.0489   14.1025 C   0  0  0  0  0  0
   19.2735   -9.0993   13.3759 O   0  0  0  0  0  0
   17.7447  -10.2568   14.6885 C   0  0  0  0  0  0
   16.6387  -10.1860   15.4451 C   0  0  0  0  0  0
   15.9779   -9.0220   15.7449 N   0  0  0  0  0  0
   16.4964   -7.8108   15.3181 C   0  0  0  0  0  0
   16.0668   -6.7314   15.7401 O   0  0  0  0  0  0
   14.7022   -9.0109   16.4914 C   0  0  0  0  0  0
   14.9650   -9.4310   17.9369 C   0  0  0  0  0  0
   14.5451  -10.4629   18.4120 O   0  0  0  0  0  0
   15.7450   -8.5163   18.5790 O   0  0  0  0  0  0
   18.1175   -3.3176   10.1387 N   0  3  0  0  0  0
   17.4717   -2.4090    9.6282 O   0  5  0  0  0  0
   19.3444   -3.3132   10.1810 O   0  0  0  0  0  0
   15.3451   -4.2594    8.9815 Cl  0  0  0  0  0  0
   15.6049   -7.3061   12.6978 H   0  0  0  0  0  0
   14.5325   -6.2661   10.7676 H   0  0  0  0  0  0
   18.9433   -4.7124   12.2637 H   0  0  0  0  0  0
   18.0814   -5.8603   14.6105 H   0  0  0  0  0  0
   19.1474   -6.7365   13.6001 H   0  0  0  0  0  0
   18.2360  -11.2002   14.4987 H   0  0  0  0  0  0
   16.1989  -11.0529   15.9201 H   0  0  0  0  0  0
   14.0116   -9.7199   16.0352 H   0  0  0  0  0  0
   14.1933   -8.0464   16.4785 H   0  0  0  0  0  0
   15.9926   -8.8462   19.4485 H   0  0  0  0  0  0
  1  6  1  0  0  0
  1  2  2  0  0  0
  1 24  1  0  0  0
  2  3  1  0  0  0
  2 25  1  0  0  0
  3  4  2  0  0  0
  3 23  1  0  0  0
  4  5  1  0  0  0
  4 20  1  0  0  0
  5  6  2  0  0  0
  5 26  1  0  0  0
  6  7  1  0  0  0
  7  8  1  0  0  0
  7 27  1  0  0  0
  7 28  1  0  0  0
  8 14  1  0  0  0
  8  9  1  0  0  0
  9 10  2  0  0  0
  9 11  1  0  0  0
 11 12  2  0  0  0
 11 29  1  0  0  0
 12 13  1  0  0  0
 12 30  1  0  0  0
 13 14  1  0  0  0
 13 16  1  0  0  0
 14 15  2  0  0  0
 16 17  1  0  0  0
 16 31  1  0  0  0
 16 32  1  0  0  0
 17 18  2  0  0  0
 17 19  1  0  0  0
 19 33  1  0  0  0
 20 21  1  0  0  0
 20 22  2  0  0  0
M  CHG  2  20   1  21  -1
M  END
> <s_m_entry_id>
7063

> <s_m_entry_name>
ligand_docking-pose.205

> <s_m_Source_Path>
/home/csk/Desktop/cluster/DUD-E-result/aldr

> <s_m_Source_File>
ligand_docking-pose.sdf

> <i_m_Source_File_Index>
205

> <i_lp_mmshare_version>
53161

> <r_lp_tautomer_probability>
1

> <s_lp_Force_Field>
OPLS_2005

> <r_lp_Energy>
20.320218

> <b_lp_Chiralities_Consistent>
1

> <s_lp_Variant>
267907-1

> <s_i_glide_gridfile>
glide-grid_2hv5

> <i_i_glide_lignum>
399

> <i_i_glide_rotatable_bonds>
6

> <r_i_docking_score>
-9.04531174421352

> <r_i_glide_ligand_efficiency>
-0.393274423661457

> <r_i_glide_ligand_efficiency_sa>
-1.11842014630204

> <r_i_glide_ligand_efficiency_ln>
-2.1872383981031

> <r_i_glide_gscore>
-9.04531174421352

> <r_i_glide_lipo>
-3.15638453158326

> <r_i_glide_hbond>
-0.012532361842369

> <r_i_glide_metal>
0

> <r_i_glide_rewards>
-3.79303840909091

> <r_i_glide_evdw>
-42.8402786254883

> <r_i_glide_ecoul>
-3.98327136039734

> <r_i_glide_erotb>
0.656148193637039

> <r_i_glide_esite>
0

> <r_i_glide_emodel>
-66.9640930990033

> <r_i_glide_energy>
-46.8235499858856

> <r_i_glide_einternal>
6.12668371200562

> <i_i_glide_confnum>
18

> <i_i_glide_posenum>
190

> <r_i_glide_eff_state_penalty>
0

> <i_f3d_flags>
0

> <s_user_duplicate_titles>
267907

> <s_m_subgroup_title>
dock_pv

> <s_m_subgroupid>
dock_pv1

> <b_m_subgroup_collapsed>
0

$$$$
45514
                    3D
 Schrodinger Suite 2021-1.
 37 39  0  0  1  0            999 V2000
   18.1303   -5.2481   11.7431 C   0  0  0  0  0  0
   17.4725   -4.6118   10.6940 C   0  0  0  0  0  0
   16.1409   -4.9184   10.4340 C   0  0  0  0  0  0
   15.4752   -5.8687   11.2026 C   0  0  0  0  0  0
   16.1465   -6.5134   12.2384 C   0  0  0  0  0  0
   17.4754   -6.1895   12.5353 C   0  0  0  0  0  0
   18.2449   -6.8046   13.7131 C   0  0  0  0  0  0
   17.6851   -8.0032   14.3615 N   0  0  0  0  0  0
   18.1048   -9.3229   14.1891 C   0  0  0  0  0  0
   19.1242   -9.8303   13.3816 C   0  0  0  0  0  0
   19.3441  -11.2122   13.3467 C   0  0  0  0  0  0
   18.5551  -12.0698   14.1162 C   0  0  0  0  0  0
   17.5471  -11.5504   14.9305 C   0  0  0  0  0  0
   17.3288  -10.1705   14.9624 C   0  0  0  0  0  0
   16.3181   -9.3420   15.6972 C   0  0  2  0  0  0
   16.6404   -7.9134   15.2197 C   0  0  0  0  0  0
   16.0192   -6.9025   15.5437 O   0  0  0  0  0  0
   16.3143   -9.5112   17.2537 C   0  0  1  0  0  0
   15.9898   -8.2845   18.0052 C   0  0  0  0  0  0
   15.7470   -7.3114   18.5810 N   0  0  0  0  0  0
   15.4934  -10.7433   17.6752 C   0  0  0  0  0  0
   16.0091  -11.8195   17.9640 O   0  0  0  0  0  0
   14.1531  -10.5161   17.6762 O   0  0  0  0  0  0
   18.7760  -13.4032   14.0796 F   0  0  0  0  0  0
   15.4987   -4.2941    9.4219 F   0  0  0  0  0  0
   19.1523   -4.9930   11.9524 H   0  0  0  0  0  0
   17.9826   -3.8747   10.0915 H   0  0  0  0  0  0
   14.4441   -6.1089   10.9871 H   0  0  0  0  0  0
   15.6186   -7.2505   12.8139 H   0  0  0  0  0  0
   18.3578   -6.0235   14.4676 H   0  0  0  0  0  0
   19.2532   -7.0389   13.3708 H   0  0  0  0  0  0
   19.7436   -9.1759   12.7904 H   0  0  0  0  0  0
   20.1267  -11.6197   12.7251 H   0  0  0  0  0  0
   16.9443  -12.2326   15.5130 H   0  0  0  0  0  0
   15.3154   -9.5421   15.3178 H   0  0  0  0  0  0
   17.3399   -9.7155   17.5623 H   0  0  0  0  0  0
   13.6668  -11.3039   17.9357 H   0  0  0  0  0  0
  1  6  1  0  0  0
  1  2  2  0  0  0
  1 26  1  0  0  0
  2  3  1  0  0  0
  2 27  1  0  0  0
  3  4  2  0  0  0
  3 25  1  0  0  0
  4  5  1  0  0  0
  4 28  1  0  0  0
  5  6  2  0  0  0
  5 29  1  0  0  0
  6  7  1  0  0  0
  7  8  1  0  0  0
  7 30  1  0  0  0
  7 31  1  0  0  0
  8 16  1  0  0  0
  8  9  1  0  0  0
  9 14  2  0  0  0
  9 10  1  0  0  0
 10 11  2  0  0  0
 10 32  1  0  0  0
 11 12  1  0  0  0
 11 33  1  0  0  0
 12 13  2  0  0  0
 12 24  1  0  0  0
 13 14  1  0  0  0
 13 34  1  0  0  0
 14 15  1  0  0  0
 15 16  1  0  0  0
 15 18  1  0  0  0
 15 35  1  0  0  0
 16 17  2  0  0  0
 18 19  1  0  0  0
 18 21  1  0  0  0
 18 36  1  0  0  0
 19 20  3  0  0  0
 21 22  2  0  0  0
 21 23  1  0  0  0
 23 37  1  0  0  0
M  END
> <s_m_entry_id>
7066

> <s_m_entry_name>
ligand_docking-pose.208

> <s_m_Source_Path>
/home/csk/Desktop/cluster/DUD-E-result/aldr

> <s_m_Source_File>
ligand_docking-pose.sdf

> <i_m_Source_File_Index>
208

> <i_lp_mmshare_version>
53161

> <r_lp_tautomer_probability>
1

> <s_lp_Force_Field>
OPLS_2005

> <r_lp_Energy>
32.842804

> <b_lp_Chiralities_Consistent>
1

> <s_lp_Variant>
45514-4

> <s_i_glide_gridfile>
glide-grid_2hv5

> <i_i_glide_lignum>
387

> <i_i_glide_rotatable_bonds>
5

> <r_i_docking_score>
-9.0115738740323

> <r_i_glide_ligand_efficiency>
-0.360462954961292

> <r_i_glide_ligand_efficiency_sa>
-1.05400007314454

> <r_i_glide_ligand_efficiency_ln>
-2.13601306322255

> <r_i_glide_gscore>
-9.0115738740323

> <r_i_glide_lipo>
-3.7658249781308

> <r_i_glide_hbond>
-0.241306373529483

> <r_i_glide_metal>
0

> <r_i_glide_rewards>
-3.39164092734114

> <r_i_glide_evdw>
-34.161003112793

> <r_i_glide_ecoul>
-3.6803925037384

> <r_i_glide_erotb>
0.647307436169537

> <r_i_glide_esite>
0

> <r_i_glide_emodel>
-55.5103800493471

> <r_i_glide_energy>
-37.8413956165314

> <r_i_glide_einternal>
4.51491355895996

> <i_i_glide_confnum>
14

> <i_i_glide_posenum>
242

> <r_i_glide_eff_state_penalty>
0

> <i_f3d_flags>
0

> <s_user_duplicate_titles>
45514

> <s_m_subgroup_title>
dock_pv

> <s_m_subgroupid>
dock_pv1

> <b_m_subgroup_collapsed>
0

$$$$
237207
                    3D
 Schrodinger Suite 2021-1.
 33 35  0  0  1  0            999 V2000
   14.8980   -8.9169   17.8349 C   0  0  0  0  0  0
   15.4555  -10.1830   17.7310 C   0  0  0  0  0  0
   16.4541  -10.4226   16.7977 C   0  0  0  0  0  0
   16.8788   -9.3831   15.9364 C   0  0  0  0  0  0
   17.9037   -9.5908   15.0014 C   0  0  0  0  0  0
   18.2933   -8.5656   14.1535 C   0  0  0  0  0  0
   17.6546   -7.3245   14.1536 C   0  0  0  0  0  0
   16.6571   -7.0815   15.1014 C   0  0  0  0  0  0
   16.2621   -8.0956   16.0102 C   0  0  0  0  0  0
   15.2661   -7.8797   16.9859 C   0  0  0  0  0  0
   17.9757   -6.3357   13.1002 C   0  0  0  0  0  0
   17.0677   -5.8192   12.2394 C   0  0  0  0  0  0
   17.4186   -4.9149   11.1756 C   0  0  0  0  0  0
   18.5450   -4.5158   10.9129 O   0  0  0  0  0  0
   16.3219   -4.5425   10.4801 N   0  0  0  0  0  0
   15.1161   -4.9247   10.9152 C   0  0  0  0  0  0
   14.0146   -4.5149   10.5803 O   0  0  0  0  0  0
   15.3449   -6.1150   12.1812 S   0  0  0  0  0  0
   16.4161   -3.7158    9.2582 C   0  0  0  0  0  0
   16.5729   -2.2486    9.6217 C   0  0  0  0  0  0
   17.6468   -1.7160    9.7809 O   0  0  0  0  0  0
   15.3460   -1.6849    9.7805 O   0  0  0  0  0  0
   19.7489   -8.9154   13.0056 Br  0  0  0  0  0  0
   14.1450   -8.7512   18.5805 H   0  0  0  0  0  0
   15.1249  -10.9697   18.3933 H   0  0  0  0  0  0
   16.9087  -11.4003   16.7266 H   0  0  0  0  0  0
   18.3932  -10.5535   14.9530 H   0  0  0  0  0  0
   16.1601   -6.1182   15.1334 H   0  0  0  0  0  0
   14.7907   -6.9129   17.0719 H   0  0  0  0  0  0
   19.0166   -6.0447   13.0307 H   0  0  0  0  0  0
   15.5603   -3.8564    8.5948 H   0  0  0  0  0  0
   17.2888   -4.0153    8.6780 H   0  0  0  0  0  0
   14.6233   -2.2987    9.5909 H   0  0  0  0  0  0
  1 10  1  0  0  0
  1  2  2  0  0  0
  1 24  1  0  0  0
  2  3  1  0  0  0
  2 25  1  0  0  0
  3  4  2  0  0  0
  3 26  1  0  0  0
  4  9  1  0  0  0
  4  5  1  0  0  0
  5  6  2  0  0  0
  5 27  1  0  0  0
  6  7  1  0  0  0
  6 23  1  0  0  0
  7  8  2  0  0  0
  7 11  1  0  0  0
  8  9  1  0  0  0
  8 28  1  0  0  0
  9 10  2  0  0  0
 10 29  1  0  0  0
 11 12  2  0  0  0
 11 30  1  0  0  0
 12 18  1  0  0  0
 12 13  1  0  0  0
 13 14  2  0  0  0
 13 15  1  0  0  0
 15 16  1  0  0  0
 15 19  1  0  0  0
 16 17  2  0  0  0
 16 18  1  0  0  0
 19 20  1  0  0  0
 19 31  1  0  0  0
 19 32  1  0  0  0
 20 21  2  0  0  0
 20 22  1  0  0  0
 22 33  1  0  0  0
M  END
> <s_m_entry_id>
7068

> <s_m_entry_name>
ligand_docking-pose.210

> <s_m_Source_Path>
/home/csk/Desktop/cluster/DUD-E-result/aldr

> <s_m_Source_File>
ligand_docking-pose.sdf

> <i_m_Source_File_Index>
210

> <i_lp_mmshare_version>
53161

> <r_lp_tautomer_probability>
1

> <s_lp_Force_Field>
OPLS_2005

> <r_lp_Energy>
17.731438

> <b_lp_Chiralities_Consistent>
1

> <s_lp_Variant>
237207-1

> <s_i_glide_gridfile>
glide-grid_2hv5

> <i_i_glide_lignum>
292

> <i_i_glide_rotatable_bonds>
4

> <r_i_docking_score>
-8.97822168930543

> <r_i_glide_ligand_efficiency>
-0.39035746475241

> <r_i_glide_ligand_efficiency_sa>
-1.11012470318769

> <r_i_glide_ligand_efficiency_ln>
-2.17101541448734

> <r_i_glide_gscore>
-8.97822168930543

> <r_i_glide_lipo>
-3.58287977062052

> <r_i_glide_hbond>
0

> <r_i_glide_metal>
0

> <r_i_glide_rewards>
-3.43483022727273

> <r_i_glide_evdw>
-38.0585174560547

> <r_i_glide_ecoul>
-2.9219388961792

> <r_i_glide_erotb>
0.380705015817435

> <r_i_glide_esite>
0

> <r_i_glide_emodel>
-54.1392570937967

> <r_i_glide_energy>
-40.9804563522339

> <r_i_glide_einternal>
5.84830522537231

> <i_i_glide_confnum>
13

> <i_i_glide_posenum>
96

> <r_i_glide_eff_state_penalty>
0

> <i_f3d_flags>
0

> <s_user_duplicate_titles>
237207

> <s_m_subgroup_title>
dock_pv

> <s_m_subgroupid>
dock_pv1

> <b_m_subgroup_collapsed>
0

$$$$
45478
                    3D
 Schrodinger Suite 2021-1.
 37 39  0  0  1  0            999 V2000
   15.9750   -4.9163   10.4039 C   0  0  0  0  0  0
   17.3017   -4.5767   10.6534 C   0  0  0  0  0  0
   17.9836   -5.1995   11.6974 C   0  0  0  0  0  0
   17.3613   -6.1652   12.4876 C   0  0  0  0  0  0
   16.0383   -6.5147   12.2018 C   0  0  0  0  0  0
   15.3406   -5.8847   11.1759 C   0  0  0  0  0  0
   18.1461   -6.7509   13.6733 C   0  0  0  0  0  0
   17.6241   -7.9604   14.3362 N   0  0  0  0  0  0
   18.0881   -9.2665   14.1794 C   0  0  0  0  0  0
   19.1239   -9.7500   13.3814 C   0  0  0  0  0  0
   19.3644  -11.1261   13.3375 C   0  0  0  0  0  0
   18.5914  -12.0037   14.0984 C   0  0  0  0  0  0
   17.5772  -11.5071   14.9162 C   0  0  0  0  0  0
   17.3337  -10.1320   14.9530 C   0  0  0  0  0  0
   16.3056   -9.3285   15.6903 C   0  0  2  0  0  0
   16.5738   -7.8996   15.1905 C   0  0  0  0  0  0
   15.9099   -6.9137   15.5019 O   0  0  0  0  0  0
   16.3414   -9.4790   17.2452 C   0  0  1  0  0  0
   16.0026   -8.2569   18.0019 C   0  0  0  0  0  0
   15.7462   -7.2882   18.5807 N   0  0  0  0  0  0
   15.5712  -10.7322   17.6923 C   0  0  0  0  0  0
   16.1176  -11.8056   17.9308 O   0  0  0  0  0  0
   14.2323  -10.5250   17.7808 O   0  0  0  0  0  0
   18.8313  -13.3324   14.0501 F   0  0  0  0  0  0
   15.4359   -4.4284    9.6056 H   0  0  0  0  0  0
   17.7923   -3.8246   10.0526 H   0  0  0  0  0  0
   18.9952   -4.9151   11.9104 H   0  0  0  0  0  0
   15.5334   -7.2695   12.7751 H   0  0  0  0  0  0
   14.3107   -6.1509   10.9814 H   0  0  0  0  0  0
   18.2324   -5.9588   14.4200 H   0  0  0  0  0  0
   19.1617   -6.9546   13.3331 H   0  0  0  0  0  0
   19.7311   -9.0821   12.7889 H   0  0  0  0  0  0
   20.1542  -11.5155   12.7117 H   0  0  0  0  0  0
   16.9838  -12.2015   15.4917 H   0  0  0  0  0  0
   15.3030   -9.5690   15.3311 H   0  0  0  0  0  0
   17.3796   -9.6495   17.5299 H   0  0  0  0  0  0
   13.7742  -11.3241   18.0545 H   0  0  0  0  0  0
  1  6  1  0  0  0
  1  2  2  0  0  0
  1 25  1  0  0  0
  2  3  1  0  0  0
  2 26  1  0  0  0
  3  4  2  0  0  0
  3 27  1  0  0  0
  4  5  1  0  0  0
  4  7  1  0  0  0
  5  6  2  0  0  0
  5 28  1  0  0  0
  6 29  1  0  0  0
  7  8  1  0  0  0
  7 30  1  0  0  0
  7 31  1  0  0  0
  8 16  1  0  0  0
  8  9  1  0  0  0
  9 14  2  0  0  0
  9 10  1  0  0  0
 10 11  2  0  0  0
 10 32  1  0  0  0
 11 12  1  0  0  0
 11 33  1  0  0  0
 12 13  2  0  0  0
 12 24  1  0  0  0
 13 14  1  0  0  0
 13 34  1  0  0  0
 14 15  1  0  0  0
 15 16  1  0  0  0
 15 18  1  0  0  0
 15 35  1  0  0  0
 16 17  2  0  0  0
 18 19  1  0  0  0
 18 21  1  0  0  0
 18 36  1  0  0  0
 19 20  3  0  0  0
 21 22  2  0  0  0
 21 23  1  0  0  0
 23 37  1  0  0  0
M  END
> <s_m_entry_id>
7069

> <s_m_entry_name>
ligand_docking-pose.211

> <s_m_Source_Path>
/home/csk/Desktop/cluster/DUD-E-result/aldr

> <s_m_Source_File>
ligand_docking-pose.sdf

> <i_m_Source_File_Index>
211

> <i_lp_mmshare_version>
53161

> <r_lp_tautomer_probability>
1

> <s_lp_Force_Field>
OPLS_2005

> <r_lp_Energy>
33.802344

> <b_lp_Chiralities_Consistent>
1

> <s_lp_Variant>
45478-4

> <s_i_glide_gridfile>
glide-grid_2hv5

> <i_i_glide_lignum>
379

> <i_i_glide_rotatable_bonds>
5

> <r_i_docking_score>
-8.97450273705746

> <r_i_glide_ligand_efficiency>
-0.373937614044061

> <r_i_glide_ligand_efficiency_sa>
-1.07862272521101

> <r_i_glide_ligand_efficiency_ln>
-2.14801031807435

> <r_i_glide_gscore>
-8.97450273705746

> <r_i_glide_lipo>
-3.7335176161524

> <r_i_glide_hbond>
-0.269231015912198

> <r_i_glide_metal>
0

> <r_i_glide_rewards>
-3.35383336229946

> <r_i_glide_evdw>
-33.4943923950195

> <r_i_glide_ecoul>
-4.36923551559448

> <r_i_glide_erotb>
0.712184204396751

> <r_i_glide_esite>
0

> <r_i_glide_emodel>
-55.6915302394125

> <r_i_glide_energy>
-37.863627910614

> <r_i_glide_einternal>
4.50127172470093

> <i_i_glide_confnum>
48

> <i_i_glide_posenum>
236

> <r_i_glide_eff_state_penalty>
0

> <i_f3d_flags>
0

> <s_user_duplicate_titles>
45478

> <s_m_subgroup_title>
dock_pv

> <s_m_subgroupid>
dock_pv1

> <b_m_subgroup_collapsed>
0

$$$$
267932
                    3D
 Schrodinger Suite 2021-1.
 31 33  0  0  1  0            999 V2000
   15.7089   -3.8852    9.5229 C   0  0  0  0  0  0
   15.3691   -4.8580   10.4613 C   0  0  0  0  0  0
   16.3776   -5.3152   11.3128 C   0  0  0  0  0  0
   17.6944   -4.7935   11.2510 C   0  0  0  0  0  0
   18.0030   -3.7962   10.2991 C   0  0  0  0  0  0
   16.9936   -3.3607    9.4427 C   0  0  0  0  0  0
   19.5583   -3.0615   10.1810 Cl  0  0  0  0  0  0
   18.5448   -5.3149   12.1797 N   0  0  0  0  0  0
   17.9730   -6.1854   12.9619 C   0  0  0  0  0  0
   16.2909   -6.5150   12.5810 S   0  0  0  0  0  0
   18.7432   -6.8026   14.1208 C   0  0  0  0  0  0
   18.0743   -7.9660   14.7244 N   0  0  0  0  0  0
   18.2940   -9.2233   14.3257 C   0  0  0  0  0  0
   18.9694   -9.6323   13.3810 O   0  0  0  0  0  0
   17.6162  -10.0440   15.2820 C   0  0  0  0  0  0
   17.6321  -11.2767   15.3059 O   0  0  0  0  0  0
   17.0169   -9.1893   16.1279 N   0  0  0  0  0  0
   17.2384   -7.9049   15.7820 C   0  0  0  0  0  0
   16.6262   -6.9152   16.1872 O   0  0  0  0  0  0
   16.3346   -9.5917   17.3784 C   0  0  0  0  0  0
   15.0398  -10.3763   17.0944 C   0  0  0  0  0  0
   14.5450  -10.5147   15.9974 O   0  0  0  0  0  0
   14.5451  -10.8931   18.2516 O   0  0  0  0  0  0
   14.9454   -3.5200    8.8514 H   0  0  0  0  0  0
   14.3596   -5.2385   10.5341 H   0  0  0  0  0  0
   17.2041   -2.5943    8.7107 H   0  0  0  0  0  0
   18.9001   -6.0479   14.8937 H   0  0  0  0  0  0
   19.7475   -7.0864   13.7973 H   0  0  0  0  0  0
   16.0809   -8.7215   17.9862 H   0  0  0  0  0  0
   17.0165  -10.1995   17.9692 H   0  0  0  0  0  0
   13.7371  -11.3870   18.0834 H   0  0  0  0  0  0
  1  6  1  0  0  0
  1  2  2  0  0  0
  1 24  1  0  0  0
  2  3  1  0  0  0
  2 25  1  0  0  0
  3 10  1  0  0  0
  3  4  2  0  0  0
  4  5  1  0  0  0
  4  8  1  0  0  0
  5  6  2  0  0  0
  5  7  1  0  0  0
  6 26  1  0  0  0
  8  9  2  0  0  0
  9 10  1  0  0  0
  9 11  1  0  0  0
 11 12  1  0  0  0
 11 27  1  0  0  0
 11 28  1  0  0  0
 12 18  1  0  0  0
 12 13  1  0  0  0
 13 14  2  0  0  0
 13 15  1  0  0  0
 15 16  2  0  0  0
 15 17  1  0  0  0
 17 18  1  0  0  0
 17 20  1  0  0  0
 18 19  2  0  0  0
 20 21  1  0  0  0
 20 29  1  0  0  0
 20 30  1  0  0  0
 21 22  2  0  0  0
 21 23  1  0  0  0
 23 31  1  0  0  0
M  END
> <s_m_entry_id>
7070

> <s_m_entry_name>
ligand_docking-pose.212

> <s_m_Source_Path>
/home/csk/Desktop/cluster/DUD-E-result/aldr

> <s_m_Source_File>
ligand_docking-pose.sdf

> <i_m_Source_File_Index>
212

> <i_lp_mmshare_version>
53161

> <r_lp_tautomer_probability>
1

> <s_lp_Force_Field>
OPLS_2005

> <r_lp_Energy>
12.930534

> <b_lp_Chiralities_Consistent>
1

> <s_lp_Variant>
267932-1

> <s_i_glide_gridfile>
glide-grid_2hv5

> <i_i_glide_lignum>
39

> <i_i_glide_rotatable_bonds>
5

> <r_i_docking_score>
-8.96605168800317

> <r_i_glide_ligand_efficiency>
-0.389828334261007

> <r_i_glide_ligand_efficiency_sa>
-1.10861992645673

> <r_i_glide_ligand_efficiency_ln>
-2.16807259782098

> <r_i_glide_gscore>
-8.96605168800317

> <r_i_glide_lipo>
-3.01124762017666

> <r_i_glide_hbond>
0

> <r_i_glide_metal>
0

> <r_i_glide_rewards>
-3.66390471212121

> <r_i_glide_evdw>
-45.0288696289062

> <r_i_glide_ecoul>
-4.33353233337402

> <r_i_glide_erotb>
0.610573975746114

> <r_i_glide_esite>
0

> <r_i_glide_emodel>
-71.9174380739132

> <r_i_glide_energy>
-49.3624019622803

> <r_i_glide_einternal>
4.52032375335693

> <i_i_glide_confnum>
31

> <i_i_glide_posenum>
370

> <r_i_glide_eff_state_penalty>
0

> <i_f3d_flags>
0

> <s_user_duplicate_titles>
267932

> <s_m_subgroup_title>
dock_pv

> <s_m_subgroupid>
dock_pv1

> <b_m_subgroup_collapsed>
0

$$$$
267962
                    3D
 Schrodinger Suite 2021-1.
 33 34  0  0  1  0            999 V2000
   15.3312   -6.1149   11.8687 C   0  0  0  0  0  0
   16.1936   -6.7991   12.7252 C   0  0  0  0  0  0
   17.5713   -6.5620   12.6885 C   0  0  0  0  0  0
   18.0511   -5.5921   11.8027 C   0  0  0  0  0  0
   17.1976   -4.8877   10.9383 C   0  0  0  0  0  0
   15.8275   -5.1672   10.9813 C   0  0  0  0  0  0
   17.7301   -3.8683   10.0042 N   0  3  0  0  0  0
   18.9453   -3.7138    9.9450 O   0  5  0  0  0  0
   16.9418   -3.2193    9.3219 O   0  0  0  0  0  0
   18.5726   -7.3157   13.5844 C   0  0  0  0  0  0
   18.0162   -8.2695   14.5872 N   0  0  0  0  0  0
   18.1380   -9.6149   14.3118 C   0  0  0  0  0  0
   18.7728  -10.1118   13.3809 O   0  0  0  0  0  0
   17.4704  -10.4604   15.2799 C   0  0  0  0  0  0
   16.9813   -9.9131   16.4057 C   0  0  0  0  0  0
   16.9992   -8.5743   16.6871 N   0  0  0  0  0  0
   17.5727   -7.7048   15.7724 C   0  0  0  0  0  0
   17.7451   -6.5150   16.0321 O   0  0  0  0  0  0
   16.6321   -8.0583   18.0313 C   0  0  0  0  0  0
   15.5989   -6.9161   17.9831 C   0  0  0  0  0  0
   14.7996   -6.7596   17.0827 O   0  0  0  0  0  0
   15.7453   -6.1160   19.0800 O   0  0  0  0  0  0
   14.2681   -6.3024   11.8970 H   0  0  0  0  0  0
   15.7794   -7.5152   13.4150 H   0  0  0  0  0  0
   19.1068   -5.3906   11.7881 H   0  0  0  0  0  0
   15.1339   -4.6445   10.3368 H   0  0  0  0  0  0
   19.1793   -6.5673   14.0986 H   0  0  0  0  0  0
   19.3014   -7.8255   12.9592 H   0  0  0  0  0  0
   17.3848  -11.5197   15.0867 H   0  0  0  0  0  0
   16.4448  -10.4881   17.1467 H   0  0  0  0  0  0
   17.5462   -7.7196   18.5219 H   0  0  0  0  0  0
   16.1997   -8.8543   18.6387 H   0  0  0  0  0  0
   16.4818   -6.3842   19.6321 H   0  0  0  0  0  0
  1  6  1  0  0  0
  1  2  2  0  0  0
  1 23  1  0  0  0
  2  3  1  0  0  0
  2 24  1  0  0  0
  3  4  2  0  0  0
  3 10  1  0  0  0
  4  5  1  0  0  0
  4 25  1  0  0  0
  5  6  2  0  0  0
  5  7  1  0  0  0
  6 26  1  0  0  0
  7  8  1  0  0  0
  7  9  2  0  0  0
 10 11  1  0  0  0
 10 27  1  0  0  0
 10 28  1  0  0  0
 11 17  1  0  0  0
 11 12  1  0  0  0
 12 13  2  0  0  0
 12 14  1  0  0  0
 14 15  2  0  0  0
 14 29  1  0  0  0
 15 16  1  0  0  0
 15 30  1  0  0  0
 16 17  1  0  0  0
 16 19  1  0  0  0
 17 18  2  0  0  0
 19 20  1  0  0  0
 19 31  1  0  0  0
 19 32  1  0  0  0
 20 21  2  0  0  0
 20 22  1  0  0  0
 22 33  1  0  0  0
M  CHG  2   7   1   8  -1
M  END
> <s_m_entry_id>
7071

> <s_m_entry_name>
ligand_docking-pose.213

> <s_m_Source_Path>
/home/csk/Desktop/cluster/DUD-E-result/aldr

> <s_m_Source_File>
ligand_docking-pose.sdf

> <i_m_Source_File_Index>
213

> <i_lp_mmshare_version>
53161

> <r_lp_tautomer_probability>
1

> <s_lp_Force_Field>
OPLS_2005

> <r_lp_Energy>
17.013708

> <b_lp_Chiralities_Consistent>
1

> <s_lp_Variant>
267962-1

> <s_i_glide_gridfile>
glide-grid_2hv5

> <i_i_glide_lignum>
436

> <i_i_glide_rotatable_bonds>
6

> <r_i_docking_score>
-8.96530409384725

> <r_i_glide_ligand_efficiency>
-0.407513822447602

> <r_i_glide_ligand_efficiency_sa>
-1.14186975710737

> <r_i_glide_ligand_efficiency_ln>
-2.19144733794871

> <r_i_glide_gscore>
-8.96530409384725

> <r_i_glide_lipo>
-2.98545552648409

> <r_i_glide_hbond>
-0.0811042686331363

> <r_i_glide_metal>
0

> <r_i_glide_rewards>
-4.02788904545455

> <r_i_glide_evdw>
-40.8187065124512

> <r_i_glide_ecoul>
-4.1478328704834

> <r_i_glide_erotb>
0.792255002919595

> <r_i_glide_esite>
0

> <r_i_glide_emodel>
-66.8990694073053

> <r_i_glide_energy>
-44.9665393829346

> <r_i_glide_einternal>
3.80116057395935

> <i_i_glide_confnum>
5

> <i_i_glide_posenum>
97

> <r_i_glide_eff_state_penalty>
0

> <i_f3d_flags>
0

> <s_user_duplicate_titles>
267962

> <s_m_subgroup_title>
dock_pv

> <s_m_subgroupid>
dock_pv1

> <b_m_subgroup_collapsed>
0

$$$$
497023
                    3D
 Schrodinger Suite 2021-1.
 35 37  0  0  1  0            999 V2000
   15.5361   -3.3146    8.5811 C   0  0  0  0  0  0
   16.4251   -3.7940    9.6545 C   0  0  0  0  0  0
   17.6443   -3.1710    9.8410 C   0  0  0  0  0  0
   18.4816   -3.6420   10.8285 C   0  0  0  0  0  0
   18.1117   -4.7409   11.6076 C   0  0  0  0  0  0
   16.8862   -5.3619   11.4059 C   0  0  0  0  0  0
   16.0273   -4.8647   10.4326 C   0  0  0  0  0  0
   16.4984   -6.5149   12.2377 C   0  0  0  0  0  0
   15.3451   -6.9148   12.1810 O   0  0  0  0  0  0
   17.6138   -7.0889   13.0185 C   0  0  0  0  0  0
   18.7393   -6.3723   13.1625 C   0  0  0  0  0  0
   18.9438   -5.1628   12.6130 O   0  0  0  0  0  0
   17.5067   -8.4329   13.5696 C   0  0  0  0  0  0
   16.9573   -8.8001   14.7478 C   0  0  0  0  0  0
   16.3139   -7.8925   15.6706 C   0  0  0  0  0  0
   16.1457   -6.6837   15.5100 O   0  0  0  0  0  0
   15.9145   -8.5598   16.7799 N   0  0  0  0  0  0
   16.0594   -9.8986   16.8489 C   0  0  0  0  0  0
   15.6863  -10.6625   17.7392 O   0  0  0  0  0  0
   16.9344  -10.4413   15.3866 S   0  0  0  0  0  0
   15.2698   -7.8283   17.9055 C   0  0  0  0  0  0
   16.1850   -6.8091   18.6412 C   0  0  0  0  0  0
   15.7448   -6.0219   19.4502 O   0  0  0  0  0  0
   17.5067   -6.9139   18.3185 O   0  0  0  0  0  0
   14.9181   -4.1077    8.1631 H   0  0  0  0  0  0
   14.9452   -2.4930    8.9815 H   0  0  0  0  0  0
   16.1511   -2.9140    7.7798 H   0  0  0  0  0  0
   17.9240   -2.3051    9.2580 H   0  0  0  0  0  0
   19.3455   -3.0472   10.9800 H   0  0  0  0  0  0
   15.0587   -5.3127   10.2639 H   0  0  0  0  0  0
   19.5950   -6.7114   13.7306 H   0  0  0  0  0  0
   17.9351   -9.2336   12.9812 H   0  0  0  0  0  0
   14.9072   -8.5295   18.6540 H   0  0  0  0  0  0
   14.3756   -7.3222   17.5351 H   0  0  0  0  0  0
   17.6792   -7.5846   17.6618 H   0  0  0  0  0  0
  1  2  1  0  0  0
  1 25  1  0  0  0
  1 26  1  0  0  0
  1 27  1  0  0  0
  2  7  1  0  0  0
  2  3  2  0  0  0
  3  4  1  0  0  0
  3 28  1  0  0  0
  4  5  2  0  0  0
  4 29  1  0  0  0
  5 12  1  0  0  0
  5  6  1  0  0  0
  6  7  2  0  0  0
  6  8  1  0  0  0
  7 30  1  0  0  0
  8  9  2  0  0  0
  8 10  1  0  0  0
 10 11  2  0  0  0
 10 13  1  0  0  0
 11 12  1  0  0  0
 11 31  1  0  0  0
 13 14  2  0  0  0
 13 32  1  0  0  0
 14 20  1  0  0  0
 14 15  1  0  0  0
 15 16  2  0  0  0
 15 17  1  0  0  0
 17 18  1  0  0  0
 17 21  1  0  0  0
 18 19  2  0  0  0
 18 20  1  0  0  0
 21 22  1  0  0  0
 21 33  1  0  0  0
 21 34  1  0  0  0
 22 23  2  0  0  0
 22 24  1  0  0  0
 24 35  1  0  0  0
M  END
> <s_m_entry_id>
7074

> <s_m_entry_name>
ligand_docking-pose.216

> <s_m_Source_Path>
/home/csk/Desktop/cluster/DUD-E-result/aldr

> <s_m_Source_File>
ligand_docking-pose.sdf

> <i_m_Source_File_Index>
216

> <i_lp_mmshare_version>
53161

> <r_lp_tautomer_probability>
1

> <s_lp_Force_Field>
OPLS_2005

> <r_lp_Energy>
14.457411

> <b_lp_Chiralities_Consistent>
1

> <s_lp_Variant>
497023-1

> <s_i_glide_gridfile>
glide-grid_2hv5

> <i_i_glide_lignum>
487

> <i_i_glide_rotatable_bonds>
4

> <r_i_docking_score>
-8.89827594485842

> <r_i_glide_ligand_efficiency>
-0.370761497702434

> <r_i_glide_ligand_efficiency_sa>
-1.0694612203628

> <r_i_glide_ligand_efficiency_ln>
-2.12976574888155

> <r_i_glide_gscore>
-8.89827594485842

> <r_i_glide_lipo>
-3.55580145014591

> <r_i_glide_hbond>
-0.227353178540783

> <r_i_glide_metal>
0

> <r_i_glide_rewards>
-3.39220949425699

> <r_i_glide_evdw>
-28.6412506103516

> <r_i_glide_ecoul>
-5.12528371810913

> <r_i_glide_erotb>
0.477943266319212

> <r_i_glide_esite>
0

> <r_i_glide_emodel>
-33.2340316887371

> <r_i_glide_energy>
-33.7665343284607

> <r_i_glide_einternal>
6.04817914962769

> <i_i_glide_confnum>
8

> <i_i_glide_posenum>
273

> <r_i_glide_eff_state_penalty>
0

> <i_f3d_flags>
0

> <s_user_duplicate_titles>
497023

> <s_m_subgroup_title>
dock_pv

> <s_m_subgroupid>
dock_pv1

> <b_m_subgroup_collapsed>
0

$$$$
219505
                    3D
 Schrodinger Suite 2021-1.
 36 38  0  0  1  0            999 V2000
   16.4196  -12.0817   17.0215 C   0  0  0  0  0  0
   17.3482  -11.6821   16.0638 C   0  0  0  0  0  0
   17.0854  -10.3614   15.7080 C   0  0  0  0  0  0
   16.0075   -9.9413   16.4597 N   0  0  0  0  0  0
   15.5921  -10.9989   17.2398 C   0  0  0  0  0  0
   15.3853   -8.6301   16.3482 C   0  0  2  0  0  0
   16.1631   -7.6914   15.3798 C   0  0  0  0  0  0
   15.8328   -6.5151   15.3194 O   0  0  0  0  0  0
   17.2143   -8.2301   14.6724 N   0  0  0  0  0  0
   17.7441   -9.5057   14.7401 C   0  0  0  0  0  0
   18.7006   -9.8820   14.0600 O   0  0  0  0  0  0
   17.9885   -7.2778   13.8031 C   0  0  0  0  0  0
   17.3454   -6.3982   12.7149 C   0  0  0  0  0  0
   16.0468   -6.5221   12.2239 C   0  0  0  0  0  0
   15.5623   -5.6685   11.2335 C   0  0  0  0  0  0
   16.3904   -4.6884   10.6863 C   0  0  0  0  0  0
   17.6998   -4.5532   11.1621 C   0  0  0  0  0  0
   18.1461   -5.3983   12.1797 C   0  0  0  0  0  0
   18.7732   -3.3470   10.5401 Cl  0  0  0  0  0  0
   15.7707   -3.6595    9.4422 Cl  0  0  0  0  0  0
   15.0452   -7.9286   17.7212 C   0  0  0  0  0  0
   16.0860   -7.0370   18.4367 C   0  0  0  0  0  0
   15.7538   -6.1170   19.1797 O   0  0  0  0  0  0
   17.3717   -7.3885   18.1791 O   0  0  0  0  0  0
   16.3476  -13.0572   17.4819 H   0  0  0  0  0  0
   18.1347  -12.2987   15.6501 H   0  0  0  0  0  0
   14.7264  -10.8981   17.8793 H   0  0  0  0  0  0
   14.4367   -8.8042   15.8364 H   0  0  0  0  0  0
   18.4932   -6.6007   14.4953 H   0  0  0  0  0  0
   18.8148   -7.7652   13.2836 H   0  0  0  0  0  0
   15.4141   -7.3063   12.5806 H   0  0  0  0  0  0
   14.5435   -5.7721   10.8934 H   0  0  0  0  0  0
   19.1368   -5.3163   12.5810 H   0  0  0  0  0  0
   14.1661   -7.2992   17.5697 H   0  0  0  0  0  0
   14.7270   -8.6719   18.4506 H   0  0  0  0  0  0
   17.4338   -8.1809   17.6468 H   0  0  0  0  0  0
  1  5  2  0  0  0
  1  2  1  0  0  0
  1 25  1  0  0  0
  2  3  2  0  0  0
  2 26  1  0  0  0
  3 10  1  0  0  0
  3  4  1  0  0  0
  4  5  1  0  0  0
  4  6  1  0  0  0
  5 27  1  0  0  0
  6  7  1  0  0  0
  6 21  1  0  0  0
  6 28  1  0  0  0
  7  8  2  0  0  0
  7  9  1  0  0  0
  9 10  1  0  0  0
  9 12  1  0  0  0
 10 11  2  0  0  0
 12 13  1  0  0  0
 12 29  1  0  0  0
 12 30  1  0  0  0
 13 18  1  0  0  0
 13 14  2  0  0  0
 14 15  1  0  0  0
 14 31  1  0  0  0
 15 16  2  0  0  0
 15 32  1  0  0  0
 16 17  1  0  0  0
 16 20  1  0  0  0
 17 18  2  0  0  0
 17 19  1  0  0  0
 18 33  1  0  0  0
 21 22  1  0  0  0
 21 34  1  0  0  0
 21 35  1  0  0  0
 22 23  2  0  0  0
 22 24  1  0  0  0
 24 36  1  0  0  0
M  END
> <s_m_entry_id>
7075

> <s_m_entry_name>
ligand_docking-pose.217

> <s_m_Source_Path>
/home/csk/Desktop/cluster/DUD-E-result/aldr

> <s_m_Source_File>
ligand_docking-pose.sdf

> <i_m_Source_File_Index>
217

> <i_lp_mmshare_version>
53161

> <r_lp_tautomer_probability>
1

> <s_lp_Force_Field>
OPLS_2005

> <r_lp_Energy>
19.313953

> <b_lp_Chiralities_Consistent>
1

> <s_lp_Variant>
219505-2

> <s_i_glide_gridfile>
glide-grid_2hv5

> <i_i_glide_lignum>
117

> <i_i_glide_rotatable_bonds>
5

> <r_i_docking_score>
-8.88855822834685

> <r_i_glide_ligand_efficiency>
-0.370356592847785

> <r_i_glide_ligand_efficiency_sa>
-1.06829327265877

> <r_i_glide_ligand_efficiency_ln>
-2.12743985340338

> <r_i_glide_gscore>
-8.88855822834685

> <r_i_glide_lipo>
-3.53990347469143

> <r_i_glide_hbond>
-0.127260661316102

> <r_i_glide_metal>
0

> <r_i_glide_rewards>
-3.38635889684651

> <r_i_glide_evdw>
-39.3302688598633

> <r_i_glide_ecoul>
-2.93207931518555

> <r_i_glide_erotb>
0.571290144778186

> <r_i_glide_esite>
0

> <r_i_glide_emodel>
-57.1547015976937

> <r_i_glide_energy>
-42.2623481750488

> <r_i_glide_einternal>
9.14520072937012

> <i_i_glide_confnum>
38

> <i_i_glide_posenum>
201

> <r_i_glide_eff_state_penalty>
0

> <i_f3d_flags>
0

> <s_user_duplicate_titles>
219505

> <s_m_subgroup_title>
dock_pv

> <s_m_subgroupid>
dock_pv1

> <b_m_subgroup_collapsed>
0

$$$$
89441
                    3D
 Schrodinger Suite 2021-1.
 29 30  0  0  1  0            999 V2000
   18.5685   -5.8031   12.9810 C   0  0  0  0  0  0
   18.1450   -5.1481   11.8205 C   0  0  0  0  0  0
   16.8329   -5.2732   11.3810 C   0  0  0  0  0  0
   15.9410   -6.0645   12.1086 C   0  0  0  0  0  0
   16.3992   -6.7666   13.2317 C   0  0  0  0  0  0
   17.7154   -6.6447   13.6767 C   0  0  0  0  0  0
   18.2624   -7.3636   14.9144 C   0  0  0  0  0  0
   17.2859   -7.9982   15.8132 N   0  0  0  0  0  0
   16.5024   -7.3149   16.6549 C   0  0  0  0  0  0
   16.5434   -6.1270   16.9810 O   0  0  0  0  0  0
   15.5108   -8.2492   17.0747 C   0  0  0  0  0  0
   14.5450   -7.9765   17.7810 O   0  0  0  0  0  0
   15.8422   -9.4195   16.5169 N   0  0  0  0  0  0
   16.9605   -9.3059   15.7660 C   0  0  0  0  0  0
   17.6457  -10.2202   15.3075 O   0  0  0  0  0  0
   14.9280  -10.5851   16.5365 C   0  0  0  0  0  0
   15.5045  -11.7497   17.3652 C   0  0  0  0  0  0
   16.6429  -11.8071   17.7810 O   0  0  0  0  0  0
   14.5450  -12.6949   17.5748 O   0  0  0  0  0  0
   14.2722   -6.1150   11.6627 Cl  0  0  0  0  0  0
   16.3400   -4.4047    9.9673 Cl  0  0  0  0  0  0
   19.5648   -5.6783   13.3766 H   0  0  0  0  0  0
   18.8200   -4.5150   11.2688 H   0  0  0  0  0  0
   15.7450   -7.3838   13.8053 H   0  0  0  0  0  0
   18.8495   -6.6513   15.4979 H   0  0  0  0  0  0
   18.9744   -8.1151   14.5665 H   0  0  0  0  0  0
   14.7292  -10.9150   15.5167 H   0  0  0  0  0  0
   13.9682  -10.2974   16.9687 H   0  0  0  0  0  0
   13.6777  -12.4726   17.2300 H   0  0  0  0  0  0
  1  6  1  0  0  0
  1  2  2  0  0  0
  1 22  1  0  0  0
  2  3  1  0  0  0
  2 23  1  0  0  0
  3  4  2  0  0  0
  3 21  1  0  0  0
  4  5  1  0  0  0
  4 20  1  0  0  0
  5  6  2  0  0  0
  5 24  1  0  0  0
  6  7  1  0  0  0
  7  8  1  0  0  0
  7 25  1  0  0  0
  7 26  1  0  0  0
  8 14  1  0  0  0
  8  9  1  0  0  0
  9 10  2  0  0  0
  9 11  1  0  0  0
 11 12  2  0  0  0
 11 13  1  0  0  0
 13 14  1  0  0  0
 13 16  1  0  0  0
 14 15  2  0  0  0
 16 17  1  0  0  0
 16 27  1  0  0  0
 16 28  1  0  0  0
 17 18  2  0  0  0
 17 19  1  0  0  0
 19 29  1  0  0  0
M  END
> <s_m_entry_id>
7080

> <s_m_entry_name>
ligand_docking-pose.222

> <s_m_Source_Path>
/home/csk/Desktop/cluster/DUD-E-result/aldr

> <s_m_Source_File>
ligand_docking-pose.sdf

> <i_m_Source_File_Index>
222

> <i_lp_mmshare_version>
53161

> <r_lp_tautomer_probability>
1

> <s_lp_Force_Field>
OPLS_2005

> <r_lp_Energy>
14.288434

> <b_lp_Chiralities_Consistent>
1

> <s_lp_Variant>
89441-1

> <s_i_glide_gridfile>
glide-grid_2hv5

> <i_i_glide_lignum>
401

> <i_i_glide_rotatable_bonds>
5

> <r_i_docking_score>
-8.84532101463386

> <r_i_glide_ligand_efficiency>
-0.421205762601613

> <r_i_glide_ligand_efficiency_sa>
-1.16207476049332

> <r_i_glide_ligand_efficiency_ln>
-2.18698774721416

> <r_i_glide_gscore>
-8.84532101463386

> <r_i_glide_lipo>
-3.00130074686274

> <r_i_glide_hbond>
-0.2829339479489

> <r_i_glide_metal>
0

> <r_i_glide_rewards>
-3.85153827272727

> <r_i_glide_evdw>
-37.0416793823242

> <r_i_glide_ecoul>
-3.62674784660339

> <r_i_glide_erotb>
0.686548099011767

> <r_i_glide_esite>
0

> <r_i_glide_emodel>
-59.7592395299279

> <r_i_glide_energy>
-40.6684272289276

> <r_i_glide_einternal>
1.66549921035767

> <i_i_glide_confnum>
8

> <i_i_glide_posenum>
76

> <r_i_glide_eff_state_penalty>
0

> <i_f3d_flags>
0

> <s_user_duplicate_titles>
89441

> <s_m_subgroup_title>
dock_pv

> <s_m_subgroupid>
dock_pv1

> <b_m_subgroup_collapsed>
0

$$$$
44780
                    3D
 Schrodinger Suite 2021-1.
 40 42  0  0  1  0            999 V2000
   14.9437   -4.3869   10.0130 C   0  0  0  0  0  0
   15.9156   -5.1111   10.9206 C   0  0  0  0  0  0
   15.4664   -6.1141   11.7793 C   0  0  0  0  0  0
   16.3589   -6.7303   12.6541 C   0  0  0  0  0  0
   17.7068   -6.3543   12.6696 C   0  0  0  0  0  0
   18.1441   -5.3644   11.7874 C   0  0  0  0  0  0
   17.2585   -4.7444   10.9145 C   0  0  0  0  0  0
   18.7243   -6.9583   13.6464 C   0  0  0  0  0  0
   18.2337   -7.9850   14.5836 N   0  0  0  0  0  0
   18.2460   -9.3635   14.4033 C   0  0  0  0  0  0
   18.8263  -10.1046   13.3810 C   0  0  0  0  0  0
   18.7343  -11.4960   13.3958 C   0  0  0  0  0  0
   18.0844  -12.1360   14.4533 C   0  0  0  0  0  0
   17.5337  -11.3884   15.4961 C   0  0  0  0  0  0
   17.6244   -9.9943   15.4652 C   0  0  0  0  0  0
   17.1638   -8.9461   16.4281 C   0  0  1  0  0  0
   17.6317   -7.6442   15.7440 C   0  0  0  0  0  0
   17.4773   -6.5169   16.2028 O   0  0  0  0  0  0
   15.6277   -8.9833   16.7328 C   0  0  1  0  0  0
   15.2428  -10.2203   17.4315 C   0  0  0  0  0  0
   14.9445  -11.1921   17.9842 N   0  0  0  0  0  0
   15.0684   -7.7436   17.4389 C   0  0  0  0  0  0
   14.1461   -7.0840   16.9810 O   0  0  0  0  0  0
   15.7454   -7.4393   18.5817 O   0  0  0  0  0  0
   17.9590  -14.0308   14.4828 Br  0  0  0  0  0  0
   15.1993   -4.5429    8.9647 H   0  0  0  0  0  0
   13.9137   -4.7047   10.1811 H   0  0  0  0  0  0
   14.9881   -3.3141   10.1969 H   0  0  0  0  0  0
   14.4246   -6.3984   11.7808 H   0  0  0  0  0  0
   15.9879   -7.4846   13.3279 H   0  0  0  0  0  0
   19.1738   -5.0616   11.7847 H   0  0  0  0  0  0
   17.6099   -3.9674   10.2532 H   0  0  0  0  0  0
   19.1478   -6.1311   14.2194 H   0  0  0  0  0  0
   19.5435   -7.3793   13.0629 H   0  0  0  0  0  0
   19.3458   -9.6100   12.5806 H   0  0  0  0  0  0
   19.1699  -12.0747   12.5947 H   0  0  0  0  0  0
   17.0519  -11.9055   16.3115 H   0  0  0  0  0  0
   17.7305   -9.0328   17.3565 H   0  0  0  0  0  0
   15.1015   -9.0398   15.7784 H   0  0  0  0  0  0
   16.4504   -8.0515   18.7996 H   0  0  0  0  0  0
  1  2  1  0  0  0
  1 26  1  0  0  0
  1 27  1  0  0  0
  1 28  1  0  0  0
  2  7  1  0  0  0
  2  3  2  0  0  0
  3  4  1  0  0  0
  3 29  1  0  0  0
  4  5  2  0  0  0
  4 30  1  0  0  0
  5  6  1  0  0  0
  5  8  1  0  0  0
  6  7  2  0  0  0
  6 31  1  0  0  0
  7 32  1  0  0  0
  8  9  1  0  0  0
  8 33  1  0  0  0
  8 34  1  0  0  0
  9 17  1  0  0  0
  9 10  1  0  0  0
 10 15  2  0  0  0
 10 11  1  0  0  0
 11 12  2  0  0  0
 11 35  1  0  0  0
 12 13  1  0  0  0
 12 36  1  0  0  0
 13 14  2  0  0  0
 13 25  1  0  0  0
 14 15  1  0  0  0
 14 37  1  0  0  0
 15 16  1  0  0  0
 16 17  1  0  0  0
 16 19  1  0  0  0
 16 38  1  0  0  0
 17 18  2  0  0  0
 19 20  1  0  0  0
 19 22  1  0  0  0
 19 39  1  0  0  0
 20 21  3  0  0  0
 22 23  2  0  0  0
 22 24  1  0  0  0
 24 40  1  0  0  0
M  END
> <s_m_entry_id>
7082

> <s_m_entry_name>
ligand_docking-pose.224

> <s_m_Source_Path>
/home/csk/Desktop/cluster/DUD-E-result/aldr

> <s_m_Source_File>
ligand_docking-pose.sdf

> <i_m_Source_File_Index>
224

> <i_lp_mmshare_version>
53161

> <r_lp_tautomer_probability>
1

> <s_lp_Force_Field>
OPLS_2005

> <r_lp_Energy>
33.230397

> <b_lp_Chiralities_Consistent>
1

> <s_lp_Variant>
44780-3

> <s_i_glide_gridfile>
glide-grid_2hv5

> <i_i_glide_lignum>
513

> <i_i_glide_rotatable_bonds>
5

> <r_i_docking_score>
-8.82105133316825

> <r_i_glide_ligand_efficiency>
-0.35284205332673

> <r_i_glide_ligand_efficiency_sa>
-1.03171642160782

> <r_i_glide_ligand_efficiency_ln>
-2.09085351153795

> <r_i_glide_gscore>
-8.82105133316825

> <r_i_glide_lipo>
-3.96979363595946

> <r_i_glide_hbond>
0

> <r_i_glide_metal>
0

> <r_i_glide_rewards>
-3.10183315908883

> <r_i_glide_evdw>
-38.6174507141113

> <r_i_glide_ecoul>
-2.06824374198914

> <r_i_glide_erotb>
0.491684558883968

> <r_i_glide_esite>
0

> <r_i_glide_emodel>
-52.890604899091

> <r_i_glide_energy>
-40.6856944561005

> <r_i_glide_einternal>
8.46757507324219

> <i_i_glide_confnum>
33

> <i_i_glide_posenum>
5

> <r_i_glide_eff_state_penalty>
0

> <i_f3d_flags>
0

> <s_user_duplicate_titles>
44780

> <s_m_subgroup_title>
dock_pv

> <s_m_subgroupid>
dock_pv1

> <b_m_subgroup_collapsed>
0

$$$$
44760
                    3D
 Schrodinger Suite 2021-1.
 41 43  0  0  1  0            999 V2000
   16.4231   -3.2101    9.0027 C   0  0  0  0  0  0
   15.7792   -4.2860    9.6634 O   0  0  0  0  0  0
   16.4357   -4.9157   10.6954 C   0  0  0  0  0  0
   15.7139   -5.8878   11.3819 C   0  0  0  0  0  0
   16.2922   -6.5630   12.4503 C   0  0  0  0  0  0
   17.5960   -6.2699   12.8514 C   0  0  0  0  0  0
   18.3211   -5.3167   12.1513 C   0  0  0  0  0  0
   17.7556   -4.6396   11.0773 C   0  0  0  0  0  0
   18.2699   -6.9351   14.0497 C   0  0  0  0  0  0
   17.6405   -8.1505   14.5755 N   0  0  0  0  0  0
   17.9911   -9.4643   14.2760 C   0  0  0  0  0  0
   18.9639   -9.9426   13.3982 C   0  0  0  0  0  0
   19.1256  -11.3219   13.2474 C   0  0  0  0  0  0
   18.3193  -12.2063   13.9682 C   0  0  0  0  0  0
   17.3444  -11.7155   14.8395 C   0  0  0  0  0  0
   17.1809  -10.3352   14.9815 C   0  0  0  0  0  0
   16.2310   -9.5228   15.8128 C   0  0  2  0  0  0
   16.5865   -8.0780   15.4210 C   0  0  0  0  0  0
   15.9918   -7.0673   15.8009 O   0  0  0  0  0  0
   16.3358   -9.7859   17.3512 C   0  0  1  0  0  0
   16.2175   -8.5900   18.2134 C   0  0  0  0  0  0
   16.1450   -7.6431   18.8761 N   0  0  0  0  0  0
   15.4754  -10.9880   17.7810 C   0  0  0  0  0  0
   15.9554  -12.0736   18.0980 O   0  0  0  0  0  0
   14.1455  -10.7129   17.7814 O   0  0  0  0  0  0
   18.4836  -13.5396   13.8227 F   0  0  0  0  0  0
   15.7854   -2.9150    8.1812 H   0  0  0  0  0  0
   16.5525   -2.3517    9.6637 H   0  0  0  0  0  0
   17.3874   -3.4954    8.5811 H   0  0  0  0  0  0
   14.6976   -6.1105   11.0898 H   0  0  0  0  0  0
   15.7224   -7.3149   12.9640 H   0  0  0  0  0  0
   19.3346   -5.1177   12.4570 H   0  0  0  0  0  0
   18.3499   -3.8981   10.5684 H   0  0  0  0  0  0
   18.3257   -6.1869   14.8432 H   0  0  0  0  0  0
   19.3008   -7.1668   13.7793 H   0  0  0  0  0  0
   19.5906   -9.2642   12.8399 H   0  0  0  0  0  0
   19.8749  -11.7085   12.5724 H   0  0  0  0  0  0
   16.7260  -12.4139   15.3838 H   0  0  0  0  0  0
   15.2047   -9.6668   15.4681 H   0  0  0  0  0  0
   17.3645  -10.0893   17.5453 H   0  0  0  0  0  0
   13.6280  -11.4760   18.0567 H   0  0  0  0  0  0
  1  2  1  0  0  0
  1 27  1  0  0  0
  1 28  1  0  0  0
  1 29  1  0  0  0
  2  3  1  0  0  0
  3  8  1  0  0  0
  3  4  2  0  0  0
  4  5  1  0  0  0
  4 30  1  0  0  0
  5  6  2  0  0  0
  5 31  1  0  0  0
  6  7  1  0  0  0
  6  9  1  0  0  0
  7  8  2  0  0  0
  7 32  1  0  0  0
  8 33  1  0  0  0
  9 10  1  0  0  0
  9 34  1  0  0  0
  9 35  1  0  0  0
 10 18  1  0  0  0
 10 11  1  0  0  0
 11 16  2  0  0  0
 11 12  1  0  0  0
 12 13  2  0  0  0
 12 36  1  0  0  0
 13 14  1  0  0  0
 13 37  1  0  0  0
 14 15  2  0  0  0
 14 26  1  0  0  0
 15 16  1  0  0  0
 15 38  1  0  0  0
 16 17  1  0  0  0
 17 18  1  0  0  0
 17 20  1  0  0  0
 17 39  1  0  0  0
 18 19  2  0  0  0
 20 21  1  0  0  0
 20 23  1  0  0  0
 20 40  1  0  0  0
 21 22  3  0  0  0
 23 24  2  0  0  0
 23 25  1  0  0  0
 25 41  1  0  0  0
M  END
> <s_m_entry_id>
7083

> <s_m_entry_name>
ligand_docking-pose.225

> <s_m_Source_Path>
/home/csk/Desktop/cluster/DUD-E-result/aldr

> <s_m_Source_File>
ligand_docking-pose.sdf

> <i_m_Source_File_Index>
225

> <i_lp_mmshare_version>
53161

> <r_lp_tautomer_probability>
1

> <s_lp_Force_Field>
OPLS_2005

> <r_lp_Energy>
36.470718

> <b_lp_Chiralities_Consistent>
1

> <s_lp_Variant>
44760-4

> <s_i_glide_gridfile>
glide-grid_2hv5

> <i_i_glide_lignum>
764

> <i_i_glide_rotatable_bonds>
6

> <r_i_docking_score>
-8.79453568322885

> <r_i_glide_ligand_efficiency>
-0.338251372431879

> <r_i_glide_ligand_efficiency_sa>
-1.00206835987456

> <r_i_glide_ligand_efficiency_ln>
-2.06536784798102

> <r_i_glide_gscore>
-8.79453568322885

> <r_i_glide_lipo>
-4.02812172473949

> <r_i_glide_hbond>
-0.270676422138714

> <r_i_glide_metal>
0

> <r_i_glide_rewards>
-2.93670477949536

> <r_i_glide_evdw>
-35.8261795043945

> <r_i_glide_ecoul>
-2.50986099243164

> <r_i_glide_erotb>
0.608755367229197

> <r_i_glide_esite>
0

> <r_i_glide_emodel>
-53.2178528570611

> <r_i_glide_energy>
-38.3360404968262

> <r_i_glide_einternal>
8.30135154724121

> <i_i_glide_confnum>
2

> <i_i_glide_posenum>
332

> <r_i_glide_eff_state_penalty>
0

> <i_f3d_flags>
0

> <s_user_duplicate_titles>
44760

> <s_m_subgroup_title>
dock_pv

> <s_m_subgroupid>
dock_pv1

> <b_m_subgroup_collapsed>
0

$$$$
99589
                    3D
 Schrodinger Suite 2021-1.
 39 42  0  0  1  0            999 V2000
   15.5821  -12.2535   16.6213 C   0  0  0  0  0  0
   14.9876  -11.3905   17.5355 C   0  0  0  0  0  0
   15.3359  -10.0419   17.5385 C   0  0  0  0  0  0
   16.2671   -9.5199   16.6211 C   0  0  0  0  0  0
   16.8208  -10.3942   15.6730 C   0  0  0  0  0  0
   16.4997  -11.7602   15.6968 C   0  0  0  0  0  0
   17.7449   -9.8979   14.5779 C   0  0  0  0  0  0
   18.2626  -10.6587   13.7552 O   0  0  0  0  0  0
   17.9348   -8.5409   14.5451 N   0  0  0  0  0  0
   17.7442   -7.6368   15.5442 C   0  0  0  0  0  0
   18.2393   -6.5150   15.5294 O   0  0  0  0  0  0
   16.7366   -8.0502   16.6386 C   0  0  2  0  0  0
   17.2484   -7.6248   18.0005 C   0  0  0  0  0  0
   16.1832   -6.7173   18.5830 C   0  0  0  0  0  0
   16.1463   -6.2603   19.7227 O   0  0  0  0  0  0
   15.2816   -6.5152   17.6177 N   0  0  0  0  0  0
   15.5409   -7.1285   16.4558 C   0  0  0  0  0  0
   14.9450   -6.9539   15.4068 O   0  0  0  0  0  0
   18.5147   -7.9412   13.3156 C   0  0  0  0  0  0
   17.6695   -6.8403   12.6331 C   0  0  0  0  0  0
   16.2802   -6.9150   12.5325 C   0  0  0  0  0  0
   15.5693   -5.9829   11.7806 C   0  0  0  0  0  0
   16.2593   -4.9457   11.1631 C   0  0  0  0  0  0
   17.6218   -4.7844   11.3590 C   0  0  0  0  0  0
   18.3036   -5.7149   12.1249 C   0  0  0  0  0  0
   15.3467   -3.7149   10.0582 Br  0  0  0  0  0  0
   15.3215  -13.3019   16.6187 H   0  0  0  0  0  0
   14.2635  -11.7664   18.2452 H   0  0  0  0  0  0
   14.8813   -9.3978   18.2771 H   0  0  0  0  0  0
   16.9294  -12.4452   14.9779 H   0  0  0  0  0  0
   17.3449   -8.5152   18.5810 H   0  0  0  0  0  0
   18.2125   -7.1113   18.0238 H   0  0  0  0  0  0
   14.4780   -5.9237   17.7459 H   0  0  0  0  0  0
   18.7181   -8.7118   12.5822 H   0  0  0  0  0  0
   19.5052   -7.5470   13.5554 H   0  0  0  0  0  0
   15.7468   -7.7149   13.0053 H   0  0  0  0  0  0
   14.4989   -6.0721   11.6662 H   0  0  0  0  0  0
   18.1419   -3.9457   10.9215 H   0  0  0  0  0  0
   19.3450   -5.5900   12.2916 H   0  0  0  0  0  0
  1  6  1  0  0  0
  1  2  2  0  0  0
  1 27  1  0  0  0
  2  3  1  0  0  0
  2 28  1  0  0  0
  3  4  2  0  0  0
  3 29  1  0  0  0
  4 12  1  0  0  0
  4  5  1  0  0  0
  5  6  2  0  0  0
  5  7  1  0  0  0
  6 30  1  0  0  0
  7  8  2  0  0  0
  7  9  1  0  0  0
  9 10  1  0  0  0
  9 19  1  0  0  0
 10 11  2  0  0  0
 10 12  1  0  0  0
 12 17  1  0  0  0
 12 13  1  0  0  0
 13 14  1  0  0  0
 13 31  1  0  0  0
 13 32  1  0  0  0
 14 15  2  0  0  0
 14 16  1  0  0  0
 16 17  1  0  0  0
 16 33  1  0  0  0
 17 18  2  0  0  0
 19 20  1  0  0  0
 19 34  1  0  0  0
 19 35  1  0  0  0
 20 25  1  0  0  0
 20 21  2  0  0  0
 21 22  1  0  0  0
 21 36  1  0  0  0
 22 23  2  0  0  0
 22 37  1  0  0  0
 23 24  1  0  0  0
 23 26  1  0  0  0
 24 25  2  0  0  0
 24 38  1  0  0  0
 25 39  1  0  0  0
M  END
> <s_m_entry_id>
7086

> <s_m_entry_name>
ligand_docking-pose.228

> <s_m_Source_Path>
/home/csk/Desktop/cluster/DUD-E-result/aldr

> <s_m_Source_File>
ligand_docking-pose.sdf

> <i_m_Source_File_Index>
228

> <i_lp_mmshare_version>
53161

> <r_lp_tautomer_probability>
0.99999999995914

> <s_lp_Force_Field>
OPLS_2005

> <r_lp_Energy>
32.967506

> <b_lp_Chiralities_Consistent>
1

> <s_lp_Variant>
99589-2

> <s_i_glide_gridfile>
glide-grid_2hv5

> <i_i_glide_lignum>
251

> <i_i_glide_rotatable_bonds>
2

> <r_i_docking_score>
-8.73846473802425

> <r_i_glide_ligand_efficiency>
-0.336094797616317

> <r_i_glide_ligand_efficiency_sa>
-0.995679515469171

> <r_i_glide_ligand_efficiency_ln>
-2.0521997704835

> <r_i_glide_gscore>
-8.73846473802425

> <r_i_glide_lipo>
-3.82923329823262

> <r_i_glide_hbond>
-0.242714184442024

> <r_i_glide_metal>
0

> <r_i_glide_rewards>
-3.08114106683242

> <r_i_glide_evdw>
-37.8028793334961

> <r_i_glide_ecoul>
0.491443634033203

> <r_i_glide_erotb>
0.231051233052643

> <r_i_glide_esite>
0

> <r_i_glide_emodel>
-46.4610810623194

> <r_i_glide_energy>
-37.3114356994629

> <r_i_glide_einternal>
0.25794905424118

> <i_i_glide_confnum>
2

> <i_i_glide_posenum>
219

> <r_i_glide_eff_state_penalty>
0

> <i_f3d_flags>
0

> <s_user_duplicate_titles>
99589

> <s_m_subgroup_title>
dock_pv

> <s_m_subgroupid>
dock_pv1

> <b_m_subgroup_collapsed>
0

$$$$
219335
                    3D
 Schrodinger Suite 2021-1.
 37 40  0  0  1  0            999 V2000
   14.5540   -6.0032   11.3949 C   0  0  0  0  0  0
   14.7866   -4.9115   10.5810 C   0  0  0  0  0  0
   16.0671   -4.3887   10.4681 C   0  0  0  0  0  0
   17.1104   -4.9150   11.2300 C   0  0  0  0  0  0
   16.8819   -5.9721   12.1360 C   0  0  0  0  0  0
   15.5952   -6.5150   12.1601 C   0  0  0  0  0  0
   17.9771   -6.4838   13.1080 C   0  0  0  0  0  0
   17.7091   -7.7081   13.9566 N   0  0  0  0  0  0
   18.5170   -8.8003   13.7215 C   0  0  0  0  0  0
   19.4921   -8.7779   12.9810 O   0  0  0  0  0  0
   18.0545  -10.0107   14.3626 C   0  0  0  0  0  0
   18.4533  -11.3330   14.1810 C   0  0  0  0  0  0
   17.7899  -12.1267   15.1132 C   0  0  0  0  0  0
   17.0401  -11.2703   15.8948 C   0  0  0  0  0  0
   17.2056   -9.9727   15.4491 N   0  0  0  0  0  0
   16.6333   -8.7289   15.9821 C   0  0  2  0  0  0
   16.7871   -7.5465   14.9680 C   0  0  0  0  0  0
   16.1450   -6.5150   15.1402 O   0  0  0  0  0  0
   17.2594   -8.2785   17.2950 C   0  0  0  0  0  0
   16.0813   -7.7932   18.1315 C   0  0  0  0  0  0
   16.1464   -7.1038   19.1444 O   0  0  0  0  0  0
   14.9613   -8.2442   17.5395 N   0  0  0  0  0  0
   15.1588   -8.9056   16.3844 C   0  0  0  0  0  0
   14.3061   -9.5140   15.7468 O   0  0  0  0  0  0
   18.6567   -4.2093   10.9810 Cl  0  0  0  0  0  0
   13.5676   -6.4424   11.4405 H   0  0  0  0  0  0
   13.9788   -4.5150    9.9890 H   0  0  0  0  0  0
   16.2468   -3.5672    9.7902 H   0  0  0  0  0  0
   15.3738   -7.3662   12.7705 H   0  0  0  0  0  0
   18.8911   -6.5865   12.5266 H   0  0  0  0  0  0
   18.2145   -5.6585   13.7812 H   0  0  0  0  0  0
   19.1523  -11.6815   13.4330 H   0  0  0  0  0  0
   17.8670  -13.1999   15.2177 H   0  0  0  0  0  0
   16.3930  -11.4762   16.7349 H   0  0  0  0  0  0
   17.7444   -9.1194   17.7810 H   0  0  0  0  0  0
   18.0107   -7.4882   17.2146 H   0  0  0  0  0  0
   14.0448   -8.1219   17.9409 H   0  0  0  0  0  0
  1  6  1  0  0  0
  1  2  2  0  0  0
  1 26  1  0  0  0
  2  3  1  0  0  0
  2 27  1  0  0  0
  3  4  2  0  0  0
  3 28  1  0  0  0
  4  5  1  0  0  0
  4 25  1  0  0  0
  5  6  2  0  0  0
  5  7  1  0  0  0
  6 29  1  0  0  0
  7  8  1  0  0  0
  7 30  1  0  0  0
  7 31  1  0  0  0
  8 17  1  0  0  0
  8  9  1  0  0  0
  9 10  2  0  0  0
  9 11  1  0  0  0
 11 15  1  0  0  0
 11 12  2  0  0  0
 12 13  1  0  0  0
 12 32  1  0  0  0
 13 14  2  0  0  0
 13 33  1  0  0  0
 14 15  1  0  0  0
 14 34  1  0  0  0
 15 16  1  0  0  0
 16 23  1  0  0  0
 16 17  1  0  0  0
 16 19  1  0  0  0
 17 18  2  0  0  0
 19 20  1  0  0  0
 19 35  1  0  0  0
 19 36  1  0  0  0
 20 21  2  0  0  0
 20 22  1  0  0  0
 22 23  1  0  0  0
 22 37  1  0  0  0
 23 24  2  0  0  0
M  END
> <s_m_entry_id>
7087

> <s_m_entry_name>
ligand_docking-pose.229

> <s_m_Source_Path>
/home/csk/Desktop/cluster/DUD-E-result/aldr

> <s_m_Source_File>
ligand_docking-pose.sdf

> <i_m_Source_File_Index>
229

> <i_lp_mmshare_version>
53161

> <r_lp_tautomer_probability>
0.99995

> <s_lp_Force_Field>
OPLS_2005

> <r_lp_Energy>
32.770017

> <b_lp_Chiralities_Consistent>
1

> <s_lp_Variant>
219335-1

> <s_i_glide_gridfile>
glide-grid_2hv5

> <i_i_glide_lignum>
395

> <i_i_glide_rotatable_bonds>
2

> <r_i_docking_score>
-8.73307576220349

> <r_i_glide_ligand_efficiency>
-0.349323030488139

> <r_i_glide_ligand_efficiency_sa>
-1.02142673641764

> <r_i_glide_ligand_efficiency_ln>
-2.07000066480419

> <r_i_glide_gscore>
-8.73307576220349

> <r_i_glide_lipo>
-3.32209477257299

> <r_i_glide_hbond>
-0.0142078929577574

> <r_i_glide_metal>
0

> <r_i_glide_rewards>
-3.57098819763191

> <r_i_glide_evdw>
-38.4477958679199

> <r_i_glide_ecoul>
-1.35077977180481

> <r_i_glide_erotb>
0.299221860125882

> <r_i_glide_esite>
0

> <r_i_glide_emodel>
-42.9296837422598

> <r_i_glide_energy>
-39.7985756397247

> <r_i_glide_einternal>
0.224667057394981

> <i_i_glide_confnum>
5

> <i_i_glide_posenum>
115

> <r_i_glide_eff_state_penalty>
0

> <i_f3d_flags>
0

> <s_user_duplicate_titles>
219335

> <s_m_subgroup_title>
dock_pv

> <s_m_subgroupid>
dock_pv1

> <b_m_subgroup_collapsed>
0

$$$$
219377
                    3D
 Schrodinger Suite 2021-1.
 39 42  0  0  1  0            999 V2000
   16.2676   -6.8118   18.6499 C   0  0  0  0  0  0
   16.9548   -6.2108   17.6056 C   0  0  0  0  0  0
   17.0974   -7.1316   16.5710 C   0  0  0  0  0  0
   16.5813   -8.3347   17.0090 N   0  0  0  0  0  0
   16.0475   -8.1156   18.2630 C   0  0  0  0  0  0
   16.6435   -9.5934   16.2380 C   0  0  1  0  0  0
   17.2833  -10.7362   17.0183 C   0  0  0  0  0  0
   16.1428  -11.6652   17.3756 C   0  0  0  0  0  0
   16.2291  -12.6313   18.1270 O   0  0  0  0  0  0
   15.0430  -11.2180   16.7482 N   0  0  0  0  0  0
   15.2090  -10.0892   16.0331 C   0  0  0  0  0  0
   14.3414   -9.5212   15.3814 O   0  0  0  0  0  0
   17.3450   -9.3779   14.8481 C   0  0  0  0  0  0
   17.7395  -10.3351   14.1735 O   0  0  0  0  0  0
   17.4976   -8.0662   14.4618 N   0  0  0  0  0  0
   17.7985   -7.0337   15.3095 C   0  0  0  0  0  0
   18.5450   -6.1152   14.9798 O   0  0  0  0  0  0
   17.9318   -7.8432   13.0475 C   0  0  0  0  0  0
   17.3256   -6.6229   12.3209 C   0  0  0  0  0  0
   18.1456   -5.6394   11.7804 C   0  0  0  0  0  0
   17.6249   -4.6402   10.9606 C   0  0  0  0  0  0
   16.2565   -4.6063   10.7036 C   0  0  0  0  0  0
   15.4081   -5.5255   11.3193 C   0  0  0  0  0  0
   15.9528   -6.5152   12.1367 C   0  0  0  0  0  0
   15.7450   -3.6521    9.8251 N   0  0  0  0  0  0
   16.0029   -6.3607   19.5946 H   0  0  0  0  0  0
   17.3301   -5.1969   17.5961 H   0  0  0  0  0  0
   15.5807   -8.9275   18.8014 H   0  0  0  0  0  0
   18.0397  -11.3069   16.4761 H   0  0  0  0  0  0
   17.7449  -10.3942   17.9340 H   0  0  0  0  0  0
   14.1566  -11.6956   16.8073 H   0  0  0  0  0  0
   17.6971   -8.7051   12.4235 H   0  0  0  0  0  0
   19.0217   -7.7735   13.0248 H   0  0  0  0  0  0
   19.2068   -5.6882   11.9566 H   0  0  0  0  0  0
   18.2867   -3.9148   10.5120 H   0  0  0  0  0  0
   14.3419   -5.4941   11.1470 H   0  0  0  0  0  0
   15.3446   -7.2773   12.5811 H   0  0  0  0  0  0
   16.3626   -2.9574    9.4358 H   0  0  0  0  0  0
   14.7496   -3.6212    9.6326 H   0  0  0  0  0  0
  1  5  2  0  0  0
  1  2  1  0  0  0
  1 26  1  0  0  0
  2  3  2  0  0  0
  2 27  1  0  0  0
  3 16  1  0  0  0
  3  4  1  0  0  0
  4  5  1  0  0  0
  4  6  1  0  0  0
  5 28  1  0  0  0
  6 11  1  0  0  0
  6  7  1  0  0  0
  6 13  1  0  0  0
  7  8  1  0  0  0
  7 29  1  0  0  0
  7 30  1  0  0  0
  8  9  2  0  0  0
  8 10  1  0  0  0
 10 11  1  0  0  0
 10 31  1  0  0  0
 11 12  2  0  0  0
 13 14  2  0  0  0
 13 15  1  0  0  0
 15 16  1  0  0  0
 15 18  1  0  0  0
 16 17  2  0  0  0
 18 19  1  0  0  0
 18 32  1  0  0  0
 18 33  1  0  0  0
 19 24  1  0  0  0
 19 20  2  0  0  0
 20 21  1  0  0  0
 20 34  1  0  0  0
 21 22  2  0  0  0
 21 35  1  0  0  0
 22 23  1  0  0  0
 22 25  1  0  0  0
 23 24  2  0  0  0
 23 36  1  0  0  0
 24 37  1  0  0  0
 25 38  1  0  0  0
 25 39  1  0  0  0
M  END
> <s_m_entry_id>
7091

> <s_m_entry_name>
ligand_docking-pose.233

> <s_m_Source_Path>
/home/csk/Desktop/cluster/DUD-E-result/aldr

> <s_m_Source_File>
ligand_docking-pose.sdf

> <i_m_Source_File_Index>
233

> <i_lp_mmshare_version>
53161

> <r_lp_tautomer_probability>
0.99995

> <s_lp_Force_Field>
OPLS_2005

> <r_lp_Energy>
34.19085

> <b_lp_Chiralities_Consistent>
1

> <s_lp_Variant>
219377-1

> <s_i_glide_gridfile>
glide-grid_2hv5

> <i_i_glide_lignum>
110

> <i_i_glide_rotatable_bonds>
2

> <r_i_docking_score>
-8.72140428327001

> <r_i_glide_ligand_efficiency>
-0.348856171330801

> <r_i_glide_ligand_efficiency_sa>
-1.0200616319618

> <r_i_glide_ligand_efficiency_ln>
-2.06723417453095

> <r_i_glide_gscore>
-8.72140428327001

> <r_i_glide_lipo>
-3.35473525770967

> <r_i_glide_hbond>
-0.411601421061479

> <r_i_glide_metal>
0

> <r_i_glide_rewards>
-3.42273744808557

> <r_i_glide_evdw>
-37.3338813781738

> <r_i_glide_ecoul>
0.0786755383014679

> <r_i_glide_erotb>
0.330432607667122

> <r_i_glide_esite>
-0.00787002591695239

> <r_i_glide_emodel>
-36.3035212403684

> <r_i_glide_energy>
-37.2552058398724

> <r_i_glide_einternal>
7.94213438034058

> <i_i_glide_confnum>
2

> <i_i_glide_posenum>
42

> <r_i_glide_eff_state_penalty>
0

> <i_f3d_flags>
0

> <s_user_duplicate_titles>
219377

> <s_m_subgroup_title>
dock_pv

> <s_m_subgroupid>
dock_pv1

> <b_m_subgroup_collapsed>
0

$$$$
219167
                    3D
 Schrodinger Suite 2021-1.
 37 40  0  0  1  0            999 V2000
   15.3333   -5.5967   11.4140 C   0  0  0  0  0  0
   15.9418   -6.5879   12.1810 C   0  0  0  0  0  0
   17.3267   -6.6588   12.3215 C   0  0  0  0  0  0
   18.0997   -5.6447   11.7518 C   0  0  0  0  0  0
   17.5004   -4.6399   10.9839 C   0  0  0  0  0  0
   16.1188   -4.6249   10.8033 C   0  0  0  0  0  0
   18.5511   -3.2778   10.1810 Br  0  0  0  0  0  0
   17.9769   -7.8531   13.0519 C   0  0  0  0  0  0
   17.5284   -8.0834   14.4623 N   0  0  0  0  0  0
   17.8132   -7.0457   15.3107 C   0  0  0  0  0  0
   18.5450   -6.1150   14.9808 O   0  0  0  0  0  0
   17.1010   -7.1431   16.5655 C   0  0  0  0  0  0
   16.9450   -6.2182   17.5944 C   0  0  0  0  0  0
   16.2391   -6.8139   18.6293 C   0  0  0  0  0  0
   16.0191   -8.1180   18.2429 C   0  0  0  0  0  0
   16.5740   -8.3429   16.9990 N   0  0  0  0  0  0
   16.6438   -9.6043   16.2341 C   0  0  1  0  0  0
   17.3457   -9.3929   14.8438 C   0  0  0  0  0  0
   17.7235  -10.3537   14.1653 O   0  0  0  0  0  0
   17.2926  -10.7376   17.0203 C   0  0  0  0  0  0
   16.1621  -11.6770   17.3810 C   0  0  0  0  0  0
   16.2587  -12.6401   18.1350 O   0  0  0  0  0  0
   15.0579  -11.2425   16.7527 N   0  0  0  0  0  0
   15.2129  -10.1145   16.0337 C   0  0  0  0  0  0
   14.3390   -9.5574   15.3811 O   0  0  0  0  0  0
   14.2595   -5.5833   11.2926 H   0  0  0  0  0  0
   15.3450   -7.3665   12.6122 H   0  0  0  0  0  0
   19.1676   -5.6559   11.8824 H   0  0  0  0  0  0
   15.6537   -3.8504   10.2106 H   0  0  0  0  0  0
   17.7711   -8.7241   12.4313 H   0  0  0  0  0  0
   19.0637   -7.7461   13.0362 H   0  0  0  0  0  0
   17.3138   -5.2022   17.5853 H   0  0  0  0  0  0
   15.9585   -6.3579   19.5669 H   0  0  0  0  0  0
   15.5406   -8.9266   18.7760 H   0  0  0  0  0  0
   18.0574  -11.3026   16.4835 H   0  0  0  0  0  0
   17.7450  -10.3851   17.9361 H   0  0  0  0  0  0
   14.1760  -11.7281   16.8139 H   0  0  0  0  0  0
  1  6  1  0  0  0
  1  2  2  0  0  0
  1 26  1  0  0  0
  2  3  1  0  0  0
  2 27  1  0  0  0
  3  4  2  0  0  0
  3  8  1  0  0  0
  4  5  1  0  0  0
  4 28  1  0  0  0
  5  6  2  0  0  0
  5  7  1  0  0  0
  6 29  1  0  0  0
  8  9  1  0  0  0
  8 30  1  0  0  0
  8 31  1  0  0  0
  9 18  1  0  0  0
  9 10  1  0  0  0
 10 11  2  0  0  0
 10 12  1  0  0  0
 12 16  1  0  0  0
 12 13  2  0  0  0
 13 14  1  0  0  0
 13 32  1  0  0  0
 14 15  2  0  0  0
 14 33  1  0  0  0
 15 16  1  0  0  0
 15 34  1  0  0  0
 16 17  1  0  0  0
 17 24  1  0  0  0
 17 18  1  0  0  0
 17 20  1  0  0  0
 18 19  2  0  0  0
 20 21  1  0  0  0
 20 35  1  0  0  0
 20 36  1  0  0  0
 21 22  2  0  0  0
 21 23  1  0  0  0
 23 24  1  0  0  0
 23 37  1  0  0  0
 24 25  2  0  0  0
M  END
> <s_m_entry_id>
7093

> <s_m_entry_name>
ligand_docking-pose.235

> <s_m_Source_Path>
/home/csk/Desktop/cluster/DUD-E-result/aldr

> <s_m_Source_File>
ligand_docking-pose.sdf

> <i_m_Source_File_Index>
235

> <i_lp_mmshare_version>
53161

> <r_lp_tautomer_probability>
0.99995

> <s_lp_Force_Field>
OPLS_2005

> <r_lp_Energy>
31.423625

> <b_lp_Chiralities_Consistent>
1

> <s_lp_Variant>
219167-1

> <s_i_glide_gridfile>
glide-grid_2hv5

> <i_i_glide_lignum>
306

> <i_i_glide_rotatable_bonds>
2

> <r_i_docking_score>
-8.70530095685847

> <r_i_glide_ligand_efficiency>
-0.348212038274339

> <r_i_glide_ligand_efficiency_sa>
-1.01817817548096

> <r_i_glide_ligand_efficiency_ln>
-2.06341720359367

> <r_i_glide_gscore>
-8.70530095685847

> <r_i_glide_lipo>
-3.66192866093188

> <r_i_glide_hbond>
-0.198047081798586

> <r_i_glide_metal>
0

> <r_i_glide_rewards>
-3.18233935373584

> <r_i_glide_evdw>
-39.1367607116699

> <r_i_glide_ecoul>
0.404741168022156

> <r_i_glide_erotb>
0.242593680444667

> <r_i_glide_esite>
-0.00945268045665925

> <r_i_glide_emodel>
-38.814456004777

> <r_i_glide_energy>
-38.7320195436478

> <r_i_glide_einternal>
6.64802646636963

> <i_i_glide_confnum>
2

> <i_i_glide_posenum>
121

> <r_i_glide_eff_state_penalty>
0

> <i_f3d_flags>
0

> <s_user_duplicate_titles>
219167

> <s_m_subgroup_title>
dock_pv

> <s_m_subgroupid>
dock_pv1

> <b_m_subgroup_collapsed>
0

$$$$
397128
                    3D
 Schrodinger Suite 2021-1.
 38 39  0  0  1  0            999 V2000
   19.2584  -11.5929   13.4292 C   0  0  0  0  0  0
   18.4757  -11.2073   14.5545 O   0  0  0  0  0  0
   18.0243   -9.9026   14.6542 C   0  0  0  0  0  0
   18.2947   -8.9074   13.6986 C   0  0  0  0  0  0
   17.7633   -7.6213   13.8228 C   0  0  0  0  0  0
   16.9756   -7.3150   14.9357 C   0  0  0  0  0  0
   16.7369   -8.2766   15.9154 C   0  0  0  0  0  0
   17.2519   -9.5658   15.7783 C   0  0  0  0  0  0
   17.0203  -10.4682   16.7910 O   0  0  0  0  0  0
   16.1188  -11.5392   16.4966 C   0  0  0  0  0  0
   14.9155  -11.4683   17.4468 C   0  0  0  0  0  0
   14.6687  -10.5150   18.1810 O   0  0  0  0  0  0
   14.1450  -12.5893   17.3718 O   0  0  0  0  0  0
   18.0326   -6.6298   12.7664 C   0  0  0  0  0  0
   17.0878   -5.9711   12.0584 C   0  0  0  0  0  0
   17.4163   -5.0453   11.0015 C   0  0  0  0  0  0
   18.5450   -4.7047   10.6670 O   0  0  0  0  0  0
   16.2940   -4.6027   10.3919 N   0  0  0  0  0  0
   15.0985   -4.9392   10.8925 C   0  0  0  0  0  0
   13.9956   -4.5150   10.5810 O   0  0  0  0  0  0
   15.3450   -6.1150   12.1810 S   0  0  0  0  0  0
   16.3655   -3.7534    9.1835 C   0  0  0  0  0  0
   16.5576   -2.3010    9.5950 C   0  0  0  0  0  0
   17.6443   -1.8014    9.7810 O   0  0  0  0  0  0
   15.3450   -1.7150    9.7810 O   0  0  0  0  0  0
   19.5154  -12.6485   13.5150 H   0  0  0  0  0  0
   18.7102  -11.4622   12.4948 H   0  0  0  0  0  0
   20.1920  -11.0301   13.3810 H   0  0  0  0  0  0
   18.8998   -9.1300   12.8330 H   0  0  0  0  0  0
   16.5542   -6.3272   15.0482 H   0  0  0  0  0  0
   16.1454   -8.0286   16.7847 H   0  0  0  0  0  0
   15.7567  -11.5259   15.4660 H   0  0  0  0  0  0
   16.6491  -12.4791   16.6513 H   0  0  0  0  0  0
   13.3753  -12.5150   17.9479 H   0  0  0  0  0  0
   19.0812   -6.4407   12.5810 H   0  0  0  0  0  0
   15.4906   -3.8680    8.5406 H   0  0  0  0  0  0
   17.2235   -4.0441    8.5810 H   0  0  0  0  0  0
   14.6094   -2.3090    9.5833 H   0  0  0  0  0  0
  1  2  1  0  0  0
  1 26  1  0  0  0
  1 27  1  0  0  0
  1 28  1  0  0  0
  2  3  1  0  0  0
  3  8  1  0  0  0
  3  4  2  0  0  0
  4  5  1  0  0  0
  4 29  1  0  0  0
  5  6  2  0  0  0
  5 14  1  0  0  0
  6  7  1  0  0  0
  6 30  1  0  0  0
  7  8  2  0  0  0
  7 31  1  0  0  0
  8  9  1  0  0  0
  9 10  1  0  0  0
 10 11  1  0  0  0
 10 32  1  0  0  0
 10 33  1  0  0  0
 11 12  2  0  0  0
 11 13  1  0  0  0
 13 34  1  0  0  0
 14 15  2  0  0  0
 14 35  1  0  0  0
 15 21  1  0  0  0
 15 16  1  0  0  0
 16 17  2  0  0  0
 16 18  1  0  0  0
 18 19  1  0  0  0
 18 22  1  0  0  0
 19 20  2  0  0  0
 19 21  1  0  0  0
 22 23  1  0  0  0
 22 36  1  0  0  0
 22 37  1  0  0  0
 23 24  2  0  0  0
 23 25  1  0  0  0
 25 38  1  0  0  0
M  END
> <s_m_entry_id>
7094

> <s_m_entry_name>
ligand_docking-pose.236

> <s_m_Source_Path>
/home/csk/Desktop/cluster/DUD-E-result/aldr

> <s_m_Source_File>
ligand_docking-pose.sdf

> <i_m_Source_File_Index>
236

> <i_lp_mmshare_version>
53161

> <r_lp_tautomer_probability>
1

> <s_lp_Force_Field>
OPLS_2005

> <r_lp_Energy>
22.660277

> <b_lp_Chiralities_Consistent>
1

> <s_lp_Variant>
397128-1

> <s_i_glide_gridfile>
glide-grid_2hv5

> <i_i_glide_lignum>
778

> <i_i_glide_rotatable_bonds>
9

> <r_i_docking_score>
-8.67348902611243

> <r_i_glide_ligand_efficiency>
-0.346939561044497

> <r_i_glide_ligand_efficiency_sa>
-1.01445742949342

> <r_i_glide_ligand_efficiency_ln>
-2.05587682268022

> <r_i_glide_gscore>
-8.67348902611243

> <r_i_glide_lipo>
-2.79606440009045

> <r_i_glide_hbond>
0

> <r_i_glide_metal>
0

> <r_i_glide_rewards>
-3.38789046969697

> <r_i_glide_evdw>
-40.8627662658691

> <r_i_glide_ecoul>
-8.68474292755127

> <r_i_glide_erotb>
0.856315596101132

> <r_i_glide_esite>
0

> <r_i_glide_emodel>
-64.5002180754872

> <r_i_glide_energy>
-49.5475091934204

> <r_i_glide_einternal>
14.8323793411255

> <i_i_glide_confnum>
94

> <i_i_glide_posenum>
88

> <r_i_glide_eff_state_penalty>
0

> <i_f3d_flags>
0

> <s_user_duplicate_titles>
397128

> <s_m_subgroup_title>
dock_pv

> <s_m_subgroupid>
dock_pv1

> <b_m_subgroup_collapsed>
0

$$$$
490497
                    3D
 Schrodinger Suite 2021-1.
 38 40  0  0  1  0            999 V2000
   19.9876  -12.5414   12.6039 C   0  0  0  0  0  0
   19.2062  -12.5634   13.7941 O   0  0  0  0  0  0
   18.5356  -11.4181   14.1837 C   0  0  0  0  0  0
   18.5906  -10.2102   13.4811 C   0  0  0  0  0  0
   17.8777   -9.1036   13.9200 C   0  0  0  0  0  0
   17.1217   -9.1465   15.1062 C   0  0  0  0  0  0
   16.3374   -7.9321   15.5010 C   0  0  0  0  0  0
   15.7113   -7.8161   16.5518 O   0  0  0  0  0  0
   16.2893   -6.9286   14.4614 C   0  0  0  0  0  0
   17.0294   -6.9921   13.3408 C   0  0  0  0  0  0
   17.8911   -8.0067   13.0774 O   0  0  0  0  0  0
   16.8547   -6.0616   12.2061 C   0  0  0  0  0  0
   15.5722   -5.8107   11.6978 C   0  0  0  0  0  0
   15.3737   -4.8825   10.6778 C   0  0  0  0  0  0
   16.4560   -4.1747   10.1625 C   0  0  0  0  0  0
   17.7446   -4.4192   10.6568 C   0  0  0  0  0  0
   17.9406   -5.3628   11.6681 C   0  0  0  0  0  0
   18.8148   -3.7099   10.1787 O   0  0  0  0  0  0
   16.2305   -3.2334    9.1883 O   0  0  0  0  0  0
   17.0874  -10.3513   15.8357 C   0  0  0  0  0  0
   17.7800  -11.4796   15.3630 C   0  0  0  0  0  0
   17.7492  -12.6616   16.0663 O   0  0  0  0  0  0
   16.3713  -10.4436   17.0087 O   0  0  0  0  0  0
   15.0668  -10.9924   16.8579 C   0  0  0  0  0  0
   20.4297  -13.5228   12.4416 H   0  0  0  0  0  0
   19.3779  -12.3059   11.7302 H   0  0  0  0  0  0
   20.8040  -11.8211   12.6756 H   0  0  0  0  0  0
   19.1688  -10.1059   12.5809 H   0  0  0  0  0  0
   15.6019   -6.1150   14.5656 H   0  0  0  0  0  0
   14.7138   -6.3253   12.1024 H   0  0  0  0  0  0
   14.3746   -4.6972   10.3101 H   0  0  0  0  0  0
   18.9359   -5.5347   12.0577 H   0  0  0  0  0  0
   18.5011   -3.0459    9.5572 H   0  0  0  0  0  0
   15.2926   -3.1443    8.9814 H   0  0  0  0  0  0
   18.2513  -13.3452   15.6132 H   0  0  0  0  0  0
   14.5494  -10.9562   17.8173 H   0  0  0  0  0  0
   15.0984  -12.0341   16.5385 H   0  0  0  0  0  0
   14.4681  -10.4265   16.1397 H   0  0  0  0  0  0
  1  2  1  0  0  0
  1 25  1  0  0  0
  1 26  1  0  0  0
  1 27  1  0  0  0
  2  3  1  0  0  0
  3 21  1  0  0  0
  3  4  2  0  0  0
  4  5  1  0  0  0
  4 28  1  0  0  0
  5 11  1  0  0  0
  5  6  2  0  0  0
  6  7  1  0  0  0
  6 20  1  0  0  0
  7  8  2  0  0  0
  7  9  1  0  0  0
  9 10  2  0  0  0
  9 29  1  0  0  0
 10 11  1  0  0  0
 10 12  1  0  0  0
 12 17  1  0  0  0
 12 13  2  0  0  0
 13 14  1  0  0  0
 13 30  1  0  0  0
 14 15  2  0  0  0
 14 31  1  0  0  0
 15 16  1  0  0  0
 15 19  1  0  0  0
 16 17  2  0  0  0
 16 18  1  0  0  0
 17 32  1  0  0  0
 18 33  1  0  0  0
 19 34  1  0  0  0
 20 21  2  0  0  0
 20 23  1  0  0  0
 21 22  1  0  0  0
 22 35  1  0  0  0
 23 24  1  0  0  0
 24 36  1  0  0  0
 24 37  1  0  0  0
 24 38  1  0  0  0
M  END
> <s_m_entry_id>
7095

> <s_m_entry_name>
ligand_docking-pose.237

> <s_m_Source_Path>
/home/csk/Desktop/cluster/DUD-E-result/aldr

> <s_m_Source_File>
ligand_docking-pose.sdf

> <i_m_Source_File_Index>
237

> <i_lp_mmshare_version>
53161

> <r_lp_tautomer_probability>
0.999999999999776

> <s_lp_Force_Field>
OPLS_2005

> <r_lp_Energy>
24.885166

> <b_lp_Chiralities_Consistent>
1

> <s_lp_Variant>
490497-1

> <s_i_glide_gridfile>
glide-grid_2hv5

> <i_i_glide_lignum>
715

> <i_i_glide_rotatable_bonds>
6

> <r_i_docking_score>
-8.66923572361963

> <r_i_glide_ligand_efficiency>
-0.361218155150818

> <r_i_glide_ligand_efficiency_sa>
-1.04193345700323

> <r_i_glide_ligand_efficiency_ln>
-2.07494591396819

> <r_i_glide_gscore>
-8.66923572361963

> <r_i_glide_lipo>
-4.17771474394316

> <r_i_glide_hbond>
0

> <r_i_glide_metal>
0

> <r_i_glide_rewards>
-2.05712140909091

> <r_i_glide_evdw>
-39.1743545532227

> <r_i_glide_ecoul>
-4.32047891616821

> <r_i_glide_erotb>
0.17238999450081

> <r_i_glide_esite>
0

> <r_i_glide_emodel>
-57.9844970297924

> <r_i_glide_energy>
-43.4948334693909

> <r_i_glide_einternal>
4.9562463760376

> <i_i_glide_confnum>
3

> <i_i_glide_posenum>
52

> <r_i_glide_eff_state_penalty>
0

> <i_f3d_flags>
0

> <s_user_duplicate_titles>
490497

> <s_m_subgroup_title>
dock_pv

> <s_m_subgroupid>
dock_pv1

> <b_m_subgroup_collapsed>
0

$$$$
490345
                    3D
 Schrodinger Suite 2021-1.
 42 44  0  0  1  0            999 V2000
   17.5389  -12.6818   14.6405 C   0  0  0  0  0  0
   18.1450  -11.7475   15.5285 O   0  0  0  0  0  0
   17.3605  -10.6576   15.8241 C   0  0  0  0  0  0
   17.3450   -9.5076   15.0181 C   0  0  0  0  0  0
   18.2648   -9.3549   13.8544 C   0  0  0  0  0  0
   19.1493  -10.1513   13.5515 O   0  0  0  0  0  0
   17.9810   -8.1929   13.0666 C   0  0  0  0  0  0
   17.0022   -7.3150   13.3284 C   0  0  0  0  0  0
   16.2594   -7.3744   14.4715 O   0  0  0  0  0  0
   16.4338   -8.4750   15.3169 C   0  0  0  0  0  0
   15.6092   -8.5618   16.4453 C   0  0  0  0  0  0
   15.6377   -9.7119   17.2497 C   0  0  0  0  0  0
   16.5568  -10.7376   16.9572 C   0  0  0  0  0  0
   16.7224  -11.8428   17.7609 O   0  0  0  0  0  0
   14.7453   -9.7795   18.2990 O   0  0  0  0  0  0
   14.1614  -11.0507   18.5810 C   0  0  0  0  0  0
   14.7640   -7.5236   16.7589 O   0  0  0  0  0  0
   15.4232   -6.3974   17.3298 C   0  0  0  0  0  0
   16.7036   -6.2015   12.3849 C   0  0  0  0  0  0
   15.4133   -5.9982   11.8729 C   0  0  0  0  0  0
   15.1638   -5.0396   10.8923 C   0  0  0  0  0  0
   16.2087   -4.2825   10.3714 C   0  0  0  0  0  0
   17.5073   -4.4777   10.8539 C   0  0  0  0  0  0
   17.7451   -5.4228   11.8547 C   0  0  0  0  0  0
   18.5450   -3.7391   10.3453 O   0  0  0  0  0  0
   15.9467   -3.3573    9.3901 O   0  0  0  0  0  0
   18.2325  -13.5003   14.4487 H   0  0  0  0  0  0
   17.2899  -12.2289   13.6792 H   0  0  0  0  0  0
   16.6292  -13.1083   15.0665 H   0  0  0  0  0  0
   18.5450   -8.0830   12.1810 H   0  0  0  0  0  0
   17.3774  -12.4356   17.3782 H   0  0  0  0  0  0
   14.7339  -11.5858   19.3387 H   0  0  0  0  0  0
   13.1697  -10.9150   18.9810 H   0  0  0  0  0  0
   14.0515  -11.6845   17.6990 H   0  0  0  0  0  0
   14.9450   -5.4847   16.9810 H   0  0  0  0  0  0
   15.3450   -6.4337   18.4168 H   0  0  0  0  0  0
   16.4814   -6.3140   17.0706 H   0  0  0  0  0  0
   14.5789   -6.5984   12.1810 H   0  0  0  0  0  0
   14.1561   -4.9072   10.5246 H   0  0  0  0  0  0
   18.7565   -5.5685   12.2052 H   0  0  0  0  0  0
   18.1929   -3.0979    9.7205 H   0  0  0  0  0  0
   15.0112   -3.3123    9.1610 H   0  0  0  0  0  0
  1  2  1  0  0  0
  1 27  1  0  0  0
  1 28  1  0  0  0
  1 29  1  0  0  0
  2  3  1  0  0  0
  3 13  1  0  0  0
  3  4  2  0  0  0
  4 10  1  0  0  0
  4  5  1  0  0  0
  5  6  2  0  0  0
  5  7  1  0  0  0
  7  8  2  0  0  0
  7 30  1  0  0  0
  8  9  1  0  0  0
  8 19  1  0  0  0
  9 10  1  0  0  0
 10 11  2  0  0  0
 11 12  1  0  0  0
 11 17  1  0  0  0
 12 13  2  0  0  0
 12 15  1  0  0  0
 13 14  1  0  0  0
 14 31  1  0  0  0
 15 16  1  0  0  0
 16 32  1  0  0  0
 16 33  1  0  0  0
 16 34  1  0  0  0
 17 18  1  0  0  0
 18 35  1  0  0  0
 18 36  1  0  0  0
 18 37  1  0  0  0
 19 24  1  0  0  0
 19 20  2  0  0  0
 20 21  1  0  0  0
 20 38  1  0  0  0
 21 22  2  0  0  0
 21 39  1  0  0  0
 22 23  1  0  0  0
 22 26  1  0  0  0
 23 24  2  0  0  0
 23 25  1  0  0  0
 24 40  1  0  0  0
 25 41  1  0  0  0
 26 42  1  0  0  0
M  END
> <s_m_entry_id>
7096

> <s_m_entry_name>
ligand_docking-pose.238

> <s_m_Source_Path>
/home/csk/Desktop/cluster/DUD-E-result/aldr

> <s_m_Source_File>
ligand_docking-pose.sdf

> <i_m_Source_File_Index>
238

> <i_lp_mmshare_version>
53161

> <r_lp_tautomer_probability>
0.999999999999776

> <s_lp_Force_Field>
OPLS_2005

> <r_lp_Energy>
35.715971

> <b_lp_Chiralities_Consistent>
1

> <s_lp_Variant>
490345-1

> <s_i_glide_gridfile>
glide-grid_2hv5

> <i_i_glide_lignum>
704

> <i_i_glide_rotatable_bonds>
7

> <r_i_docking_score>
-8.66269762858965

> <r_i_glide_ligand_efficiency>
-0.333180678022679

> <r_i_glide_ligand_efficiency_sa>
-0.987046447639524

> <r_i_glide_ligand_efficiency_ln>
-2.03440611344494

> <r_i_glide_gscore>
-8.66269762858965

> <r_i_glide_lipo>
-4.18235780640639

> <r_i_glide_hbond>
0

> <r_i_glide_metal>
0

> <r_i_glide_rewards>
-1.85239881818182

> <r_i_glide_evdw>
-40.4958877563477

> <r_i_glide_ecoul>
-5.00575399398804

> <r_i_glide_erotb>
0.147716482914154

> <r_i_glide_esite>
0

> <r_i_glide_emodel>
-53.3054722838906

> <r_i_glide_energy>
-45.5016417503357

> <r_i_glide_einternal>
10.9766340255737

> <i_i_glide_confnum>
2

> <i_i_glide_posenum>
20

> <r_i_glide_eff_state_penalty>
0

> <i_f3d_flags>
0

> <s_user_duplicate_titles>
490345

> <s_m_subgroup_title>
dock_pv

> <s_m_subgroupid>
dock_pv1

> <b_m_subgroup_collapsed>
0

$$$$
236848
                    3D
 Schrodinger Suite 2021-1.
 37 39  0  0  1  0            999 V2000
   19.1469   -5.5392   13.8834 C   0  0  0  0  0  0
   18.9450   -5.7142   12.4835 O   0  0  0  0  0  0
   17.6765   -5.5582   11.9822 C   0  0  0  0  0  0
   16.6650   -6.4524   12.3447 C   0  0  0  0  0  0
   15.3785   -6.2545   11.8407 C   0  0  0  0  0  0
   15.0937   -5.2509   10.9247 C   0  0  0  0  0  0
   16.1185   -4.4001   10.4667 C   0  0  0  0  0  0
   17.4228   -4.5385   11.0169 C   0  0  0  0  0  0
   18.4214   -3.6387   10.5807 C   0  0  0  0  0  0
   18.1448   -2.6187    9.6830 C   0  0  0  0  0  0
   16.8884   -2.5166    9.1151 C   0  0  0  0  0  0
   15.8929   -3.4081    9.4820 C   0  0  0  0  0  0
   17.0504   -7.6608   13.1094 C   0  0  0  0  0  0
   16.7419   -7.9994   14.3836 C   0  0  0  0  0  0
   17.2742   -9.2089   14.9768 C   0  0  0  0  0  0
   18.0849   -9.9649   14.4357 O   0  0  0  0  0  0
   16.7072   -9.4297   16.1888 N   0  0  0  0  0  0
   15.9155   -8.4771   16.7310 C   0  0  0  0  0  0
   15.3833   -8.4668   17.8400 O   0  0  0  0  0  0
   15.7429   -7.1496   15.5531 S   0  0  0  0  0  0
   17.0478  -10.6807   16.9267 C   0  0  0  0  0  0
   15.8498  -11.5474   17.3802 C   0  0  0  0  0  0
   15.9502  -12.3257   18.3023 O   0  0  0  0  0  0
   14.7333  -11.3787   16.6127 O   0  0  0  0  0  0
   19.9283   -6.2204   14.2212 H   0  0  0  0  0  0
   19.4917   -4.5285   14.0877 H   0  0  0  0  0  0
   18.2668   -5.7154   14.4986 H   0  0  0  0  0  0
   14.5768   -6.9151   12.0959 H   0  0  0  0  0  0
   14.0907   -5.1355   10.5383 H   0  0  0  0  0  0
   19.3998   -3.7331   10.9808 H   0  0  0  0  0  0
   18.9153   -1.9159    9.4055 H   0  0  0  0  0  0
   16.6816   -1.7494    8.3846 H   0  0  0  0  0  0
   14.9450   -3.3329    9.0010 H   0  0  0  0  0  0
   17.6832   -8.3286   12.5387 H   0  0  0  0  0  0
   17.6705  -10.4192   17.7796 H   0  0  0  0  0  0
   17.6743  -11.3445   16.3284 H   0  0  0  0  0  0
   14.8443  -10.7261   15.9218 H   0  0  0  0  0  0
  1  2  1  0  0  0
  1 25  1  0  0  0
  1 26  1  0  0  0
  1 27  1  0  0  0
  2  3  1  0  0  0
  3  8  1  0  0  0
  3  4  2  0  0  0
  4  5  1  0  0  0
  4 13  1  0  0  0
  5  6  2  0  0  0
  5 28  1  0  0  0
  6  7  1  0  0  0
  6 29  1  0  0  0
  7 12  2  0  0  0
  7  8  1  0  0  0
  8  9  2  0  0  0
  9 10  1  0  0  0
  9 30  1  0  0  0
 10 11  2  0  0  0
 10 31  1  0  0  0
 11 12  1  0  0  0
 11 32  1  0  0  0
 12 33  1  0  0  0
 13 14  2  0  0  0
 13 34  1  0  0  0
 14 20  1  0  0  0
 14 15  1  0  0  0
 15 16  2  0  0  0
 15 17  1  0  0  0
 17 18  1  0  0  0
 17 21  1  0  0  0
 18 19  2  0  0  0
 18 20  1  0  0  0
 21 22  1  0  0  0
 21 35  1  0  0  0
 21 36  1  0  0  0
 22 23  2  0  0  0
 22 24  1  0  0  0
 24 37  1  0  0  0
M  END
> <s_m_entry_id>
7100

> <s_m_entry_name>
ligand_docking-pose.242

> <s_m_Source_Path>
/home/csk/Desktop/cluster/DUD-E-result/aldr

> <s_m_Source_File>
ligand_docking-pose.sdf

> <i_m_Source_File_Index>
242

> <i_lp_mmshare_version>
53161

> <r_lp_tautomer_probability>
1

> <s_lp_Force_Field>
OPLS_2005

> <r_lp_Energy>
25.896574

> <b_lp_Chiralities_Consistent>
1

> <s_lp_Variant>
236848-1

> <s_i_glide_gridfile>
glide-grid_2hv5

> <i_i_glide_lignum>
745

> <i_i_glide_rotatable_bonds>
5

> <r_i_docking_score>
-8.64197862192834

> <r_i_glide_ligand_efficiency>
-0.360082442580347

> <r_i_glide_ligand_efficiency_sa>
-1.03865749507319

> <r_i_glide_ligand_efficiency_ln>
-2.06842203878657

> <r_i_glide_gscore>
-8.64197862192834

> <r_i_glide_lipo>
-3.78247098328022

> <r_i_glide_hbond>
-0.32

> <r_i_glide_metal>
0

> <r_i_glide_rewards>
-2.98859825689634

> <r_i_glide_evdw>
-37.2164497375488

> <r_i_glide_ecoul>
-1.15276825428009

> <r_i_glide_erotb>
0.482828343267674

> <r_i_glide_esite>
0

> <r_i_glide_emodel>
-48.9669484440058

> <r_i_glide_energy>
-38.3692179918289

> <r_i_glide_einternal>
6.44817304611206

> <i_i_glide_confnum>
10

> <i_i_glide_posenum>
284

> <r_i_glide_eff_state_penalty>
0

> <i_f3d_flags>
0

> <s_user_duplicate_titles>
236848

> <s_m_subgroup_title>
dock_pv

> <s_m_subgroupid>
dock_pv1

> <b_m_subgroup_collapsed>
0

$$$$
237593
                    3D
 Schrodinger Suite 2021-1.
 33 35  0  0  1  0            999 V2000
   16.7328   -2.2999    9.3790 C   0  0  0  0  0  0
   18.0761   -2.4095    9.7023 C   0  0  0  0  0  0
   18.5466   -3.5108   10.4020 C   0  0  0  0  0  0
   17.6530   -4.4970   10.8852 C   0  0  0  0  0  0
   18.0814   -5.5818   11.6853 C   0  0  0  0  0  0
   17.1752   -6.5324   12.1509 C   0  0  0  0  0  0
   15.8206   -6.3825   11.8533 C   0  0  0  0  0  0
   15.3597   -5.3315   11.0700 C   0  0  0  0  0  0
   16.2685   -4.3750   10.5699 C   0  0  0  0  0  0
   15.8408   -3.2830    9.7821 C   0  0  0  0  0  0
   17.6683   -7.7077   12.8901 C   0  0  0  0  0  0
   17.2622   -8.1111   14.1130 C   0  0  0  0  0  0
   17.7447   -9.3325   14.7146 C   0  0  0  0  0  0
   18.5450  -10.1124   14.1935 O   0  0  0  0  0  0
   17.1720   -9.5132   15.9353 N   0  0  0  0  0  0
   16.2677   -8.5830   16.3751 C   0  0  0  0  0  0
   15.3454   -8.5055   17.7604 S   0  0  0  0  0  0
   16.1406   -7.3142   15.1991 S   0  0  0  0  0  0
   17.5482  -10.6755   16.7822 C   0  0  0  0  0  0
   16.5839  -11.8613   16.6074 C   0  0  0  0  0  0
   15.7021  -11.9357   15.7817 O   0  0  0  0  0  0
   16.8653  -12.8043   17.5436 O   0  0  0  0  0  0
   16.3768   -1.4524    8.8126 H   0  0  0  0  0  0
   18.7668   -1.6450    9.3815 H   0  0  0  0  0  0
   19.6032   -3.5993   10.5810 H   0  0  0  0  0  0
   19.1267   -5.6802   11.9247 H   0  0  0  0  0  0
   15.1082   -7.1185   12.1814 H   0  0  0  0  0  0
   14.3066   -5.2399   10.8406 H   0  0  0  0  0  0
   14.8002   -3.1845    9.5616 H   0  0  0  0  0  0
   18.3971   -8.3077   12.3644 H   0  0  0  0  0  0
   17.5801  -10.3815   17.8281 H   0  0  0  0  0  0
   18.5448  -11.0334   16.5337 H   0  0  0  0  0  0
   16.2609  -13.5472   17.4476 H   0  0  0  0  0  0
  1 10  1  0  0  0
  1  2  2  0  0  0
  1 23  1  0  0  0
  2  3  1  0  0  0
  2 24  1  0  0  0
  3  4  2  0  0  0
  3 25  1  0  0  0
  4  9  1  0  0  0
  4  5  1  0  0  0
  5  6  2  0  0  0
  5 26  1  0  0  0
  6  7  1  0  0  0
  6 11  1  0  0  0
  7  8  2  0  0  0
  7 27  1  0  0  0
  8  9  1  0  0  0
  8 28  1  0  0  0
  9 10  2  0  0  0
 10 29  1  0  0  0
 11 12  2  0  0  0
 11 30  1  0  0  0
 12 18  1  0  0  0
 12 13  1  0  0  0
 13 14  2  0  0  0
 13 15  1  0  0  0
 15 16  1  0  0  0
 15 19  1  0  0  0
 16 17  2  0  0  0
 16 18  1  0  0  0
 19 20  1  0  0  0
 19 31  1  0  0  0
 19 32  1  0  0  0
 20 21  2  0  0  0
 20 22  1  0  0  0
 22 33  1  0  0  0
M  END
> <s_m_entry_id>
7101

> <s_m_entry_name>
ligand_docking-pose.243

> <s_m_Source_Path>
/home/csk/Desktop/cluster/DUD-E-result/aldr

> <s_m_Source_File>
ligand_docking-pose.sdf

> <i_m_Source_File_Index>
243

> <i_lp_mmshare_version>
53161

> <r_lp_tautomer_probability>
1

> <s_lp_Force_Field>
OPLS_2005

> <r_lp_Energy>
16.87506

> <b_lp_Chiralities_Consistent>
1

> <s_lp_Variant>
237593-1

> <s_i_glide_gridfile>
glide-grid_2hv5

> <i_i_glide_lignum>
294

> <i_i_glide_rotatable_bonds>
4

> <r_i_docking_score>
-8.63689271861645

> <r_i_glide_ligand_efficiency>
-0.392586032664384

> <r_i_glide_ligand_efficiency_sa>
-1.10004150305814

> <r_i_glide_ligand_efficiency_ln>
-2.11117161874633

> <r_i_glide_gscore>
-8.63689271861645

> <r_i_glide_lipo>
-3.72726180183377

> <r_i_glide_hbond>
0

> <r_i_glide_metal>
0

> <r_i_glide_rewards>
-3.54642255324084

> <r_i_glide_evdw>
-40.3661155700684

> <r_i_glide_ecoul>
0.902971625328064

> <r_i_glide_erotb>
0.519651671162372

> <r_i_glide_esite>
0

> <r_i_glide_emodel>
-56.3682876707189

> <r_i_glide_energy>
-39.4631439447403

> <r_i_glide_einternal>
4.06909894943237

> <i_i_glide_confnum>
9

> <i_i_glide_posenum>
301

> <r_i_glide_eff_state_penalty>
0

> <i_f3d_flags>
0

> <s_user_duplicate_titles>
237593

> <s_m_subgroup_title>
dock_pv

> <s_m_subgroupid>
dock_pv1

> <b_m_subgroup_collapsed>
0

$$$$
219413
                    3D
 Schrodinger Suite 2021-1.
 39 42  0  0  1  0            999 V2000
   16.3581  -12.1398   17.0049 C   0  0  0  0  0  0
   17.1883  -11.9337   15.9075 C   0  0  0  0  0  0
   17.3503  -10.5632   15.7215 C   0  0  0  0  0  0
   16.6647   -9.9175   16.7344 N   0  0  0  0  0  0
   16.0191  -10.8880   17.4749 C   0  0  0  0  0  0
   16.5722   -8.4540   16.8660 C   0  0  2  0  0  0
   16.7942   -7.8815   18.2563 C   0  0  0  0  0  0
   15.7489   -6.7961   18.4026 C   0  0  0  0  0  0
   15.7457   -5.9204   19.2642 O   0  0  0  0  0  0
   14.8356   -7.0119   17.4368 N   0  0  0  0  0  0
   15.1311   -8.0316   16.6080 C   0  0  0  0  0  0
   14.3900   -8.5432   15.7813 O   0  0  0  0  0  0
   17.5002   -7.7188   15.8505 C   0  0  0  0  0  0
   17.7416   -6.5151   15.9805 O   0  0  0  0  0  0
   17.9945   -8.4769   14.8174 N   0  0  0  0  0  0
   18.0255   -9.8451   14.6590 C   0  0  0  0  0  0
   18.5674  -10.4008   13.7011 O   0  0  0  0  0  0
   18.6694   -7.6713   13.7598 C   0  0  0  0  0  0
   17.7518   -6.7500   12.9476 C   0  0  0  0  0  0
   18.3154   -5.7012   12.2446 C   0  0  0  0  0  0
   17.5686   -4.9142   11.3819 C   0  0  0  0  0  0
   16.1949   -5.1288   11.2889 C   0  0  0  0  0  0
   15.6010   -6.1148   12.0787 C   0  0  0  0  0  0
   16.3727   -6.9150   12.9050 C   0  0  0  0  0  0
   15.3523   -4.2923   10.4223 N   0  3  0  0  0  0
   14.1448   -4.3958   10.5809 O   0  5  0  0  0  0
   15.8872   -3.5415    9.6100 O   0  0  0  0  0  0
   16.0135  -13.0919   17.3838 H   0  0  0  0  0  0
   17.6054  -12.7065   15.2762 H   0  0  0  0  0  0
   15.3494  -10.5989   18.2728 H   0  0  0  0  0  0
   16.5437   -8.5989   19.0210 H   0  0  0  0  0  0
   17.7955   -7.4954   18.4575 H   0  0  0  0  0  0
   13.9596   -6.5136   17.3921 H   0  0  0  0  0  0
   19.1955   -8.2881   13.0290 H   0  0  0  0  0  0
   19.4625   -7.0774   14.2205 H   0  0  0  0  0  0
   19.3449   -5.5101   12.3976 H   0  0  0  0  0  0
   18.0476   -4.1198   10.8278 H   0  0  0  0  0  0
   14.5335   -6.2516   12.0483 H   0  0  0  0  0  0
   15.8995   -7.6527   13.5238 H   0  0  0  0  0  0
  1  5  2  0  0  0
  1  2  1  0  0  0
  1 28  1  0  0  0
  2  3  2  0  0  0
  2 29  1  0  0  0
  3 16  1  0  0  0
  3  4  1  0  0  0
  4  5  1  0  0  0
  4  6  1  0  0  0
  5 30  1  0  0  0
  6 11  1  0  0  0
  6  7  1  0  0  0
  6 13  1  0  0  0
  7  8  1  0  0  0
  7 31  1  0  0  0
  7 32  1  0  0  0
  8  9  2  0  0  0
  8 10  1  0  0  0
 10 11  1  0  0  0
 10 33  1  0  0  0
 11 12  2  0  0  0
 13 14  2  0  0  0
 13 15  1  0  0  0
 15 16  1  0  0  0
 15 18  1  0  0  0
 16 17  2  0  0  0
 18 19  1  0  0  0
 18 34  1  0  0  0
 18 35  1  0  0  0
 19 24  1  0  0  0
 19 20  2  0  0  0
 20 21  1  0  0  0
 20 36  1  0  0  0
 21 22  2  0  0  0
 21 37  1  0  0  0
 22 23  1  0  0  0
 22 25  1  0  0  0
 23 24  2  0  0  0
 23 38  1  0  0  0
 24 39  1  0  0  0
 25 26  1  0  0  0
 25 27  2  0  0  0
M  CHG  2  25   1  26  -1
M  END
> <s_m_entry_id>
7104

> <s_m_entry_name>
ligand_docking-pose.246

> <s_m_Source_Path>
/home/csk/Desktop/cluster/DUD-E-result/aldr

> <s_m_Source_File>
ligand_docking-pose.sdf

> <i_m_Source_File_Index>
246

> <i_lp_mmshare_version>
53161

> <r_lp_tautomer_probability>
0.99995

> <s_lp_Force_Field>
OPLS_2005

> <r_lp_Energy>
34.436477

> <b_lp_Chiralities_Consistent>
1

> <s_lp_Variant>
219413-2

> <s_i_glide_gridfile>
glide-grid_2hv5

> <i_i_glide_lignum>
113

> <i_i_glide_rotatable_bonds>
3

> <r_i_docking_score>
-8.61871669352279

> <r_i_glide_ligand_efficiency>
-0.319211729389733

> <r_i_glide_ligand_efficiency_sa>
-0.95763518711713

> <r_i_glide_ligand_efficiency_ln>
-2.00629515560243

> <r_i_glide_gscore>
-8.61871669352279

> <r_i_glide_lipo>
-2.89831529673603

> <r_i_glide_hbond>
-0.154265083000964

> <r_i_glide_metal>
0

> <r_i_glide_rewards>
-3.97628528787879

> <r_i_glide_evdw>
-36.3603096008301

> <r_i_glide_ecoul>
0.195301949977875

> <r_i_glide_erotb>
0.198869161637812

> <r_i_glide_esite>
0

> <r_i_glide_emodel>
-41.2323333679365

> <r_i_glide_energy>
-36.1650076508522

> <r_i_glide_einternal>
0.830321371555328

> <i_i_glide_confnum>
1

> <i_i_glide_posenum>
112

> <r_i_glide_eff_state_penalty>
0

> <i_f3d_flags>
0

> <s_user_duplicate_titles>
219413

> <s_m_subgroup_title>
dock_pv

> <s_m_subgroupid>
dock_pv1

> <b_m_subgroup_collapsed>
0

$$$$
67698
                    3D
 Schrodinger Suite 2021-1.
 32 33  0  0  1  0            999 V2000
   15.7815  -10.5473   16.9941 C   0  0  0  0  0  0
   15.4048   -9.3248   17.5412 C   0  0  0  0  0  0
   15.9030   -8.1209   17.0394 C   0  0  0  0  0  0
   16.8150   -8.1714   15.9710 C   0  0  0  0  0  0
   17.1995   -9.4254   15.4296 C   0  0  0  0  0  0
   16.6829  -10.6232   15.9363 C   0  0  0  0  0  0
   17.0389  -11.8221   15.4206 F   0  0  0  0  0  0
   18.3344   -9.1567   14.1204 S   0  0  0  0  0  0
   18.1913   -7.4348   14.4010 C   0  0  0  0  0  0
   17.3913   -7.0927   15.3735 N   0  0  0  0  0  0
   18.9208   -6.4203   13.5433 C   0  0  0  0  0  0
   18.0202   -5.7217   12.4989 C   0  0  0  0  0  0
   16.9945   -6.6381   11.8004 C   0  0  0  0  0  0
   16.4895   -6.1215   10.4457 C   0  0  0  0  0  0
   15.7559   -4.7563   10.4400 C   0  0  0  0  0  0
   16.5635   -3.5962    9.8356 C   0  0  0  0  0  0
   17.7920   -3.5592    9.7907 O   0  0  0  0  0  0
   15.7452   -2.6073    9.3807 O   0  0  0  0  0  0
   15.5105   -6.9392   17.5729 F   0  0  0  0  0  0
   14.5457   -9.3166   18.5803 F   0  0  0  0  0  0
   15.3656  -11.4569   17.3995 H   0  0  0  0  0  0
   19.7446   -6.9113   13.0240 H   0  0  0  0  0  0
   19.3971   -5.6637   14.1691 H   0  0  0  0  0  0
   18.6616   -5.2439   11.7575 H   0  0  0  0  0  0
   17.4730   -4.9150   12.9796 H   0  0  0  0  0  0
   16.1466   -6.8143   12.4638 H   0  0  0  0  0  0
   17.4418   -7.6167   11.6276 H   0  0  0  0  0  0
   15.8181   -6.8732   10.0279 H   0  0  0  0  0  0
   17.3446   -6.1092    9.7778 H   0  0  0  0  0  0
   15.4402   -4.4830   11.4455 H   0  0  0  0  0  0
   14.8430   -4.8628    9.8529 H   0  0  0  0  0  0
   14.8114   -2.8514    9.3833 H   0  0  0  0  0  0
  1  6  1  0  0  0
  1  2  2  0  0  0
  1 21  1  0  0  0
  2  3  1  0  0  0
  2 20  1  0  0  0
  3  4  2  0  0  0
  3 19  1  0  0  0
  4 10  1  0  0  0
  4  5  1  0  0  0
  5  6  2  0  0  0
  5  8  1  0  0  0
  6  7  1  0  0  0
  8  9  1  0  0  0
  9 10  2  0  0  0
  9 11  1  0  0  0
 11 12  1  0  0  0
 11 22  1  0  0  0
 11 23  1  0  0  0
 12 13  1  0  0  0
 12 24  1  0  0  0
 12 25  1  0  0  0
 13 14  1  0  0  0
 13 26  1  0  0  0
 13 27  1  0  0  0
 14 15  1  0  0  0
 14 28  1  0  0  0
 14 29  1  0  0  0
 15 16  1  0  0  0
 15 30  1  0  0  0
 15 31  1  0  0  0
 16 17  2  0  0  0
 16 18  1  0  0  0
 18 32  1  0  0  0
M  END
> <s_m_entry_id>
7108

> <s_m_entry_name>
ligand_docking-pose.250

> <s_m_Source_Path>
/home/csk/Desktop/cluster/DUD-E-result/aldr

> <s_m_Source_File>
ligand_docking-pose.sdf

> <i_m_Source_File_Index>
250

> <i_lp_mmshare_version>
53161

> <r_lp_tautomer_probability>
1

> <s_lp_Force_Field>
OPLS_2005

> <r_lp_Energy>
2.972692

> <b_lp_Chiralities_Consistent>
1

> <s_lp_Variant>
67698-1

> <s_i_glide_gridfile>
glide-grid_2hv5

> <i_i_glide_lignum>
268

> <i_i_glide_rotatable_bonds>
7

> <r_i_docking_score>
-8.57128347831048

> <r_i_glide_ligand_efficiency>
-0.428564173915524

> <r_i_glide_ligand_efficiency_sa>
-1.16330214235609

> <r_i_glide_ligand_efficiency_ln>
-2.14510955477174

> <r_i_glide_gscore>
-8.57128347831048

> <r_i_glide_lipo>
-3.59173398495133

> <r_i_glide_hbond>
0

> <r_i_glide_metal>
0

> <r_i_glide_rewards>
-3.29703204637009

> <r_i_glide_evdw>
-34.6833915710449

> <r_i_glide_ecoul>
-6.33203887939453

> <r_i_glide_erotb>
1.00145796347237

> <r_i_glide_esite>
0

> <r_i_glide_emodel>
-59.0583936217793

> <r_i_glide_energy>
-41.0154304504395

> <r_i_glide_einternal>
6.1198263168335

> <i_i_glide_confnum>
51

> <i_i_glide_posenum>
328

> <r_i_glide_eff_state_penalty>
0

> <i_f3d_flags>
0

> <s_user_duplicate_titles>
67698

> <s_m_subgroup_title>
dock_pv

> <s_m_subgroupid>
dock_pv1

> <b_m_subgroup_collapsed>
0

$$$$
2069
                    3D
 Schrodinger Suite 2021-1.
 29 32  0  0  1  0            999 V2000
   15.0847  -12.0588   17.0972 C   0  0  0  0  0  0
   14.5468  -11.2320   18.0844 C   0  0  0  0  0  0
   14.9558   -9.9011   18.1797 C   0  0  0  0  0  0
   15.9044   -9.3907   17.2837 C   0  0  0  0  0  0
   16.4220  -10.2194   16.2833 C   0  0  0  0  0  0
   16.0228  -11.5546   16.1951 C   0  0  0  0  0  0
   17.3228   -9.4248   15.4277 C   0  0  0  0  0  0
   18.0446   -9.7594   14.2777 C   0  0  0  0  0  0
   18.7450   -8.7659   13.5886 C   0  0  0  0  0  0
   18.7326   -7.4526   14.0590 C   0  0  0  0  0  0
   18.0631   -7.1353   15.2315 C   0  0  0  0  0  0
   17.3439   -8.1176   15.9120 C   0  0  0  0  0  0
   16.5028   -7.9924   17.1661 C   0  0  1  0  0  0
   15.4547   -6.9185   16.9917 C   0  0  0  0  0  0
   14.5451   -6.9151   16.1810 O   0  0  0  0  0  0
   15.7931   -5.9316   17.8231 N   0  0  0  0  0  0
   16.7121   -6.2748   18.7307 C   0  0  0  0  0  0
   16.9434   -5.7110   19.7929 O   0  0  0  0  0  0
   17.1876   -7.4441   18.3002 N   0  0  0  0  0  0
   19.3450   -6.4668   13.3783 F   0  0  0  0  0  0
   14.7633  -13.0872   17.0221 H   0  0  0  0  0  0
   13.8119  -11.6227   18.7739 H   0  0  0  0  0  0
   14.5448   -9.2810   18.9594 H   0  0  0  0  0  0
   16.4131  -12.1999   15.4222 H   0  0  0  0  0  0
   18.0348  -10.7673   13.8892 H   0  0  0  0  0  0
   19.2804   -9.0043   12.6819 H   0  0  0  0  0  0
   18.0878   -6.1158   15.5826 H   0  0  0  0  0  0
   15.3388   -5.0351   17.8363 H   0  0  0  0  0  0
   18.1039   -7.7792   18.5590 H   0  0  0  0  0  0
  1  6  1  0  0  0
  1  2  2  0  0  0
  1 21  1  0  0  0
  2  3  1  0  0  0
  2 22  1  0  0  0
  3  4  2  0  0  0
  3 23  1  0  0  0
  4 13  1  0  0  0
  4  5  1  0  0  0
  5  6  2  0  0  0
  5  7  1  0  0  0
  6 24  1  0  0  0
  7 12  2  0  0  0
  7  8  1  0  0  0
  8  9  2  0  0  0
  8 25  1  0  0  0
  9 10  1  0  0  0
  9 26  1  0  0  0
 10 11  2  0  0  0
 10 20  1  0  0  0
 11 12  1  0  0  0
 11 27  1  0  0  0
 12 13  1  0  0  0
 13 19  1  0  0  0
 13 14  1  0  0  0
 14 15  2  0  0  0
 14 16  1  0  0  0
 16 17  1  0  0  0
 16 28  1  0  0  0
 17 18  2  0  0  0
 17 19  1  0  0  0
 19 29  1  0  0  0
M  END
> <s_m_entry_id>
7109

> <s_m_entry_name>
ligand_docking-pose.251

> <s_m_Source_Path>
/home/csk/Desktop/cluster/DUD-E-result/aldr

> <s_m_Source_File>
ligand_docking-pose.sdf

> <i_m_Source_File_Index>
251

> <i_lp_mmshare_version>
53161

> <r_lp_tautomer_probability>
0.99999999978137

> <s_lp_Force_Field>
OPLS_2005

> <r_lp_Energy>
42.559133

> <b_lp_Chiralities_Consistent>
1

> <s_lp_Variant>
2069-2

> <s_i_glide_gridfile>
glide-grid_2hv5

> <i_i_glide_lignum>
127

> <i_i_glide_rotatable_bonds>
0

> <r_i_docking_score>
-8.56626696826289

> <r_i_glide_ligand_efficiency>
-0.428313348413144

> <r_i_glide_ligand_efficiency_sa>
-1.16262129719442

> <r_i_glide_ligand_efficiency_ln>
-2.1438540877624

> <r_i_glide_gscore>
-8.56626696826289

> <r_i_glide_lipo>
-2.83288977832327

> <r_i_glide_hbond>
-0.32

> <r_i_glide_metal>
0

> <r_i_glide_rewards>
-3.64614073068439

> <r_i_glide_evdw>
-30.2359313964844

> <r_i_glide_ecoul>
-1.70293259620667

> <r_i_glide_erotb>
0

> <r_i_glide_esite>
0

> <r_i_glide_emodel>
-44.8836546170229

> <r_i_glide_energy>
-31.938863992691

> <r_i_glide_einternal>
0

> <i_i_glide_confnum>
1

> <i_i_glide_posenum>
153

> <r_i_glide_eff_state_penalty>
0

> <i_f3d_flags>
0

> <s_user_duplicate_titles>
2069

> <s_m_subgroup_title>
dock_pv

> <s_m_subgroupid>
dock_pv1

> <b_m_subgroup_collapsed>
0

$$$$
219673
                    3D
 Schrodinger Suite 2021-1.
 40 43  0  0  1  0            999 V2000
   15.6588   -3.4881    9.8898 C   0  0  0  0  0  0
   16.2451   -4.5775   10.7667 C   0  0  0  0  0  0
   17.6210   -4.6345   10.9853 C   0  0  0  0  0  0
   18.1489   -5.6499   11.7786 C   0  0  0  0  0  0
   17.3322   -6.6318   12.3262 C   0  0  0  0  0  0
   15.9568   -6.5152   12.1672 C   0  0  0  0  0  0
   15.4044   -5.5070   11.3807 C   0  0  0  0  0  0
   17.9447   -7.8500   13.0491 C   0  0  0  0  0  0
   17.5057   -8.0733   14.4617 N   0  0  0  0  0  0
   17.8013   -7.0378   15.3092 C   0  0  0  0  0  0
   18.5448   -6.1151   14.9804 O   0  0  0  0  0  0
   17.0941   -7.1363   16.5674 C   0  0  0  0  0  0
   16.9452   -6.2150   17.6004 C   0  0  0  0  0  0
   16.2404   -6.8126   18.6354 C   0  0  0  0  0  0
   16.0196   -8.1160   18.2474 C   0  0  0  0  0  0
   16.5704   -8.3379   17.0013 N   0  0  0  0  0  0
   16.6438   -9.5995   16.2363 C   0  0  1  0  0  0
   17.3453   -9.3846   14.8463 C   0  0  0  0  0  0
   17.7410  -10.3416   14.1716 O   0  0  0  0  0  0
   17.2972  -10.7297   17.0232 C   0  0  0  0  0  0
   16.1710  -11.6750   17.3808 C   0  0  0  0  0  0
   16.2712  -12.6387   18.1337 O   0  0  0  0  0  0
   15.0652  -11.2447   16.7521 N   0  0  0  0  0  0
   15.2151  -10.1151   16.0348 C   0  0  0  0  0  0
   14.3388   -9.5630   15.3811 O   0  0  0  0  0  0
   16.3644   -2.6741    9.7203 H   0  0  0  0  0  0
   15.3459   -3.8992    8.9299 H   0  0  0  0  0  0
   14.7807   -3.0558   10.3687 H   0  0  0  0  0  0
   18.2790   -3.9024   10.5418 H   0  0  0  0  0  0
   19.2122   -5.7059   11.9365 H   0  0  0  0  0  0
   15.3450   -7.2786   12.6043 H   0  0  0  0  0  0
   14.3341   -5.4597   11.2372 H   0  0  0  0  0  0
   17.7081   -8.7111   12.4248 H   0  0  0  0  0  0
   19.0343   -7.7781   13.0269 H   0  0  0  0  0  0
   17.3189   -5.2006   17.5931 H   0  0  0  0  0  0
   15.9633   -6.3589   19.5752 H   0  0  0  0  0  0
   15.5435   -8.9260   18.7805 H   0  0  0  0  0  0
   18.0673  -11.2893   16.4884 H   0  0  0  0  0  0
   17.7448  -10.3756   17.9411 H   0  0  0  0  0  0
   14.1856  -11.7350   16.8114 H   0  0  0  0  0  0
  1  2  1  0  0  0
  1 26  1  0  0  0
  1 27  1  0  0  0
  1 28  1  0  0  0
  2  7  1  0  0  0
  2  3  2  0  0  0
  3  4  1  0  0  0
  3 29  1  0  0  0
  4  5  2  0  0  0
  4 30  1  0  0  0
  5  6  1  0  0  0
  5  8  1  0  0  0
  6  7  2  0  0  0
  6 31  1  0  0  0
  7 32  1  0  0  0
  8  9  1  0  0  0
  8 33  1  0  0  0
  8 34  1  0  0  0
  9 18  1  0  0  0
  9 10  1  0  0  0
 10 11  2  0  0  0
 10 12  1  0  0  0
 12 16  1  0  0  0
 12 13  2  0  0  0
 13 14  1  0  0  0
 13 35  1  0  0  0
 14 15  2  0  0  0
 14 36  1  0  0  0
 15 16  1  0  0  0
 15 37  1  0  0  0
 16 17  1  0  0  0
 17 24  1  0  0  0
 17 18  1  0  0  0
 17 20  1  0  0  0
 18 19  2  0  0  0
 20 21  1  0  0  0
 20 38  1  0  0  0
 20 39  1  0  0  0
 21 22  2  0  0  0
 21 23  1  0  0  0
 23 24  1  0  0  0
 23 40  1  0  0  0
 24 25  2  0  0  0
M  END
> <s_m_entry_id>
7110

> <s_m_entry_name>
ligand_docking-pose.252

> <s_m_Source_Path>
/home/csk/Desktop/cluster/DUD-E-result/aldr

> <s_m_Source_File>
ligand_docking-pose.sdf

> <i_m_Source_File_Index>
252

> <i_lp_mmshare_version>
53161

> <r_lp_tautomer_probability>
0.99995

> <s_lp_Force_Field>
OPLS_2005

> <r_lp_Energy>
32.334554

> <b_lp_Chiralities_Consistent>
1

> <s_lp_Variant>
219673-1

> <s_i_glide_gridfile>
glide-grid_2hv5

> <i_i_glide_lignum>
521

> <i_i_glide_rotatable_bonds>
2

> <r_i_docking_score>
-8.56377963803365

> <r_i_glide_ligand_efficiency>
-0.342551185521346

> <r_i_glide_ligand_efficiency_sa>
-1.00162574163556

> <r_i_glide_ligand_efficiency_ln>
-2.02987240998049

> <r_i_glide_gscore>
-8.56377963803365

> <r_i_glide_lipo>
-3.41395461256932

> <r_i_glide_hbond>
-0.201647629833084

> <r_i_glide_metal>
0

> <r_i_glide_rewards>
-3.62539552259247

> <r_i_glide_evdw>
-36.8834228515625

> <r_i_glide_ecoul>
1.32772767543793

> <r_i_glide_erotb>
0.332149200860796

> <r_i_glide_esite>
-0.00991908263714373

> <r_i_glide_emodel>
-34.6878890297625

> <r_i_glide_energy>
-35.5556951761246

> <r_i_glide_einternal>
8.60043048858643

> <i_i_glide_confnum>
4

> <i_i_glide_posenum>
189

> <r_i_glide_eff_state_penalty>
0

> <i_f3d_flags>
0

> <s_user_duplicate_titles>
219673

> <s_m_subgroup_title>
dock_pv

> <s_m_subgroupid>
dock_pv1

> <b_m_subgroup_collapsed>
0

$$$$
99482
                    3D
 Schrodinger Suite 2021-1.
 39 42  0  0  1  0            999 V2000
   18.3117  -12.5505   14.4190 C   0  0  0  0  0  0
   17.3415  -11.7585   15.0309 C   0  0  0  0  0  0
   17.2997  -10.3649   14.8355 C   0  0  0  0  0  0
   18.2634   -9.7907   13.9962 C   0  0  0  0  0  0
   19.2874  -10.5785   13.4529 C   0  0  0  0  0  0
   19.2985  -11.9564   13.6422 C   0  0  0  0  0  0
   20.2913  -12.7058   13.1133 F   0  0  0  0  0  0
   18.3204   -8.2963   13.7731 C   0  0  0  0  0  0
   19.3426   -7.7290   13.3812 O   0  0  0  0  0  0
   17.1827   -7.6102   14.1141 N   0  0  0  0  0  0
   16.1801   -7.9817   14.9810 C   0  0  0  0  0  0
   15.2801   -7.2328   15.3814 O   0  0  0  0  0  0
   16.3031   -9.4243   15.5475 C   0  0  1  0  0  0
   14.9244  -10.0627   15.7725 C   0  0  0  0  0  0
   14.9447  -10.4954   17.2216 C   0  0  0  0  0  0
   14.1452  -11.2348   17.7815 O   0  0  0  0  0  0
   16.0065   -9.9139   17.7810 N   0  0  0  0  0  0
   16.8010   -9.2109   16.9727 C   0  0  0  0  0  0
   17.7453   -8.5103   17.3272 O   0  0  0  0  0  0
   17.1411   -6.1893   13.7035 C   0  0  0  0  0  0
   17.0248   -5.7688   12.2379 C   0  0  0  0  0  0
   18.1448   -5.2082   11.6322 C   0  0  0  0  0  0
   18.0217   -4.4107   10.4958 C   0  0  0  0  0  0
   16.7611   -4.1717    9.9581 C   0  0  0  0  0  0
   15.6455   -4.8139   10.4871 C   0  0  0  0  0  0
   15.7756   -5.6107   11.6225 C   0  0  0  0  0  0
   14.6613   -6.1150   12.1812 F   0  0  0  0  0  0
   16.5484   -2.8874    8.5777 Br  0  0  0  0  0  0
   18.3264  -13.6188   14.5796 H   0  0  0  0  0  0
   16.6211  -12.2454   15.6708 H   0  0  0  0  0  0
   20.1320  -10.1125   12.9816 H   0  0  0  0  0  0
   14.0725   -9.3896   15.6509 H   0  0  0  0  0  0
   14.7326  -10.9141   15.1354 H   0  0  0  0  0  0
   16.1833   -9.9620   18.7748 H   0  0  0  0  0  0
   17.9962   -5.6890   14.1608 H   0  0  0  0  0  0
   16.2798   -5.7151   14.1503 H   0  0  0  0  0  0
   19.1051   -5.3167   12.1108 H   0  0  0  0  0  0
   18.8895   -3.9191   10.0811 H   0  0  0  0  0  0
   14.6664   -4.6280   10.0700 H   0  0  0  0  0  0
  1  6  1  0  0  0
  1  2  2  0  0  0
  1 29  1  0  0  0
  2  3  1  0  0  0
  2 30  1  0  0  0
  3 13  1  0  0  0
  3  4  2  0  0  0
  4  5  1  0  0  0
  4  8  1  0  0  0
  5  6  2  0  0  0
  5 31  1  0  0  0
  6  7  1  0  0  0
  8  9  2  0  0  0
  8 10  1  0  0  0
 10 11  1  0  0  0
 10 20  1  0  0  0
 11 12  2  0  0  0
 11 13  1  0  0  0
 13 18  1  0  0  0
 13 14  1  0  0  0
 14 15  1  0  0  0
 14 32  1  0  0  0
 14 33  1  0  0  0
 15 16  2  0  0  0
 15 17  1  0  0  0
 17 18  1  0  0  0
 17 34  1  0  0  0
 18 19  2  0  0  0
 20 21  1  0  0  0
 20 35  1  0  0  0
 20 36  1  0  0  0
 21 26  1  0  0  0
 21 22  2  0  0  0
 22 23  1  0  0  0
 22 37  1  0  0  0
 23 24  2  0  0  0
 23 38  1  0  0  0
 24 25  1  0  0  0
 24 28  1  0  0  0
 25 26  2  0  0  0
 25 39  1  0  0  0
 26 27  1  0  0  0
M  END
> <s_m_entry_id>
7111

> <s_m_entry_name>
ligand_docking-pose.253

> <s_m_Source_Path>
/home/csk/Desktop/cluster/DUD-E-result/aldr

> <s_m_Source_File>
ligand_docking-pose.sdf

> <i_m_Source_File_Index>
253

> <i_lp_mmshare_version>
53161

> <r_lp_tautomer_probability>
0.99999999995914

> <s_lp_Force_Field>
OPLS_2005

> <r_lp_Energy>
31.887512

> <b_lp_Chiralities_Consistent>
1

> <s_lp_Variant>
99482-2

> <s_i_glide_gridfile>
glide-grid_2hv5

> <i_i_glide_lignum>
68

> <i_i_glide_rotatable_bonds>
2

> <r_i_docking_score>
-8.5489846601727

> <r_i_glide_ligand_efficiency>
-0.305320880720454

> <r_i_glide_ligand_efficiency_sa>
-0.927134018249294

> <r_i_glide_ligand_efficiency_ln>
-1.97335666866451

> <r_i_glide_gscore>
-8.5489846601727

> <r_i_glide_lipo>
-3.88518207544571

> <r_i_glide_hbond>
-0.029551979509092

> <r_i_glide_metal>
0

> <r_i_glide_rewards>
-3.04634695909091

> <r_i_glide_evdw>
-36.8131141662598

> <r_i_glide_ecoul>
0.36088490486145

> <r_i_glide_erotb>
0.198619326456777

> <r_i_glide_esite>
0

> <r_i_glide_emodel>
-39.1929564126158

> <r_i_glide_energy>
-36.4522292613983

> <r_i_glide_einternal>
1.90728771686554

> <i_i_glide_confnum>
4

> <i_i_glide_posenum>
16

> <r_i_glide_eff_state_penalty>
0

> <i_f3d_flags>
0

> <s_user_duplicate_titles>
99482

> <s_m_subgroup_title>
dock_pv

> <s_m_subgroupid>
dock_pv1

> <b_m_subgroup_collapsed>
0

$$$$
268477
                    3D
 Schrodinger Suite 2021-1.
 32 33  0  0  1  0            999 V2000
   16.1450   -6.5601   12.4922 C   0  0  0  0  0  0
   15.3936   -6.0441   11.4375 C   0  0  0  0  0  0
   15.9378   -5.0762   10.5889 C   0  0  0  0  0  0
   17.2493   -4.6071   10.7987 C   0  0  0  0  0  0
   17.9641   -5.1731   11.8604 C   0  0  0  0  0  0
   17.4402   -6.1229   12.7225 C   0  0  0  0  0  0
   18.3024   -6.6158   13.8929 C   0  0  0  0  0  0
   17.8930   -7.8644   14.5629 N   0  0  0  0  0  0
   18.3760   -9.0611   14.1796 C   0  0  0  0  0  0
   19.2751   -9.3108   13.3810 O   0  0  0  0  0  0
   17.5481  -10.0806   14.9016 C   0  0  0  0  0  0
   16.6330   -9.2447   15.6348 N   0  0  0  0  0  0
   16.9083   -7.9311   15.4977 C   0  0  0  0  0  0
   16.4132   -6.9953   16.1293 O   0  0  0  0  0  0
   15.3931   -9.7383   16.2656 C   0  0  0  0  0  0
   15.6860  -10.8088   17.3339 C   0  0  0  0  0  0
   16.7696  -11.3150   17.5403 O   0  0  0  0  0  0
   14.5450  -11.1084   18.0133 O   0  0  0  0  0  0
   17.9032   -3.5473    9.9783 N   0  3  0  0  0  0
   19.0925   -3.3150   10.1810 O   0  5  0  0  0  0
   17.2614   -2.9150    9.1481 O   0  0  0  0  0  0
   14.9450   -4.5150    9.3000 Cl  0  0  0  0  0  0
   15.7450   -7.3150   13.1361 H   0  0  0  0  0  0
   14.3841   -6.3955   11.2792 H   0  0  0  0  0  0
   18.9450   -4.8419   12.0703 H   0  0  0  0  0  0
   18.3557   -5.8192   14.6365 H   0  0  0  0  0  0
   19.3233   -6.7353   13.5222 H   0  0  0  0  0  0
   18.1355  -10.7194   15.5604 H   0  0  0  0  0  0
   17.0062  -10.7083   14.1935 H   0  0  0  0  0  0
   14.7471  -10.1670   15.4993 H   0  0  0  0  0  0
   14.8501   -8.9152   16.7338 H   0  0  0  0  0  0
   13.7717  -10.6353   17.7025 H   0  0  0  0  0  0
  1  6  1  0  0  0
  1  2  2  0  0  0
  1 23  1  0  0  0
  2  3  1  0  0  0
  2 24  1  0  0  0
  3  4  2  0  0  0
  3 22  1  0  0  0
  4  5  1  0  0  0
  4 19  1  0  0  0
  5  6  2  0  0  0
  5 25  1  0  0  0
  6  7  1  0  0  0
  7  8  1  0  0  0
  7 26  1  0  0  0
  7 27  1  0  0  0
  8 13  1  0  0  0
  8  9  1  0  0  0
  9 10  2  0  0  0
  9 11  1  0  0  0
 11 12  1  0  0  0
 11 28  1  0  0  0
 11 29  1  0  0  0
 12 13  1  0  0  0
 12 15  1  0  0  0
 13 14  2  0  0  0
 15 16  1  0  0  0
 15 30  1  0  0  0
 15 31  1  0  0  0
 16 17  2  0  0  0
 16 18  1  0  0  0
 18 32  1  0  0  0
 19 20  1  0  0  0
 19 21  2  0  0  0
M  CHG  2  19   1  20  -1
M  END
> <s_m_entry_id>
7113

> <s_m_entry_name>
ligand_docking-pose.255

> <s_m_Source_Path>
/home/csk/Desktop/cluster/DUD-E-result/aldr

> <s_m_Source_File>
ligand_docking-pose.sdf

> <i_m_Source_File_Index>
255

> <i_lp_mmshare_version>
53161

> <r_lp_tautomer_probability>
1

> <s_lp_Force_Field>
OPLS_2005

> <r_lp_Energy>
22.612294

> <b_lp_Chiralities_Consistent>
1

> <s_lp_Variant>
268477-1

> <s_i_glide_gridfile>
glide-grid_2hv5

> <i_i_glide_lignum>
400

> <i_i_glide_rotatable_bonds>
6

> <r_i_docking_score>
-8.53892129170816

> <r_i_glide_ligand_efficiency>
-0.388132785986734

> <r_i_glide_ligand_efficiency_sa>
-1.08756333073111

> <r_i_glide_ligand_efficiency_ln>
-2.08722382841532

> <r_i_glide_gscore>
-8.53892129170816

> <r_i_glide_lipo>
-2.75574368010947

> <r_i_glide_hbond>
-0.145809201790169

> <r_i_glide_metal>
0

> <r_i_glide_rewards>
-3.87492954545455

> <r_i_glide_evdw>
-39.8712158203125

> <r_i_glide_ecoul>
-3.12119460105896

> <r_i_glide_erotb>
0.699301116820492

> <r_i_glide_esite>
0

> <r_i_glide_emodel>
-62.3254213983968

> <r_i_glide_energy>
-42.9924104213715

> <r_i_glide_einternal>
2.75635480880737

> <i_i_glide_confnum>
3

> <i_i_glide_posenum>
219

> <r_i_glide_eff_state_penalty>
0

> <i_f3d_flags>
0

> <s_user_duplicate_titles>
268477

> <s_m_subgroup_title>
dock_pv

> <s_m_subgroupid>
dock_pv1

> <b_m_subgroup_collapsed>
0

$$$$
99703
                    3D
 Schrodinger Suite 2021-1.
 44 48  0  0  1  0            999 V2000
   15.1126  -12.9117   17.5944 C   0  0  0  0  0  0
   14.5449  -11.9742   18.4462 C   0  0  0  0  0  0
   14.9204  -10.6388   18.3497 C   0  0  0  0  0  0
   15.8976  -10.2064   17.4478 C   0  0  0  0  0  0
   16.4245  -11.1548   16.5581 C   0  0  0  0  0  0
   16.0407  -12.5032   16.6427 C   0  0  0  0  0  0
   17.3453  -10.7541   15.4282 C   0  0  0  0  0  0
   17.7198  -11.5746   14.5827 O   0  0  0  0  0  0
   17.7204   -9.4317   15.4054 N   0  0  0  0  0  0
   17.5192   -8.4687   16.3709 C   0  0  0  0  0  0
   18.1450   -7.4069   16.4397 O   0  0  0  0  0  0
   16.3314   -8.7344   17.3353 C   0  0  2  0  0  0
   16.5451   -7.9857   18.6580 C   0  0  0  0  0  0
   15.7450   -6.7089   18.5585 C   0  0  0  0  0  0
   15.7615   -5.7779   19.3619 O   0  0  0  0  0  0
   14.9826   -6.8250   17.4612 N   0  0  0  0  0  0
   15.1685   -7.9526   16.7556 C   0  0  0  0  0  0
   14.5409   -8.3053   15.7789 O   0  0  0  0  0  0
   18.6030   -9.0395   14.2697 C   0  0  0  0  0  0
   18.1432   -7.7955   13.5464 C   0  0  0  0  0  0
   17.0366   -7.7150   12.8640 N   0  0  0  0  0  0
   16.9501   -6.5390   12.1943 C   0  0  0  0  0  0
   15.8902   -6.1150   11.3820 C   0  0  0  0  0  0
   16.0262   -4.8946   10.7042 C   0  0  0  0  0  0
   17.1980   -4.1634   10.7601 C   0  0  0  0  0  0
   18.1804   -4.5151   11.6447 C   0  0  0  0  0  0
   18.0590   -5.6920   12.3758 C   0  0  0  0  0  0
   19.0619   -6.3309   13.6472 S   0  0  0  0  0  0
   14.8712   -4.2330   10.0200 C   0  0  0  0  0  0
   14.9451   -4.5150    8.7217 F   0  0  0  0  0  0
   14.9450   -2.9081   10.1810 F   0  0  0  0  0  0
   13.7452   -4.6728   10.5810 F   0  0  0  0  0  0
   14.8080  -13.9450   17.6508 H   0  0  0  0  0  0
   13.7930  -12.2774   19.1602 H   0  0  0  0  0  0
   14.4445   -9.9110   18.9812 H   0  0  0  0  0  0
   16.4383  -13.2422   15.9602 H   0  0  0  0  0  0
   16.1450   -8.5149   19.5163 H   0  0  0  0  0  0
   17.5782   -7.7148   18.8833 H   0  0  0  0  0  0
   14.2816   -6.1454   17.2182 H   0  0  0  0  0  0
   18.6918   -9.8177   13.5106 H   0  0  0  0  0  0
   19.6259   -8.9065   14.6152 H   0  0  0  0  0  0
   14.9802   -6.6926   11.3151 H   0  0  0  0  0  0
   17.2882   -3.2209   10.2377 H   0  0  0  0  0  0
   18.9442   -3.7975   11.8072 H   0  0  0  0  0  0
  1  6  1  0  0  0
  1  2  2  0  0  0
  1 33  1  0  0  0
  2  3  1  0  0  0
  2 34  1  0  0  0
  3  4  2  0  0  0
  3 35  1  0  0  0
  4 12  1  0  0  0
  4  5  1  0  0  0
  5  6  2  0  0  0
  5  7  1  0  0  0
  6 36  1  0  0  0
  7  8  2  0  0  0
  7  9  1  0  0  0
  9 10  1  0  0  0
  9 19  1  0  0  0
 10 11  2  0  0  0
 10 12  1  0  0  0
 12 17  1  0  0  0
 12 13  1  0  0  0
 13 14  1  0  0  0
 13 37  1  0  0  0
 13 38  1  0  0  0
 14 15  2  0  0  0
 14 16  1  0  0  0
 16 17  1  0  0  0
 16 39  1  0  0  0
 17 18  2  0  0  0
 19 20  1  0  0  0
 19 40  1  0  0  0
 19 41  1  0  0  0
 20 28  1  0  0  0
 20 21  2  0  0  0
 21 22  1  0  0  0
 22 27  2  0  0  0
 22 23  1  0  0  0
 23 24  2  0  0  0
 23 42  1  0  0  0
 24 25  1  0  0  0
 24 29  1  0  0  0
 25 26  2  0  0  0
 25 43  1  0  0  0
 26 27  1  0  0  0
 26 44  1  0  0  0
 27 28  1  0  0  0
 29 30  1  0  0  0
 29 31  1  0  0  0
 29 32  1  0  0  0
M  END
> <s_m_entry_id>
7115

> <s_m_entry_name>
ligand_docking-pose.257

> <s_m_Source_Path>
/home/csk/Desktop/cluster/DUD-E-result/aldr

> <s_m_Source_File>
ligand_docking-pose.sdf

> <i_m_Source_File_Index>
257

> <i_lp_mmshare_version>
53161

> <r_lp_tautomer_probability>
0.99999999995914

> <s_lp_Force_Field>
OPLS_2005

> <r_lp_Energy>
29.694259

> <b_lp_Chiralities_Consistent>
1

> <s_lp_Variant>
99703-2

> <s_i_glide_gridfile>
glide-grid_2hv5

> <i_i_glide_lignum>
266

> <i_i_glide_rotatable_bonds>
3

> <r_i_docking_score>
-8.51433501930387

> <r_i_glide_ligand_efficiency>
-0.266072969353246

> <r_i_glide_ligand_efficiency_sa>
-0.844729021927421

> <r_i_glide_ligand_efficiency_ln>
-1.90659170282908

> <r_i_glide_gscore>
-8.51433501930387

> <r_i_glide_lipo>
-3.95025964245884

> <r_i_glide_hbond>
-0.195344768582288

> <r_i_glide_metal>
0

> <r_i_glide_rewards>
-2.89791724717514

> <r_i_glide_evdw>
-31.5933094024658

> <r_i_glide_ecoul>
-0.436465859413147

> <r_i_glide_erotb>
0.190670954193026

> <r_i_glide_esite>
-0.0163489662453669

> <r_i_glide_emodel>
-49.4204709571281

> <r_i_glide_energy>
-32.029775261879

> <r_i_glide_einternal>
18.1877059936523

> <i_i_glide_confnum>
2

> <i_i_glide_posenum>
9

> <r_i_glide_eff_state_penalty>
0

> <i_f3d_flags>
0

> <s_user_duplicate_titles>
99703

> <s_m_subgroup_title>
dock_pv

> <s_m_subgroupid>
dock_pv1

> <b_m_subgroup_collapsed>
0

$$$$
219367
                    3D
 Schrodinger Suite 2021-1.
 37 40  0  0  1  0            999 V2000
   16.2493   -6.8105   18.6392 C   0  0  0  0  0  0
   16.9450   -6.2113   17.5993 C   0  0  0  0  0  0
   17.0947   -7.1340   16.5674 C   0  0  0  0  0  0
   16.5756   -8.3364   17.0042 N   0  0  0  0  0  0
   16.0310   -8.1150   18.2532 C   0  0  0  0  0  0
   16.6429   -9.5967   16.2362 C   0  0  1  0  0  0
   17.2876  -10.7344   17.0193 C   0  0  0  0  0  0
   16.1524  -11.6679   17.3810 C   0  0  0  0  0  0
   16.2446  -12.6316   18.1350 O   0  0  0  0  0  0
   15.0499  -11.2279   16.7534 N   0  0  0  0  0  0
   15.2103  -10.1007   16.0344 C   0  0  0  0  0  0
   14.3396   -9.5397   15.3810 O   0  0  0  0  0  0
   17.3450   -9.3818   14.8461 C   0  0  0  0  0  0
   17.7365  -10.3394   14.1703 O   0  0  0  0  0  0
   17.5037   -8.0705   14.4603 N   0  0  0  0  0  0
   17.8006   -7.0364   15.3086 C   0  0  0  0  0  0
   18.5450   -6.1150   14.9809 O   0  0  0  0  0  0
   17.9408   -7.8466   13.0460 C   0  0  0  0  0  0
   17.3288   -6.6274   12.3220 C   0  0  0  0  0  0
   18.1450   -5.6401   11.7810 C   0  0  0  0  0  0
   17.6142   -4.6163   10.9997 C   0  0  0  0  0  0
   16.2401   -4.5589   10.7898 C   0  0  0  0  0  0
   15.3993   -5.4984   11.3810 C   0  0  0  0  0  0
   15.9531   -6.5150   12.1564 C   0  0  0  0  0  0
   15.7229   -3.5775   10.0181 F   0  0  0  0  0  0
   15.9755   -6.3568   19.5800 H   0  0  0  0  0  0
   17.3116   -5.1946   17.5893 H   0  0  0  0  0  0
   15.5594   -8.9258   18.7892 H   0  0  0  0  0  0
   18.0475  -11.3033   16.4797 H   0  0  0  0  0  0
   17.7450  -10.3857   17.9340 H   0  0  0  0  0  0
   14.1658  -11.7095   16.8146 H   0  0  0  0  0  0
   17.7001   -8.7084   12.4243 H   0  0  0  0  0  0
   19.0305   -7.7778   13.0210 H   0  0  0  0  0  0
   19.2087   -5.6940   11.9399 H   0  0  0  0  0  0
   18.2589   -3.8716   10.5588 H   0  0  0  0  0  0
   14.3312   -5.4431   11.2284 H   0  0  0  0  0  0
   15.3450   -7.2881   12.5810 H   0  0  0  0  0  0
  1  5  2  0  0  0
  1  2  1  0  0  0
  1 26  1  0  0  0
  2  3  2  0  0  0
  2 27  1  0  0  0
  3 16  1  0  0  0
  3  4  1  0  0  0
  4  5  1  0  0  0
  4  6  1  0  0  0
  5 28  1  0  0  0
  6 11  1  0  0  0
  6  7  1  0  0  0
  6 13  1  0  0  0
  7  8  1  0  0  0
  7 29  1  0  0  0
  7 30  1  0  0  0
  8  9  2  0  0  0
  8 10  1  0  0  0
 10 11  1  0  0  0
 10 31  1  0  0  0
 11 12  2  0  0  0
 13 14  2  0  0  0
 13 15  1  0  0  0
 15 16  1  0  0  0
 15 18  1  0  0  0
 16 17  2  0  0  0
 18 19  1  0  0  0
 18 32  1  0  0  0
 18 33  1  0  0  0
 19 24  1  0  0  0
 19 20  2  0  0  0
 20 21  1  0  0  0
 20 34  1  0  0  0
 21 22  2  0  0  0
 21 35  1  0  0  0
 22 23  1  0  0  0
 22 25  1  0  0  0
 23 24  2  0  0  0
 23 36  1  0  0  0
 24 37  1  0  0  0
M  END
> <s_m_entry_id>
7116

> <s_m_entry_name>
ligand_docking-pose.258

> <s_m_Source_Path>
/home/csk/Desktop/cluster/DUD-E-result/aldr

> <s_m_Source_File>
ligand_docking-pose.sdf

> <i_m_Source_File_Index>
258

> <i_lp_mmshare_version>
53161

> <r_lp_tautomer_probability>
0.99995

> <s_lp_Force_Field>
OPLS_2005

> <r_lp_Energy>
32.60423

> <b_lp_Chiralities_Consistent>
1

> <s_lp_Variant>
219367-2

> <s_i_glide_gridfile>
glide-grid_2hv5

> <i_i_glide_lignum>
101

> <i_i_glide_rotatable_bonds>
2

> <r_i_docking_score>
-8.50308959824001

> <r_i_glide_ligand_efficiency>
-0.340123583929601

> <r_i_glide_ligand_efficiency_sa>
-0.994527391527598

> <r_i_glide_ligand_efficiency_ln>
-2.01548705181567

> <r_i_glide_gscore>
-8.50308959824001

> <r_i_glide_lipo>
-3.35092487203047

> <r_i_glide_hbond>
-0.19809789083667

> <r_i_glide_metal>
0

> <r_i_glide_rewards>
-3.77375791893939

> <r_i_glide_evdw>
-35.4097938537598

> <r_i_glide_ecoul>
1.82388377189636

> <r_i_glide_erotb>
0.325342666637122

> <r_i_glide_esite>
-0.00874445616706966

> <r_i_glide_emodel>
-34.1981751193515

> <r_i_glide_energy>
-33.5859100818634

> <r_i_glide_einternal>
8.50745487213135

> <i_i_glide_confnum>
1

> <i_i_glide_posenum>
126

> <r_i_glide_eff_state_penalty>
0

> <i_f3d_flags>
0

> <s_user_duplicate_titles>
219367

> <s_m_subgroup_title>
dock_pv

> <s_m_subgroupid>
dock_pv1

> <b_m_subgroup_collapsed>
0

$$$$
219850
                    3D
 Schrodinger Suite 2021-1.
 34 37  0  0  1  0            999 V2000
   16.9726   -4.8368   10.8848 C   0  0  0  0  0  0
   15.9256   -5.6985   11.1667 C   0  0  0  0  0  0
   16.0794   -6.6327   12.1810 C   0  0  0  0  0  0
   17.2628   -6.7445   12.9209 C   0  0  0  0  0  0
   18.3091   -5.8624   12.6307 C   0  0  0  0  0  0
   18.1517   -4.9150   11.6146 C   0  0  0  0  0  0
   17.3380   -7.7152   13.9775 N   0  0  0  0  0  0
   18.1695   -8.7996   13.7810 C   0  0  0  0  0  0
   19.1013   -8.8056   12.9810 O   0  0  0  0  0  0
   17.7984   -9.9526   14.5810 C   0  0  0  0  0  0
   18.2088  -11.2803   14.5027 C   0  0  0  0  0  0
   17.6844  -11.9799   15.5859 C   0  0  0  0  0  0
   16.9975  -11.0574   16.3479 C   0  0  0  0  0  0
   17.0695   -9.8163   15.7454 N   0  0  0  0  0  0
   16.4881   -8.5438   16.1856 C   0  0  2  0  0  0
   16.4759   -7.4965   15.0295 C   0  0  0  0  0  0
   15.7450   -6.5150   15.1208 O   0  0  0  0  0  0
   17.1812   -7.9037   17.3810 C   0  0  0  0  0  0
   16.0426   -7.3970   18.2498 C   0  0  0  0  0  0
   16.1458   -6.6227   19.1977 O   0  0  0  0  0  0
   14.9068   -7.9477   17.7810 N   0  0  0  0  0  0
   15.0517   -8.7305   16.6987 C   0  0  0  0  0  0
   14.1809   -9.4243   16.1810 O   0  0  0  0  0  0
   16.8667   -4.0997   10.1024 H   0  0  0  0  0  0
   15.0037   -5.6432   10.6064 H   0  0  0  0  0  0
   15.2797   -7.3150   12.3697 H   0  0  0  0  0  0
   19.2329   -5.9081   13.1897 H   0  0  0  0  0  0
   18.9450   -4.2264   11.3810 H   0  0  0  0  0  0
   18.8337  -11.6962   13.7243 H   0  0  0  0  0  0
   17.8083  -13.0331   15.7957 H   0  0  0  0  0  0
   16.4473  -11.1794   17.2692 H   0  0  0  0  0  0
   17.8685   -7.0867   17.1458 H   0  0  0  0  0  0
   17.7450   -8.6338   17.9518 H   0  0  0  0  0  0
   14.0109   -7.8118   18.2223 H   0  0  0  0  0  0
  1  6  1  0  0  0
  1  2  2  0  0  0
  1 24  1  0  0  0
  2  3  1  0  0  0
  2 25  1  0  0  0
  3  4  2  0  0  0
  3 26  1  0  0  0
  4  5  1  0  0  0
  4  7  1  0  0  0
  5  6  2  0  0  0
  5 27  1  0  0  0
  6 28  1  0  0  0
  7 16  1  0  0  0
  7  8  1  0  0  0
  8  9  2  0  0  0
  8 10  1  0  0  0
 10 14  1  0  0  0
 10 11  2  0  0  0
 11 12  1  0  0  0
 11 29  1  0  0  0
 12 13  2  0  0  0
 12 30  1  0  0  0
 13 14  1  0  0  0
 13 31  1  0  0  0
 14 15  1  0  0  0
 15 22  1  0  0  0
 15 16  1  0  0  0
 15 18  1  0  0  0
 16 17  2  0  0  0
 18 19  1  0  0  0
 18 32  1  0  0  0
 18 33  1  0  0  0
 19 20  2  0  0  0
 19 21  1  0  0  0
 21 22  1  0  0  0
 21 34  1  0  0  0
 22 23  2  0  0  0
M  END
> <s_m_entry_id>
7117

> <s_m_entry_name>
ligand_docking-pose.259

> <s_m_Source_Path>
/home/csk/Desktop/cluster/DUD-E-result/aldr

> <s_m_Source_File>
ligand_docking-pose.sdf

> <i_m_Source_File_Index>
259

> <i_lp_mmshare_version>
53161

> <r_lp_tautomer_probability>
0.99995

> <s_lp_Force_Field>
OPLS_2005

> <r_lp_Energy>
45.224935

> <b_lp_Chiralities_Consistent>
1

> <s_lp_Variant>
219850-2

> <s_i_glide_gridfile>
glide-grid_2hv5

> <i_i_glide_lignum>
432

> <i_i_glide_rotatable_bonds>
1

> <r_i_docking_score>
-8.48983943976732

> <r_i_glide_ligand_efficiency>
-0.369123453902927

> <r_i_glide_ligand_efficiency_sa>
-1.04973800094615

> <r_i_glide_ligand_efficiency_ln>
-2.05292015814363

> <r_i_glide_gscore>
-8.48983943976732

> <r_i_glide_lipo>
-2.95385266607636

> <r_i_glide_hbond>
-0.0698826707379656

> <r_i_glide_metal>
0

> <r_i_glide_rewards>
-3.80038927272727

> <r_i_glide_evdw>
-36.0026779174805

> <r_i_glide_ecoul>
-0.394235402345657

> <r_i_glide_erotb>
0.193554376000153

> <r_i_glide_esite>
0

> <r_i_glide_emodel>
-45.009574053443

> <r_i_glide_energy>
-36.3969133198261

> <r_i_glide_einternal>
1.24025225639343

> <i_i_glide_confnum>
3

> <i_i_glide_posenum>
33

> <r_i_glide_eff_state_penalty>
0

> <i_f3d_flags>
0

> <s_user_duplicate_titles>
219850

> <s_m_subgroup_title>
dock_pv

> <s_m_subgroupid>
dock_pv1

> <b_m_subgroup_collapsed>
0

$$$$
219307
                    3D
 Schrodinger Suite 2021-1.
 37 40  0  0  1  0            999 V2000
   15.3792   -5.9447   11.7807 C   0  0  0  0  0  0
   16.1811   -6.8472   12.4834 C   0  0  0  0  0  0
   17.5709   -6.7459   12.4470 C   0  0  0  0  0  0
   18.1448   -5.6654   11.7786 C   0  0  0  0  0  0
   17.3577   -4.7668   11.0579 C   0  0  0  0  0  0
   15.9706   -4.9152   11.0477 C   0  0  0  0  0  0
   18.1051   -3.4822   10.1783 Cl  0  0  0  0  0  0
   18.4713   -7.8124   13.0922 C   0  0  0  0  0  0
   17.9498   -8.5352   14.2926 N   0  0  0  0  0  0
   18.1449   -9.9018   14.2915 C   0  0  0  0  0  0
   18.7116  -10.5095   13.3808 O   0  0  0  0  0  0
   17.5871  -10.5658   15.4496 C   0  0  0  0  0  0
   17.5413  -11.9214   15.7660 C   0  0  0  0  0  0
   16.8476  -12.0765   16.9623 C   0  0  0  0  0  0
   16.4970  -10.8067   17.3725 C   0  0  0  0  0  0
   16.9874   -9.8722   16.4821 N   0  0  0  0  0  0
   16.8495   -8.4060   16.5291 C   0  0  2  0  0  0
   17.5789   -7.7199   15.3339 C   0  0  0  0  0  0
   17.8291   -6.5150   15.3631 O   0  0  0  0  0  0
   17.2812   -7.7540   17.8313 C   0  0  0  0  0  0
   16.1382   -6.8442   18.2401 C   0  0  0  0  0  0
   16.1488   -6.0323   19.1617 O   0  0  0  0  0  0
   15.1114   -7.1165   17.4192 N   0  0  0  0  0  0
   15.3638   -8.0635   16.4985 C   0  0  0  0  0  0
   14.5405   -8.5948   15.7736 O   0  0  0  0  0  0
   14.3034   -6.0475   11.7933 H   0  0  0  0  0  0
   15.7419   -7.6640   13.0265 H   0  0  0  0  0  0
   19.2140   -5.5530   11.7767 H   0  0  0  0  0  0
   15.3527   -4.2213   10.4952 H   0  0  0  0  0  0
   18.6854   -8.5148   12.2856 H   0  0  0  0  0  0
   19.4343   -7.3678   13.3530 H   0  0  0  0  0  0
   17.9453  -12.7213   15.1602 H   0  0  0  0  0  0
   16.6082  -13.0099   17.4521 H   0  0  0  0  0  0
   15.9125  -10.4746   18.2162 H   0  0  0  0  0  0
   17.3450   -8.5150   18.5811 H   0  0  0  0  0  0
   18.2318   -7.2155   17.8155 H   0  0  0  0  0  0
   14.1988   -6.7043   17.5342 H   0  0  0  0  0  0
  1  6  1  0  0  0
  1  2  2  0  0  0
  1 26  1  0  0  0
  2  3  1  0  0  0
  2 27  1  0  0  0
  3  4  2  0  0  0
  3  8  1  0  0  0
  4  5  1  0  0  0
  4 28  1  0  0  0
  5  6  2  0  0  0
  5  7  1  0  0  0
  6 29  1  0  0  0
  8  9  1  0  0  0
  8 30  1  0  0  0
  8 31  1  0  0  0
  9 18  1  0  0  0
  9 10  1  0  0  0
 10 11  2  0  0  0
 10 12  1  0  0  0
 12 16  1  0  0  0
 12 13  2  0  0  0
 13 14  1  0  0  0
 13 32  1  0  0  0
 14 15  2  0  0  0
 14 33  1  0  0  0
 15 16  1  0  0  0
 15 34  1  0  0  0
 16 17  1  0  0  0
 17 24  1  0  0  0
 17 18  1  0  0  0
 17 20  1  0  0  0
 18 19  2  0  0  0
 20 21  1  0  0  0
 20 35  1  0  0  0
 20 36  1  0  0  0
 21 22  2  0  0  0
 21 23  1  0  0  0
 23 24  1  0  0  0
 23 37  1  0  0  0
 24 25  2  0  0  0
M  END
> <s_m_entry_id>
7118

> <s_m_entry_name>
ligand_docking-pose.260

> <s_m_Source_Path>
/home/csk/Desktop/cluster/DUD-E-result/aldr

> <s_m_Source_File>
ligand_docking-pose.sdf

> <i_m_Source_File_Index>
260

> <i_lp_mmshare_version>
53161

> <r_lp_tautomer_probability>
0.99995

> <s_lp_Force_Field>
OPLS_2005

> <r_lp_Energy>
31.797672

> <b_lp_Chiralities_Consistent>
1

> <s_lp_Variant>
219307-2

> <s_i_glide_gridfile>
glide-grid_2hv5

> <i_i_glide_lignum>
369

> <i_i_glide_rotatable_bonds>
2

> <r_i_docking_score>
-8.48553637238002

> <r_i_glide_ligand_efficiency>
-0.339421454895201

> <r_i_glide_ligand_efficiency_sa>
-0.992474353778701

> <r_i_glide_ligand_efficiency_ln>
-2.01132641125912

> <r_i_glide_gscore>
-8.48553637238002

> <r_i_glide_lipo>
-3.12730147970806

> <r_i_glide_hbond>
0

> <r_i_glide_metal>
0

> <r_i_glide_rewards>
-3.60577292456317

> <r_i_glide_evdw>
-39.5970230102539

> <r_i_glide_ecoul>
-0.478884518146515

> <r_i_glide_erotb>
0.299221860125882

> <r_i_glide_esite>
0

> <r_i_glide_emodel>
-54.0943398397668

> <r_i_glide_energy>
-40.0759075284004

> <r_i_glide_einternal>
1.09652626514435

> <i_i_glide_confnum>
3

> <i_i_glide_posenum>
179

> <r_i_glide_eff_state_penalty>
0

> <i_f3d_flags>
0

> <s_user_duplicate_titles>
219307

> <s_m_subgroup_title>
dock_pv

> <s_m_subgroupid>
dock_pv1

> <b_m_subgroup_collapsed>
0

$$$$
463460
                    3D
 Schrodinger Suite 2021-1.
 32 34  0  0  1  0            999 V2000
   15.5802   -5.8853   11.7571 C   0  0  0  0  0  0
   15.3447   -4.9599   10.7407 C   0  0  0  0  0  0
   16.4033   -4.2395   10.1954 C   0  0  0  0  0  0
   17.7041   -4.4524   10.6716 C   0  0  0  0  0  0
   17.9347   -5.3902   11.6851 C   0  0  0  0  0  0
   16.8744   -6.1135   12.2450 C   0  0  0  0  0  0
   17.0786   -7.0474   13.3765 C   0  0  0  0  0  0
   16.3986   -6.9491   14.5337 C   0  0  0  0  0  0
   16.4682   -7.9421   15.5809 C   0  0  0  0  0  0
   15.9109   -7.8170   16.6706 O   0  0  0  0  0  0
   17.1996   -9.1808   15.1744 C   0  0  0  0  0  0
   17.8861   -9.1845   13.9472 C   0  0  0  0  0  0
   17.8843   -8.1021   13.0810 O   0  0  0  0  0  0
   18.5459  -10.3240   13.5063 C   0  0  0  0  0  0
   18.4910  -11.4960   14.2479 C   0  0  0  0  0  0
   17.8135  -11.5221   15.4720 C   0  0  0  0  0  0
   17.1886  -10.3588   15.9468 C   0  0  0  0  0  0
   16.5402  -10.3951   17.1591 O   0  0  0  0  0  0
   17.7966  -12.6862   16.2069 O   0  0  0  0  0  0
   19.1310  -12.6107   13.7755 O   0  0  0  0  0  0
   18.7450   -3.7151   10.1679 O   0  0  0  0  0  0
   16.1465   -3.3155    9.2108 O   0  0  0  0  0  0
   14.7393   -6.4154   12.1774 H   0  0  0  0  0  0
   14.3330   -4.7967   10.3951 H   0  0  0  0  0  0
   18.9378   -5.5348   12.0585 H   0  0  0  0  0  0
   15.7454   -6.1152   14.6738 H   0  0  0  0  0  0
   19.0884  -10.2904   12.5807 H   0  0  0  0  0  0
   16.1452   -9.5370   17.3558 H   0  0  0  0  0  0
   18.2464  -13.4005   15.7446 H   0  0  0  0  0  0
   19.5343  -12.4689   12.9165 H   0  0  0  0  0  0
   18.3973   -3.0673    9.5475 H   0  0  0  0  0  0
   15.2078   -3.2521    8.9995 H   0  0  0  0  0  0
  1  6  1  0  0  0
  1  2  2  0  0  0
  1 23  1  0  0  0
  2  3  1  0  0  0
  2 24  1  0  0  0
  3  4  2  0  0  0
  3 22  1  0  0  0
  4  5  1  0  0  0
  4 21  1  0  0  0
  5  6  2  0  0  0
  5 25  1  0  0  0
  6  7  1  0  0  0
  7 13  1  0  0  0
  7  8  2  0  0  0
  8  9  1  0  0  0
  8 26  1  0  0  0
  9 10  2  0  0  0
  9 11  1  0  0  0
 11 17  2  0  0  0
 11 12  1  0  0  0
 12 13  1  0  0  0
 12 14  2  0  0  0
 14 15  1  0  0  0
 14 27  1  0  0  0
 15 16  2  0  0  0
 15 20  1  0  0  0
 16 17  1  0  0  0
 16 19  1  0  0  0
 17 18  1  0  0  0
 18 28  1  0  0  0
 19 29  1  0  0  0
 20 30  1  0  0  0
 21 31  1  0  0  0
 22 32  1  0  0  0
M  END
> <s_m_entry_id>
7120

> <s_m_entry_name>
ligand_docking-pose.262

> <s_m_Source_Path>
/home/csk/Desktop/cluster/DUD-E-result/aldr

> <s_m_Source_File>
ligand_docking-pose.sdf

> <i_m_Source_File_Index>
262

> <i_lp_mmshare_version>
53161

> <r_lp_tautomer_probability>
0.999999999999776

> <s_lp_Force_Field>
OPLS_2005

> <r_lp_Energy>
13.841224

> <b_lp_Chiralities_Consistent>
1

> <s_lp_Variant>
463460-1

> <s_i_glide_gridfile>
glide-grid_2hv5

> <i_i_glide_lignum>
335

> <i_i_glide_rotatable_bonds>
6

> <r_i_docking_score>
-8.4775974844539

> <r_i_glide_ligand_efficiency>
-0.38534534020245

> <r_i_glide_ligand_efficiency_sa>
-1.07975279801952

> <r_i_glide_ligand_efficiency_ln>
-2.07223405308216

> <r_i_glide_gscore>
-8.4775974844539

> <r_i_glide_lipo>
-3.85584236866286

> <r_i_glide_hbond>
0

> <r_i_glide_metal>
0

> <r_i_glide_rewards>
-2.24839295454545

> <r_i_glide_evdw>
-37.1096000671387

> <r_i_glide_ecoul>
-4.79608106613159

> <r_i_glide_erotb>
0.20153000203109

> <r_i_glide_esite>
0

> <r_i_glide_emodel>
-57.1448637443658

> <r_i_glide_energy>
-41.9056811332703

> <r_i_glide_einternal>
5.61747550964355

> <i_i_glide_confnum>
3

> <i_i_glide_posenum>
95

> <r_i_glide_eff_state_penalty>
0

> <i_f3d_flags>
0

> <s_user_duplicate_titles>
463460

> <s_m_subgroup_title>
dock_pv

> <s_m_subgroupid>
dock_pv1

> <b_m_subgroup_collapsed>
0

$$$$
219671
                    3D
 Schrodinger Suite 2021-1.
 41 44  0  0  1  0            999 V2000
   16.4063   -2.5339    9.4457 C   0  0  0  0  0  0
   15.6187   -3.5562   10.0452 O   0  0  0  0  0  0
   16.2370   -4.5371   10.7932 C   0  0  0  0  0  0
   17.6202   -4.6123   11.0070 C   0  0  0  0  0  0
   18.1470   -5.6430   11.7806 C   0  0  0  0  0  0
   17.3328   -6.6317   12.3160 C   0  0  0  0  0  0
   15.9587   -6.5156   12.1499 C   0  0  0  0  0  0
   15.4088   -5.4915   11.3823 C   0  0  0  0  0  0
   17.9475   -7.8503   13.0377 C   0  0  0  0  0  0
   17.5108   -8.0764   14.4508 N   0  0  0  0  0  0
   17.8021   -7.0420   15.3018 C   0  0  0  0  0  0
   18.5446   -6.1151   14.9805 O   0  0  0  0  0  0
   17.0814   -7.1425   16.5526 C   0  0  0  0  0  0
   16.9233   -6.2243   17.5870 C   0  0  0  0  0  0
   16.1620   -6.8105   18.5906 C   0  0  0  0  0  0
   15.9490   -8.1149   18.2006 C   0  0  0  0  0  0
   16.5415   -8.3416   16.9749 N   0  0  0  0  0  0
   16.6448   -9.6078   16.2218 C   0  0  1  0  0  0
   17.3451   -9.3889   14.8317 C   0  0  0  0  0  0
   17.7348  -10.3462   14.1545 O   0  0  0  0  0  0
   17.3336  -10.7059   17.0228 C   0  0  0  0  0  0
   16.2457  -11.6942   17.3804 C   0  0  0  0  0  0
   16.3834  -12.6516   18.1360 O   0  0  0  0  0  0
   15.1256  -11.3078   16.7495 N   0  0  0  0  0  0
   15.2328  -10.1745   16.0299 C   0  0  0  0  0  0
   14.3320   -9.6568   15.3812 O   0  0  0  0  0  0
   15.7459   -1.8043    8.9804 H   0  0  0  0  0  0
   17.0606   -2.9395    8.6722 H   0  0  0  0  0  0
   17.0080   -1.9963   10.1796 H   0  0  0  0  0  0
   18.2957   -3.8836   10.5884 H   0  0  0  0  0  0
   19.2105   -5.6982   11.9399 H   0  0  0  0  0  0
   15.3449   -7.2819   12.5802 H   0  0  0  0  0  0
   14.3391   -5.4354   11.2404 H   0  0  0  0  0  0
   17.7040   -8.7100   12.4142 H   0  0  0  0  0  0
   19.0371   -7.7823   13.0113 H   0  0  0  0  0  0
   17.3051   -5.2129   17.5929 H   0  0  0  0  0  0
   15.8515   -6.3519   19.5175 H   0  0  0  0  0  0
   15.4512   -8.9216   18.7186 H   0  0  0  0  0  0
   18.1362  -11.2349   16.5047 H   0  0  0  0  0  0
   17.7447  -10.3240   17.9455 H   0  0  0  0  0  0
   14.2645  -11.8293   16.8114 H   0  0  0  0  0  0
  1  2  1  0  0  0
  1 27  1  0  0  0
  1 28  1  0  0  0
  1 29  1  0  0  0
  2  3  1  0  0  0
  3  8  1  0  0  0
  3  4  2  0  0  0
  4  5  1  0  0  0
  4 30  1  0  0  0
  5  6  2  0  0  0
  5 31  1  0  0  0
  6  7  1  0  0  0
  6  9  1  0  0  0
  7  8  2  0  0  0
  7 32  1  0  0  0
  8 33  1  0  0  0
  9 10  1  0  0  0
  9 34  1  0  0  0
  9 35  1  0  0  0
 10 19  1  0  0  0
 10 11  1  0  0  0
 11 12  2  0  0  0
 11 13  1  0  0  0
 13 17  1  0  0  0
 13 14  2  0  0  0
 14 15  1  0  0  0
 14 36  1  0  0  0
 15 16  2  0  0  0
 15 37  1  0  0  0
 16 17  1  0  0  0
 16 38  1  0  0  0
 17 18  1  0  0  0
 18 25  1  0  0  0
 18 19  1  0  0  0
 18 21  1  0  0  0
 19 20  2  0  0  0
 21 22  1  0  0  0
 21 39  1  0  0  0
 21 40  1  0  0  0
 22 23  2  0  0  0
 22 24  1  0  0  0
 24 25  1  0  0  0
 24 41  1  0  0  0
 25 26  2  0  0  0
M  END
> <s_m_entry_id>
7121

> <s_m_entry_name>
ligand_docking-pose.263

> <s_m_Source_Path>
/home/csk/Desktop/cluster/DUD-E-result/aldr

> <s_m_Source_File>
ligand_docking-pose.sdf

> <i_m_Source_File_Index>
263

> <i_lp_mmshare_version>
53161

> <r_lp_tautomer_probability>
0.99995

> <s_lp_Force_Field>
OPLS_2005

> <r_lp_Energy>
36.179147

> <b_lp_Chiralities_Consistent>
1

> <s_lp_Variant>
219671-1

> <s_i_glide_gridfile>
glide-grid_2hv5

> <i_i_glide_lignum>
767

> <i_i_glide_rotatable_bonds>
3

> <r_i_docking_score>
-8.47647440332142

> <r_i_glide_ligand_efficiency>
-0.326018246281593

> <r_i_glide_ligand_efficiency_sa>
-0.965827771789366

> <r_i_glide_ligand_efficiency_ln>
-1.99067220003894

> <r_i_glide_gscore>
-8.47647440332142

> <r_i_glide_lipo>
-3.67132016778462

> <r_i_glide_hbond>
-0.22677127860997

> <r_i_glide_metal>
0

> <r_i_glide_rewards>
-3.30736187615417

> <r_i_glide_evdw>
-39.3388175964355

> <r_i_glide_ecoul>
2.69645380973816

> <r_i_glide_erotb>
0.30591708399451

> <r_i_glide_esite>
-0.0144653564061206

> <r_i_glide_emodel>
-36.344941144885

> <r_i_glide_energy>
-36.6423637866974

> <r_i_glide_einternal>
8.71183490753174

> <i_i_glide_confnum>
2

> <i_i_glide_posenum>
7

> <r_i_glide_eff_state_penalty>
0

> <i_f3d_flags>
0

> <s_user_duplicate_titles>
219671

> <s_m_subgroup_title>
dock_pv

> <s_m_subgroupid>
dock_pv1

> <b_m_subgroup_collapsed>
0

$$$$
99654
                    3D
 Schrodinger Suite 2021-1.
 41 45  0  0  1  0            999 V2000
   17.0062   -2.9403    8.9909 C   0  0  0  0  0  0
   15.7475   -3.5370    8.9702 C   0  0  0  0  0  0
   15.3776   -4.5138    9.8663 C   0  0  0  0  0  0
   16.3690   -4.9915   10.7160 C   0  0  0  0  0  0
   17.6668   -4.4367   10.7525 C   0  0  0  0  0  0
   17.9886   -3.3726    9.8906 C   0  0  0  0  0  0
   18.5045   -5.0059   11.6717 N   0  0  0  0  0  0
   17.9000   -5.9522   12.3477 C   0  0  0  0  0  0
   16.2581   -6.2897   11.8326 S   0  0  0  0  0  0
   18.5666   -6.6210   13.5423 C   0  0  0  0  0  0
   17.8897   -7.8306   14.1134 N   0  0  0  0  0  0
   18.4264   -9.0487   13.7838 C   0  0  0  0  0  0
   19.3483   -9.1632   12.9812 O   0  0  0  0  0  0
   17.8513  -10.2571   14.4949 C   0  0  0  0  0  0
   18.3442  -11.5263   14.1465 C   0  0  0  0  0  0
   17.9277  -12.6572   14.8449 C   0  0  0  0  0  0
   17.0342  -12.5239   15.9004 C   0  0  0  0  0  0
   16.5335  -11.2712   16.2365 C   0  0  0  0  0  0
   16.9064  -10.1215   15.5217 C   0  0  0  0  0  0
   16.3650   -8.7202   15.8416 C   0  0  1  0  0  0
   16.7610   -7.5847   14.8508 C   0  0  0  0  0  0
   16.1493   -6.5151   14.8496 O   0  0  0  0  0  0
   14.8672   -8.6940   16.1292 C   0  0  0  0  0  0
   14.7602   -7.8611   17.3817 C   0  0  0  0  0  0
   13.7448   -7.3305   17.7805 O   0  0  0  0  0  0
   15.9740   -7.7534   17.9285 N   0  0  0  0  0  0
   16.9571   -8.2124   17.1455 C   0  0  0  0  0  0
   18.1447   -8.1158   17.3668 O   0  0  0  0  0  0
   16.6460  -13.6179   16.5967 F   0  0  0  0  0  0
   17.2216   -2.1538    8.2889 H   0  0  0  0  0  0
   15.0449   -3.3092    8.1880 H   0  0  0  0  0  0
   14.3781   -4.9160    9.8554 H   0  0  0  0  0  0
   18.9661   -2.9192    9.9047 H   0  0  0  0  0  0
   19.6117   -6.8309   13.2961 H   0  0  0  0  0  0
   18.6485   -5.8782   14.3393 H   0  0  0  0  0  0
   19.0689  -11.6518   13.3505 H   0  0  0  0  0  0
   18.3118  -13.6319   14.5814 H   0  0  0  0  0  0
   15.8426  -11.1979   17.0626 H   0  0  0  0  0  0
   14.2604   -8.2045   15.3793 H   0  0  0  0  0  0
   14.4086   -9.6667   16.2926 H   0  0  0  0  0  0
   16.1429   -7.2907   18.8083 H   0  0  0  0  0  0
  1  6  1  0  0  0
  1  2  2  0  0  0
  1 30  1  0  0  0
  2  3  1  0  0  0
  2 31  1  0  0  0
  3  4  2  0  0  0
  3 32  1  0  0  0
  4  9  1  0  0  0
  4  5  1  0  0  0
  5  6  2  0  0  0
  5  7  1  0  0  0
  6 33  1  0  0  0
  7  8  2  0  0  0
  8  9  1  0  0  0
  8 10  1  0  0  0
 10 11  1  0  0  0
 10 34  1  0  0  0
 10 35  1  0  0  0
 11 21  1  0  0  0
 11 12  1  0  0  0
 12 13  2  0  0  0
 12 14  1  0  0  0
 14 19  2  0  0  0
 14 15  1  0  0  0
 15 16  2  0  0  0
 15 36  1  0  0  0
 16 17  1  0  0  0
 16 37  1  0  0  0
 17 18  2  0  0  0
 17 29  1  0  0  0
 18 19  1  0  0  0
 18 38  1  0  0  0
 19 20  1  0  0  0
 20 27  1  0  0  0
 20 21  1  0  0  0
 20 23  1  0  0  0
 21 22  2  0  0  0
 23 24  1  0  0  0
 23 39  1  0  0  0
 23 40  1  0  0  0
 24 25  2  0  0  0
 24 26  1  0  0  0
 26 27  1  0  0  0
 26 41  1  0  0  0
 27 28  2  0  0  0
M  END
> <s_m_entry_id>
7125

> <s_m_entry_name>
ligand_docking-pose.267

> <s_m_Source_Path>
/home/csk/Desktop/cluster/DUD-E-result/aldr

> <s_m_Source_File>
ligand_docking-pose.sdf

> <i_m_Source_File_Index>
267

> <i_lp_mmshare_version>
53161

> <r_lp_tautomer_probability>
0.99999999995914

> <s_lp_Force_Field>
OPLS_2005

> <r_lp_Energy>
30.51794

> <b_lp_Chiralities_Consistent>
1

> <s_lp_Variant>
99654-1

> <s_i_glide_gridfile>
glide-grid_2hv5

> <i_i_glide_lignum>
275

> <i_i_glide_rotatable_bonds>
2

> <r_i_docking_score>
-8.44000036024862

> <r_i_glide_ligand_efficiency>
-0.291034495180987

> <r_i_glide_ligand_efficiency_sa>
-0.89415017539591

> <r_i_glide_ligand_efficiency_ln>
-1.93254606255394

> <r_i_glide_gscore>
-8.44000036024862

> <r_i_glide_lipo>
-3.82190216230157

> <r_i_glide_hbond>
-0.00186113252408307

> <r_i_glide_metal>
0

> <r_i_glide_rewards>
-3.317786025

> <r_i_glide_evdw>
-30.3521347045898

> <r_i_glide_ecoul>
-0.105404794216156

> <r_i_glide_erotb>
0.234966413938945

> <r_i_glide_esite>
0

> <r_i_glide_emodel>
-48.8556929090883

> <r_i_glide_energy>
-30.457539498806

> <r_i_glide_einternal>
3.97240686416626

> <i_i_glide_confnum>
1

> <i_i_glide_posenum>
17

> <r_i_glide_eff_state_penalty>
0

> <i_f3d_flags>
0

> <s_user_duplicate_titles>
99654

> <s_m_subgroup_title>
dock_pv

> <s_m_subgroupid>
dock_pv1

> <b_m_subgroup_collapsed>
0

$$$$
468603
                    3D
 Schrodinger Suite 2021-1.
 42 45  0  0  1  0            999 V2000
   16.8605   -2.9169    9.2371 C   0  0  0  0  0  0
   18.1440   -3.1424    9.7138 C   0  0  0  0  0  0
   18.3731   -4.1686   10.6241 C   0  0  0  0  0  0
   17.3271   -4.9151   11.1405 C   0  0  0  0  0  0
   16.0267   -4.6508   10.7090 C   0  0  0  0  0  0
   15.8110   -3.6883    9.7199 C   0  0  0  0  0  0
   14.8969   -5.3150   11.3811 C   0  0  0  0  0  0
   13.7450   -5.2293   10.9812 O   0  0  0  0  0  0
   15.2876   -5.9524   12.6143 C   0  0  0  0  0  0
   16.5615   -6.2373   12.9266 C   0  0  0  0  0  0
   17.6037   -5.8460   12.1359 O   0  0  0  0  0  0
   16.9658   -6.9150   14.1853 C   0  0  0  0  0  0
   17.7998   -8.0290   14.1004 C   0  0  0  0  0  0
   18.1450   -8.7346   15.2472 C   0  0  0  0  0  0
   17.7448   -8.2774   16.5029 C   0  0  0  0  0  0
   16.9423   -7.1395   16.6363 C   0  0  0  0  0  0
   16.4959   -6.5285   15.4595 C   0  0  0  0  0  0
   16.6496   -6.6540   18.0166 C   0  0  0  0  0  0
   16.3508   -5.4200   18.5248 C   0  0  0  0  0  0
   16.1635   -5.2563   19.9498 C   0  0  0  0  0  0
   16.1450   -6.1851   20.7493 O   0  0  0  0  0  0
   15.9960   -3.9513   20.3114 N   0  0  0  0  0  0
   15.7755   -3.0514   19.3384 C   0  0  0  0  0  0
   15.3451   -1.9032   19.4316 O   0  0  0  0  0  0
   16.1450   -3.8348   17.7811 S   0  0  0  0  0  0
   15.8515   -3.4745   21.7278 C   0  0  0  0  0  0
   16.8137   -4.1148   22.7536 C   0  0  0  0  0  0
   16.4516   -4.5146   23.8375 O   0  0  0  0  0  0
   18.0987   -4.1151   22.3009 O   0  0  0  0  0  0
   16.6708   -2.1320    8.5196 H   0  0  0  0  0  0
   18.9458   -2.5099    9.3810 H   0  0  0  0  0  0
   19.3450   -4.3762   10.9810 H   0  0  0  0  0  0
   14.8186   -3.4802    9.3808 H   0  0  0  0  0  0
   14.5347   -6.1150   13.3469 H   0  0  0  0  0  0
   18.1538   -8.3723   13.1380 H   0  0  0  0  0  0
   18.7655   -9.6132   15.1607 H   0  0  0  0  0  0
   18.0849   -8.8089   17.3801 H   0  0  0  0  0  0
   15.8057   -5.7150   15.5535 H   0  0  0  0  0  0
   16.6976   -7.4673   18.7317 H   0  0  0  0  0  0
   14.8300   -3.6360   22.0688 H   0  0  0  0  0  0
   16.0059   -2.3954   21.7978 H   0  0  0  0  0  0
   18.1810   -3.7181   21.4322 H   0  0  0  0  0  0
  1  6  1  0  0  0
  1  2  2  0  0  0
  1 30  1  0  0  0
  2  3  1  0  0  0
  2 31  1  0  0  0
  3  4  2  0  0  0
  3 32  1  0  0  0
  4 11  1  0  0  0
  4  5  1  0  0  0
  5  6  2  0  0  0
  5  7  1  0  0  0
  6 33  1  0  0  0
  7  8  2  0  0  0
  7  9  1  0  0  0
  9 10  2  0  0  0
  9 34  1  0  0  0
 10 11  1  0  0  0
 10 12  1  0  0  0
 12 17  1  0  0  0
 12 13  2  0  0  0
 13 14  1  0  0  0
 13 35  1  0  0  0
 14 15  2  0  0  0
 14 36  1  0  0  0
 15 16  1  0  0  0
 15 37  1  0  0  0
 16 17  2  0  0  0
 16 18  1  0  0  0
 17 38  1  0  0  0
 18 19  2  0  0  0
 18 39  1  0  0  0
 19 25  1  0  0  0
 19 20  1  0  0  0
 20 21  2  0  0  0
 20 22  1  0  0  0
 22 23  1  0  0  0
 22 26  1  0  0  0
 23 24  2  0  0  0
 23 25  1  0  0  0
 26 27  1  0  0  0
 26 40  1  0  0  0
 26 41  1  0  0  0
 27 28  2  0  0  0
 27 29  1  0  0  0
 29 42  1  0  0  0
M  END
> <s_m_entry_id>
7126

> <s_m_entry_name>
ligand_docking-pose.268

> <s_m_Source_Path>
/home/csk/Desktop/cluster/DUD-E-result/aldr

> <s_m_Source_File>
ligand_docking-pose.sdf

> <i_m_Source_File_Index>
268

> <i_lp_mmshare_version>
53161

> <r_lp_tautomer_probability>
1

> <s_lp_Force_Field>
OPLS_2005

> <r_lp_Energy>
22.400418

> <b_lp_Chiralities_Consistent>
1

> <s_lp_Variant>
468603-1

> <s_i_glide_gridfile>
glide-grid_2hv5

> <i_i_glide_lignum>
249

> <i_i_glide_rotatable_bonds>
5

> <r_i_docking_score>
-8.43461293360062

> <r_i_glide_ligand_efficiency>
-0.290848721848297

> <r_i_glide_ligand_efficiency_sa>
-0.893579420860765

> <r_i_glide_ligand_efficiency_ln>
-1.93131247846491

> <r_i_glide_gscore>
-8.43461293360062

> <r_i_glide_lipo>
-4.48533028946198

> <r_i_glide_hbond>
-0.147945323866872

> <r_i_glide_metal>
0

> <r_i_glide_rewards>
-2.60071183839323

> <r_i_glide_evdw>
-37.6170654296875

> <r_i_glide_ecoul>
1.37425541877747

> <r_i_glide_erotb>
0.474089476789218

> <r_i_glide_esite>
0

> <r_i_glide_emodel>
-30.5282657449322

> <r_i_glide_energy>
-36.24281001091

> <r_i_glide_einternal>
13.7424907684326

> <i_i_glide_confnum>
10

> <i_i_glide_posenum>
93

> <r_i_glide_eff_state_penalty>
0

> <i_f3d_flags>
0

> <s_user_duplicate_titles>
468603

> <s_m_subgroup_title>
dock_pv

> <s_m_subgroupid>
dock_pv1

> <b_m_subgroup_collapsed>
0

$$$$
397120
                    3D
 Schrodinger Suite 2021-1.
 32 33  0  0  1  0            999 V2000
   19.1052   -2.8388   10.3530 C   0  0  0  0  0  0
   18.0762   -3.5226    9.6547 O   0  0  0  0  0  0
   17.2608   -4.3594   10.3879 C   0  0  0  0  0  0
   17.7775   -5.3541   11.2325 C   0  0  0  0  0  0
   16.9323   -6.2517   11.8978 C   0  0  0  0  0  0
   15.5527   -6.1147   11.7278 C   0  0  0  0  0  0
   15.0229   -5.1107   10.9225 C   0  0  0  0  0  0
   15.8738   -4.2452   10.2387 C   0  0  0  0  0  0
   15.3450   -3.2796    9.4232 O   0  0  0  0  0  0
   17.4898   -7.3643   12.7022 C   0  0  0  0  0  0
   17.1571   -7.7124   13.9684 C   0  0  0  0  0  0
   17.7451   -8.8569   14.6322 C   0  0  0  0  0  0
   18.5579   -9.6334   14.1263 O   0  0  0  0  0  0
   17.2675   -8.9768   15.9023 N   0  0  0  0  0  0
   16.3941   -8.0616   16.3681 C   0  0  0  0  0  0
   15.8824   -7.9780   17.4858 O   0  0  0  0  0  0
   16.0437   -6.9152   15.0604 S   0  0  0  0  0  0
   17.7423  -10.0201   16.8546 C   0  0  0  0  0  0
   17.3082  -11.4629   16.5324 C   0  0  0  0  0  0
   16.8745  -12.1955   17.3950 O   0  0  0  0  0  0
   17.5272  -11.8168   15.2339 O   0  0  0  0  0  0
   19.1702   -1.8141    9.9865 H   0  0  0  0  0  0
   18.9449   -2.7928   11.4279 H   0  0  0  0  0  0
   20.0650   -3.3150   10.1677 H   0  0  0  0  0  0
   18.8472   -5.4539   11.3366 H   0  0  0  0  0  0
   14.8810   -6.8192   12.1811 H   0  0  0  0  0  0
   13.9516   -5.0279   10.8084 H   0  0  0  0  0  0
   14.3767   -3.3148    9.3144 H   0  0  0  0  0  0
   18.2101   -7.9729   12.1812 H   0  0  0  0  0  0
   17.3473   -9.8244   17.8521 H   0  0  0  0  0  0
   18.8199   -9.9558   16.9777 H   0  0  0  0  0  0
   17.9296  -11.1055   14.7159 H   0  0  0  0  0  0
  1  2  1  0  0  0
  1 22  1  0  0  0
  1 23  1  0  0  0
  1 24  1  0  0  0
  2  3  1  0  0  0
  3  8  1  0  0  0
  3  4  2  0  0  0
  4  5  1  0  0  0
  4 25  1  0  0  0
  5  6  2  0  0  0
  5 10  1  0  0  0
  6  7  1  0  0  0
  6 26  1  0  0  0
  7  8  2  0  0  0
  7 27  1  0  0  0
  8  9  1  0  0  0
  9 28  1  0  0  0
 10 11  2  0  0  0
 10 29  1  0  0  0
 11 17  1  0  0  0
 11 12  1  0  0  0
 12 13  2  0  0  0
 12 14  1  0  0  0
 14 15  1  0  0  0
 14 18  1  0  0  0
 15 16  2  0  0  0
 15 17  1  0  0  0
 18 19  1  0  0  0
 18 30  1  0  0  0
 18 31  1  0  0  0
 19 20  2  0  0  0
 19 21  1  0  0  0
 21 32  1  0  0  0
M  END
> <s_m_entry_id>
7128

> <s_m_entry_name>
ligand_docking-pose.270

> <s_m_Source_Path>
/home/csk/Desktop/cluster/DUD-E-result/aldr

> <s_m_Source_File>
ligand_docking-pose.sdf

> <i_m_Source_File_Index>
270

> <i_lp_mmshare_version>
53161

> <r_lp_tautomer_probability>
1

> <s_lp_Force_Field>
OPLS_2005

> <r_lp_Energy>
15.756936

> <b_lp_Chiralities_Consistent>
1

> <s_lp_Variant>
397120-1

> <s_i_glide_gridfile>
glide-grid_2hv5

> <i_i_glide_lignum>
773

> <i_i_glide_rotatable_bonds>
6

> <r_i_docking_score>
-8.42085722165862

> <r_i_glide_ligand_efficiency>
-0.400993201031363

> <r_i_glide_ligand_efficiency_sa>
-1.10630983576715

> <r_i_glide_ligand_efficiency_ln>
-2.08203993211088

> <r_i_glide_gscore>
-8.42085722165862

> <r_i_glide_lipo>
-3.03334858246266

> <r_i_glide_hbond>
0

> <r_i_glide_metal>
0

> <r_i_glide_rewards>
-3.09683385051416

> <r_i_glide_evdw>
-36.0594024658203

> <r_i_glide_ecoul>
-7.12202787399292

> <r_i_glide_erotb>
0.580599515708156

> <r_i_glide_esite>
0

> <r_i_glide_emodel>
-58.6441697922744

> <r_i_glide_energy>
-43.1814303398132

> <r_i_glide_einternal>
5.36445045471191

> <i_i_glide_confnum>
14

> <i_i_glide_posenum>
352

> <r_i_glide_eff_state_penalty>
0

> <i_f3d_flags>
0

> <s_user_duplicate_titles>
397120

> <s_m_subgroup_title>
dock_pv

> <s_m_subgroupid>
dock_pv1

> <b_m_subgroup_collapsed>
0

$$$$
237625
                    3D
 Schrodinger Suite 2021-1.
 33 35  0  0  1  0            999 V2000
   16.9277   -2.5612    8.9866 C   0  0  0  0  0  0
   18.1450   -2.7048    9.6275 C   0  0  0  0  0  0
   18.3536   -3.7149   10.5587 C   0  0  0  0  0  0
   17.2807   -4.5429   10.9810 C   0  0  0  0  0  0
   16.0289   -4.3842   10.3153 C   0  0  0  0  0  0
   15.8856   -3.4159    9.2992 C   0  0  0  0  0  0
   14.9329   -5.1542   10.7204 C   0  0  0  0  0  0
   15.0489   -6.0326   11.7816 C   0  0  0  0  0  0
   16.2415   -6.1801   12.4913 C   0  0  0  0  0  0
   17.3688   -5.4522   12.0839 C   0  0  0  0  0  0
   18.9450   -5.5169   13.1553 Br  0  0  0  0  0  0
   16.1916   -6.9055   13.7836 C   0  0  0  0  0  0
   16.9210   -7.9630   14.2136 C   0  0  0  0  0  0
   16.7130   -8.5150   15.5346 C   0  0  0  0  0  0
   16.0610   -7.9852   16.4400 O   0  0  0  0  0  0
   17.3025   -9.7367   15.6210 N   0  0  0  0  0  0
   17.9359  -10.2235   14.5091 C   0  0  0  0  0  0
   18.4926  -11.7526   14.1329 S   0  0  0  0  0  0
   18.1450   -8.9150   13.3810 S   0  0  0  0  0  0
   17.2627  -10.5116   16.8916 C   0  0  0  0  0  0
   15.9877  -11.3571   17.1078 C   0  0  0  0  0  0
   15.8867  -12.1150   18.0476 O   0  0  0  0  0  0
   15.0117  -11.1493   16.1810 O   0  0  0  0  0  0
   16.7886   -1.7891    8.2442 H   0  0  0  0  0  0
   18.9450   -2.0268    9.3810 H   0  0  0  0  0  0
   19.3338   -3.8241   10.9810 H   0  0  0  0  0  0
   14.9450   -3.3150    8.7889 H   0  0  0  0  0  0
   13.9748   -5.0033   10.2423 H   0  0  0  0  0  0
   14.1450   -6.5150   12.1029 H   0  0  0  0  0  0
   15.4589   -6.4984   14.4646 H   0  0  0  0  0  0
   17.3283   -9.8226   17.7349 H   0  0  0  0  0  0
   18.1326  -11.1620   16.9810 H   0  0  0  0  0  0
   14.2429  -11.6839   16.3901 H   0  0  0  0  0  0
  1  6  1  0  0  0
  1  2  2  0  0  0
  1 24  1  0  0  0
  2  3  1  0  0  0
  2 25  1  0  0  0
  3  4  2  0  0  0
  3 26  1  0  0  0
  4 10  1  0  0  0
  4  5  1  0  0  0
  5  6  2  0  0  0
  5  7  1  0  0  0
  6 27  1  0  0  0
  7  8  2  0  0  0
  7 28  1  0  0  0
  8  9  1  0  0  0
  8 29  1  0  0  0
  9 10  2  0  0  0
  9 12  1  0  0  0
 10 11  1  0  0  0
 12 13  2  0  0  0
 12 30  1  0  0  0
 13 19  1  0  0  0
 13 14  1  0  0  0
 14 15  2  0  0  0
 14 16  1  0  0  0
 16 17  1  0  0  0
 16 20  1  0  0  0
 17 18  2  0  0  0
 17 19  1  0  0  0
 20 21  1  0  0  0
 20 31  1  0  0  0
 20 32  1  0  0  0
 21 22  2  0  0  0
 21 23  1  0  0  0
 23 33  1  0  0  0
M  END
> <s_m_entry_id>
7129

> <s_m_entry_name>
ligand_docking-pose.271

> <s_m_Source_Path>
/home/csk/Desktop/cluster/DUD-E-result/aldr

> <s_m_Source_File>
ligand_docking-pose.sdf

> <i_m_Source_File_Index>
271

> <i_lp_mmshare_version>
53161

> <r_lp_tautomer_probability>
1

> <s_lp_Force_Field>
OPLS_2005

> <r_lp_Energy>
19.216409

> <b_lp_Chiralities_Consistent>
1

> <s_lp_Variant>
237625-1

> <s_i_glide_gridfile>
glide-grid_2hv5

> <i_i_glide_lignum>
140

> <i_i_glide_rotatable_bonds>
4

> <r_i_docking_score>
-8.41406758310203

> <r_i_glide_ligand_efficiency>
-0.365829025352262

> <r_i_glide_ligand_efficiency_sa>
-1.04036908438322

> <r_i_glide_ligand_efficiency_ln>
-2.03459783614075

> <r_i_glide_gscore>
-8.41406758310203

> <r_i_glide_lipo>
-3.92541613075509

> <r_i_glide_hbond>
-0.203672477610463

> <r_i_glide_metal>
0

> <r_i_glide_rewards>
-2.62363411927007

> <r_i_glide_evdw>
-38.785774230957

> <r_i_glide_ecoul>
-0.508132874965668

> <r_i_glide_erotb>
0.354163787326294

> <r_i_glide_esite>
0

> <r_i_glide_emodel>
-41.3710574164291

> <r_i_glide_energy>
-39.2939071059227

> <r_i_glide_einternal>
2.97515273094177

> <i_i_glide_confnum>
15

> <i_i_glide_posenum>
349

> <r_i_glide_eff_state_penalty>
0

> <i_f3d_flags>
0

> <s_user_duplicate_titles>
237625

> <s_m_subgroup_title>
dock_pv

> <s_m_subgroupid>
dock_pv1

> <b_m_subgroup_collapsed>
0

$$$$
99586
                    3D
 Schrodinger Suite 2021-1.
 39 42  0  0  1  0            999 V2000
   18.6757  -12.5594   13.7179 C   0  0  0  0  0  0
   17.6543  -12.8586   14.6109 C   0  0  0  0  0  0
   16.9329  -11.8297   15.2098 C   0  0  0  0  0  0
   17.1978  -10.4756   14.9236 C   0  0  0  0  0  0
   18.2357  -10.1953   14.0281 C   0  0  0  0  0  0
   18.9750  -11.2312   13.4361 C   0  0  0  0  0  0
   18.6977   -8.7794   13.7947 C   0  0  0  0  0  0
   19.8345   -8.5459   13.3811 O   0  0  0  0  0  0
   17.8038   -7.7961   14.1492 N   0  0  0  0  0  0
   16.6510   -7.8908   14.8953 C   0  0  0  0  0  0
   15.8907   -6.9421   15.1404 O   0  0  0  0  0  0
   16.4361   -9.2847   15.5514 C   0  0  1  0  0  0
   14.9599   -9.6185   15.7955 C   0  0  0  0  0  0
   14.9714  -10.1168   17.2305 C   0  0  0  0  0  0
   14.1463  -10.8334   17.7776 O   0  0  0  0  0  0
   16.0941   -9.6559   17.7872 N   0  0  0  0  0  0
   16.9630   -9.0715   16.9622 C   0  0  0  0  0  0
   17.9911   -8.4740   17.2792 O   0  0  0  0  0  0
   18.1461   -6.4275   13.6966 C   0  0  0  0  0  0
   17.4328   -5.9343   12.4439 C   0  0  0  0  0  0
   18.1438   -5.1154   11.5713 C   0  0  0  0  0  0
   17.5140   -4.5463   10.4763 C   0  0  0  0  0  0
   16.1693   -4.8200   10.2681 C   0  0  0  0  0  0
   15.4522   -5.6641   11.0969 C   0  0  0  0  0  0
   16.0913   -6.2330   12.1785 C   0  0  0  0  0  0
   15.3563   -4.1058    8.9686 Cl  0  0  0  0  0  0
   19.2427  -13.3535   13.2540 H   0  0  0  0  0  0
   17.4202  -13.8860   14.8422 H   0  0  0  0  0  0
   16.1499  -12.1123   15.8951 H   0  0  0  0  0  0
   19.7904  -11.0178   12.7596 H   0  0  0  0  0  0
   14.2812   -8.7645   15.7463 H   0  0  0  0  0  0
   14.5609  -10.3751   15.1212 H   0  0  0  0  0  0
   16.2803   -9.7370   18.7776 H   0  0  0  0  0  0
   19.2172   -6.3209   13.5305 H   0  0  0  0  0  0
   17.9612   -5.7150   14.4995 H   0  0  0  0  0  0
   19.1860   -4.9150   11.7526 H   0  0  0  0  0  0
   18.0552   -3.8953    9.8057 H   0  0  0  0  0  0
   14.4060   -5.8655   10.9158 H   0  0  0  0  0  0
   15.4954   -6.8756   12.7960 H   0  0  0  0  0  0
  1  6  1  0  0  0
  1  2  2  0  0  0
  1 27  1  0  0  0
  2  3  1  0  0  0
  2 28  1  0  0  0
  3  4  2  0  0  0
  3 29  1  0  0  0
  4 12  1  0  0  0
  4  5  1  0  0  0
  5  6  2  0  0  0
  5  7  1  0  0  0
  6 30  1  0  0  0
  7  8  2  0  0  0
  7  9  1  0  0  0
  9 10  1  0  0  0
  9 19  1  0  0  0
 10 11  2  0  0  0
 10 12  1  0  0  0
 12 17  1  0  0  0
 12 13  1  0  0  0
 13 14  1  0  0  0
 13 31  1  0  0  0
 13 32  1  0  0  0
 14 15  2  0  0  0
 14 16  1  0  0  0
 16 17  1  0  0  0
 16 33  1  0  0  0
 17 18  2  0  0  0
 19 20  1  0  0  0
 19 34  1  0  0  0
 19 35  1  0  0  0
 20 25  1  0  0  0
 20 21  2  0  0  0
 21 22  1  0  0  0
 21 36  1  0  0  0
 22 23  2  0  0  0
 22 37  1  0  0  0
 23 24  1  0  0  0
 23 26  1  0  0  0
 24 25  2  0  0  0
 24 38  1  0  0  0
 25 39  1  0  0  0
M  END
> <s_m_entry_id>
7131

> <s_m_entry_name>
ligand_docking-pose.273

> <s_m_Source_Path>
/home/csk/Desktop/cluster/DUD-E-result/aldr

> <s_m_Source_File>
ligand_docking-pose.sdf

> <i_m_Source_File_Index>
273

> <i_lp_mmshare_version>
53161

> <r_lp_tautomer_probability>
0.99999999995914

> <s_lp_Force_Field>
OPLS_2005

> <r_lp_Energy>
33.062233

> <b_lp_Chiralities_Consistent>
1

> <s_lp_Variant>
99586-1

> <s_i_glide_gridfile>
glide-grid_2hv5

> <i_i_glide_lignum>
256

> <i_i_glide_rotatable_bonds>
2

> <r_i_docking_score>
-8.40387427424276

> <r_i_glide_ligand_efficiency>
-0.323225933624722

> <r_i_glide_ligand_efficiency_sa>
-0.957555556530604

> <r_i_glide_ligand_efficiency_ln>
-1.97362229794527

> <r_i_glide_gscore>
-8.40387427424276

> <r_i_glide_lipo>
-3.58731144369699

> <r_i_glide_hbond>
0

> <r_i_glide_metal>
0

> <r_i_glide_rewards>
-3.59287720963118

> <r_i_glide_evdw>
-32.9710960388184

> <r_i_glide_ecoul>
0.942778170108795

> <r_i_glide_erotb>
0.283452455510005

> <r_i_glide_esite>
0

> <r_i_glide_emodel>
-34.1692714975629

> <r_i_glide_energy>
-32.0283178687096

> <r_i_glide_einternal>
1.20079600811005

> <i_i_glide_confnum>
5

> <i_i_glide_posenum>
8

> <r_i_glide_eff_state_penalty>
0

> <i_f3d_flags>
0

> <s_user_duplicate_titles>
99586

> <s_m_subgroup_title>
dock_pv

> <s_m_subgroupid>
dock_pv1

> <b_m_subgroup_collapsed>
0

$$$$
397125
                    3D
 Schrodinger Suite 2021-1.
 34 35  0  0  1  0            999 V2000
   18.4452   -9.7789   14.4128 C   0  0  0  0  0  0
   18.6488   -8.7425   13.5090 C   0  0  0  0  0  0
   18.0187   -7.5125   13.6994 C   0  0  0  0  0  0
   17.2049   -7.3233   14.8201 C   0  0  0  0  0  0
   17.0119   -8.3441   15.7502 C   0  0  0  0  0  0
   17.6462   -9.5796   15.5373 C   0  0  0  0  0  0
   16.1882   -8.0506   16.8222 O   0  0  0  0  0  0
   15.9100   -9.0323   17.8283 C   0  0  0  0  0  0
   14.9331  -10.1123   17.3325 C   0  0  0  0  0  0
   14.5450  -10.2148   16.1720 O   0  0  0  0  0  0
   14.5450  -10.9390   18.3433 O   0  0  0  0  0  0
   18.1933   -6.4665   12.6886 C   0  0  0  0  0  0
   17.1868   -5.8605   12.0263 C   0  0  0  0  0  0
   17.4426   -4.9110   10.9781 C   0  0  0  0  0  0
   18.5450   -4.5150   10.6182 O   0  0  0  0  0  0
   16.2877   -4.5215   10.3974 N   0  0  0  0  0  0
   15.1205   -4.9481   10.8959 C   0  0  0  0  0  0
   13.9900   -4.6040   10.5810 O   0  0  0  0  0  0
   15.4573   -6.1150   12.1810 S   0  0  0  0  0  0
   16.3066   -3.6645    9.1953 C   0  0  0  0  0  0
   16.5419   -2.2151    9.5978 C   0  0  0  0  0  0
   17.6391   -1.7376    9.7810 O   0  0  0  0  0  0
   15.3450   -1.6018    9.7810 O   0  0  0  0  0  0
   18.9180  -10.7354   14.2449 H   0  0  0  0  0  0
   19.2749   -8.9150   12.6448 H   0  0  0  0  0  0
   16.7052   -6.3785   14.9710 H   0  0  0  0  0  0
   17.5206  -10.4021   16.2231 H   0  0  0  0  0  0
   16.8353   -9.4837   18.1810 H   0  0  0  0  0  0
   15.4640   -8.5150   18.6773 H   0  0  0  0  0  0
   13.9040  -11.5826   18.0283 H   0  0  0  0  0  0
   19.2196   -6.1893   12.4906 H   0  0  0  0  0  0
   15.4125   -3.7712    8.5778 H   0  0  0  0  0  0
   17.1476   -3.9688    8.5810 H   0  0  0  0  0  0
   14.5994   -2.1806    9.5803 H   0  0  0  0  0  0
  1  6  1  0  0  0
  1  2  2  0  0  0
  1 24  1  0  0  0
  2  3  1  0  0  0
  2 25  1  0  0  0
  3  4  2  0  0  0
  3 12  1  0  0  0
  4  5  1  0  0  0
  4 26  1  0  0  0
  5  6  2  0  0  0
  5  7  1  0  0  0
  6 27  1  0  0  0
  7  8  1  0  0  0
  8  9  1  0  0  0
  8 28  1  0  0  0
  8 29  1  0  0  0
  9 10  2  0  0  0
  9 11  1  0  0  0
 11 30  1  0  0  0
 12 13  2  0  0  0
 12 31  1  0  0  0
 13 19  1  0  0  0
 13 14  1  0  0  0
 14 15  2  0  0  0
 14 16  1  0  0  0
 16 17  1  0  0  0
 16 20  1  0  0  0
 17 18  2  0  0  0
 17 19  1  0  0  0
 20 21  1  0  0  0
 20 32  1  0  0  0
 20 33  1  0  0  0
 21 22  2  0  0  0
 21 23  1  0  0  0
 23 34  1  0  0  0
M  END
> <s_m_entry_id>
7132

> <s_m_entry_name>
ligand_docking-pose.274

> <s_m_Source_Path>
/home/csk/Desktop/cluster/DUD-E-result/aldr

> <s_m_Source_File>
ligand_docking-pose.sdf

> <i_m_Source_File_Index>
274

> <i_lp_mmshare_version>
53161

> <r_lp_tautomer_probability>
1

> <s_lp_Force_Field>
OPLS_2005

> <r_lp_Energy>
17.414327

> <b_lp_Chiralities_Consistent>
1

> <s_lp_Variant>
397125-1

> <s_i_glide_gridfile>
glide-grid_2hv5

> <i_i_glide_lignum>
445

> <i_i_glide_rotatable_bonds>
8

> <r_i_docking_score>
-8.39988259282766

> <r_i_glide_ligand_efficiency>
-0.365212286644681

> <r_i_glide_ligand_efficiency_sa>
-1.03861516153937

> <r_i_glide_ligand_efficiency_ln>
-2.03116777687003

> <r_i_glide_gscore>
-8.39988259282766

> <r_i_glide_lipo>
-2.76266439212872

> <r_i_glide_hbond>
0

> <r_i_glide_metal>
0

> <r_i_glide_rewards>
-3.66393377955047

> <r_i_glide_evdw>
-40.80078125

> <r_i_glide_ecoul>
-6.19878196716309

> <r_i_glide_erotb>
0.99657193642599

> <r_i_glide_esite>
0

> <r_i_glide_emodel>
-62.8329359113504

> <r_i_glide_energy>
-46.9995632171631

> <r_i_glide_einternal>
12.0120658874512

> <i_i_glide_confnum>
35

> <i_i_glide_posenum>
118

> <r_i_glide_eff_state_penalty>
0

> <i_f3d_flags>
0

> <s_user_duplicate_titles>
397125

> <s_m_subgroup_title>
dock_pv

> <s_m_subgroupid>
dock_pv1

> <b_m_subgroup_collapsed>
0

$$$$
489537
                    3D
 Schrodinger Suite 2021-1.
 35 37  0  0  1  0            999 V2000
   20.0294  -12.4544   12.6557 C   0  0  0  0  0  0
   19.2085  -12.4828   13.8181 O   0  0  0  0  0  0
   18.5136  -11.3431   14.1846 C   0  0  0  0  0  0
   18.5589  -10.1427   13.4687 C   0  0  0  0  0  0
   17.8150   -9.0470   13.8810 C   0  0  0  0  0  0
   17.0327   -9.0947   15.0473 C   0  0  0  0  0  0
   16.1875   -7.9093   15.3935 C   0  0  0  0  0  0
   15.5246   -7.8317   16.4278 O   0  0  0  0  0  0
   16.1453   -6.9150   14.3430 C   0  0  0  0  0  0
   16.9472   -6.9549   13.2634 C   0  0  0  0  0  0
   17.8408   -7.9499   13.0371 O   0  0  0  0  0  0
   16.8366   -6.0085   12.1348 C   0  0  0  0  0  0
   15.5800   -5.7138   11.5872 C   0  0  0  0  0  0
   15.4476   -4.7597   10.5804 C   0  0  0  0  0  0
   16.5706   -4.0880   10.1022 C   0  0  0  0  0  0
   17.8350   -4.3844   10.6276 C   0  0  0  0  0  0
   17.9618   -5.3418   11.6371 C   0  0  0  0  0  0
   18.9431   -3.7125   10.1782 O   0  0  0  0  0  0
   16.4136   -3.1257    9.1363 O   0  0  0  0  0  0
   17.0307  -10.2801   15.8036 C   0  0  0  0  0  0
   17.7468  -11.4013   15.3573 C   0  0  0  0  0  0
   17.7319  -12.5749   16.0747 O   0  0  0  0  0  0
   16.3016  -10.3680   16.9672 O   0  0  0  0  0  0
   20.4933  -13.4315   12.5186 H   0  0  0  0  0  0
   19.4488  -12.2374   11.7586 H   0  0  0  0  0  0
   20.8301  -11.7211   12.7508 H   0  0  0  0  0  0
   19.1567  -10.0415   12.5811 H   0  0  0  0  0  0
   15.4346   -6.1154   14.4127 H   0  0  0  0  0  0
   14.6916   -6.2033   11.9603 H   0  0  0  0  0  0
   14.4658   -4.5315   10.1896 H   0  0  0  0  0  0
   18.9362   -5.5528   12.0535 H   0  0  0  0  0  0
   18.6581   -3.0380    9.5532 H   0  0  0  0  0  0
   15.4864   -2.9804    8.9218 H   0  0  0  0  0  0
   18.2429  -13.2562   15.6287 H   0  0  0  0  0  0
   15.8339   -9.5423   17.1401 H   0  0  0  0  0  0
  1  2  1  0  0  0
  1 24  1  0  0  0
  1 25  1  0  0  0
  1 26  1  0  0  0
  2  3  1  0  0  0
  3 21  1  0  0  0
  3  4  2  0  0  0
  4  5  1  0  0  0
  4 27  1  0  0  0
  5 11  1  0  0  0
  5  6  2  0  0  0
  6  7  1  0  0  0
  6 20  1  0  0  0
  7  8  2  0  0  0
  7  9  1  0  0  0
  9 10  2  0  0  0
  9 28  1  0  0  0
 10 11  1  0  0  0
 10 12  1  0  0  0
 12 17  1  0  0  0
 12 13  2  0  0  0
 13 14  1  0  0  0
 13 29  1  0  0  0
 14 15  2  0  0  0
 14 30  1  0  0  0
 15 16  1  0  0  0
 15 19  1  0  0  0
 16 17  2  0  0  0
 16 18  1  0  0  0
 17 31  1  0  0  0
 18 32  1  0  0  0
 19 33  1  0  0  0
 20 21  2  0  0  0
 20 23  1  0  0  0
 21 22  1  0  0  0
 22 34  1  0  0  0
 23 35  1  0  0  0
M  END
> <s_m_entry_id>
7133

> <s_m_entry_name>
ligand_docking-pose.275

> <s_m_Source_Path>
/home/csk/Desktop/cluster/DUD-E-result/aldr

> <s_m_Source_File>
ligand_docking-pose.sdf

> <i_m_Source_File_Index>
275

> <i_lp_mmshare_version>
53161

> <r_lp_tautomer_probability>
0.999999999999776

> <s_lp_Force_Field>
OPLS_2005

> <r_lp_Energy>
17.767813

> <b_lp_Chiralities_Consistent>
1

> <s_lp_Variant>
489537-1

> <s_i_glide_gridfile>
glide-grid_2hv5

> <i_i_glide_lignum>
714

> <i_i_glide_rotatable_bonds>
6

> <r_i_docking_score>
-8.39969262011477

> <r_i_glide_ligand_efficiency>
-0.365204026961512

> <r_i_glide_ligand_efficiency_sa>
-1.03859167209917

> <r_i_glide_ligand_efficiency_ln>
-2.03112183974547

> <r_i_glide_gscore>
-8.39969262011477

> <r_i_glide_lipo>
-3.92015612505942

> <r_i_glide_hbond>
0

> <r_i_glide_metal>
0

> <r_i_glide_rewards>
-2.15275718181818

> <r_i_glide_evdw>
-37.09375

> <r_i_glide_ecoul>
-4.38796043395996

> <r_i_glide_erotb>
0.186102251856818

> <r_i_glide_esite>
0

> <r_i_glide_emodel>
-55.5133898740158

> <r_i_glide_energy>
-41.48171043396

> <r_i_glide_einternal>
5.21148204803467

> <i_i_glide_confnum>
1

> <i_i_glide_posenum>
27

> <r_i_glide_eff_state_penalty>
0

> <i_f3d_flags>
0

> <s_user_duplicate_titles>
489537

> <s_m_subgroup_title>
dock_pv

> <s_m_subgroupid>
dock_pv1

> <b_m_subgroup_collapsed>
0

$$$$
355031
                    3D
 Schrodinger Suite 2021-1.
 46 49  0  0  1  0            999 V2000
   19.9667  -12.1612   12.8267 C   0  0  0  0  0  0
   18.8128  -11.6850   13.6886 C   0  0  0  0  0  0
   18.0393  -12.6044   14.3931 C   0  0  0  0  0  0
   16.9828  -12.2067   15.2115 C   0  0  0  0  0  0
   16.7293  -10.8298   15.3213 C   0  0  0  0  0  0
   17.4940   -9.8752   14.5977 C   0  0  0  0  0  0
   18.5450  -10.3206   13.7809 C   0  0  0  0  0  0
   16.9463   -8.5801   14.8727 C   0  0  0  0  0  0
   15.9132   -8.7590   15.7810 C   0  0  0  0  0  0
   15.7741  -10.1208   16.0407 N   0  0  0  0  0  0
   14.7119  -10.7361   16.8521 C   0  0  0  0  0  0
   15.1555  -11.5814   18.0539 C   0  0  0  0  0  0
   16.2553  -12.1150   18.1810 O   0  0  0  0  0  0
   14.1474  -11.7151   18.9510 O   0  0  0  0  0  0
   15.0184   -7.7193   16.4236 C   0  0  0  0  0  0
   17.4789   -7.3392   14.2429 C   0  0  0  0  0  0
   18.6538   -6.9000   14.8194 C   0  0  0  0  0  0
   19.3566   -5.9093   14.1810 C   0  0  0  0  0  0
   18.9450   -5.3150   13.0455 N   0  0  0  0  0  0
   17.7698   -5.6138   12.4917 C   0  0  0  0  0  0
   16.9889   -6.6288   13.0872 C   0  0  0  0  0  0
   15.7751   -6.8731   12.4969 C   0  0  0  0  0  0
   15.2521   -6.1259   11.4403 C   0  0  0  0  0  0
   16.0297   -5.1451   10.8508 C   0  0  0  0  0  0
   17.3067   -4.8926   11.3418 C   0  0  0  0  0  0
   18.1773   -3.8476   10.6564 C   0  0  0  0  0  0
   20.2665  -13.1802   13.0745 H   0  0  0  0  0  0
   20.8397  -11.5257   12.9822 H   0  0  0  0  0  0
   19.6982  -12.1132   11.7712 H   0  0  0  0  0  0
   18.2569  -13.6594   14.3047 H   0  0  0  0  0  0
   16.3958  -12.9443   15.7377 H   0  0  0  0  0  0
   19.1379   -9.6090   13.2246 H   0  0  0  0  0  0
   14.0260   -9.9667   17.1993 H   0  0  0  0  0  0
   14.1451  -11.3853   16.1866 H   0  0  0  0  0  0
   14.3942  -12.3212   19.6514 H   0  0  0  0  0  0
   15.2730   -6.7124   16.0941 H   0  0  0  0  0  0
   13.9691   -7.8799   16.1811 H   0  0  0  0  0  0
   15.1061   -7.7292   17.5101 H   0  0  0  0  0  0
   19.0322   -7.3151   15.7357 H   0  0  0  0  0  0
   20.2998   -5.5836   14.5813 H   0  0  0  0  0  0
   15.3450   -7.7150   12.9220 H   0  0  0  0  0  0
   14.2757   -6.3578   11.0394 H   0  0  0  0  0  0
   15.6445   -4.5992   10.0011 H   0  0  0  0  0  0
   17.5928   -3.2135    9.9885 H   0  0  0  0  0  0
   18.6603   -3.1943   11.3810 H   0  0  0  0  0  0
   18.9450   -4.3426   10.0646 H   0  0  0  0  0  0
  1  2  1  0  0  0
  1 27  1  0  0  0
  1 28  1  0  0  0
  1 29  1  0  0  0
  2  7  1  0  0  0
  2  3  2  0  0  0
  3  4  1  0  0  0
  3 30  1  0  0  0
  4  5  2  0  0  0
  4 31  1  0  0  0
  5 10  1  0  0  0
  5  6  1  0  0  0
  6  7  2  0  0  0
  6  8  1  0  0  0
  7 32  1  0  0  0
  8  9  2  0  0  0
  8 16  1  0  0  0
  9 10  1  0  0  0
  9 15  1  0  0  0
 10 11  1  0  0  0
 11 12  1  0  0  0
 11 33  1  0  0  0
 11 34  1  0  0  0
 12 13  2  0  0  0
 12 14  1  0  0  0
 14 35  1  0  0  0
 15 36  1  0  0  0
 15 37  1  0  0  0
 15 38  1  0  0  0
 16 21  1  0  0  0
 16 17  2  0  0  0
 17 18  1  0  0  0
 17 39  1  0  0  0
 18 19  2  0  0  0
 18 40  1  0  0  0
 19 20  1  0  0  0
 20 25  2  0  0  0
 20 21  1  0  0  0
 21 22  2  0  0  0
 22 23  1  0  0  0
 22 41  1  0  0  0
 23 24  2  0  0  0
 23 42  1  0  0  0
 24 25  1  0  0  0
 24 43  1  0  0  0
 25 26  1  0  0  0
 26 44  1  0  0  0
 26 45  1  0  0  0
 26 46  1  0  0  0
M  END
> <s_m_entry_id>
7134

> <s_m_entry_name>
ligand_docking-pose.276

> <s_m_Source_Path>
/home/csk/Desktop/cluster/DUD-E-result/aldr

> <s_m_Source_File>
ligand_docking-pose.sdf

> <i_m_Source_File_Index>
276

> <i_lp_mmshare_version>
53161

> <r_lp_tautomer_probability>
1

> <s_lp_Force_Field>
OPLS_2005

> <r_lp_Energy>
21.20726

> <b_lp_Chiralities_Consistent>
1

> <s_lp_Variant>
355031-1

> <s_i_glide_gridfile>
glide-grid_2hv5

> <i_i_glide_lignum>
480

> <i_i_glide_rotatable_bonds>
4

> <r_i_docking_score>
-8.39182495448524

> <r_i_glide_ligand_efficiency>
-0.322762498249432

> <r_i_glide_ligand_efficiency_sa>
-0.956182631054839

> <r_i_glide_ligand_efficiency_ln>
-1.97079255473726

> <r_i_glide_gscore>
-8.39182495448524

> <r_i_glide_lipo>
-4.8988141005386

> <r_i_glide_hbond>
-0.32

> <r_i_glide_metal>
0

> <r_i_glide_rewards>
-2.26860909725749

> <r_i_glide_evdw>
-25.4133014678955

> <r_i_glide_ecoul>
-0.758076846599579

> <r_i_glide_erotb>
0.480215110148551

> <r_i_glide_esite>
-0.000240266452996115

> <r_i_glide_emodel>
-30.1958321728766

> <r_i_glide_energy>
-26.1713783144951

> <r_i_glide_einternal>
5.698974609375

> <i_i_glide_confnum>
7

> <i_i_glide_posenum>
83

> <r_i_glide_eff_state_penalty>
0

> <i_f3d_flags>
0

> <s_user_duplicate_titles>
355031

> <s_m_subgroup_title>
dock_pv

> <s_m_subgroupid>
dock_pv1

> <b_m_subgroup_collapsed>
0

$$$$
89475
                    3D
 Schrodinger Suite 2021-1.
 29 30  0  0  1  0            999 V2000
   15.9900   -6.4793   12.5541 C   0  0  0  0  0  0
   16.3694   -7.1316   13.7332 C   0  0  0  0  0  0
   17.6714   -7.0398   14.2169 C   0  0  0  0  0  0
   18.5827   -6.2736   13.5109 C   0  0  0  0  0  0
   18.2246   -5.6326   12.3234 C   0  0  0  0  0  0
   16.9250   -5.7358   11.8417 C   0  0  0  0  0  0
   16.4716   -4.9274   10.3857 Cl  0  0  0  0  0  0
   20.1453   -6.1150   14.1809 Cl  0  0  0  0  0  0
   18.1554   -7.7345   15.4960 C   0  0  0  0  0  0
   17.1529   -8.3143   16.3681 N   0  0  0  0  0  0
   16.2952   -7.5617   17.0548 C   0  0  0  0  0  0
   16.3363   -6.3566   17.3168 O   0  0  0  0  0  0
   15.2162   -8.4357   17.3244 C   0  0  0  0  0  0
   14.1451   -8.0650   17.7809 O   0  0  0  0  0  0
   15.6010   -9.6571   16.9248 N   0  0  0  0  0  0
   16.8218   -9.6141   16.3519 C   0  0  0  0  0  0
   17.5542  -10.5576   16.0516 O   0  0  0  0  0  0
   14.6540  -10.7891   16.8448 C   0  0  0  0  0  0
   15.1812  -12.0746   17.5002 C   0  0  0  0  0  0
   16.1802  -12.1546   18.1817 O   0  0  0  0  0  0
   14.3402  -13.1015   17.2151 O   0  0  0  0  0  0
   14.9770   -6.5162   12.1812 H   0  0  0  0  0  0
   15.6736   -7.7151   14.2983 H   0  0  0  0  0  0
   18.9422   -5.0412   11.7813 H   0  0  0  0  0  0
   18.7101   -7.0143   16.1013 H   0  0  0  0  0  0
   18.8763   -8.4976   15.1954 H   0  0  0  0  0  0
   14.3833  -10.9753   15.8052 H   0  0  0  0  0  0
   13.7448  -10.5330   17.3787 H   0  0  0  0  0  0
   14.6462  -13.9007   17.6460 H   0  0  0  0  0  0
  1  6  1  0  0  0
  1  2  2  0  0  0
  1 22  1  0  0  0
  2  3  1  0  0  0
  2 23  1  0  0  0
  3  4  2  0  0  0
  3  9  1  0  0  0
  4  5  1  0  0  0
  4  8  1  0  0  0
  5  6  2  0  0  0
  5 24  1  0  0  0
  6  7  1  0  0  0
  9 10  1  0  0  0
  9 25  1  0  0  0
  9 26  1  0  0  0
 10 16  1  0  0  0
 10 11  1  0  0  0
 11 12  2  0  0  0
 11 13  1  0  0  0
 13 14  2  0  0  0
 13 15  1  0  0  0
 15 16  1  0  0  0
 15 18  1  0  0  0
 16 17  2  0  0  0
 18 19  1  0  0  0
 18 27  1  0  0  0
 18 28  1  0  0  0
 19 20  2  0  0  0
 19 21  1  0  0  0
 21 29  1  0  0  0
M  END
> <s_m_entry_id>
7135

> <s_m_entry_name>
ligand_docking-pose.277

> <s_m_Source_Path>
/home/csk/Desktop/cluster/DUD-E-result/aldr

> <s_m_Source_File>
ligand_docking-pose.sdf

> <i_m_Source_File_Index>
277

> <i_lp_mmshare_version>
53161

> <r_lp_tautomer_probability>
1

> <s_lp_Force_Field>
OPLS_2005

> <r_lp_Energy>
13.045768

> <b_lp_Chiralities_Consistent>
1

> <s_lp_Variant>
89475-1

> <s_i_glide_gridfile>
glide-grid_2hv5

> <i_i_glide_lignum>
364

> <i_i_glide_rotatable_bonds>
5

> <r_i_docking_score>
-8.36346302262418

> <r_i_glide_ligand_efficiency>
-0.398260143934485

> <r_i_glide_ligand_efficiency_sa>
-1.0987695384748

> <r_i_glide_ligand_efficiency_ln>
-2.06784933237552

> <r_i_glide_gscore>
-8.36346302262418

> <r_i_glide_lipo>
-2.6378852806256

> <r_i_glide_hbond>
-0.32

> <r_i_glide_metal>
0

> <r_i_glide_rewards>
-3.85153827272727

> <r_i_glide_evdw>
-32.1041374206543

> <r_i_glide_ecoul>
-4.23587131500244

> <r_i_glide_erotb>
0.686548099011767

> <r_i_glide_esite>
0

> <r_i_glide_emodel>
-45.1538141663851

> <r_i_glide_energy>
-36.3400087356567

> <r_i_glide_einternal>
2.99673795700073

> <i_i_glide_confnum>
7

> <i_i_glide_posenum>
205

> <r_i_glide_eff_state_penalty>
0

> <i_f3d_flags>
0

> <s_user_duplicate_titles>
89475

> <s_m_subgroup_title>
dock_pv

> <s_m_subgroupid>
dock_pv1

> <b_m_subgroup_collapsed>
0

$$$$
267961
                    3D
 Schrodinger Suite 2021-1.
 31 32  0  0  1  0            999 V2000
   16.1450   -6.5623   12.4893 C   0  0  0  0  0  0
   15.3942   -6.0475   11.4327 C   0  0  0  0  0  0
   15.9381   -5.0799   10.5825 C   0  0  0  0  0  0
   17.2494   -4.6105   10.7919 C   0  0  0  0  0  0
   17.9647   -5.1763   11.8527 C   0  0  0  0  0  0
   17.4417   -6.1250   12.7159 C   0  0  0  0  0  0
   18.3048   -6.6046   13.8903 C   0  0  0  0  0  0
   17.9113   -7.8565   14.5598 N   0  0  0  0  0  0
   18.3608   -9.0563   14.1810 C   0  0  0  0  0  0
   19.2557   -9.3321   13.3810 O   0  0  0  0  0  0
   17.5474  -10.0038   14.8868 C   0  0  0  0  0  0
   17.6071  -11.2271   14.7507 O   0  0  0  0  0  0
   16.7037   -9.2700   15.6362 N   0  0  0  0  0  0
   16.9589   -7.9494   15.5105 C   0  0  0  0  0  0
   16.5579   -7.0444   16.2444 O   0  0  0  0  0  0
   15.4660   -9.7797   16.2825 C   0  0  0  0  0  0
   15.7232  -10.8663   17.3472 C   0  0  0  0  0  0
   16.8115  -11.3150   17.6395 O   0  0  0  0  0  0
   14.5450  -11.2368   17.9219 O   0  0  0  0  0  0
   17.9031   -3.5484    9.9745 N   0  3  0  0  0  0
   17.2619   -2.9150    9.1446 O   0  5  0  0  0  0
   19.0916   -3.3150   10.1810 O   0  0  0  0  0  0
   14.9450   -4.5150    9.2954 Cl  0  0  0  0  0  0
   15.7450   -7.3150   13.1369 H   0  0  0  0  0  0
   14.3842   -6.3979   11.2753 H   0  0  0  0  0  0
   18.9450   -4.8429   12.0629 H   0  0  0  0  0  0
   18.3368   -5.8054   14.6325 H   0  0  0  0  0  0
   19.3334   -6.7078   13.5363 H   0  0  0  0  0  0
   14.7984  -10.1693   15.5131 H   0  0  0  0  0  0
   14.9350   -8.9582   16.7672 H   0  0  0  0  0  0
   13.7756  -10.7957   17.5589 H   0  0  0  0  0  0
  1  6  1  0  0  0
  1  2  2  0  0  0
  1 24  1  0  0  0
  2  3  1  0  0  0
  2 25  1  0  0  0
  3  4  2  0  0  0
  3 23  1  0  0  0
  4  5  1  0  0  0
  4 20  1  0  0  0
  5  6  2  0  0  0
  5 26  1  0  0  0
  6  7  1  0  0  0
  7  8  1  0  0  0
  7 27  1  0  0  0
  7 28  1  0  0  0
  8 14  1  0  0  0
  8  9  1  0  0  0
  9 10  2  0  0  0
  9 11  1  0  0  0
 11 12  2  0  0  0
 11 13  1  0  0  0
 13 14  1  0  0  0
 13 16  1  0  0  0
 14 15  2  0  0  0
 16 17  1  0  0  0
 16 29  1  0  0  0
 16 30  1  0  0  0
 17 18  2  0  0  0
 17 19  1  0  0  0
 19 31  1  0  0  0
 20 21  1  0  0  0
 20 22  2  0  0  0
M  CHG  2  20   1  21  -1
M  END
> <s_m_entry_id>
7137

> <s_m_entry_name>
ligand_docking-pose.279

> <s_m_Source_Path>
/home/csk/Desktop/cluster/DUD-E-result/aldr

> <s_m_Source_File>
ligand_docking-pose.sdf

> <i_m_Source_File_Index>
279

> <i_lp_mmshare_version>
53161

> <r_lp_tautomer_probability>
1

> <s_lp_Force_Field>
OPLS_2005

> <r_lp_Energy>
17.04323

> <b_lp_Chiralities_Consistent>
1

> <s_lp_Variant>
267961-1

> <s_i_glide_gridfile>
glide-grid_2hv5

> <i_i_glide_lignum>
402

> <i_i_glide_rotatable_bonds>
6

> <r_i_docking_score>
-8.32562928366003

> <r_i_glide_ligand_efficiency>
-0.361983881898262

> <r_i_glide_ligand_efficiency_sa>
-1.02943400789303

> <r_i_glide_ligand_efficiency_ln>
-2.01321265342151

> <r_i_glide_gscore>
-8.32562928366003

> <r_i_glide_lipo>
-2.58252132133502

> <r_i_glide_hbond>
-0.19346324444865

> <r_i_glide_metal>
0

> <r_i_glide_rewards>
-3.64625403030303

> <r_i_glide_evdw>
-40.5839080810547

> <r_i_glide_ecoul>
-3.49093842506409

> <r_i_glide_erotb>
0.649445480239011

> <r_i_glide_esite>
0

> <r_i_glide_emodel>
-63.3738406716202

> <r_i_glide_energy>
-44.0748465061188

> <r_i_glide_einternal>
2.76001214981079

> <i_i_glide_confnum>
18

> <i_i_glide_posenum>
372

> <r_i_glide_eff_state_penalty>
0

> <i_f3d_flags>
0

> <s_user_duplicate_titles>
267961

> <s_m_subgroup_title>
dock_pv

> <s_m_subgroupid>
dock_pv1

> <b_m_subgroup_collapsed>
0

$$$$
236847
                    3D
 Schrodinger Suite 2021-1.
 33 35  0  0  1  0            999 V2000
   16.9281   -2.5399    8.9818 C   0  0  0  0  0  0
   18.1450   -2.6808    9.6254 C   0  0  0  0  0  0
   18.3522   -3.6895   10.5578 C   0  0  0  0  0  0
   17.2778   -4.5151   10.9810 C   0  0  0  0  0  0
   16.0262   -4.3586   10.3136 C   0  0  0  0  0  0
   15.8855   -3.3953    9.2934 C   0  0  0  0  0  0
   14.9284   -5.1285   10.7181 C   0  0  0  0  0  0
   15.0424   -6.0058   11.7810 C   0  0  0  0  0  0
   16.2345   -6.1472   12.4886 C   0  0  0  0  0  0
   17.3650   -5.4216   12.0858 C   0  0  0  0  0  0
   18.9450   -5.4925   13.1540 Br  0  0  0  0  0  0
   16.1629   -6.8844   13.7662 C   0  0  0  0  0  0
   16.8849   -7.9438   14.1962 C   0  0  0  0  0  0
   16.6000   -8.5323   15.4851 C   0  0  0  0  0  0
   15.9021   -8.0182   16.3650 O   0  0  0  0  0  0
   17.1705   -9.7629   15.5723 N   0  0  0  0  0  0
   17.9861  -10.1805   14.5810 C   0  0  0  0  0  0
   18.5450  -11.2709   14.4608 O   0  0  0  0  0  0
   18.1450   -8.8665   13.3810 S   0  0  0  0  0  0
   16.9571  -10.6464   16.7560 C   0  0  0  0  0  0
   15.4832  -11.0587   16.9635 C   0  0  0  0  0  0
   14.5826  -10.8479   16.1809 O   0  0  0  0  0  0
   15.3491  -11.7150   18.1471 O   0  0  0  0  0  0
   16.7899   -1.7698    8.2372 H   0  0  0  0  0  0
   18.9450   -2.0022    9.3810 H   0  0  0  0  0  0
   19.3321   -3.7982   10.9810 H   0  0  0  0  0  0
   14.9450   -3.3016    8.7806 H   0  0  0  0  0  0
   13.9730   -4.9836   10.2326 H   0  0  0  0  0  0
   14.1463   -6.5150   12.0887 H   0  0  0  0  0  0
   15.4045   -6.4944   14.4293 H   0  0  0  0  0  0
   17.3422  -10.1439   17.6437 H   0  0  0  0  0  0
   17.5299  -11.5710   16.6695 H   0  0  0  0  0  0
   14.4326  -11.9814   18.2608 H   0  0  0  0  0  0
  1  6  1  0  0  0
  1  2  2  0  0  0
  1 24  1  0  0  0
  2  3  1  0  0  0
  2 25  1  0  0  0
  3  4  2  0  0  0
  3 26  1  0  0  0
  4 10  1  0  0  0
  4  5  1  0  0  0
  5  6  2  0  0  0
  5  7  1  0  0  0
  6 27  1  0  0  0
  7  8  2  0  0  0
  7 28  1  0  0  0
  8  9  1  0  0  0
  8 29  1  0  0  0
  9 10  2  0  0  0
  9 12  1  0  0  0
 10 11  1  0  0  0
 12 13  2  0  0  0
 12 30  1  0  0  0
 13 19  1  0  0  0
 13 14  1  0  0  0
 14 15  2  0  0  0
 14 16  1  0  0  0
 16 17  1  0  0  0
 16 20  1  0  0  0
 17 18  2  0  0  0
 17 19  1  0  0  0
 20 21  1  0  0  0
 20 31  1  0  0  0
 20 32  1  0  0  0
 21 22  2  0  0  0
 21 23  1  0  0  0
 23 33  1  0  0  0
M  END
> <s_m_entry_id>
7140

> <s_m_entry_name>
ligand_docking-pose.282

> <s_m_Source_Path>
/home/csk/Desktop/cluster/DUD-E-result/aldr

> <s_m_Source_File>
ligand_docking-pose.sdf

> <i_m_Source_File_Index>
282

> <i_lp_mmshare_version>
53161

> <r_lp_tautomer_probability>
1

> <s_lp_Force_Field>
OPLS_2005

> <r_lp_Energy>
18.997136

> <b_lp_Chiralities_Consistent>
1

> <s_lp_Variant>
236847-1

> <s_i_glide_gridfile>
glide-grid_2hv5

> <i_i_glide_lignum>
139

> <i_i_glide_rotatable_bonds>
4

> <r_i_docking_score>
-8.30161655176299

> <r_i_glide_ligand_efficiency>
-0.360939850076652

> <r_i_glide_ligand_efficiency_sa>
-1.02646492027274

> <r_i_glide_ligand_efficiency_ln>
-2.00740615711339

> <r_i_glide_gscore>
-8.30161655176299

> <r_i_glide_lipo>
-3.93896947146416

> <r_i_glide_hbond>
0

> <r_i_glide_metal>
0

> <r_i_glide_rewards>
-2.72343793097706

> <r_i_glide_evdw>
-38.1354446411133

> <r_i_glide_ecoul>
-0.754279553890228

> <r_i_glide_erotb>
0.380705015817435

> <r_i_glide_esite>
0

> <r_i_glide_emodel>
-44.1502424461523

> <r_i_glide_energy>
-38.8897241950035

> <r_i_glide_einternal>
2.38330554962158

> <i_i_glide_confnum>
3

> <i_i_glide_posenum>
340

> <r_i_glide_eff_state_penalty>
0

> <i_f3d_flags>
0

> <s_user_duplicate_titles>
236847

> <s_m_subgroup_title>
dock_pv

> <s_m_subgroupid>
dock_pv1

> <b_m_subgroup_collapsed>
0

$$$$
219481
                    3D
 Schrodinger Suite 2021-1.
 37 40  0  0  1  0            999 V2000
   18.2045  -12.1213   14.3986 C   0  0  0  0  0  0
   18.9264  -11.1057   13.7810 C   0  0  0  0  0  0
   18.3228   -9.8875   14.0838 C   0  0  0  0  0  0
   17.3047  -10.1306   14.9805 N   0  0  0  0  0  0
   17.2154  -11.5026   15.1351 C   0  0  0  0  0  0
   16.4530   -9.0680   15.5529 C   0  0  1  0  0  0
   14.9971   -9.5117   15.7385 C   0  0  0  0  0  0
   14.9698  -10.0092   17.1748 C   0  0  0  0  0  0
   14.1450  -10.7549   17.6859 O   0  0  0  0  0  0
   16.0449   -9.4945   17.7810 N   0  0  0  0  0  0
   16.8793   -8.8057   16.9953 C   0  0  0  0  0  0
   17.8180   -8.1147   17.3790 O   0  0  0  0  0  0
   16.6269   -7.7150   14.7878 C   0  0  0  0  0  0
   15.8783   -6.7731   15.0535 O   0  0  0  0  0  0
   17.7230   -7.6232   13.9490 N   0  0  0  0  0  0
   18.7404   -8.5404   13.7900 C   0  0  0  0  0  0
   19.8644   -8.2650   13.3810 O   0  0  0  0  0  0
   18.0012   -6.2683   13.3616 C   0  0  0  0  0  0
   17.1382   -5.7727   12.1811 C   0  0  0  0  0  0
   15.7987   -6.1272   12.0353 C   0  0  0  0  0  0
   15.0238   -5.6449   10.9896 C   0  0  0  0  0  0
   15.6160   -4.8423   10.0187 C   0  0  0  0  0  0
   16.9376   -4.4589   10.1432 C   0  0  0  0  0  0
   17.6800   -4.9151   11.2188 C   0  0  0  0  0  0
   18.9450   -4.5149   11.2960 F   0  0  0  0  0  0
   14.9450   -4.4854    8.9113 F   0  0  0  0  0  0
   18.3979  -13.1829   14.3343 H   0  0  0  0  0  0
   19.7983  -11.2378   13.1554 H   0  0  0  0  0  0
   16.4556  -11.9358   15.7685 H   0  0  0  0  0  0
   14.2687   -8.7035   15.6463 H   0  0  0  0  0  0
   14.6854  -10.3016   15.0556 H   0  0  0  0  0  0
   16.1987   -9.5825   18.7760 H   0  0  0  0  0  0
   19.0378   -6.1701   13.0355 H   0  0  0  0  0  0
   17.9418   -5.5412   14.1668 H   0  0  0  0  0  0
   15.3450   -6.7940   12.7257 H   0  0  0  0  0  0
   13.9818   -5.9231   10.9451 H   0  0  0  0  0  0
   17.3912   -3.8274    9.3952 H   0  0  0  0  0  0
  1  5  2  0  0  0
  1  2  1  0  0  0
  1 27  1  0  0  0
  2  3  2  0  0  0
  2 28  1  0  0  0
  3 16  1  0  0  0
  3  4  1  0  0  0
  4  5  1  0  0  0
  4  6  1  0  0  0
  5 29  1  0  0  0
  6 11  1  0  0  0
  6  7  1  0  0  0
  6 13  1  0  0  0
  7  8  1  0  0  0
  7 30  1  0  0  0
  7 31  1  0  0  0
  8  9  2  0  0  0
  8 10  1  0  0  0
 10 11  1  0  0  0
 10 32  1  0  0  0
 11 12  2  0  0  0
 13 14  2  0  0  0
 13 15  1  0  0  0
 15 16  1  0  0  0
 15 18  1  0  0  0
 16 17  2  0  0  0
 18 19  1  0  0  0
 18 33  1  0  0  0
 18 34  1  0  0  0
 19 24  1  0  0  0
 19 20  2  0  0  0
 20 21  1  0  0  0
 20 35  1  0  0  0
 21 22  2  0  0  0
 21 36  1  0  0  0
 22 23  1  0  0  0
 22 26  1  0  0  0
 23 24  2  0  0  0
 23 37  1  0  0  0
 24 25  1  0  0  0
M  END
> <s_m_entry_id>
7141

> <s_m_entry_name>
ligand_docking-pose.283

> <s_m_Source_Path>
/home/csk/Desktop/cluster/DUD-E-result/aldr

> <s_m_Source_File>
ligand_docking-pose.sdf

> <i_m_Source_File_Index>
283

> <i_lp_mmshare_version>
53161

> <r_lp_tautomer_probability>
0.99995

> <s_lp_Force_Field>
OPLS_2005

> <r_lp_Energy>
32.429438

> <b_lp_Chiralities_Consistent>
1

> <s_lp_Variant>
219481-1

> <s_i_glide_gridfile>
glide-grid_2hv5

> <i_i_glide_lignum>
108

> <i_i_glide_rotatable_bonds>
2

> <r_i_docking_score>
-8.3003375990409

> <r_i_glide_ligand_efficiency>
-0.319243753809265

> <r_i_glide_ligand_efficiency_sa>
-0.945758364496435

> <r_i_glide_ligand_efficiency_ln>
-1.94930704950566

> <r_i_glide_gscore>
-8.3003375990409

> <r_i_glide_lipo>
-3.35860282624473

> <r_i_glide_hbond>
-0.0185973098951383

> <r_i_glide_metal>
0

> <r_i_glide_rewards>
-3.65942900454545

> <r_i_glide_evdw>
-31.9381637573242

> <r_i_glide_ecoul>
0.241691738367081

> <r_i_glide_erotb>
0.296945968755573

> <r_i_glide_esite>
0

> <r_i_glide_emodel>
-30.8497093172791

> <r_i_glide_energy>
-31.6964720189571

> <r_i_glide_einternal>
5.29133272171021

> <i_i_glide_confnum>
6

> <i_i_glide_posenum>
106

> <r_i_glide_eff_state_penalty>
0

> <i_f3d_flags>
0

> <s_user_duplicate_titles>
219481

> <s_m_subgroup_title>
dock_pv

> <s_m_subgroupid>
dock_pv1

> <b_m_subgroup_collapsed>
0

$$$$
180842
                    3D
 Schrodinger Suite 2021-1.
 31 34  0  0  1  0            999 V2000
   16.5600  -12.7655   16.7076 C   0  0  0  0  0  0
   15.7627  -12.1396   17.6668 C   0  0  0  0  0  0
   15.7719  -10.7493   17.7810 C   0  0  0  0  0  0
   16.5949   -9.9814   16.9520 C   0  0  0  0  0  0
   17.3521  -10.6119   15.9610 C   0  0  0  0  0  0
   17.3508  -12.0031   15.8470 C   0  0  0  0  0  0
   18.0181   -9.5779   15.1504 C   0  0  0  0  0  0
   18.8326   -9.6557   14.0168 C   0  0  0  0  0  0
   19.3216   -8.4802   13.4415 C   0  0  0  0  0  0
   18.9766   -7.2398   13.9780 C   0  0  0  0  0  0
   18.2032   -7.1707   15.1231 C   0  0  0  0  0  0
   17.7003   -8.3373   15.6939 C   0  0  0  0  0  0
   16.7009   -8.4694   16.8168 C   0  0  2  0  0  0
   16.9451   -7.5544   18.0555 C   0  0  0  0  0  0
   15.7450   -6.6734   18.4021 C   0  0  0  0  0  0
   15.7451   -5.8565   19.3195 O   0  0  0  0  0  0
   14.6428   -6.9727   17.5921 N   0  0  0  0  0  0
   15.0665   -7.8433   16.1728 S   0  0  0  0  0  0
   15.3450   -6.9150   15.0760 O   0  0  0  0  0  0
   14.1450   -8.9594   15.9539 O   0  0  0  0  0  0
   19.3450   -6.0905   13.3808 F   0  0  0  0  0  0
   16.5459  -13.8408   16.6135 H   0  0  0  0  0  0
   15.1250  -12.7300   18.3092 H   0  0  0  0  0  0
   15.1306  -10.2740   18.5094 H   0  0  0  0  0  0
   17.9357  -12.4977   15.0857 H   0  0  0  0  0  0
   19.0945  -10.6092   13.5826 H   0  0  0  0  0  0
   19.9666   -8.5211   12.5814 H   0  0  0  0  0  0
   17.9395   -6.1992   15.5117 H   0  0  0  0  0  0
   17.1494   -8.1150   18.9548 H   0  0  0  0  0  0
   17.8070   -6.9031   17.9071 H   0  0  0  0  0  0
   13.6988   -6.6044   17.7504 H   0  0  0  0  0  0
  1  6  1  0  0  0
  1  2  2  0  0  0
  1 22  1  0  0  0
  2  3  1  0  0  0
  2 23  1  0  0  0
  3  4  2  0  0  0
  3 24  1  0  0  0
  4 13  1  0  0  0
  4  5  1  0  0  0
  5  6  2  0  0  0
  5  7  1  0  0  0
  6 25  1  0  0  0
  7 12  2  0  0  0
  7  8  1  0  0  0
  8  9  2  0  0  0
  8 26  1  0  0  0
  9 10  1  0  0  0
  9 27  1  0  0  0
 10 11  2  0  0  0
 10 21  1  0  0  0
 11 12  1  0  0  0
 11 28  1  0  0  0
 12 13  1  0  0  0
 13 18  1  0  0  0
 13 14  1  0  0  0
 14 15  1  0  0  0
 14 29  1  0  0  0
 14 30  1  0  0  0
 15 16  2  0  0  0
 15 17  1  0  0  0
 17 18  1  0  0  0
 17 31  1  0  0  0
 18 19  2  0  0  0
 18 20  2  0  0  0
M  END
> <s_m_entry_id>
7144

> <s_m_entry_name>
ligand_docking-pose.286

> <s_m_Source_Path>
/home/csk/Desktop/cluster/DUD-E-result/aldr

> <s_m_Source_File>
ligand_docking-pose.sdf

> <i_m_Source_File_Index>
286

> <i_lp_mmshare_version>
53161

> <r_lp_tautomer_probability>
1

> <s_lp_Force_Field>
OPLS_2005

> <r_lp_Energy>
43.188359

> <b_lp_Chiralities_Consistent>
1

> <s_lp_Variant>
180842-2

> <s_i_glide_gridfile>
glide-grid_2hv5

> <i_i_glide_lignum>
125

> <i_i_glide_rotatable_bonds>
0

> <r_i_docking_score>
-8.26963516406199

> <r_i_glide_ligand_efficiency>
-0.393792150669618

> <r_i_glide_ligand_efficiency_sa>
-1.08644268384896

> <r_i_glide_ligand_efficiency_ln>
-2.04465058394306

> <r_i_glide_gscore>
-8.26963516406199

> <r_i_glide_lipo>
-2.47533314378787

> <r_i_glide_hbond>
-0.45066214059868

> <r_i_glide_metal>
0

> <r_i_glide_rewards>
-3.32447597772588

> <r_i_glide_evdw>
-24.5911388397217

> <r_i_glide_ecoul>
-5.15361881256104

> <r_i_glide_erotb>
0

> <r_i_glide_esite>
-0.0165641380793187

> <r_i_glide_emodel>
-37.5465406296826

> <r_i_glide_energy>
-29.7447576522827

> <r_i_glide_einternal>
0

> <i_i_glide_confnum>
2

> <i_i_glide_posenum>
299

> <r_i_glide_eff_state_penalty>
0

> <i_f3d_flags>
0

> <s_user_duplicate_titles>
180842

> <s_m_subgroup_title>
dock_pv

> <s_m_subgroupid>
dock_pv1

> <b_m_subgroup_collapsed>
0

$$$$
99548
                    3D
 Schrodinger Suite 2021-1.
 42 45  0  0  1  0            999 V2000
   17.2940  -12.9400   16.1257 C   0  0  0  0  0  0
   16.5528  -12.4295   17.1845 C   0  0  0  0  0  0
   16.3824  -11.0534   17.3048 C   0  0  0  0  0  0
   16.9565  -10.1550   16.3855 C   0  0  0  0  0  0
   17.6774  -10.6868   15.3074 C   0  0  0  0  0  0
   17.8467  -12.0761   15.1860 C   0  0  0  0  0  0
   18.2682   -9.8062   14.2259 C   0  0  0  0  0  0
   18.8833  -10.2957   13.2740 O   0  0  0  0  0  0
   18.1012   -8.4505   14.3903 N   0  0  0  0  0  0
   17.5292   -7.7610   15.4278 C   0  0  0  0  0  0
   17.5949   -6.5276   15.5501 O   0  0  0  0  0  0
   16.7402   -8.6346   16.4538 C   0  0  2  0  0  0
   16.9809   -8.0421   17.8322 C   0  0  0  0  0  0
   15.8023   -7.1231   18.0779 C   0  0  0  0  0  0
   15.7447   -6.2688   18.9593 O   0  0  0  0  0  0
   14.8661   -7.4323   17.1563 N   0  0  0  0  0  0
   15.2472   -8.3651   16.2538 C   0  0  0  0  0  0
   14.5457   -8.9160   15.4055 O   0  0  0  0  0  0
   18.7058   -7.5749   13.3501 C   0  0  0  0  0  0
   17.7595   -6.6471   12.5806 C   0  0  0  0  0  0
   18.3025   -5.5303   11.9609 C   0  0  0  0  0  0
   17.5317   -4.7159   11.1509 C   0  0  0  0  0  0
   16.1760   -4.9900   11.0023 C   0  0  0  0  0  0
   15.5990   -6.0657   11.6875 C   0  0  0  0  0  0
   16.3905   -6.8862   12.4809 C   0  0  0  0  0  0
   15.3260   -4.0826   10.1380 C   0  0  0  0  0  0
   15.3459   -4.5054    8.8818 F   0  0  0  0  0  0
   14.0826   -4.1177   10.5840 F   0  0  0  0  0  0
   15.7592   -2.8239   10.1609 F   0  0  0  0  0  0
   17.4247  -14.0055   16.0207 H   0  0  0  0  0  0
   16.0981  -13.1002   17.8987 H   0  0  0  0  0  0
   15.7705  -10.6796   18.1138 H   0  0  0  0  0  0
   18.3983  -12.5015   14.3584 H   0  0  0  0  0  0
   16.9462   -8.8141   18.5810 H   0  0  0  0  0  0
   17.9272   -7.5108   17.9670 H   0  0  0  0  0  0
   13.9398   -7.0335   17.1701 H   0  0  0  0  0  0
   19.2054   -8.1623   12.5810 H   0  0  0  0  0  0
   19.5061   -6.9886   13.8069 H   0  0  0  0  0  0
   19.3448   -5.3157   12.0813 H   0  0  0  0  0  0
   17.9855   -3.8705   10.6543 H   0  0  0  0  0  0
   14.5413   -6.2738   11.6049 H   0  0  0  0  0  0
   15.9333   -7.7143   12.9926 H   0  0  0  0  0  0
  1  6  1  0  0  0
  1  2  2  0  0  0
  1 30  1  0  0  0
  2  3  1  0  0  0
  2 31  1  0  0  0
  3  4  2  0  0  0
  3 32  1  0  0  0
  4 12  1  0  0  0
  4  5  1  0  0  0
  5  6  2  0  0  0
  5  7  1  0  0  0
  6 33  1  0  0  0
  7  8  2  0  0  0
  7  9  1  0  0  0
  9 10  1  0  0  0
  9 19  1  0  0  0
 10 11  2  0  0  0
 10 12  1  0  0  0
 12 17  1  0  0  0
 12 13  1  0  0  0
 13 14  1  0  0  0
 13 34  1  0  0  0
 13 35  1  0  0  0
 14 15  2  0  0  0
 14 16  1  0  0  0
 16 17  1  0  0  0
 16 36  1  0  0  0
 17 18  2  0  0  0
 19 20  1  0  0  0
 19 37  1  0  0  0
 19 38  1  0  0  0
 20 25  1  0  0  0
 20 21  2  0  0  0
 21 22  1  0  0  0
 21 39  1  0  0  0
 22 23  2  0  0  0
 22 40  1  0  0  0
 23 24  1  0  0  0
 23 26  1  0  0  0
 24 25  2  0  0  0
 24 41  1  0  0  0
 25 42  1  0  0  0
 26 27  1  0  0  0
 26 28  1  0  0  0
 26 29  1  0  0  0
M  END
> <s_m_entry_id>
7147

> <s_m_entry_name>
ligand_docking-pose.289

> <s_m_Source_Path>
/home/csk/Desktop/cluster/DUD-E-result/aldr

> <s_m_Source_File>
ligand_docking-pose.sdf

> <i_m_Source_File_Index>
289

> <i_lp_mmshare_version>
53161

> <r_lp_tautomer_probability>
0.99999999995914

> <s_lp_Force_Field>
OPLS_2005

> <r_lp_Energy>
34.830045

> <b_lp_Chiralities_Consistent>
1

> <s_lp_Variant>
99548-2

> <s_i_glide_gridfile>
glide-grid_2hv5

> <i_i_glide_lignum>
253

> <i_i_glide_rotatable_bonds>
3

> <r_i_docking_score>
-8.25780336184759

> <r_i_glide_ligand_efficiency>
-0.28475184006371

> <r_i_glide_ligand_efficiency_sa>
-0.874847868390784

> <r_i_glide_ligand_efficiency_ln>
-1.89082757003735

> <r_i_glide_gscore>
-8.25780336184759

> <r_i_glide_lipo>
-3.34067267664834

> <r_i_glide_hbond>
0

> <r_i_glide_metal>
0

> <r_i_glide_rewards>
-3.36597662045454

> <r_i_glide_evdw>
-34.264087677002

> <r_i_glide_ecoul>
-0.536054193973541

> <r_i_glide_erotb>
0.242458448201431

> <r_i_glide_esite>
0

> <r_i_glide_emodel>
-41.2437493307435

> <r_i_glide_energy>
-34.8001418709755

> <r_i_glide_einternal>
0.844833791255951

> <i_i_glide_confnum>
3

> <i_i_glide_posenum>
16

> <r_i_glide_eff_state_penalty>
0

> <i_f3d_flags>
0

> <s_user_duplicate_titles>
99548

> <s_m_subgroup_title>
dock_pv

> <s_m_subgroupid>
dock_pv1

> <b_m_subgroup_collapsed>
0

$$$$
274931
                    3D
 Schrodinger Suite 2021-1.
 31 33  0  0  1  0            999 V2000
   16.5980  -13.3064   14.8974 C   0  0  0  0  0  0
   16.7740  -11.8132   15.2040 C   0  0  0  0  0  0
   16.0719  -11.1285   16.1467 C   0  0  0  0  0  0
   16.3479   -9.6837   16.4218 C   0  0  0  0  0  0
   15.7528   -8.9833   17.4858 C   0  0  0  0  0  0
   15.9919   -7.6288   17.6955 C   0  0  0  0  0  0
   16.8382   -6.9167   16.8551 C   0  0  0  0  0  0
   17.4903   -7.5739   15.7878 C   0  0  0  0  0  0
   17.2624   -8.9664   15.5937 C   0  0  0  0  0  0
   17.9475   -9.6875   14.5627 C   0  0  0  0  0  0
   18.8111   -8.9610   13.7307 C   0  0  0  0  0  0
   19.0126   -7.5964   13.8933 C   0  0  0  0  0  0
   18.3689   -6.9018   14.9085 C   0  0  0  0  0  0
   17.8163  -11.1740   14.3683 C   0  0  0  0  0  0
   18.5302  -11.7702   13.5593 O   0  0  0  0  0  0
   14.9054  -11.7753   16.9121 C   0  0  0  0  0  0
   15.3449  -12.4063   18.2357 C   0  0  0  0  0  0
   16.5185  -12.5186   18.5809 O   0  0  0  0  0  0
   14.2792  -12.8097   18.9823 O   0  0  0  0  0  0
   17.5631  -13.8156   14.8965 H   0  0  0  0  0  0
   15.9847  -13.8308   15.6272 H   0  0  0  0  0  0
   16.1450  -13.4433   13.9139 H   0  0  0  0  0  0
   15.0955   -9.4736   18.1835 H   0  0  0  0  0  0
   15.5152   -7.1247   18.5247 H   0  0  0  0  0  0
   17.0208   -5.8663   17.0266 H   0  0  0  0  0  0
   19.3508   -9.4554   12.9358 H   0  0  0  0  0  0
   19.6878   -7.0694   13.2347 H   0  0  0  0  0  0
   18.5448   -5.8440   15.0342 H   0  0  0  0  0  0
   14.1293  -11.0347   17.0795 H   0  0  0  0  0  0
   14.4200  -12.5381   16.3065 H   0  0  0  0  0  0
   13.4195  -12.6354   18.5807 H   0  0  0  0  0  0
  1  2  1  0  0  0
  1 20  1  0  0  0
  1 21  1  0  0  0
  1 22  1  0  0  0
  2 14  1  0  0  0
  2  3  2  0  0  0
  3  4  1  0  0  0
  3 16  1  0  0  0
  4  9  2  0  0  0
  4  5  1  0  0  0
  5  6  2  0  0  0
  5 23  1  0  0  0
  6  7  1  0  0  0
  6 24  1  0  0  0
  7  8  2  0  0  0
  7 25  1  0  0  0
  8 13  1  0  0  0
  8  9  1  0  0  0
  9 10  1  0  0  0
 10 11  2  0  0  0
 10 14  1  0  0  0
 11 12  1  0  0  0
 11 26  1  0  0  0
 12 13  2  0  0  0
 12 27  1  0  0  0
 13 28  1  0  0  0
 14 15  2  0  0  0
 16 17  1  0  0  0
 16 29  1  0  0  0
 16 30  1  0  0  0
 17 18  2  0  0  0
 17 19  1  0  0  0
 19 31  1  0  0  0
M  END
> <s_m_entry_id>
7148

> <s_m_entry_name>
ligand_docking-pose.290

> <s_m_Source_Path>
/home/csk/Desktop/cluster/DUD-E-result/aldr

> <s_m_Source_File>
ligand_docking-pose.sdf

> <i_m_Source_File_Index>
290

> <i_lp_mmshare_version>
53161

> <r_lp_tautomer_probability>
1

> <s_lp_Force_Field>
OPLS_2005

> <r_lp_Energy>
23.162104

> <b_lp_Chiralities_Consistent>
1

> <s_lp_Variant>
274931-1

> <s_i_glide_gridfile>
glide-grid_2hv5

> <i_i_glide_lignum>
471

> <i_i_glide_rotatable_bonds>
3

> <r_i_docking_score>
-8.23234576171173

> <r_i_glide_ligand_efficiency>
-0.433281355879565

> <r_i_glide_ligand_efficiency_sa>
-1.15616868325475

> <r_i_glide_ligand_efficiency_ln>
-2.08707646516855

> <r_i_glide_gscore>
-8.23234576171173

> <r_i_glide_lipo>
-3.1279322972104

> <r_i_glide_hbond>
-0.304

> <r_i_glide_metal>
0

> <r_i_glide_rewards>
-2.75921732793384

> <r_i_glide_evdw>
-26.1775207519531

> <r_i_glide_ecoul>
-8.44086170196533

> <r_i_glide_erotb>
0.55140478554072

> <r_i_glide_esite>
-0.0175956292157521

> <r_i_glide_emodel>
-49.3304203358598

> <r_i_glide_energy>
-34.6183824539185

> <r_i_glide_einternal>
2.15693092346191

> <i_i_glide_confnum>
1

> <i_i_glide_posenum>
153

> <r_i_glide_eff_state_penalty>
0

> <i_f3d_flags>
0

> <s_user_duplicate_titles>
274931

> <s_m_subgroup_title>
dock_pv

> <s_m_subgroupid>
dock_pv1

> <b_m_subgroup_collapsed>
0

$$$$
219981
                    3D
 Schrodinger Suite 2021-1.
 36 38  0  0  1  0            999 V2000
   15.1798  -11.6417   17.5716 C   0  0  0  0  0  0
   16.1167  -11.6910   16.5421 C   0  0  0  0  0  0
   16.6129  -10.4072   16.3288 C   0  0  0  0  0  0
   16.0152   -9.5705   17.2539 N   0  0  0  0  0  0
   15.1277  -10.3259   17.9830 C   0  0  0  0  0  0
   16.2445   -8.1298   17.3580 C   0  0  2  0  0  0
   17.3409   -7.6663   16.3655 C   0  0  0  0  0  0
   17.7452   -6.5150   16.4012 O   0  0  0  0  0  0
   17.7617   -8.5617   15.4159 N   0  0  0  0  0  0
   17.5401   -9.9175   15.3286 C   0  0  0  0  0  0
   18.0444  -10.6249   14.4537 O   0  0  0  0  0  0
   18.5864   -7.9347   14.3318 C   0  0  0  0  0  0
   17.8468   -6.9306   13.4134 C   0  0  0  0  0  0
   18.5639   -5.9698   12.7260 C   0  0  0  0  0  0
   17.9689   -5.1547   11.7598 C   0  0  0  0  0  0
   16.6022   -5.2568   11.5207 C   0  0  0  0  0  0
   15.8364   -6.1152   12.3028 C   0  0  0  0  0  0
   16.4647   -6.9153   13.2608 C   0  0  0  0  0  0
   15.7450   -7.6587   14.1057 F   0  0  0  0  0  0
   15.7756   -4.1691   10.1932 Br  0  0  0  0  0  0
   16.5756   -7.6087   18.7973 C   0  0  0  0  0  0
   16.2576   -6.1344   19.1104 C   0  0  0  0  0  0
   16.1449   -5.2479   18.2714 O   0  0  0  0  0  0
   16.1463   -5.9373   20.4511 O   0  0  0  0  0  0
   14.5994  -12.4664   17.9612 H   0  0  0  0  0  0
   16.3892  -12.5717   15.9762 H   0  0  0  0  0  0
   14.5450   -9.8524   18.7522 H   0  0  0  0  0  0
   15.3260   -7.6540   17.0083 H   0  0  0  0  0  0
   19.4394   -7.4319   14.7937 H   0  0  0  0  0  0
   19.0437   -8.6726   13.6712 H   0  0  0  0  0  0
   19.5996   -5.8932   12.9811 H   0  0  0  0  0  0
   18.5448   -4.4351   11.2025 H   0  0  0  0  0  0
   14.7638   -6.1151   12.1815 H   0  0  0  0  0  0
   16.0627   -8.2262   19.5303 H   0  0  0  0  0  0
   17.6426   -7.7151   18.9810 H   0  0  0  0  0  0
   16.3828   -6.7236   20.9478 H   0  0  0  0  0  0
  1  5  2  0  0  0
  1  2  1  0  0  0
  1 25  1  0  0  0
  2  3  2  0  0  0
  2 26  1  0  0  0
  3 10  1  0  0  0
  3  4  1  0  0  0
  4  5  1  0  0  0
  4  6  1  0  0  0
  5 27  1  0  0  0
  6  7  1  0  0  0
  6 21  1  0  0  0
  6 28  1  0  0  0
  7  8  2  0  0  0
  7  9  1  0  0  0
  9 10  1  0  0  0
  9 12  1  0  0  0
 10 11  2  0  0  0
 12 13  1  0  0  0
 12 29  1  0  0  0
 12 30  1  0  0  0
 13 18  1  0  0  0
 13 14  2  0  0  0
 14 15  1  0  0  0
 14 31  1  0  0  0
 15 16  2  0  0  0
 15 32  1  0  0  0
 16 17  1  0  0  0
 16 20  1  0  0  0
 17 18  2  0  0  0
 17 33  1  0  0  0
 18 19  1  0  0  0
 21 22  1  0  0  0
 21 34  1  0  0  0
 21 35  1  0  0  0
 22 23  2  0  0  0
 22 24  1  0  0  0
 24 36  1  0  0  0
M  END
> <s_m_entry_id>
7149

> <s_m_entry_name>
ligand_docking-pose.291

> <s_m_Source_Path>
/home/csk/Desktop/cluster/DUD-E-result/aldr

> <s_m_Source_File>
ligand_docking-pose.sdf

> <i_m_Source_File_Index>
291

> <i_lp_mmshare_version>
53161

> <r_lp_tautomer_probability>
1

> <s_lp_Force_Field>
OPLS_2005

> <r_lp_Energy>
18.736304

> <b_lp_Chiralities_Consistent>
1

> <s_lp_Variant>
219981-2

> <s_i_glide_gridfile>
glide-grid_2hv5

> <i_i_glide_lignum>
121

> <i_i_glide_rotatable_bonds>
5

> <r_i_docking_score>
-8.2322541089067

> <r_i_glide_ligand_efficiency>
-0.343010587871112

> <r_i_glide_ligand_efficiency_sa>
-0.98941374488787

> <r_i_glide_ligand_efficiency_ln>
-1.97035616178768

> <r_i_glide_gscore>
-8.2322541089067

> <r_i_glide_lipo>
-3.49149899600838

> <r_i_glide_hbond>
0

> <r_i_glide_metal>
0

> <r_i_glide_rewards>
-3.24223234771507

> <r_i_glide_evdw>
-31.8789291381836

> <r_i_glide_ecoul>
-2.70253896713257

> <r_i_glide_erotb>
0.500804536795815

> <r_i_glide_esite>
0

> <r_i_glide_emodel>
-42.7337566934437

> <r_i_glide_energy>
-34.5814681053162

> <r_i_glide_einternal>
10.1010122299194

> <i_i_glide_confnum>
16

> <i_i_glide_posenum>
213

> <r_i_glide_eff_state_penalty>
0

> <i_f3d_flags>
0

> <s_user_duplicate_titles>
219981

> <s_m_subgroup_title>
dock_pv

> <s_m_subgroupid>
dock_pv1

> <b_m_subgroup_collapsed>
0

$$$$
219138
                    3D
 Schrodinger Suite 2021-1.
 37 40  0  0  1  0            999 V2000
   14.5402   -5.9844   11.4292 C   0  0  0  0  0  0
   14.7765   -4.9106   10.5795 C   0  0  0  0  0  0
   16.0617   -4.4036   10.4606 C   0  0  0  0  0  0
   17.0976   -4.9200   11.2402 C   0  0  0  0  0  0
   16.8689   -5.9709   12.1549 C   0  0  0  0  0  0
   15.5852   -6.5181   12.1769 C   0  0  0  0  0  0
   17.9563   -6.4673   13.1469 C   0  0  0  0  0  0
   17.6447   -7.6149   14.0852 N   0  0  0  0  0  0
   18.3232   -8.7933   13.8560 C   0  0  0  0  0  0
   19.2112   -8.9054   13.0158 O   0  0  0  0  0  0
   17.8448   -9.9065   14.6556 C   0  0  0  0  0  0
   18.1375  -11.2654   14.5766 C   0  0  0  0  0  0
   17.5209  -11.9258   15.6327 C   0  0  0  0  0  0
   16.8891  -10.9530   16.3782 C   0  0  0  0  0  0
   17.0847   -9.7178   15.7926 N   0  0  0  0  0  0
   16.5922   -8.4090   16.2284 C   0  0  2  0  0  0
   16.7631   -7.3329   15.1053 C   0  0  0  0  0  0
   16.1432   -6.2852   15.1928 O   0  0  0  0  0  0
   17.2742   -7.8677   17.4828 C   0  0  0  0  0  0
   16.1460   -7.2427   18.2899 C   0  0  0  0  0  0
   16.2772   -6.4673   19.2338 O   0  0  0  0  0  0
   14.9871   -7.6892   17.7657 N   0  0  0  0  0  0
   15.1228   -8.4832   16.6865 C   0  0  0  0  0  0
   14.2279   -9.1229   16.1399 O   0  0  0  0  0  0
   18.7914   -4.1140   10.9804 Br  0  0  0  0  0  0
   13.5499   -6.4135   11.4888 H   0  0  0  0  0  0
   13.9665   -4.5084    9.9923 H   0  0  0  0  0  0
   16.2526   -3.5908    9.7757 H   0  0  0  0  0  0
   15.3634   -7.3576   12.8064 H   0  0  0  0  0  0
   18.8626   -6.6575   12.5748 H   0  0  0  0  0  0
   18.2361   -5.6132   13.7641 H   0  0  0  0  0  0
   18.7466  -11.7296   13.8129 H   0  0  0  0  0  0
   17.5461  -12.9873   15.8349 H   0  0  0  0  0  0
   16.2976  -11.0369   17.2760 H   0  0  0  0  0  0
   17.7201   -8.6649   18.0709 H   0  0  0  0  0  0
   18.0628   -7.1324   17.3088 H   0  0  0  0  0  0
   14.0916   -7.4836   18.1801 H   0  0  0  0  0  0
  1  6  1  0  0  0
  1  2  2  0  0  0
  1 26  1  0  0  0
  2  3  1  0  0  0
  2 27  1  0  0  0
  3  4  2  0  0  0
  3 28  1  0  0  0
  4  5  1  0  0  0
  4 25  1  0  0  0
  5  6  2  0  0  0
  5  7  1  0  0  0
  6 29  1  0  0  0
  7  8  1  0  0  0
  7 30  1  0  0  0
  7 31  1  0  0  0
  8 17  1  0  0  0
  8  9  1  0  0  0
  9 10  2  0  0  0
  9 11  1  0  0  0
 11 15  1  0  0  0
 11 12  2  0  0  0
 12 13  1  0  0  0
 12 32  1  0  0  0
 13 14  2  0  0  0
 13 33  1  0  0  0
 14 15  1  0  0  0
 14 34  1  0  0  0
 15 16  1  0  0  0
 16 23  1  0  0  0
 16 17  1  0  0  0
 16 19  1  0  0  0
 17 18  2  0  0  0
 19 20  1  0  0  0
 19 35  1  0  0  0
 19 36  1  0  0  0
 20 21  2  0  0  0
 20 22  1  0  0  0
 22 23  1  0  0  0
 22 37  1  0  0  0
 23 24  2  0  0  0
M  END
> <s_m_entry_id>
7150

> <s_m_entry_name>
ligand_docking-pose.292

> <s_m_Source_Path>
/home/csk/Desktop/cluster/DUD-E-result/aldr

> <s_m_Source_File>
ligand_docking-pose.sdf

> <i_m_Source_File_Index>
292

> <i_lp_mmshare_version>
53161

> <r_lp_tautomer_probability>
0.99995

> <s_lp_Force_Field>
OPLS_2005

> <r_lp_Energy>
32.4579

> <b_lp_Chiralities_Consistent>
1

> <s_lp_Variant>
219138-2

> <s_i_glide_gridfile>
glide-grid_2hv5

> <i_i_glide_lignum>
394

> <i_i_glide_rotatable_bonds>
2

> <r_i_docking_score>
-8.2293044149129

> <r_i_glide_ligand_efficiency>
-0.329172176596516

> <r_i_glide_ligand_efficiency_sa>
-0.962505282261623

> <r_i_glide_ligand_efficiency_ln>
-1.95059175868728

> <r_i_glide_gscore>
-8.2293044149129

> <r_i_glide_lipo>
-3.31815427198633

> <r_i_glide_hbond>
-0.0266209033942233

> <r_i_glide_metal>
0

> <r_i_glide_rewards>
-3.25946054977209

> <r_i_glide_evdw>
-31.1044750213623

> <r_i_glide_ecoul>
-2.08292412757874

> <r_i_glide_erotb>
0.242593680444667

> <r_i_glide_esite>
0

> <r_i_glide_emodel>
-33.1759777876798

> <r_i_glide_energy>
-33.187399148941

> <r_i_glide_einternal>
0.225882545113564

> <i_i_glide_confnum>
5

> <i_i_glide_posenum>
203

> <r_i_glide_eff_state_penalty>
0

> <i_f3d_flags>
0

> <s_user_duplicate_titles>
219138

> <s_m_subgroup_title>
dock_pv

> <s_m_subgroupid>
dock_pv1

> <b_m_subgroup_collapsed>
0

$$$$
219072
                    3D
 Schrodinger Suite 2021-1.
 37 40  0  0  1  0            999 V2000
   16.8118  -12.0677   16.9347 C   0  0  0  0  0  0
   17.5271  -11.9072   15.7514 C   0  0  0  0  0  0
   17.5751  -10.5507   15.4395 C   0  0  0  0  0  0
   16.9699   -9.8622   16.4738 N   0  0  0  0  0  0
   16.4540  -10.8002   17.3473 C   0  0  0  0  0  0
   16.8422   -8.3954   16.5299 C   0  0  2  0  0  0
   17.2765   -7.7515   17.8355 C   0  0  0  0  0  0
   16.1347   -6.8437   18.2514 C   0  0  0  0  0  0
   16.1452   -6.0427   19.1823 O   0  0  0  0  0  0
   15.1090   -7.1038   17.4251 N   0  0  0  0  0  0
   15.3599   -8.0415   16.4949 C   0  0  0  0  0  0
   14.5382   -8.5584   15.7581 O   0  0  0  0  0  0
   17.5789   -7.7108   15.3400 C   0  0  0  0  0  0
   17.8561   -6.5150   15.3810 O   0  0  0  0  0  0
   17.9276   -8.5158   14.2864 N   0  0  0  0  0  0
   18.1450   -9.8787   14.2883 C   0  0  0  0  0  0
   18.7285  -10.4751   13.3810 O   0  0  0  0  0  0
   18.4349   -7.7797   13.0859 C   0  0  0  0  0  0
   17.5384   -6.6967   12.4576 C   0  0  0  0  0  0
   16.1545   -6.7747   12.5102 C   0  0  0  0  0  0
   15.3521   -5.8946   11.7810 C   0  0  0  0  0  0
   15.9462   -4.8779   11.0347 C   0  0  0  0  0  0
   17.3350   -4.7283   11.0457 C   0  0  0  0  0  0
   18.1042   -5.6242   11.7810 C   0  0  0  0  0  0
   18.1282   -3.4555   10.1810 Cl  0  0  0  0  0  0
   14.9450   -3.7699   10.1810 Cl  0  0  0  0  0  0
   16.5619  -13.0040   17.4139 H   0  0  0  0  0  0
   17.9386  -12.7045   15.1476 H   0  0  0  0  0  0
   15.8486  -10.4744   18.1810 H   0  0  0  0  0  0
   17.3450   -8.5150   18.5810 H   0  0  0  0  0  0
   18.2264   -7.2117   17.8220 H   0  0  0  0  0  0
   14.1979   -6.6883   17.5417 H   0  0  0  0  0  0
   18.6078   -8.4768   12.2658 H   0  0  0  0  0  0
   19.4122   -7.3551   13.3267 H   0  0  0  0  0  0
   15.7450   -7.5490   13.1163 H   0  0  0  0  0  0
   14.2757   -5.9863   11.8005 H   0  0  0  0  0  0
   19.1545   -5.4963   11.8178 H   0  0  0  0  0  0
  1  5  2  0  0  0
  1  2  1  0  0  0
  1 27  1  0  0  0
  2  3  2  0  0  0
  2 28  1  0  0  0
  3 16  1  0  0  0
  3  4  1  0  0  0
  4  5  1  0  0  0
  4  6  1  0  0  0
  5 29  1  0  0  0
  6 11  1  0  0  0
  6  7  1  0  0  0
  6 13  1  0  0  0
  7  8  1  0  0  0
  7 30  1  0  0  0
  7 31  1  0  0  0
  8  9  2  0  0  0
  8 10  1  0  0  0
 10 11  1  0  0  0
 10 32  1  0  0  0
 11 12  2  0  0  0
 13 14  2  0  0  0
 13 15  1  0  0  0
 15 16  1  0  0  0
 15 18  1  0  0  0
 16 17  2  0  0  0
 18 19  1  0  0  0
 18 33  1  0  0  0
 18 34  1  0  0  0
 19 24  1  0  0  0
 19 20  2  0  0  0
 20 21  1  0  0  0
 20 35  1  0  0  0
 21 22  2  0  0  0
 21 36  1  0  0  0
 22 23  1  0  0  0
 22 26  1  0  0  0
 23 24  2  0  0  0
 23 25  1  0  0  0
 24 37  1  0  0  0
M  END
> <s_m_entry_id>
7151

> <s_m_entry_name>
ligand_docking-pose.293

> <s_m_Source_Path>
/home/csk/Desktop/cluster/DUD-E-result/aldr

> <s_m_Source_File>
ligand_docking-pose.sdf

> <i_m_Source_File_Index>
293

> <i_lp_mmshare_version>
53161

> <r_lp_tautomer_probability>
0.99995

> <s_lp_Force_Field>
OPLS_2005

> <r_lp_Energy>
32.879221

> <b_lp_Chiralities_Consistent>
1

> <s_lp_Variant>
219072-2

> <s_i_glide_gridfile>
glide-grid_2hv5

> <i_i_glide_lignum>
99

> <i_i_glide_rotatable_bonds>
2

> <r_i_docking_score>
-8.22705339515567

> <r_i_glide_ligand_efficiency>
-0.31642513058291

> <r_i_glide_ligand_efficiency_sa>
-0.937408204279106

> <r_i_glide_ligand_efficiency_ln>
-1.9320964946883

> <r_i_glide_gscore>
-8.22705339515567

> <r_i_glide_lipo>
-3.22779089916796

> <r_i_glide_hbond>
0

> <r_i_glide_metal>
0

> <r_i_glide_rewards>
-3.42998681239441

> <r_i_glide_evdw>
-37.4776420593262

> <r_i_glide_ecoul>
0.338434755802155

> <r_i_glide_erotb>
0.253841206002684

> <r_i_glide_esite>
0

> <r_i_glide_emodel>
-46.2438675069276

> <r_i_glide_energy>
-37.139207303524

> <r_i_glide_einternal>
0.849170506000519

> <i_i_glide_confnum>
4

> <i_i_glide_posenum>
220

> <r_i_glide_eff_state_penalty>
0

> <i_f3d_flags>
0

> <s_user_duplicate_titles>
219072

> <s_m_subgroup_title>
dock_pv

> <s_m_subgroupid>
dock_pv1

> <b_m_subgroup_collapsed>
0

$$$$
236778
                    3D
 Schrodinger Suite 2021-1.
 37 39  0  0  1  0            999 V2000
   19.9904   -6.5396   14.5073 C   0  0  0  0  0  0
   18.6210   -6.8905   14.4585 O   0  0  0  0  0  0
   17.8359   -6.4704   13.4015 C   0  0  0  0  0  0
   18.3190   -5.6872   12.3508 C   0  0  0  0  0  0
   17.4834   -5.1060   11.3826 C   0  0  0  0  0  0
   17.9846   -4.2547   10.3658 C   0  0  0  0  0  0
   17.1120   -3.6450    9.4707 C   0  0  0  0  0  0
   15.7450   -3.8763    9.5608 C   0  0  0  0  0  0
   15.2255   -4.7125   10.5468 C   0  0  0  0  0  0
   16.0900   -5.3416   11.4743 C   0  0  0  0  0  0
   15.6131   -6.1645   12.5175 C   0  0  0  0  0  0
   16.4721   -6.7533   13.4627 C   0  0  0  0  0  0
   15.9214   -7.5631   14.5811 C   0  0  0  0  0  0
   16.3932   -8.7314   15.0997 C   0  0  0  0  0  0
   15.7497   -9.3403   16.2450 C   0  0  0  0  0  0
   14.8216   -8.8401   16.8889 O   0  0  0  0  0  0
   16.3034  -10.5539   16.5176 N   0  0  0  0  0  0
   17.2942  -11.0252   15.6983 C   0  0  0  0  0  0
   18.0546  -12.5150   15.6516 S   0  0  0  0  0  0
   17.7449   -9.7633   14.5809 S   0  0  0  0  0  0
   15.8757  -11.3151   17.7231 C   0  0  0  0  0  0
   14.6571  -12.2147   17.4683 C   0  0  0  0  0  0
   14.2136  -12.5150   16.3800 O   0  0  0  0  0  0
   14.1450  -12.5883   18.6724 O   0  0  0  0  0  0
   20.3895   -6.7722   15.4871 H   0  0  0  0  0  0
   20.5450   -7.1283   13.7810 H   0  0  0  0  0  0
   20.1450   -5.4739   14.3504 H   0  0  0  0  0  0
   19.3450   -5.4364   12.2947 H   0  0  0  0  0  0
   19.0439   -4.0623   10.3038 H   0  0  0  0  0  0
   17.4951   -2.9884    8.7037 H   0  0  0  0  0  0
   15.0768   -3.3995    8.8602 H   0  0  0  0  0  0
   14.1582   -4.8728   10.6128 H   0  0  0  0  0  0
   14.5450   -6.2654   12.5810 H   0  0  0  0  0  0
   15.0521   -7.1145   15.0423 H   0  0  0  0  0  0
   15.5991  -10.6096   18.5088 H   0  0  0  0  0  0
   16.6850  -11.9272   18.1180 H   0  0  0  0  0  0
   13.2365  -12.9149   18.5810 H   0  0  0  0  0  0
  1  2  1  0  0  0
  1 25  1  0  0  0
  1 26  1  0  0  0
  1 27  1  0  0  0
  2  3  1  0  0  0
  3 12  1  0  0  0
  3  4  2  0  0  0
  4  5  1  0  0  0
  4 28  1  0  0  0
  5 10  2  0  0  0
  5  6  1  0  0  0
  6  7  2  0  0  0
  6 29  1  0  0  0
  7  8  1  0  0  0
  7 30  1  0  0  0
  8  9  2  0  0  0
  8 31  1  0  0  0
  9 10  1  0  0  0
  9 32  1  0  0  0
 10 11  1  0  0  0
 11 12  2  0  0  0
 11 33  1  0  0  0
 12 13  1  0  0  0
 13 14  2  0  0  0
 13 34  1  0  0  0
 14 20  1  0  0  0
 14 15  1  0  0  0
 15 16  2  0  0  0
 15 17  1  0  0  0
 17 18  1  0  0  0
 17 21  1  0  0  0
 18 19  2  0  0  0
 18 20  1  0  0  0
 21 22  1  0  0  0
 21 35  1  0  0  0
 21 36  1  0  0  0
 22 23  2  0  0  0
 22 24  1  0  0  0
 24 37  1  0  0  0
M  END
> <s_m_entry_id>
7152

> <s_m_entry_name>
ligand_docking-pose.294

> <s_m_Source_Path>
/home/csk/Desktop/cluster/DUD-E-result/aldr

> <s_m_Source_File>
ligand_docking-pose.sdf

> <i_m_Source_File_Index>
294

> <i_lp_mmshare_version>
53161

> <r_lp_tautomer_probability>
1

> <s_lp_Force_Field>
OPLS_2005

> <r_lp_Energy>
22.123601

> <b_lp_Chiralities_Consistent>
1

> <s_lp_Variant>
236778-1

> <s_i_glide_gridfile>
glide-grid_2hv5

> <i_i_glide_lignum>
711

> <i_i_glide_rotatable_bonds>
5

> <r_i_docking_score>
-8.22548901521264

> <r_i_glide_ligand_efficiency>
-0.342728708967193

> <r_i_glide_ligand_efficiency_sa>
-0.988600665432619

> <r_i_glide_ligand_efficiency_ln>
-1.96873696443677

> <r_i_glide_gscore>
-8.22548901521264

> <r_i_glide_lipo>
-3.56251366647456

> <r_i_glide_hbond>
0

> <r_i_glide_metal>
0

> <r_i_glide_rewards>
-2.79440596369882

> <r_i_glide_evdw>
-37.1100082397461

> <r_i_glide_ecoul>
-3.05455923080444

> <r_i_glide_erotb>
0.445114911568711

> <r_i_glide_esite>
0

> <r_i_glide_emodel>
-51.1550727423434

> <r_i_glide_energy>
-40.1645674705505

> <r_i_glide_einternal>
4.70031213760376

> <i_i_glide_confnum>
10

> <i_i_glide_posenum>
318

> <r_i_glide_eff_state_penalty>
0

> <i_f3d_flags>
0

> <s_user_duplicate_titles>
236778

> <s_m_subgroup_title>
dock_pv

> <s_m_subgroupid>
dock_pv1

> <b_m_subgroup_collapsed>
0

$$$$
496919
                    3D
 Schrodinger Suite 2021-1.
 35 37  0  0  1  0            999 V2000
   18.8463  -12.8303   16.7009 C   0  0  0  0  0  0
   17.3702  -12.6317   16.3198 C   0  0  0  0  0  0
   16.9665  -13.4876   15.1073 C   0  0  0  0  0  0
   17.0196  -11.1711   16.0672 C   0  0  0  0  0  0
   15.9323  -10.5902   16.7281 C   0  0  0  0  0  0
   15.5362   -9.2950   16.4133 C   0  0  0  0  0  0
   16.2280   -8.5817   15.4385 C   0  0  0  0  0  0
   17.3481   -9.1193   14.7926 C   0  0  0  0  0  0
   17.7333  -10.4254   15.1190 C   0  0  0  0  0  0
   18.0614   -8.3238   13.7384 C   0  0  0  0  0  0
   19.1141   -8.7232   13.2442 O   0  0  0  0  0  0
   17.3532   -7.0865   13.3538 C   0  0  0  0  0  0
   16.2585   -6.7319   14.0391 C   0  0  0  0  0  0
   15.7081   -7.3574   15.0987 O   0  0  0  0  0  0
   17.9072   -6.2234   12.3056 C   0  0  0  0  0  0
   17.2998   -5.4506   11.3618 C   0  0  0  0  0  0
   15.8797   -5.3969   11.0426 C   0  0  0  0  0  0
   14.9797   -6.1157   11.4671 O   0  0  0  0  0  0
   15.6373   -4.3994   10.1790 N   0  0  0  0  0  0
   16.6189   -3.6435    9.6976 C   0  0  0  0  0  0
   16.5275   -2.6921    8.9271 O   0  0  0  0  0  0
   18.1454   -4.2681   10.3562 S   0  0  0  0  0  0
   19.1341  -12.1971   17.5390 H   0  0  0  0  0  0
   19.5069  -12.6081   15.8637 H   0  0  0  0  0  0
   19.0405  -13.8662   16.9817 H   0  0  0  0  0  0
   16.7817  -12.9878   17.1718 H   0  0  0  0  0  0
   15.8937  -13.4186   14.9108 H   0  0  0  0  0  0
   17.4958  -13.1923   14.2029 H   0  0  0  0  0  0
   17.1906  -14.5320   15.2885 H   0  0  0  0  0  0
   15.3649  -11.1507   17.4578 H   0  0  0  0  0  0
   14.6681   -8.8638   16.8877 H   0  0  0  0  0  0
   18.5467  -10.8904   14.5806 H   0  0  0  0  0  0
   15.7449   -5.8458   13.7801 H   0  0  0  0  0  0
   18.9736   -6.1049   12.3621 H   0  0  0  0  0  0
   14.6876   -4.2075    9.8955 H   0  0  0  0  0  0
  1  2  1  0  0  0
  1 23  1  0  0  0
  1 24  1  0  0  0
  1 25  1  0  0  0
  2  3  1  0  0  0
  2  4  1  0  0  0
  2 26  1  0  0  0
  3 27  1  0  0  0
  3 28  1  0  0  0
  3 29  1  0  0  0
  4  9  1  0  0  0
  4  5  2  0  0  0
  5  6  1  0  0  0
  5 30  1  0  0  0
  6  7  2  0  0  0
  6 31  1  0  0  0
  7 14  1  0  0  0
  7  8  1  0  0  0
  8  9  2  0  0  0
  8 10  1  0  0  0
  9 32  1  0  0  0
 10 11  2  0  0  0
 10 12  1  0  0  0
 12 13  2  0  0  0
 12 15  1  0  0  0
 13 14  1  0  0  0
 13 33  1  0  0  0
 15 16  2  0  0  0
 15 34  1  0  0  0
 16 22  1  0  0  0
 16 17  1  0  0  0
 17 18  2  0  0  0
 17 19  1  0  0  0
 19 20  1  0  0  0
 19 35  1  0  0  0
 20 21  2  0  0  0
 20 22  1  0  0  0
M  END
> <s_m_entry_id>
7153

> <s_m_entry_name>
ligand_docking-pose.295

> <s_m_Source_Path>
/home/csk/Desktop/cluster/DUD-E-result/aldr

> <s_m_Source_File>
ligand_docking-pose.sdf

> <i_m_Source_File_Index>
295

> <i_lp_mmshare_version>
53161

> <r_lp_tautomer_probability>
1

> <s_lp_Force_Field>
OPLS_2005

> <r_lp_Energy>
16.691005

> <b_lp_Chiralities_Consistent>
1

> <s_lp_Variant>
496919-1

> <s_i_glide_gridfile>
glide-grid_2hv5

> <i_i_glide_lignum>
546

> <i_i_glide_rotatable_bonds>
2

> <r_i_docking_score>
-8.19565462242647

> <r_i_glide_ligand_efficiency>
-0.372529755564839

> <r_i_glide_ligand_efficiency_sa>
-1.0438430258566

> <r_i_glide_ligand_efficiency_ln>
-2.00331693348689

> <r_i_glide_gscore>
-8.19565462242647

> <r_i_glide_lipo>
-3.13846700671944

> <r_i_glide_hbond>
0

> <r_i_glide_metal>
0

> <r_i_glide_rewards>
-3.05901327272727

> <r_i_glide_evdw>
-36.9885902404785

> <r_i_glide_ecoul>
-2.23867273330688

> <r_i_glide_erotb>
0.187056079040207

> <r_i_glide_esite>
0

> <r_i_glide_emodel>
-49.3429610010942

> <r_i_glide_energy>
-39.2272629737854

> <r_i_glide_einternal>
0.415011256933212

> <i_i_glide_confnum>
4

> <i_i_glide_posenum>
19

> <r_i_glide_eff_state_penalty>
0

> <i_f3d_flags>
0

> <s_user_duplicate_titles>
496919

> <s_m_subgroup_title>
dock_pv

> <s_m_subgroupid>
dock_pv1

> <b_m_subgroup_collapsed>
0

$$$$
99438
                    3D
 Schrodinger Suite 2021-1.
 43 46  0  0  1  0            999 V2000
   16.1450   -2.1785    9.2080 C   0  0  0  0  0  0
   15.5534   -3.4421    9.4940 O   0  0  0  0  0  0
   16.2502   -4.3153   10.2926 C   0  0  0  0  0  0
   15.5307   -5.3152   10.9480 C   0  0  0  0  0  0
   16.1669   -6.1544   11.8616 C   0  0  0  0  0  0
   17.5272   -5.9780   12.1413 C   0  0  0  0  0  0
   18.2402   -5.0302   11.4208 C   0  0  0  0  0  0
   17.6269   -4.2116   10.4942 C   0  0  0  0  0  0
   18.3159   -6.7162   13.2325 C   0  0  0  0  0  0
   17.7376   -7.9008   13.9337 N   0  0  0  0  0  0
   18.3609   -9.1061   13.7192 C   0  0  0  0  0  0
   19.3450   -9.2202   12.9857 O   0  0  0  0  0  0
   17.8064  -10.2919   14.4839 C   0  0  0  0  0  0
   18.3193  -11.5634   14.1810 C   0  0  0  0  0  0
   17.9322  -12.6756   14.9229 C   0  0  0  0  0  0
   17.0495  -12.5231   15.9864 C   0  0  0  0  0  0
   16.5459  -11.2614   16.2936 C   0  0  0  0  0  0
   16.8953  -10.1284   15.5375 C   0  0  0  0  0  0
   16.3587   -8.7207   15.8313 C   0  0  1  0  0  0
   16.7090   -7.6110   14.7902 C   0  0  0  0  0  0
   16.1450   -6.5150   14.8334 O   0  0  0  0  0  0
   14.8657   -8.6974   16.1442 C   0  0  0  0  0  0
   14.7695   -7.8305   17.3741 C   0  0  0  0  0  0
   13.7551   -7.3150   17.7810 O   0  0  0  0  0  0
   15.9869   -7.6852   17.8956 N   0  0  0  0  0  0
   16.9598   -8.1853   17.1299 C   0  0  0  0  0  0
   18.1450   -8.1150   17.3810 O   0  0  0  0  0  0
   15.3551   -1.4742    8.9810 H   0  0  0  0  0  0
   16.8135   -2.2426    8.3495 H   0  0  0  0  0  0
   16.6863   -1.7531   10.0551 H   0  0  0  0  0  0
   14.4675   -5.4071   10.7804 H   0  0  0  0  0  0
   15.5785   -6.8975   12.3746 H   0  0  0  0  0  0
   19.2927   -4.9150   11.5975 H   0  0  0  0  0  0
   18.2224   -3.4770    9.9754 H   0  0  0  0  0  0
   19.3040   -6.9286   12.8257 H   0  0  0  0  0  0
   18.5448   -5.9711   13.9982 H   0  0  0  0  0  0
   19.0303  -11.6999   13.3771 H   0  0  0  0  0  0
   18.3292  -13.6512   14.6827 H   0  0  0  0  0  0
   16.7579  -13.3815   16.5741 H   0  0  0  0  0  0
   15.8728  -11.1703   17.1330 H   0  0  0  0  0  0
   14.2352   -8.2588   15.3810 H   0  0  0  0  0  0
   14.4286   -9.6699   16.3690 H   0  0  0  0  0  0
   16.1678   -7.1996   18.7596 H   0  0  0  0  0  0
  1  2  1  0  0  0
  1 28  1  0  0  0
  1 29  1  0  0  0
  1 30  1  0  0  0
  2  3  1  0  0  0
  3  8  1  0  0  0
  3  4  2  0  0  0
  4  5  1  0  0  0
  4 31  1  0  0  0
  5  6  2  0  0  0
  5 32  1  0  0  0
  6  7  1  0  0  0
  6  9  1  0  0  0
  7  8  2  0  0  0
  7 33  1  0  0  0
  8 34  1  0  0  0
  9 10  1  0  0  0
  9 35  1  0  0  0
  9 36  1  0  0  0
 10 20  1  0  0  0
 10 11  1  0  0  0
 11 12  2  0  0  0
 11 13  1  0  0  0
 13 18  2  0  0  0
 13 14  1  0  0  0
 14 15  2  0  0  0
 14 37  1  0  0  0
 15 16  1  0  0  0
 15 38  1  0  0  0
 16 17  2  0  0  0
 16 39  1  0  0  0
 17 18  1  0  0  0
 17 40  1  0  0  0
 18 19  1  0  0  0
 19 26  1  0  0  0
 19 20  1  0  0  0
 19 22  1  0  0  0
 20 21  2  0  0  0
 22 23  1  0  0  0
 22 41  1  0  0  0
 22 42  1  0  0  0
 23 24  2  0  0  0
 23 25  1  0  0  0
 25 26  1  0  0  0
 25 43  1  0  0  0
 26 27  2  0  0  0
M  END
> <s_m_entry_id>
7154

> <s_m_entry_name>
ligand_docking-pose.296

> <s_m_Source_Path>
/home/csk/Desktop/cluster/DUD-E-result/aldr

> <s_m_Source_File>
ligand_docking-pose.sdf

> <i_m_Source_File_Index>
296

> <i_lp_mmshare_version>
53161

> <r_lp_tautomer_probability>
0.99999999995914

> <s_lp_Force_Field>
OPLS_2005

> <r_lp_Energy>
36.949722

> <b_lp_Chiralities_Consistent>
1

> <s_lp_Variant>
99438-1

> <s_i_glide_gridfile>
glide-grid_2hv5

> <i_i_glide_lignum>
765

> <i_i_glide_rotatable_bonds>
3

> <r_i_docking_score>
-8.18939796151399

> <r_i_glide_ligand_efficiency>
-0.303311035611629

> <r_i_glide_ligand_efficiency_sa>
-0.909933105835224

> <r_i_glide_ligand_efficiency_ln>
-1.90635683266324

> <r_i_glide_gscore>
-8.18939796151399

> <r_i_glide_lipo>
-3.84895251567524

> <r_i_glide_hbond>
-0.00164751303074171

> <r_i_glide_metal>
0

> <r_i_glide_rewards>
-3.59062225373463

> <r_i_glide_evdw>
-30.0628223419189

> <r_i_glide_ecoul>
3.10230183601379

> <r_i_glide_erotb>
0.289620162620504

> <r_i_glide_esite>
0

> <r_i_glide_emodel>
-26.4624878699788

> <r_i_glide_energy>
-26.9605205059052

> <r_i_glide_einternal>
11.6225538253784

> <i_i_glide_confnum>
4

> <i_i_glide_posenum>
9

> <r_i_glide_eff_state_penalty>
0

> <i_f3d_flags>
0

> <s_user_duplicate_titles>
99438

> <s_m_subgroup_title>
dock_pv

> <s_m_subgroupid>
dock_pv1

> <b_m_subgroup_collapsed>
0

$$$$
219249
                    3D
 Schrodinger Suite 2021-1.
 37 40  0  0  1  0            999 V2000
   18.1609  -12.1318   14.3924 C   0  0  0  0  0  0
   18.8906  -11.1183   13.7810 C   0  0  0  0  0  0
   18.2943   -9.8979   14.0889 C   0  0  0  0  0  0
   17.2722  -10.1378   14.9810 N   0  0  0  0  0  0
   17.1735  -11.5101   15.1286 C   0  0  0  0  0  0
   16.4285   -9.0705   15.5590 C   0  0  1  0  0  0
   14.9716   -9.5072   15.7522 C   0  0  0  0  0  0
   14.9607  -10.0267   17.1809 C   0  0  0  0  0  0
   14.1450  -10.7826   17.6918 O   0  0  0  0  0  0
   16.0419   -9.5187   17.7810 N   0  0  0  0  0  0
   16.8641   -8.8137   16.9982 C   0  0  0  0  0  0
   17.7982   -8.1150   17.3810 O   0  0  0  0  0  0
   16.6097   -7.7150   14.8023 C   0  0  0  0  0  0
   15.8607   -6.7727   15.0659 O   0  0  0  0  0  0
   17.7115   -7.6284   13.9716 N   0  0  0  0  0  0
   18.7200   -8.5534   13.7993 C   0  0  0  0  0  0
   19.8428   -8.2859   13.3810 O   0  0  0  0  0  0
   17.9981   -6.2766   13.3915 C   0  0  0  0  0  0
   17.1395   -5.7800   12.2158 C   0  0  0  0  0  0
   15.8039   -6.1340   12.0489 C   0  0  0  0  0  0
   15.0540   -5.6607   10.9810 C   0  0  0  0  0  0
   15.6846   -4.8880   10.0034 C   0  0  0  0  0  0
   16.9925   -4.4860   10.1673 C   0  0  0  0  0  0
   17.6951   -4.9235   11.2687 C   0  0  0  0  0  0
   18.9450   -4.5150   11.3810 F   0  0  0  0  0  0
   14.9450   -4.5150    8.5075 Cl  0  0  0  0  0  0
   18.3475  -13.1944   14.3234 H   0  0  0  0  0  0
   19.7627  -11.2528   13.1562 H   0  0  0  0  0  0
   16.4096  -11.9423   15.7575 H   0  0  0  0  0  0
   14.2480   -8.6924   15.6821 H   0  0  0  0  0  0
   14.6476  -10.2839   15.0597 H   0  0  0  0  0  0
   16.2048   -9.6180   18.7735 H   0  0  0  0  0  0
   19.0363   -6.1830   13.0688 H   0  0  0  0  0  0
   17.9391   -5.5414   14.1849 H   0  0  0  0  0  0
   15.3450   -6.8021   12.7327 H   0  0  0  0  0  0
   14.0164   -5.9493   10.9107 H   0  0  0  0  0  0
   17.4779   -3.8714    9.4242 H   0  0  0  0  0  0
  1  5  2  0  0  0
  1  2  1  0  0  0
  1 27  1  0  0  0
  2  3  2  0  0  0
  2 28  1  0  0  0
  3 16  1  0  0  0
  3  4  1  0  0  0
  4  5  1  0  0  0
  4  6  1  0  0  0
  5 29  1  0  0  0
  6 11  1  0  0  0
  6  7  1  0  0  0
  6 13  1  0  0  0
  7  8  1  0  0  0
  7 30  1  0  0  0
  7 31  1  0  0  0
  8  9  2  0  0  0
  8 10  1  0  0  0
 10 11  1  0  0  0
 10 32  1  0  0  0
 11 12  2  0  0  0
 13 14  2  0  0  0
 13 15  1  0  0  0
 15 16  1  0  0  0
 15 18  1  0  0  0
 16 17  2  0  0  0
 18 19  1  0  0  0
 18 33  1  0  0  0
 18 34  1  0  0  0
 19 24  1  0  0  0
 19 20  2  0  0  0
 20 21  1  0  0  0
 20 35  1  0  0  0
 21 22  2  0  0  0
 21 36  1  0  0  0
 22 23  1  0  0  0
 22 26  1  0  0  0
 23 24  2  0  0  0
 23 37  1  0  0  0
 24 25  1  0  0  0
M  END
> <s_m_entry_id>
7155

> <s_m_entry_name>
ligand_docking-pose.297

> <s_m_Source_Path>
/home/csk/Desktop/cluster/DUD-E-result/aldr

> <s_m_Source_File>
ligand_docking-pose.sdf

> <i_m_Source_File_Index>
297

> <i_lp_mmshare_version>
53161

> <r_lp_tautomer_probability>
0.99995

> <s_lp_Force_Field>
OPLS_2005

> <r_lp_Energy>
32.313927

> <b_lp_Chiralities_Consistent>
1

> <s_lp_Variant>
219249-1

> <s_i_glide_gridfile>
glide-grid_2hv5

> <i_i_glide_lignum>
106

> <i_i_glide_rotatable_bonds>
2

> <r_i_docking_score>
-8.18006323153196

> <r_i_glide_ligand_efficiency>
-0.314617816597383

> <r_i_glide_ligand_efficiency_sa>
-0.932054043708418

> <r_i_glide_ligand_efficiency_ln>
-1.92106100894857

> <r_i_glide_gscore>
-8.18006323153196

> <r_i_glide_lipo>
-3.34986698654743

> <r_i_glide_hbond>
-0.0219681922253596

> <r_i_glide_metal>
0

> <r_i_glide_rewards>
-3.54724061590909

> <r_i_glide_evdw>
-30.847936630249

> <r_i_glide_ecoul>
0.0485862605273724

> <r_i_glide_erotb>
0.274121455583264

> <r_i_glide_esite>
0

> <r_i_glide_emodel>
-33.5801498741712

> <r_i_glide_energy>
-30.7993503697217

> <r_i_glide_einternal>
2.80269694328308

> <i_i_glide_confnum>
5

> <i_i_glide_posenum>
102

> <r_i_glide_eff_state_penalty>
0

> <i_f3d_flags>
0

> <s_user_duplicate_titles>
219249

> <s_m_subgroup_title>
dock_pv

> <s_m_subgroupid>
dock_pv1

> <b_m_subgroup_collapsed>
0

$$$$
219483
                    3D
 Schrodinger Suite 2021-1.
 45 48  0  0  1  0            999 V2000
   17.3889   -3.5860    9.4435 C   0  0  0  0  0  0
   16.5726   -4.6077   10.0045 O   0  0  0  0  0  0
   16.9696   -5.2300   11.1755 C   0  0  0  0  0  0
   18.2094   -5.0149   11.7805 C   0  0  0  0  0  0
   18.5495   -5.6653   12.9667 C   0  0  0  0  0  0
   17.6612   -6.5273   13.5894 C   0  0  0  0  0  0
   16.4303   -6.7659   12.9838 C   0  0  0  0  0  0
   16.0783   -6.1157   11.7980 C   0  0  0  0  0  0
   14.8482   -6.3695   11.2574 O   0  0  0  0  0  0
   13.9586   -5.2687   11.3058 C   0  0  0  0  0  0
   18.0653   -7.2115   14.8969 C   0  0  0  0  0  0
   17.7224   -8.6628   14.9898 N   0  0  0  0  0  0
   18.4203   -9.4673   14.1138 C   0  0  0  0  0  0
   19.3161   -9.0457   13.3780 O   0  0  0  0  0  0
   17.9666  -10.8344   14.1031 C   0  0  0  0  0  0
   18.3659  -11.8893   13.2890 C   0  0  0  0  0  0
   17.6950  -13.0363   13.6922 C   0  0  0  0  0  0
   16.9175  -12.6746   14.7732 C   0  0  0  0  0  0
   17.0552  -11.3207   15.0194 N   0  0  0  0  0  0
   16.4814  -10.5257   16.1203 C   0  0  2  0  0  0
   16.8746   -9.0091   16.0194 C   0  0  0  0  0  0
   16.4539   -8.2026   16.8575 O   0  0  0  0  0  0
   16.8763  -11.1201   17.4621 C   0  0  0  0  0  0
   15.6233  -11.8104   17.9743 C   0  0  0  0  0  0
   15.5726  -12.5372   18.9613 O   0  0  0  0  0  0
   14.6060  -11.4533   17.1786 N   0  0  0  0  0  0
   14.9468  -10.6442   16.1587 C   0  0  0  0  0  0
   14.1576  -10.1141   15.3810 O   0  0  0  0  0  0
   16.8957   -3.1721    8.5642 H   0  0  0  0  0  0
   18.3575   -3.9759    9.1272 H   0  0  0  0  0  0
   17.5453   -2.7672   10.1474 H   0  0  0  0  0  0
   18.9325   -4.3483   11.3407 H   0  0  0  0  0  0
   19.5172   -5.4819   13.4109 H   0  0  0  0  0  0
   15.7448   -7.4485   13.4518 H   0  0  0  0  0  0
   13.3432   -5.2764   10.4126 H   0  0  0  0  0  0
   13.3260   -5.3710   12.1810 H   0  0  0  0  0  0
   14.4362   -4.2883   11.3483 H   0  0  0  0  0  0
   19.1417   -7.1002   15.0468 H   0  0  0  0  0  0
   17.6281   -6.6080   15.6933 H   0  0  0  0  0  0
   19.0785  -11.8231   12.4781 H   0  0  0  0  0  0
   17.7858  -14.0187   13.2545 H   0  0  0  0  0  0
   16.2659  -13.2747   15.3911 H   0  0  0  0  0  0
   17.6960  -11.8389   17.4019 H   0  0  0  0  0  0
   17.1733  -10.3587   18.1808 H   0  0  0  0  0  0
   13.6535  -11.7341   17.3598 H   0  0  0  0  0  0
  1  2  1  0  0  0
  1 29  1  0  0  0
  1 30  1  0  0  0
  1 31  1  0  0  0
  2  3  1  0  0  0
  3  8  1  0  0  0
  3  4  2  0  0  0
  4  5  1  0  0  0
  4 32  1  0  0  0
  5  6  2  0  0  0
  5 33  1  0  0  0
  6  7  1  0  0  0
  6 11  1  0  0  0
  7  8  2  0  0  0
  7 34  1  0  0  0
  8  9  1  0  0  0
  9 10  1  0  0  0
 10 35  1  0  0  0
 10 36  1  0  0  0
 10 37  1  0  0  0
 11 12  1  0  0  0
 11 38  1  0  0  0
 11 39  1  0  0  0
 12 21  1  0  0  0
 12 13  1  0  0  0
 13 14  2  0  0  0
 13 15  1  0  0  0
 15 19  1  0  0  0
 15 16  2  0  0  0
 16 17  1  0  0  0
 16 40  1  0  0  0
 17 18  2  0  0  0
 17 41  1  0  0  0
 18 19  1  0  0  0
 18 42  1  0  0  0
 19 20  1  0  0  0
 20 27  1  0  0  0
 20 21  1  0  0  0
 20 23  1  0  0  0
 21 22  2  0  0  0
 23 24  1  0  0  0
 23 43  1  0  0  0
 23 44  1  0  0  0
 24 25  2  0  0  0
 24 26  1  0  0  0
 26 27  1  0  0  0
 26 45  1  0  0  0
 27 28  2  0  0  0
M  END
> <s_m_entry_id>
7156

> <s_m_entry_name>
ligand_docking-pose.298

> <s_m_Source_Path>
/home/csk/Desktop/cluster/DUD-E-result/aldr

> <s_m_Source_File>
ligand_docking-pose.sdf

> <i_m_Source_File_Index>
298

> <i_lp_mmshare_version>
53161

> <r_lp_tautomer_probability>
0.99995

> <s_lp_Force_Field>
OPLS_2005

> <r_lp_Energy>
40.15621

> <b_lp_Chiralities_Consistent>
1

> <s_lp_Variant>
219483-2

> <s_i_glide_gridfile>
glide-grid_2hv5

> <i_i_glide_lignum>
777

> <i_i_glide_rotatable_bonds>
4

> <r_i_docking_score>
-8.17540389918544

> <r_i_glide_ligand_efficiency>
-0.291978710685194

> <r_i_glide_ligand_efficiency_sa>
-0.886619331904337

> <r_i_glide_ligand_efficiency_ln>
-1.88712326022088

> <r_i_glide_gscore>
-8.17540389918544

> <r_i_glide_lipo>
-3.33805298260676

> <r_i_glide_hbond>
-0.252208731240885

> <r_i_glide_metal>
0

> <r_i_glide_rewards>
-2.80398789157704

> <r_i_glide_evdw>
-39.3734893798828

> <r_i_glide_ecoul>
-0.375796407461166

> <r_i_glide_erotb>
0.26444123665216

> <r_i_glide_esite>
-0.0205516002996071

> <r_i_glide_emodel>
-42.804623922642

> <r_i_glide_energy>
-39.749285787344

> <r_i_glide_einternal>
7.13060855865479

> <i_i_glide_confnum>
4

> <i_i_glide_posenum>
2

> <r_i_glide_eff_state_penalty>
0

> <i_f3d_flags>
0

> <s_user_duplicate_titles>
219483

> <s_m_subgroup_title>
dock_pv

> <s_m_subgroupid>
dock_pv1

> <b_m_subgroup_collapsed>
0

$$$$
2029
                    3D
 Schrodinger Suite 2021-1.
 26 28  0  0  1  0            999 V2000
   18.5286   -8.5543   13.5441 C   0  0  0  0  0  0
   17.7451   -9.5378   14.1428 C   0  0  0  0  0  0
   17.0628   -9.2620   15.3281 C   0  0  0  0  0  0
   17.2317   -8.0336   16.0009 C   0  0  0  0  0  0
   18.0481   -7.0755   15.3847 C   0  0  0  0  0  0
   18.6559   -7.3116   14.1567 C   0  0  0  0  0  0
   19.3450   -6.3209   13.5566 F   0  0  0  0  0  0
   16.5086   -7.7851   17.3406 C   0  0  2  0  0  0
   15.7275   -9.0531   17.7771 C   0  0  0  0  0  0
   15.1284   -9.8062   16.5795 C   0  0  0  0  0  0
   16.2206  -10.2620   15.7762 O   0  0  0  0  0  0
   15.5789   -6.5889   17.2257 C   0  0  0  0  0  0
   14.5451   -6.5163   16.5809 O   0  0  0  0  0  0
   16.1023   -5.6249   17.9875 N   0  0  0  0  0  0
   17.1104   -6.0194   18.7640 C   0  0  0  0  0  0
   17.7449   -5.3152   19.5405 O   0  0  0  0  0  0
   17.3611   -7.2727   18.3771 N   0  0  0  0  0  0
   19.0096   -8.7442   12.5950 H   0  0  0  0  0  0
   17.6178  -10.4939   13.6560 H   0  0  0  0  0  0
   18.1822   -6.1151   15.8504 H   0  0  0  0  0  0
   16.4447   -9.7619   18.1816 H   0  0  0  0  0  0
   14.9739   -8.8572   18.5420 H   0  0  0  0  0  0
   14.4581   -9.1647   16.0039 H   0  0  0  0  0  0
   14.5488  -10.6671   16.9137 H   0  0  0  0  0  0
   15.7459   -4.6840   18.0168 H   0  0  0  0  0  0
   17.8497   -7.9161   18.9833 H   0  0  0  0  0  0
  1  6  1  0  0  0
  1  2  2  0  0  0
  1 18  1  0  0  0
  2  3  1  0  0  0
  2 19  1  0  0  0
  3 11  1  0  0  0
  3  4  2  0  0  0
  4  5  1  0  0  0
  4  8  1  0  0  0
  5  6  2  0  0  0
  5 20  1  0  0  0
  6  7  1  0  0  0
  8 17  1  0  0  0
  8  9  1  0  0  0
  8 12  1  0  0  0
  9 10  1  0  0  0
  9 21  1  0  0  0
  9 22  1  0  0  0
 10 11  1  0  0  0
 10 23  1  0  0  0
 10 24  1  0  0  0
 12 13  2  0  0  0
 12 14  1  0  0  0
 14 15  1  0  0  0
 14 25  1  0  0  0
 15 16  2  0  0  0
 15 17  1  0  0  0
 17 26  1  0  0  0
M  END
> <s_m_entry_id>
7159

> <s_m_entry_name>
ligand_docking-pose.301

> <s_m_Source_Path>
/home/csk/Desktop/cluster/DUD-E-result/aldr

> <s_m_Source_File>
ligand_docking-pose.sdf

> <i_m_Source_File_Index>
301

> <i_lp_mmshare_version>
53161

> <r_lp_tautomer_probability>
0.99999999978137

> <s_lp_Force_Field>
OPLS_2005

> <r_lp_Energy>
22.108723

> <b_lp_Chiralities_Consistent>
1

> <s_lp_Variant>
2029-1

> <s_i_glide_gridfile>
glide-grid_2hv5

> <i_i_glide_lignum>
44

> <i_i_glide_rotatable_bonds>
0

> <r_i_docking_score>
-8.16246914484497

> <r_i_glide_ligand_efficiency>
-0.48014524381441

> <r_i_glide_ligand_efficiency_sa>
-1.23458862509615

> <r_i_glide_ligand_efficiency_ln>
-2.12940643063912

> <r_i_glide_gscore>
-8.16246914484497

> <r_i_glide_lipo>
-2.37572932231667

> <r_i_glide_hbond>
-0.344502845849899

> <r_i_glide_metal>
0

> <r_i_glide_rewards>
-3.68895472770456

> <r_i_glide_evdw>
-25.5825576782227

> <r_i_glide_ecoul>
-3.16102910041809

> <r_i_glide_erotb>
0

> <r_i_glide_esite>
0

> <r_i_glide_emodel>
-42.905991672791

> <r_i_glide_energy>
-28.7435867786407

> <r_i_glide_einternal>
0

> <i_i_glide_confnum>
2

> <i_i_glide_posenum>
1

> <r_i_glide_eff_state_penalty>
0

> <i_f3d_flags>
0

> <s_user_duplicate_titles>
2029

> <s_m_subgroup_title>
dock_pv

> <s_m_subgroupid>
dock_pv1

> <b_m_subgroup_collapsed>
0

$$$$
100263
                    3D
 Schrodinger Suite 2021-1.
 43 46  0  0  1  0            999 V2000
   20.7323  -13.1596   12.7275 C   0  0  0  0  0  0
   19.7527  -13.4504   13.7217 O   0  0  0  0  0  0
   18.9195  -12.4377   14.1559 C   0  0  0  0  0  0
   18.0181  -12.7413   15.1700 C   0  0  0  0  0  0
   17.1760  -11.7598   15.6884 C   0  0  0  0  0  0
   17.1958  -10.4372   15.2071 C   0  0  0  0  0  0
   18.1002  -10.1385   14.1839 C   0  0  0  0  0  0
   18.9461  -11.1291   13.6618 C   0  0  0  0  0  0
   18.2986   -8.7264   13.6932 C   0  0  0  0  0  0
   19.2604   -8.4448   12.9816 O   0  0  0  0  0  0
   17.4030   -7.7858   14.1424 N   0  0  0  0  0  0
   16.3404   -7.9365   15.0049 C   0  0  0  0  0  0
   15.5541   -7.0315   15.3109 O   0  0  0  0  0  0
   16.2919   -9.3064   15.7490 C   0  0  1  0  0  0
   14.8700   -9.8080   16.0141 C   0  0  0  0  0  0
   14.8859  -10.1191   17.5017 C   0  0  0  0  0  0
   14.1451  -10.8874   18.1018 O   0  0  0  0  0  0
   15.8941   -9.4216   18.0346 N   0  0  0  0  0  0
   16.7629   -8.9160   17.1465 C   0  0  0  0  0  0
   17.7451   -8.2211   17.3948 O   0  0  0  0  0  0
   17.7198   -6.3839   13.7562 C   0  0  0  0  0  0
   17.2308   -5.8557   12.4071 C   0  0  0  0  0  0
   18.1503   -5.3150   11.5121 C   0  0  0  0  0  0
   17.7342   -4.6736   10.3479 C   0  0  0  0  0  0
   16.3727   -4.5676   10.0915 C   0  0  0  0  0  0
   15.4406   -5.1123   10.9533 C   0  0  0  0  0  0
   15.8738   -5.7345   12.1073 C   0  0  0  0  0  0
   14.9453   -6.1150   12.9744 F   0  0  0  0  0  0
   15.7444   -3.6535    8.5810 Br  0  0  0  0  0  0
   21.3429  -14.0414   12.5434 H   0  0  0  0  0  0
   20.2629  -12.8819   11.7821 H   0  0  0  0  0  0
   21.4053  -12.3598   13.0378 H   0  0  0  0  0  0
   17.9786  -13.7453   15.5668 H   0  0  0  0  0  0
   16.5015  -12.0492   16.4793 H   0  0  0  0  0  0
   19.6588  -10.8679   12.8918 H   0  0  0  0  0  0
   14.0858   -9.0714   15.8249 H   0  0  0  0  0  0
   14.6069  -10.6977   15.4413 H   0  0  0  0  0  0
   16.0579   -9.3733   19.0312 H   0  0  0  0  0  0
   18.7948   -6.2129   13.8339 H   0  0  0  0  0  0
   17.3265   -5.7151   14.5085 H   0  0  0  0  0  0
   19.2008   -5.3748   11.7384 H   0  0  0  0  0  0
   18.4541   -4.2470    9.6658 H   0  0  0  0  0  0
   14.3832   -5.0028   10.7605 H   0  0  0  0  0  0
  1  2  1  0  0  0
  1 30  1  0  0  0
  1 31  1  0  0  0
  1 32  1  0  0  0
  2  3  1  0  0  0
  3  8  1  0  0  0
  3  4  2  0  0  0
  4  5  1  0  0  0
  4 33  1  0  0  0
  5  6  2  0  0  0
  5 34  1  0  0  0
  6 14  1  0  0  0
  6  7  1  0  0  0
  7  8  2  0  0  0
  7  9  1  0  0  0
  8 35  1  0  0  0
  9 10  2  0  0  0
  9 11  1  0  0  0
 11 12  1  0  0  0
 11 21  1  0  0  0
 12 13  2  0  0  0
 12 14  1  0  0  0
 14 19  1  0  0  0
 14 15  1  0  0  0
 15 16  1  0  0  0
 15 36  1  0  0  0
 15 37  1  0  0  0
 16 17  2  0  0  0
 16 18  1  0  0  0
 18 19  1  0  0  0
 18 38  1  0  0  0
 19 20  2  0  0  0
 21 22  1  0  0  0
 21 39  1  0  0  0
 21 40  1  0  0  0
 22 27  1  0  0  0
 22 23  2  0  0  0
 23 24  1  0  0  0
 23 41  1  0  0  0
 24 25  2  0  0  0
 24 42  1  0  0  0
 25 26  1  0  0  0
 25 29  1  0  0  0
 26 27  2  0  0  0
 26 43  1  0  0  0
 27 28  1  0  0  0
M  END
> <s_m_entry_id>
7160

> <s_m_entry_name>
ligand_docking-pose.302

> <s_m_Source_Path>
/home/csk/Desktop/cluster/DUD-E-result/aldr

> <s_m_Source_File>
ligand_docking-pose.sdf

> <i_m_Source_File_Index>
302

> <i_lp_mmshare_version>
53161

> <r_lp_tautomer_probability>
0.99999999995914

> <s_lp_Force_Field>
OPLS_2005

> <r_lp_Energy>
36.811017

> <b_lp_Chiralities_Consistent>
1

> <s_lp_Variant>
100263-2

> <s_i_glide_gridfile>
glide-grid_2hv5

> <i_i_glide_lignum>
727

> <i_i_glide_rotatable_bonds>
3

> <r_i_docking_score>
-8.16228005576094

> <r_i_glide_ligand_efficiency>
-0.281457932957274

> <r_i_glide_ligand_efficiency_sa>
-0.864727942176793

> <r_i_glide_ligand_efficiency_ln>
-1.86895515520555

> <r_i_glide_gscore>
-8.16228005576094

> <r_i_glide_lipo>
-3.63584181693919

> <r_i_glide_hbond>
-0.0415299512571591

> <r_i_glide_metal>
0

> <r_i_glide_rewards>
-2.95800650636311

> <r_i_glide_evdw>
-29.8484783172607

> <r_i_glide_ecoul>
-1.43693363666534

> <r_i_glide_erotb>
0.189288397641121

> <r_i_glide_esite>
-0.00822621747976107

> <r_i_glide_emodel>
-53.6766599012668

> <r_i_glide_energy>
-31.2854119539261

> <r_i_glide_einternal>
6.59831428527832

> <i_i_glide_confnum>
4

> <i_i_glide_posenum>
11

> <r_i_glide_eff_state_penalty>
0

> <i_f3d_flags>
0

> <s_user_duplicate_titles>
100263

> <s_m_subgroup_title>
dock_pv

> <s_m_subgroupid>
dock_pv1

> <b_m_subgroup_collapsed>
0

$$$$
99326
                    3D
 Schrodinger Suite 2021-1.
 39 42  0  0  1  0            999 V2000
   15.5019  -11.1429   17.4092 C   0  0  0  0  0  0
   15.8603   -9.7978   17.4557 C   0  0  0  0  0  0
   16.6889   -9.2195   16.4776 C   0  0  0  0  0  0
   17.1259  -10.0383   15.4236 C   0  0  0  0  0  0
   16.8086  -11.4056   15.4058 C   0  0  0  0  0  0
   15.9890  -11.9518   16.3894 C   0  0  0  0  0  0
   15.5606  -13.6221   16.3323 Cl  0  0  0  0  0  0
   17.9356   -9.4900   14.2672 C   0  0  0  0  0  0
   18.4343  -10.2252   13.4086 O   0  0  0  0  0  0
   18.0711   -8.1262   14.2380 N   0  0  0  0  0  0
   17.9477   -7.2472   15.2703 C   0  0  0  0  0  0
   18.4253   -6.1177   15.1873 O   0  0  0  0  0  0
   17.1105   -7.7365   16.5015 C   0  0  2  0  0  0
   17.7842   -7.3244   17.8137 C   0  0  0  0  0  0
   16.9450   -6.2048   18.3949 C   0  0  0  0  0  0
   17.1911   -5.5648   19.4121 O   0  0  0  0  0  0
   15.8870   -6.0551   17.5943 N   0  0  0  0  0  0
   15.8457   -6.8782   16.5357 C   0  0  0  0  0  0
   14.9450   -6.9150   15.7155 O   0  0  0  0  0  0
   18.5374   -7.5185   12.9559 C   0  0  0  0  0  0
   17.7028   -6.3828   12.3065 C   0  0  0  0  0  0
   18.3098   -5.3220   11.6589 C   0  0  0  0  0  0
   17.6154   -4.4086   10.8896 C   0  0  0  0  0  0
   16.2403   -4.5150   10.8041 C   0  0  0  0  0  0
   15.5693   -5.5081   11.5212 C   0  0  0  0  0  0
   16.3219   -6.4099   12.2829 C   0  0  0  0  0  0
   15.7450   -7.3150   13.0542 F   0  0  0  0  0  0
   15.3450   -3.1997    9.7810 Br  0  0  0  0  0  0
   14.8526  -11.5567   18.1676 H   0  0  0  0  0  0
   15.4858   -9.1954   18.2709 H   0  0  0  0  0  0
   17.1554  -12.0469   14.6064 H   0  0  0  0  0  0
   17.7450   -8.1150   18.5531 H   0  0  0  0  0  0
   18.8238   -7.0035   17.7260 H   0  0  0  0  0  0
   15.1682   -5.3777   17.7810 H   0  0  0  0  0  0
   18.5450   -8.2817   12.1810 H   0  0  0  0  0  0
   19.5765   -7.2033   13.0744 H   0  0  0  0  0  0
   19.3450   -5.2301   11.7218 H   0  0  0  0  0  0
   18.1369   -3.6141   10.3767 H   0  0  0  0  0  0
   14.4904   -5.5584   11.5175 H   0  0  0  0  0  0
  1  6  1  0  0  0
  1  2  2  0  0  0
  1 29  1  0  0  0
  2  3  1  0  0  0
  2 30  1  0  0  0
  3 13  1  0  0  0
  3  4  2  0  0  0
  4  5  1  0  0  0
  4  8  1  0  0  0
  5  6  2  0  0  0
  5 31  1  0  0  0
  6  7  1  0  0  0
  8  9  2  0  0  0
  8 10  1  0  0  0
 10 11  1  0  0  0
 10 20  1  0  0  0
 11 12  2  0  0  0
 11 13  1  0  0  0
 13 18  1  0  0  0
 13 14  1  0  0  0
 14 15  1  0  0  0
 14 32  1  0  0  0
 14 33  1  0  0  0
 15 16  2  0  0  0
 15 17  1  0  0  0
 17 18  1  0  0  0
 17 34  1  0  0  0
 18 19  2  0  0  0
 20 21  1  0  0  0
 20 35  1  0  0  0
 20 36  1  0  0  0
 21 26  1  0  0  0
 21 22  2  0  0  0
 22 23  1  0  0  0
 22 37  1  0  0  0
 23 24  2  0  0  0
 23 38  1  0  0  0
 24 25  1  0  0  0
 24 28  1  0  0  0
 25 26  2  0  0  0
 25 39  1  0  0  0
 26 27  1  0  0  0
M  END
> <s_m_entry_id>
7161

> <s_m_entry_name>
ligand_docking-pose.303

> <s_m_Source_Path>
/home/csk/Desktop/cluster/DUD-E-result/aldr

> <s_m_Source_File>
ligand_docking-pose.sdf

> <i_m_Source_File_Index>
303

> <i_lp_mmshare_version>
53161

> <r_lp_tautomer_probability>
0.99999999995914

> <s_lp_Force_Field>
OPLS_2005

> <r_lp_Energy>
31.760201

> <b_lp_Chiralities_Consistent>
1

> <s_lp_Variant>
99326-1

> <s_i_glide_gridfile>
glide-grid_2hv5

> <i_i_glide_lignum>
32

> <i_i_glide_rotatable_bonds>
2

> <r_i_docking_score>
-8.15769263768912

> <r_i_glide_ligand_efficiency>
-0.291346165631754

> <r_i_glide_ligand_efficiency_sa>
-0.88469855257298

> <r_i_glide_ligand_efficiency_ln>
-1.8830349810423

> <r_i_glide_gscore>
-8.15769263768912

> <r_i_glide_lipo>
-3.7227467722613

> <r_i_glide_hbond>
-0.239904849508206

> <r_i_glide_metal>
0

> <r_i_glide_rewards>
-2.9055865570161

> <r_i_glide_evdw>
-32.2351188659668

> <r_i_glide_ecoul>
0.908493041992188

> <r_i_glide_erotb>
0.186027528095999

> <r_i_glide_esite>
0

> <r_i_glide_emodel>
-37.8958864510674

> <r_i_glide_energy>
-31.3266258239746

> <r_i_glide_einternal>
1.3751312494278

> <i_i_glide_confnum>
1

> <i_i_glide_posenum>
24

> <r_i_glide_eff_state_penalty>
0

> <i_f3d_flags>
0

> <s_user_duplicate_titles>
99326

> <s_m_subgroup_title>
dock_pv

> <s_m_subgroupid>
dock_pv1

> <b_m_subgroup_collapsed>
0

$$$$
219168
                    3D
 Schrodinger Suite 2021-1.
 37 40  0  0  1  0            999 V2000
   18.0842  -12.2892   14.3752 C   0  0  0  0  0  0
   18.8156  -11.2668   13.7808 C   0  0  0  0  0  0
   18.2311  -10.0499   14.1217 C   0  0  0  0  0  0
   17.1998  -10.3040   14.9986 N   0  0  0  0  0  0
   17.0972  -11.6782   15.1217 C   0  0  0  0  0  0
   16.3604   -9.2454   15.6004 C   0  0  1  0  0  0
   14.9102   -9.6840   15.8131 C   0  0  0  0  0  0
   14.9331  -10.1881   17.2465 C   0  0  0  0  0  0
   14.1450  -10.9530   17.7809 O   0  0  0  0  0  0
   16.0031   -9.6484   17.8284 N   0  0  0  0  0  0
   16.8278   -8.9819   17.0242 C   0  0  0  0  0  0
   17.7765   -8.2906   17.3809 O   0  0  0  0  0  0
   16.5450   -7.8731   14.8933 C   0  0  0  0  0  0
   15.7650   -6.9424   15.1357 O   0  0  0  0  0  0
   17.6964   -7.7629   14.1383 N   0  0  0  0  0  0
   18.6637   -8.7035   13.8548 C   0  0  0  0  0  0
   19.7656   -8.4335   13.3810 O   0  0  0  0  0  0
   18.0246   -6.3850   13.7048 C   0  0  0  0  0  0
   17.3366   -5.8849   12.4387 C   0  0  0  0  0  0
   18.0770   -5.1099   11.5477 C   0  0  0  0  0  0
   17.4714   -4.5597   10.4286 C   0  0  0  0  0  0
   16.1205   -4.7993   10.2150 C   0  0  0  0  0  0
   15.3710   -5.5859   11.0720 C   0  0  0  0  0  0
   15.9838   -6.1339   12.1807 C   0  0  0  0  0  0
   15.3450   -4.1150    8.8718 Cl  0  0  0  0  0  0
   18.2669  -13.3508   14.2853 H   0  0  0  0  0  0
   19.6856  -11.3912   13.1507 H   0  0  0  0  0  0
   16.3310  -12.1189   15.7421 H   0  0  0  0  0  0
   14.1804   -8.8745   15.7418 H   0  0  0  0  0  0
   14.5811  -10.4695   15.1349 H   0  0  0  0  0  0
   16.1739   -9.7150   18.8223 H   0  0  0  0  0  0
   19.1001   -6.2382   13.5848 H   0  0  0  0  0  0
   17.7908   -5.7150   14.5241 H   0  0  0  0  0  0
   19.1164   -4.9152   11.7314 H   0  0  0  0  0  0
   18.0364   -3.9461    9.7429 H   0  0  0  0  0  0
   14.3191   -5.7558   10.8923 H   0  0  0  0  0  0
   15.3616   -6.7233   12.8245 H   0  0  0  0  0  0
  1  5  2  0  0  0
  1  2  1  0  0  0
  1 26  1  0  0  0
  2  3  2  0  0  0
  2 27  1  0  0  0
  3 16  1  0  0  0
  3  4  1  0  0  0
  4  5  1  0  0  0
  4  6  1  0  0  0
  5 28  1  0  0  0
  6 11  1  0  0  0
  6  7  1  0  0  0
  6 13  1  0  0  0
  7  8  1  0  0  0
  7 29  1  0  0  0
  7 30  1  0  0  0
  8  9  2  0  0  0
  8 10  1  0  0  0
 10 11  1  0  0  0
 10 31  1  0  0  0
 11 12  2  0  0  0
 13 14  2  0  0  0
 13 15  1  0  0  0
 15 16  1  0  0  0
 15 18  1  0  0  0
 16 17  2  0  0  0
 18 19  1  0  0  0
 18 32  1  0  0  0
 18 33  1  0  0  0
 19 24  1  0  0  0
 19 20  2  0  0  0
 20 21  1  0  0  0
 20 34  1  0  0  0
 21 22  2  0  0  0
 21 35  1  0  0  0
 22 23  1  0  0  0
 22 25  1  0  0  0
 23 24  2  0  0  0
 23 36  1  0  0  0
 24 37  1  0  0  0
M  END
> <s_m_entry_id>
7162

> <s_m_entry_name>
ligand_docking-pose.304

> <s_m_Source_Path>
/home/csk/Desktop/cluster/DUD-E-result/aldr

> <s_m_Source_File>
ligand_docking-pose.sdf

> <i_m_Source_File_Index>
304

> <i_lp_mmshare_version>
53161

> <r_lp_tautomer_probability>
0.99995

> <s_lp_Force_Field>
OPLS_2005

> <r_lp_Energy>
32.359422

> <b_lp_Chiralities_Consistent>
1

> <s_lp_Variant>
219168-2

> <s_i_glide_gridfile>
glide-grid_2hv5

> <i_i_glide_lignum>
97

> <i_i_glide_rotatable_bonds>
2

> <r_i_docking_score>
-8.15555377410282

> <r_i_glide_ligand_efficiency>
-0.326222150964113

> <r_i_glide_ligand_efficiency_sa>
-0.953879354993548

> <r_i_glide_ligand_efficiency_ln>
-1.93311064668693

> <r_i_glide_gscore>
-8.15555377410282

> <r_i_glide_lipo>
-3.3444418354846

> <r_i_glide_hbond>
-0.0132646599243817

> <r_i_glide_metal>
0

> <r_i_glide_rewards>
-3.63656953030303

> <r_i_glide_evdw>
-33.8217430114746

> <r_i_glide_ecoul>
1.53725028038025

> <r_i_glide_erotb>
0.299221860125882

> <r_i_glide_esite>
0

> <r_i_glide_emodel>
-34.6662125260476

> <r_i_glide_energy>
-32.2844927310944

> <r_i_glide_einternal>
0.823851764202118

> <i_i_glide_confnum>
5

> <i_i_glide_posenum>
56

> <r_i_glide_eff_state_penalty>
0

> <i_f3d_flags>
0

> <s_user_duplicate_titles>
219168

> <s_m_subgroup_title>
dock_pv

> <s_m_subgroupid>
dock_pv1

> <b_m_subgroup_collapsed>
0

$$$$
267650
                    3D
 Schrodinger Suite 2021-1.
 31 32  0  0  1  0            999 V2000
   15.3093   -6.1150   11.7810 C   0  0  0  0  0  0
   16.1249   -6.5993   12.8071 C   0  0  0  0  0  0
   17.4477   -6.1943   12.9227 C   0  0  0  0  0  0
   17.9460   -5.3150   11.9637 C   0  0  0  0  0  0
   17.1611   -4.8252   10.9105 C   0  0  0  0  0  0
   15.8246   -5.2320   10.8369 C   0  0  0  0  0  0
   17.7286   -3.8843    9.9165 N   0  3  0  0  0  0
   18.9450   -3.7150    9.9039 O   0  5  0  0  0  0
   16.9666   -3.3139    9.1411 O   0  0  0  0  0  0
   18.3344   -6.6662   14.0856 C   0  0  0  0  0  0
   17.9361   -7.9280   14.7641 N   0  0  0  0  0  0
   18.2916   -9.0854   14.1810 C   0  0  0  0  0  0
   18.9450   -9.2854   13.1566 O   0  0  0  0  0  0
   17.7450  -10.1076   15.0358 C   0  0  0  0  0  0
   17.8326  -11.3242   14.8509 O   0  0  0  0  0  0
   17.1713   -9.4288   16.0443 N   0  0  0  0  0  0
   17.2138   -8.0697   15.9179 C   0  0  0  0  0  0
   16.5450   -6.9150   16.9251 S   0  0  0  0  0  0
   16.5665  -10.1995   17.1627 C   0  0  0  0  0  0
   15.1052  -10.5646   16.8603 C   0  0  0  0  0  0
   14.5450  -10.3327   15.8118 O   0  0  0  0  0  0
   14.5560  -11.1856   17.9406 O   0  0  0  0  0  0
   14.2752   -6.4160   11.7106 H   0  0  0  0  0  0
   15.7450   -7.2814   13.5443 H   0  0  0  0  0  0
   18.9450   -4.9670   12.0660 H   0  0  0  0  0  0
   15.1788   -4.8614   10.0533 H   0  0  0  0  0  0
   18.4023   -5.8627   14.8196 H   0  0  0  0  0  0
   19.3513   -6.7787   13.7013 H   0  0  0  0  0  0
   16.6057   -9.6236   18.0877 H   0  0  0  0  0  0
   17.1173  -11.1242   17.3396 H   0  0  0  0  0  0
   13.6447  -11.4418   17.7732 H   0  0  0  0  0  0
  1  6  1  0  0  0
  1  2  2  0  0  0
  1 23  1  0  0  0
  2  3  1  0  0  0
  2 24  1  0  0  0
  3  4  2  0  0  0
  3 10  1  0  0  0
  4  5  1  0  0  0
  4 25  1  0  0  0
  5  6  2  0  0  0
  5  7  1  0  0  0
  6 26  1  0  0  0
  7  8  1  0  0  0
  7  9  2  0  0  0
 10 11  1  0  0  0
 10 27  1  0  0  0
 10 28  1  0  0  0
 11 17  1  0  0  0
 11 12  1  0  0  0
 12 13  2  0  0  0
 12 14  1  0  0  0
 14 15  2  0  0  0
 14 16  1  0  0  0
 16 17  1  0  0  0
 16 19  1  0  0  0
 17 18  2  0  0  0
 19 20  1  0  0  0
 19 29  1  0  0  0
 19 30  1  0  0  0
 20 21  2  0  0  0
 20 22  1  0  0  0
 22 31  1  0  0  0
M  CHG  2   7   1   8  -1
M  END
> <s_m_entry_id>
7164

> <s_m_entry_name>
ligand_docking-pose.306

> <s_m_Source_Path>
/home/csk/Desktop/cluster/DUD-E-result/aldr

> <s_m_Source_File>
ligand_docking-pose.sdf

> <i_m_Source_File_Index>
306

> <i_lp_mmshare_version>
53161

> <r_lp_tautomer_probability>
1

> <s_lp_Force_Field>
OPLS_2005

> <r_lp_Energy>
20.654269

> <b_lp_Chiralities_Consistent>
1

> <s_lp_Variant>
267650-1

> <s_i_glide_gridfile>
glide-grid_2hv5

> <i_i_glide_lignum>
438

> <i_i_glide_rotatable_bonds>
6

> <r_i_docking_score>
-8.13633676978585

> <r_i_glide_ligand_efficiency>
-0.36983348953572

> <r_i_glide_ligand_efficiency_sa>
-1.03628798240488

> <r_i_glide_ligand_efficiency_ln>
-1.98881748663028

> <r_i_glide_gscore>
-8.13633676978585

> <r_i_glide_lipo>
-2.25244445169058

> <r_i_glide_hbond>
0

> <r_i_glide_metal>
0

> <r_i_glide_rewards>
-3.904893

> <r_i_glide_evdw>
-45.4739646911621

> <r_i_glide_ecoul>
-2.80978274345398

> <r_i_glide_erotb>
0.716166327980931

> <r_i_glide_esite>
0

> <r_i_glide_emodel>
-68.361503342396

> <r_i_glide_energy>
-48.2837474346161

> <r_i_glide_einternal>
2.98493337631226

> <i_i_glide_confnum>
2

> <i_i_glide_posenum>
155

> <r_i_glide_eff_state_penalty>
0

> <i_f3d_flags>
0

> <s_user_duplicate_titles>
267650

> <s_m_subgroup_title>
dock_pv

> <s_m_subgroupid>
dock_pv1

> <b_m_subgroup_collapsed>
0

$$$$
100291
                    3D
 Schrodinger Suite 2021-1.
 41 45  0  0  1  0            999 V2000
   18.7929  -12.8532   12.7810 C   0  0  0  0  0  0
   17.7074  -13.2397   13.5537 C   0  0  0  0  0  0
   17.1302  -12.3328   14.4337 C   0  0  0  0  0  0
   17.5919  -11.0074   14.5348 C   0  0  0  0  0  0
   18.6421  -10.6063   13.7010 C   0  0  0  0  0  0
   19.2716  -11.5509   12.8704 C   0  0  0  0  0  0
   19.2140   -9.2039   13.7812 C   0  0  0  0  0  0
   20.3390   -8.9150   13.3810 O   0  0  0  0  0  0
   18.4968   -8.2974   14.5171 N   0  0  0  0  0  0
   17.6615   -8.5669   15.5677 C   0  0  0  0  0  0
   17.3616   -7.7349   16.4322 O   0  0  0  0  0  0
   17.0254  -10.0007   15.5472 C   0  0  1  0  0  0
   15.5363   -9.7670   15.3810 C   0  0  0  0  0  0
   14.9371   -9.9551   16.7289 C   0  0  0  0  0  0
   13.7782   -9.7102   16.9803 O   0  0  0  0  0  0
   15.8799  -10.4427   17.5399 N   0  0  0  0  0  0
   17.0634  -10.6546   16.9359 C   0  0  0  0  0  0
   17.9976  -11.3150   17.3818 O   0  0  0  0  0  0
   18.8002   -6.8551   14.2576 C   0  0  0  0  0  0
   17.9952   -6.2374   13.1118 C   0  0  0  0  0  0
   18.5450   -5.3670   12.3163 N   0  0  0  0  0  0
   17.6958   -4.8787   11.3803 C   0  0  0  0  0  0
   18.0423   -3.9310   10.4050 C   0  0  0  0  0  0
   17.0479   -3.4855    9.5344 C   0  0  0  0  0  0
   15.7452   -3.9724    9.6237 C   0  0  0  0  0  0
   15.3792   -4.9180   10.5827 C   0  0  0  0  0  0
   16.3743   -5.3728   11.4583 C   0  0  0  0  0  0
   16.2946   -6.5251   12.7824 S   0  0  0  0  0  0
   19.2676  -13.5626   12.1189 H   0  0  0  0  0  0
   17.3222  -14.2432   13.4877 H   0  0  0  0  0  0
   16.3111  -12.6697   15.0522 H   0  0  0  0  0  0
   20.1366  -11.3151   12.2732 H   0  0  0  0  0  0
   15.2304   -8.7931   14.9883 H   0  0  0  0  0  0
   15.0558  -10.5149   14.7710 H   0  0  0  0  0  0
   15.6842  -10.6987   18.4936 H   0  0  0  0  0  0
   19.8679   -6.7180   14.0714 H   0  0  0  0  0  0
   18.6409   -6.2501   15.1514 H   0  0  0  0  0  0
   19.0438   -3.5376   10.3450 H   0  0  0  0  0  0
   17.2856   -2.7481    8.7812 H   0  0  0  0  0  0
   15.0013   -3.6041    8.9337 H   0  0  0  0  0  0
   14.3614   -5.2757   10.6545 H   0  0  0  0  0  0
  1  6  1  0  0  0
  1  2  2  0  0  0
  1 29  1  0  0  0
  2  3  1  0  0  0
  2 30  1  0  0  0
  3  4  2  0  0  0
  3 31  1  0  0  0
  4 12  1  0  0  0
  4  5  1  0  0  0
  5  6  2  0  0  0
  5  7  1  0  0  0
  6 32  1  0  0  0
  7  8  2  0  0  0
  7  9  1  0  0  0
  9 10  1  0  0  0
  9 19  1  0  0  0
 10 11  2  0  0  0
 10 12  1  0  0  0
 12 17  1  0  0  0
 12 13  1  0  0  0
 13 14  1  0  0  0
 13 33  1  0  0  0
 13 34  1  0  0  0
 14 15  2  0  0  0
 14 16  1  0  0  0
 16 17  1  0  0  0
 16 35  1  0  0  0
 17 18  2  0  0  0
 19 20  1  0  0  0
 19 36  1  0  0  0
 19 37  1  0  0  0
 20 28  1  0  0  0
 20 21  2  0  0  0
 21 22  1  0  0  0
 22 27  2  0  0  0
 22 23  1  0  0  0
 23 24  2  0  0  0
 23 38  1  0  0  0
 24 25  1  0  0  0
 24 39  1  0  0  0
 25 26  2  0  0  0
 25 40  1  0  0  0
 26 27  1  0  0  0
 26 41  1  0  0  0
 27 28  1  0  0  0
M  END
> <s_m_entry_id>
7165

> <s_m_entry_name>
ligand_docking-pose.307

> <s_m_Source_Path>
/home/csk/Desktop/cluster/DUD-E-result/aldr

> <s_m_Source_File>
ligand_docking-pose.sdf

> <i_m_Source_File_Index>
307

> <i_lp_mmshare_version>
53161

> <r_lp_tautomer_probability>
0.99999999995914

> <s_lp_Force_Field>
OPLS_2005

> <r_lp_Energy>
30.428244

> <b_lp_Chiralities_Consistent>
1

> <s_lp_Variant>
100291-1

> <s_i_glide_gridfile>
glide-grid_2hv5

> <i_i_glide_lignum>
263

> <i_i_glide_rotatable_bonds>
2

> <r_i_docking_score>
-8.13548402249833

> <r_i_glide_ligand_efficiency>
-0.290553000803512

> <r_i_glide_ligand_efficiency_sa>
-0.882290037005334

> <r_i_glide_ligand_efficiency_ln>
-1.87790858058299

> <r_i_glide_gscore>
-8.13548402249833

> <r_i_glide_lipo>
-3.96767473825907

> <r_i_glide_hbond>
0

> <r_i_glide_metal>
0

> <r_i_glide_rewards>
-3.09994883941623

> <r_i_glide_evdw>
-28.2869911193848

> <r_i_glide_ecoul>
0.611499905586243

> <r_i_glide_erotb>
0.254764125308272

> <r_i_glide_esite>
0

> <r_i_glide_emodel>
-32.4565694267942

> <r_i_glide_energy>
-27.6754912137985

> <r_i_glide_einternal>
1.2723423242569

> <i_i_glide_confnum>
2

> <i_i_glide_posenum>
39

> <r_i_glide_eff_state_penalty>
0

> <i_f3d_flags>
0

> <s_user_duplicate_titles>
100291

> <s_m_subgroup_title>
dock_pv

> <s_m_subgroupid>
dock_pv1

> <b_m_subgroup_collapsed>
0

$$$$
490496
                    3D
 Schrodinger Suite 2021-1.
 36 38  0  0  1  0            999 V2000
   15.3496   -6.8582   17.6519 C   0  0  0  0  0  0
   14.8086   -7.7892   16.7232 O   0  0  0  0  0  0
   15.6420   -8.8482   16.4532 C   0  0  0  0  0  0
   15.5913   -9.9913   17.2516 C   0  0  0  0  0  0
   16.4512  -11.0681   17.0160 C   0  0  0  0  0  0
   17.3435  -11.0179   15.9410 C   0  0  0  0  0  0
   17.3954   -9.8831   15.1092 C   0  0  0  0  0  0
   16.5352   -8.7999   15.3810 C   0  0  0  0  0  0
   16.4855   -7.6696   14.5724 O   0  0  0  0  0  0
   17.2630   -7.6403   13.4577 C   0  0  0  0  0  0
   18.1556   -8.5988   13.1585 C   0  0  0  0  0  0
   18.3097   -9.8037   13.9305 C   0  0  0  0  0  0
   19.0879  -10.7066   13.6274 O   0  0  0  0  0  0
   17.0640   -6.4594   12.5892 C   0  0  0  0  0  0
   18.1640   -5.7088   12.1732 C   0  0  0  0  0  0
   18.0322   -4.7077   11.2091 C   0  0  0  0  0  0
   16.7843   -4.4243   10.6567 C   0  0  0  0  0  0
   15.6636   -5.1456   11.0880 C   0  0  0  0  0  0
   15.8112   -6.1443   12.0518 C   0  0  0  0  0  0
   14.4117   -4.9079   10.5811 O   0  0  0  0  0  0
   16.6852   -3.4260    9.7185 O   0  0  0  0  0  0
   18.1449  -12.1134   15.7098 O   0  0  0  0  0  0
   16.4280  -12.1800   17.8288 O   0  0  0  0  0  0
   14.6706  -10.0329   18.2603 O   0  0  0  0  0  0
   14.5461   -6.5151   18.2972 H   0  0  0  0  0  0
   16.1246   -7.2718   18.3025 H   0  0  0  0  0  0
   15.7660   -5.9986   17.1262 H   0  0  0  0  0  0
   18.7321   -8.5150   12.2583 H   0  0  0  0  0  0
   19.1430   -5.9295   12.5735 H   0  0  0  0  0  0
   18.9017   -4.1519   10.8894 H   0  0  0  0  0  0
   14.9452   -6.7161   12.3286 H   0  0  0  0  0  0
   14.3850   -4.3479    9.8006 H   0  0  0  0  0  0
   15.8665   -2.9288    9.7752 H   0  0  0  0  0  0
   18.6699  -11.9834   14.9087 H   0  0  0  0  0  0
   16.9948  -12.8749   17.4786 H   0  0  0  0  0  0
   14.1296   -9.2414   18.2153 H   0  0  0  0  0  0
  1  2  1  0  0  0
  1 25  1  0  0  0
  1 26  1  0  0  0
  1 27  1  0  0  0
  2  3  1  0  0  0
  3  8  1  0  0  0
  3  4  2  0  0  0
  4  5  1  0  0  0
  4 24  1  0  0  0
  5  6  2  0  0  0
  5 23  1  0  0  0
  6  7  1  0  0  0
  6 22  1  0  0  0
  7 12  1  0  0  0
  7  8  2  0  0  0
  8  9  1  0  0  0
  9 10  1  0  0  0
 10 11  2  0  0  0
 10 14  1  0  0  0
 11 12  1  0  0  0
 11 28  1  0  0  0
 12 13  2  0  0  0
 14 19  1  0  0  0
 14 15  2  0  0  0
 15 16  1  0  0  0
 15 29  1  0  0  0
 16 17  2  0  0  0
 16 30  1  0  0  0
 17 18  1  0  0  0
 17 21  1  0  0  0
 18 19  2  0  0  0
 18 20  1  0  0  0
 19 31  1  0  0  0
 20 32  1  0  0  0
 21 33  1  0  0  0
 22 34  1  0  0  0
 23 35  1  0  0  0
 24 36  1  0  0  0
M  END
> <s_m_entry_id>
7166

> <s_m_entry_name>
ligand_docking-pose.308

> <s_m_Source_Path>
/home/csk/Desktop/cluster/DUD-E-result/aldr

> <s_m_Source_File>
ligand_docking-pose.sdf

> <i_m_Source_File_Index>
308

> <i_lp_mmshare_version>
53161

> <r_lp_tautomer_probability>
0.999999999999776

> <s_lp_Force_Field>
OPLS_2005

> <r_lp_Energy>
20.52423

> <b_lp_Chiralities_Consistent>
1

> <s_lp_Variant>
490496-1

> <s_i_glide_gridfile>
glide-grid_2hv5

> <i_i_glide_lignum>
754

> <i_i_glide_rotatable_bonds>
7

> <r_i_docking_score>
-8.12664181884956

> <r_i_glide_ligand_efficiency>
-0.338610075785398

> <r_i_glide_ligand_efficiency_sa>
-0.97672047157181

> <r_i_glide_ligand_efficiency_ln>
-1.9450782945448

> <r_i_glide_gscore>
-8.12664181884956

> <r_i_glide_lipo>
-3.99196009382237

> <r_i_glide_hbond>
0

> <r_i_glide_metal>
0

> <r_i_glide_rewards>
-2.0270036969697

> <r_i_glide_evdw>
-37.1953506469727

> <r_i_glide_ecoul>
-2.78996539115906

> <r_i_glide_erotb>
0.170584312964997

> <r_i_glide_esite>
0

> <r_i_glide_emodel>
-51.0439203679951

> <r_i_glide_energy>
-39.9853160381317

> <r_i_glide_einternal>
9.05275630950928

> <i_i_glide_confnum>
3

> <i_i_glide_posenum>
14

> <r_i_glide_eff_state_penalty>
0

> <i_f3d_flags>
0

> <s_user_duplicate_titles>
490496

> <s_m_subgroup_title>
dock_pv

> <s_m_subgroupid>
dock_pv1

> <b_m_subgroup_collapsed>
0

$$$$
518813
                    3D
 Schrodinger Suite 2021-1.
 38 40  0  0  1  0            999 V2000
   16.3129   -3.3508   20.6735 C   0  0  0  0  0  0
   16.1451   -3.1482   19.3084 C   0  0  0  0  0  0
   16.2309   -4.2293   18.4352 C   0  0  0  0  0  0
   16.4215   -5.5321   18.9182 C   0  0  0  0  0  0
   16.5449   -5.7119   20.2984 C   0  0  0  0  0  0
   16.5447   -4.6273   21.1719 C   0  0  0  0  0  0
   16.4878   -6.6919   17.9875 C   0  0  0  0  0  0
   16.1649   -7.9744   18.2656 C   0  0  0  0  0  0
   16.4186   -9.0643   17.3303 C   0  0  0  0  0  0
   16.1463  -10.2441   17.5500 O   0  0  0  0  0  0
   17.0379   -8.6279   16.0440 C   0  0  0  0  0  0
   17.3634   -9.5036   14.9963 C   0  0  0  0  0  0
   17.7452   -9.0009   13.7518 C   0  0  0  0  0  0
   17.7378   -7.6298   13.5082 C   0  0  0  0  0  0
   17.6281   -6.7760   14.6002 C   0  0  0  0  0  0
   17.2627   -7.2658   15.8415 C   0  0  0  0  0  0
   17.0585   -6.3215   16.8195 O   0  0  0  0  0  0
   17.7449   -7.1834   12.2006 O   0  0  0  0  0  0
   17.3659   -5.8258   11.9353 C   0  0  0  0  0  0
   16.7212   -5.7217   10.5464 C   0  0  0  0  0  0
   16.3509   -4.3751   10.2160 O   0  0  0  0  0  0
   17.4243   -3.5314    9.7811 N   0  3  0  0  0  0
   17.0467   -2.4299    9.4636 O   0  5  0  0  0  0
   18.5430   -3.9956    9.7806 O   0  0  0  0  0  0
   17.2440  -10.8590   15.1389 O   0  0  0  0  0  0
   16.2662   -2.5102   21.3509 H   0  0  0  0  0  0
   15.9776   -2.1498   18.9331 H   0  0  0  0  0  0
   16.1187   -4.0484   17.3801 H   0  0  0  0  0  0
   16.6401   -6.7038   20.7038 H   0  0  0  0  0  0
   16.6598   -4.7821   22.2353 H   0  0  0  0  0  0
   15.7553   -8.2298   19.2293 H   0  0  0  0  0  0
   17.8953   -9.6883   12.9349 H   0  0  0  0  0  0
   17.7478   -5.7159   14.4778 H   0  0  0  0  0  0
   18.2392   -5.1799   12.0309 H   0  0  0  0  0  0
   16.6135   -5.4591   12.6360 H   0  0  0  0  0  0
   15.8052   -6.3128   10.5445 H   0  0  0  0  0  0
   17.3444   -6.1731    9.7808 H   0  0  0  0  0  0
   16.8793  -11.0576   16.0107 H   0  0  0  0  0  0
  1  6  1  0  0  0
  1  2  2  0  0  0
  1 26  1  0  0  0
  2  3  1  0  0  0
  2 27  1  0  0  0
  3  4  2  0  0  0
  3 28  1  0  0  0
  4  5  1  0  0  0
  4  7  1  0  0  0
  5  6  2  0  0  0
  5 29  1  0  0  0
  6 30  1  0  0  0
  7 17  1  0  0  0
  7  8  2  0  0  0
  8  9  1  0  0  0
  8 31  1  0  0  0
  9 10  2  0  0  0
  9 11  1  0  0  0
 11 16  2  0  0  0
 11 12  1  0  0  0
 12 13  2  0  0  0
 12 25  1  0  0  0
 13 14  1  0  0  0
 13 32  1  0  0  0
 14 15  2  0  0  0
 14 18  1  0  0  0
 15 16  1  0  0  0
 15 33  1  0  0  0
 16 17  1  0  0  0
 18 19  1  0  0  0
 19 20  1  0  0  0
 19 34  1  0  0  0
 19 35  1  0  0  0
 20 21  1  0  0  0
 20 36  1  0  0  0
 20 37  1  0  0  0
 21 22  1  0  0  0
 22 23  1  0  0  0
 22 24  2  0  0  0
 25 38  1  0  0  0
M  CHG  2  22   1  23  -1
M  END
> <s_m_entry_id>
7167

> <s_m_entry_name>
ligand_docking-pose.309

> <s_m_Source_Path>
/home/csk/Desktop/cluster/DUD-E-result/aldr

> <s_m_Source_File>
ligand_docking-pose.sdf

> <i_m_Source_File_Index>
309

> <i_lp_mmshare_version>
53161

> <r_lp_tautomer_probability>
1

> <s_lp_Force_Field>
OPLS_2005

> <r_lp_Energy>
21.002988

> <b_lp_Chiralities_Consistent>
1

> <s_lp_Variant>
518813-1

> <s_i_glide_gridfile>
glide-grid_2hv5

> <i_i_glide_lignum>
330

> <i_i_glide_rotatable_bonds>
7

> <r_i_docking_score>
-8.12539175135439

> <r_i_glide_ligand_efficiency>
-0.325015670054176

> <r_i_glide_ligand_efficiency_sa>
-0.950351583415862

> <r_i_glide_ligand_efficiency_ln>
-1.92596134341267

> <r_i_glide_gscore>
-8.12539175135439

> <r_i_glide_lipo>
-4.51204688745209

> <r_i_glide_hbond>
0

> <r_i_glide_metal>
0

> <r_i_glide_rewards>
-1.95819706808577

> <r_i_glide_evdw>
-41.2796058654785

> <r_i_glide_ecoul>
-2.64107298851013

> <r_i_glide_erotb>
0.804993445733916

> <r_i_glide_esite>
0

> <r_i_glide_emodel>
-59.3377564066123

> <r_i_glide_energy>
-43.9206788539886

> <r_i_glide_einternal>
6.54391622543335

> <i_i_glide_confnum>
114

> <i_i_glide_posenum>
150

> <r_i_glide_eff_state_penalty>
0

> <i_f3d_flags>
0

> <s_user_duplicate_titles>
518813

> <s_m_subgroup_title>
dock_pv

> <s_m_subgroupid>
dock_pv1

> <b_m_subgroup_collapsed>
0

$$$$
489466
                    3D
 Schrodinger Suite 2021-1.
 41 43  0  0  1  0            999 V2000
   14.6016  -10.6975   17.6329 C   0  0  0  0  0  0
   15.9339  -10.2228   17.7809 O   0  0  0  0  0  0
   16.6979  -10.3384   16.6432 C   0  0  0  0  0  0
   16.8270   -9.2655   15.7419 C   0  0  0  0  0  0
   16.1638   -7.9398   15.9781 C   0  0  0  0  0  0
   15.5441   -7.6345   16.9950 O   0  0  0  0  0  0
   16.2620   -7.0447   14.8515 C   0  0  0  0  0  0
   16.9818   -7.3147   13.7518 C   0  0  0  0  0  0
   17.6849   -8.4695   13.5876 O   0  0  0  0  0  0
   17.5686   -9.4627   14.5587 C   0  0  0  0  0  0
   18.1474  -10.7068   14.2665 C   0  0  0  0  0  0
   18.0704  -11.7495   15.2126 C   0  0  0  0  0  0
   17.3404  -11.5556   16.3883 C   0  0  0  0  0  0
   17.2595  -12.5800   17.3030 O   0  0  0  0  0  0
   18.6620  -12.9910   15.0541 O   0  0  0  0  0  0
   19.9809  -13.0689   14.5166 C   0  0  0  0  0  0
   18.8001  -10.8738   13.0658 O   0  0  0  0  0  0
   18.1797  -11.7816   12.1605 C   0  0  0  0  0  0
   16.9767   -6.4090   12.5788 C   0  0  0  0  0  0
   15.7807   -6.1153   11.9065 C   0  0  0  0  0  0
   15.7507   -5.1899   10.8678 C   0  0  0  0  0  0
   16.9227   -4.5456   10.4905 C   0  0  0  0  0  0
   18.1202   -4.8316   11.1381 C   0  0  0  0  0  0
   18.1452   -5.7582   12.1811 C   0  0  0  0  0  0
   16.8940   -3.6175    9.4849 O   0  0  0  0  0  0
   14.0793  -10.6014   18.5822 H   0  0  0  0  0  0
   14.5686  -11.7492   17.3436 H   0  0  0  0  0  0
   14.0548  -10.1134   16.8907 H   0  0  0  0  0  0
   15.7352   -6.1150   14.8883 H   0  0  0  0  0  0
   17.7058  -13.3690   16.9812 H   0  0  0  0  0  0
   20.5756  -13.7398   15.1354 H   0  0  0  0  0  0
   19.9569  -13.4932   13.5134 H   0  0  0  0  0  0
   20.5080  -12.1161   14.4695 H   0  0  0  0  0  0
   18.8910  -12.0531   11.3810 H   0  0  0  0  0  0
   17.8349  -12.7067   12.6248 H   0  0  0  0  0  0
   17.3259  -11.3150   11.6761 H   0  0  0  0  0  0
   14.8571   -6.5953   12.1810 H   0  0  0  0  0  0
   14.8162   -4.9681   10.3732 H   0  0  0  0  0  0
   19.0171   -4.3146   10.8414 H   0  0  0  0  0  0
   19.0736   -5.9577   12.6967 H   0  0  0  0  0  0
   16.0031   -3.4646    9.1600 H   0  0  0  0  0  0
  1  2  1  0  0  0
  1 26  1  0  0  0
  1 27  1  0  0  0
  1 28  1  0  0  0
  2  3  1  0  0  0
  3 13  1  0  0  0
  3  4  2  0  0  0
  4 10  1  0  0  0
  4  5  1  0  0  0
  5  6  2  0  0  0
  5  7  1  0  0  0
  7  8  2  0  0  0
  7 29  1  0  0  0
  8  9  1  0  0  0
  8 19  1  0  0  0
  9 10  1  0  0  0
 10 11  2  0  0  0
 11 12  1  0  0  0
 11 17  1  0  0  0
 12 13  2  0  0  0
 12 15  1  0  0  0
 13 14  1  0  0  0
 14 30  1  0  0  0
 15 16  1  0  0  0
 16 31  1  0  0  0
 16 32  1  0  0  0
 16 33  1  0  0  0
 17 18  1  0  0  0
 18 34  1  0  0  0
 18 35  1  0  0  0
 18 36  1  0  0  0
 19 24  1  0  0  0
 19 20  2  0  0  0
 20 21  1  0  0  0
 20 37  1  0  0  0
 21 22  2  0  0  0
 21 38  1  0  0  0
 22 23  1  0  0  0
 22 25  1  0  0  0
 23 24  2  0  0  0
 23 39  1  0  0  0
 24 40  1  0  0  0
 25 41  1  0  0  0
M  END
> <s_m_entry_id>
7172

> <s_m_entry_name>
ligand_docking-pose.314

> <s_m_Source_Path>
/home/csk/Desktop/cluster/DUD-E-result/aldr

> <s_m_Source_File>
ligand_docking-pose.sdf

> <i_m_Source_File_Index>
314

> <i_lp_mmshare_version>
53161

> <r_lp_tautomer_probability>
0.999999999997365

> <s_lp_Force_Field>
OPLS_2005

> <r_lp_Energy>
36.150688

> <b_lp_Chiralities_Consistent>
1

> <s_lp_Variant>
489466-1

> <s_i_glide_gridfile>
glide-grid_2hv5

> <i_i_glide_lignum>
703

> <i_i_glide_rotatable_bonds>
6

> <r_i_docking_score>
-8.10067339725468

> <r_i_glide_ligand_efficiency>
-0.324026935890187

> <r_i_glide_ligand_efficiency_sa>
-0.947460507185085

> <r_i_glide_ligand_efficiency_ln>
-1.92010235274174

> <r_i_glide_gscore>
-8.10067339725468

> <r_i_glide_lipo>
-4.02372847929745

> <r_i_glide_hbond>
-0.00077969083129079

> <r_i_glide_metal>
0

> <r_i_glide_rewards>
-1.96148563636364

> <r_i_glide_evdw>
-37.9592895507812

> <r_i_glide_ecoul>
-2.51241254806519

> <r_i_glide_erotb>
0.160146768986536

> <r_i_glide_esite>
0

> <r_i_glide_emodel>
-54.9566287280621

> <r_i_glide_energy>
-40.4717020988464

> <r_i_glide_einternal>
3.28346562385559

> <i_i_glide_confnum>
1

> <i_i_glide_posenum>
42

> <r_i_glide_eff_state_penalty>
0

> <i_f3d_flags>
0

> <s_user_duplicate_titles>
489466

> <s_m_subgroup_title>
dock_pv

> <s_m_subgroupid>
dock_pv1

> <b_m_subgroup_collapsed>
0

$$$$
45532
                    3D
 Schrodinger Suite 2021-1.
 33 34  0  0  1  0            999 V2000
   18.8334  -13.1631   16.3259 C   0  0  0  0  0  0
   18.2823  -12.7139   14.9655 C   0  0  0  0  0  0
   16.9533  -11.9406   15.0482 C   0  0  0  0  0  0
   17.0653  -10.6373   15.7134 N   0  0  0  0  0  0
   17.6122   -9.4804   15.1617 C   0  0  0  0  0  0
   18.1420   -9.2699   13.8901 C   0  0  0  0  0  0
   18.5823   -7.9908   13.5565 C   0  0  0  0  0  0
   18.5219   -6.9438   14.4732 C   0  0  0  0  0  0
   18.0042   -7.1715   15.7459 C   0  0  0  0  0  0
   17.5496   -8.4471   16.0765 C   0  0  0  0  0  0
   16.9450   -8.9746   17.3322 C   0  0  2  0  0  0
   16.6289  -10.4405   16.9810 C   0  0  0  0  0  0
   16.0979  -11.2539   17.7400 O   0  0  0  0  0  0
   15.7244   -8.1980   17.9173 C   0  0  1  0  0  0
   16.1839   -7.0794   18.7608 C   0  0  0  0  0  0
   16.5405   -6.1959   19.4177 N   0  0  0  0  0  0
   14.7358   -7.7185   16.8449 C   0  0  0  0  0  0
   14.5451   -6.5328   16.5811 O   0  0  0  0  0  0
   14.1452   -8.7599   16.1986 O   0  0  0  0  0  0
   18.9617   -5.7155   14.1234 F   0  0  0  0  0  0
   19.7451  -13.7448   16.1892 H   0  0  0  0  0  0
   19.0705  -12.3158   16.9702 H   0  0  0  0  0  0
   18.1143  -13.7874   16.8557 H   0  0  0  0  0  0
   18.1215  -13.6035   14.3548 H   0  0  0  0  0  0
   19.0294  -12.1222   14.4353 H   0  0  0  0  0  0
   16.2112  -12.5560   15.5619 H   0  0  0  0  0  0
   16.5652  -11.7821   14.0427 H   0  0  0  0  0  0
   18.1939  -10.0627   13.1586 H   0  0  0  0  0  0
   18.9655   -7.8029   12.5810 H   0  0  0  0  0  0
   17.9555   -6.3583   16.4546 H   0  0  0  0  0  0
   17.7259   -8.9947   18.0791 H   0  0  0  0  0  0
   15.1735   -8.8469   18.5989 H   0  0  0  0  0  0
   13.5250   -8.4499   15.5336 H   0  0  0  0  0  0
  1  2  1  0  0  0
  1 21  1  0  0  0
  1 22  1  0  0  0
  1 23  1  0  0  0
  2  3  1  0  0  0
  2 24  1  0  0  0
  2 25  1  0  0  0
  3  4  1  0  0  0
  3 26  1  0  0  0
  3 27  1  0  0  0
  4 12  1  0  0  0
  4  5  1  0  0  0
  5 10  2  0  0  0
  5  6  1  0  0  0
  6  7  2  0  0  0
  6 28  1  0  0  0
  7  8  1  0  0  0
  7 29  1  0  0  0
  8  9  2  0  0  0
  8 20  1  0  0  0
  9 10  1  0  0  0
  9 30  1  0  0  0
 10 11  1  0  0  0
 11 12  1  0  0  0
 11 14  1  0  0  0
 11 31  1  0  0  0
 12 13  2  0  0  0
 14 15  1  0  0  0
 14 17  1  0  0  0
 14 32  1  0  0  0
 15 16  3  0  0  0
 17 18  2  0  0  0
 17 19  1  0  0  0
 19 33  1  0  0  0
M  END
> <s_m_entry_id>
7176

> <s_m_entry_name>
ligand_docking-pose.318

> <s_m_Source_Path>
/home/csk/Desktop/cluster/DUD-E-result/aldr

> <s_m_Source_File>
ligand_docking-pose.sdf

> <i_m_Source_File_Index>
318

> <i_lp_mmshare_version>
53161

> <r_lp_tautomer_probability>
1

> <s_lp_Force_Field>
OPLS_2005

> <r_lp_Energy>
28.556333

> <b_lp_Chiralities_Consistent>
1

> <s_lp_Variant>
45532-4

> <s_i_glide_gridfile>
glide-grid_2hv5

> <i_i_glide_lignum>
574

> <i_i_glide_rotatable_bonds>
5

> <r_i_docking_score>
-8.06960170903603

> <r_i_glide_ligand_efficiency>
-0.403480085451801

> <r_i_glide_ligand_efficiency_sa>
-1.09521345080193

> <r_i_glide_ligand_efficiency_ln>
-2.01955515449451

> <r_i_glide_gscore>
-8.06960170903603

> <r_i_glide_lipo>
-2.12116705741291

> <r_i_glide_hbond>
-0.446949522194758

> <r_i_glide_metal>
0

> <r_i_glide_rewards>
-3.89954766952256

> <r_i_glide_evdw>
-24.1669406890869

> <r_i_glide_ecoul>
-7.33785152435303

> <r_i_glide_erotb>
0.707087303201497

> <r_i_glide_esite>
0

> <r_i_glide_emodel>
-44.4733347551506

> <r_i_glide_energy>
-31.5047922134399

> <r_i_glide_einternal>
2.23629236221313

> <i_i_glide_confnum>
20

> <i_i_glide_posenum>
290

> <r_i_glide_eff_state_penalty>
0

> <i_f3d_flags>
0

> <s_user_duplicate_titles>
45532

> <s_m_subgroup_title>
dock_pv

> <s_m_subgroupid>
dock_pv1

> <b_m_subgroup_collapsed>
0

$$$$
219475
                    3D
 Schrodinger Suite 2021-1.
 37 40  0  0  1  0            999 V2000
   16.0162  -11.9045   17.1954 C   0  0  0  0  0  0
   16.7630  -11.8585   16.0219 C   0  0  0  0  0  0
   17.0653  -10.5291   15.7374 C   0  0  0  0  0  0
   16.5789   -9.7563   16.7746 N   0  0  0  0  0  0
   15.8928  -10.6001   17.6281 C   0  0  0  0  0  0
   16.7049   -8.2897   16.8393 C   0  0  2  0  0  0
   17.1062   -7.7154   18.1925 C   0  0  0  0  0  0
   16.0965   -6.6288   18.4909 C   0  0  0  0  0  0
   16.1450   -5.8251   19.4184 O   0  0  0  0  0  0
   15.1252   -6.7445   17.5715 N   0  0  0  0  0  0
   15.3237   -7.6993   16.6493 C   0  0  0  0  0  0
   14.5450   -8.0456   15.7814 O   0  0  0  0  0  0
   17.5907   -7.7276   15.6836 C   0  0  0  0  0  0
   18.0492   -6.5849   15.7388 O   0  0  0  0  0  0
   17.8116   -8.5770   14.6276 N   0  0  0  0  0  0
   17.7460   -9.9548   14.5947 C   0  0  0  0  0  0
   18.1919  -10.6315   13.6652 O   0  0  0  0  0  0
   18.4684   -7.9280   13.4566 C   0  0  0  0  0  0
   17.6922   -6.8178   12.7341 C   0  0  0  0  0  0
   18.3990   -5.7150   12.2782 C   0  0  0  0  0  0
   17.8202   -4.8052   11.4034 C   0  0  0  0  0  0
   16.4889   -4.9587   11.0447 C   0  0  0  0  0  0
   15.7222   -5.9807   11.6054 C   0  0  0  0  0  0
   16.3274   -6.9048   12.4610 C   0  0  0  0  0  0
   15.7450   -3.7500    9.7810 Br  0  0  0  0  0  0
   15.5963  -12.7861   17.6597 H   0  0  0  0  0  0
   17.0267  -12.7076   15.4061 H   0  0  0  0  0  0
   15.3695  -10.1932   18.4823 H   0  0  0  0  0  0
   16.9450   -8.4382   18.9809 H   0  0  0  0  0  0
   18.1268   -7.3314   18.2612 H   0  0  0  0  0  0
   14.2831   -6.1929   17.5994 H   0  0  0  0  0  0
   18.7330   -8.6383   12.6722 H   0  0  0  0  0  0
   19.4355   -7.5405   13.7856 H   0  0  0  0  0  0
   19.4174   -5.5991   12.5811 H   0  0  0  0  0  0
   18.3987   -3.9839   11.0082 H   0  0  0  0  0  0
   14.6759   -6.0752   11.3531 H   0  0  0  0  0  0
   15.7450   -7.7142   12.8601 H   0  0  0  0  0  0
  1  5  2  0  0  0
  1  2  1  0  0  0
  1 26  1  0  0  0
  2  3  2  0  0  0
  2 27  1  0  0  0
  3 16  1  0  0  0
  3  4  1  0  0  0
  4  5  1  0  0  0
  4  6  1  0  0  0
  5 28  1  0  0  0
  6 11  1  0  0  0
  6  7  1  0  0  0
  6 13  1  0  0  0
  7  8  1  0  0  0
  7 29  1  0  0  0
  7 30  1  0  0  0
  8  9  2  0  0  0
  8 10  1  0  0  0
 10 11  1  0  0  0
 10 31  1  0  0  0
 11 12  2  0  0  0
 13 14  2  0  0  0
 13 15  1  0  0  0
 15 16  1  0  0  0
 15 18  1  0  0  0
 16 17  2  0  0  0
 18 19  1  0  0  0
 18 32  1  0  0  0
 18 33  1  0  0  0
 19 24  1  0  0  0
 19 20  2  0  0  0
 20 21  1  0  0  0
 20 34  1  0  0  0
 21 22  2  0  0  0
 21 35  1  0  0  0
 22 23  1  0  0  0
 22 25  1  0  0  0
 23 24  2  0  0  0
 23 36  1  0  0  0
 24 37  1  0  0  0
M  END
> <s_m_entry_id>
7179

> <s_m_entry_name>
ligand_docking-pose.321

> <s_m_Source_Path>
/home/csk/Desktop/cluster/DUD-E-result/aldr

> <s_m_Source_File>
ligand_docking-pose.sdf

> <i_m_Source_File_Index>
321

> <i_lp_mmshare_version>
53161

> <r_lp_tautomer_probability>
0.99995

> <s_lp_Force_Field>
OPLS_2005

> <r_lp_Energy>
32.269288

> <b_lp_Chiralities_Consistent>
1

> <s_lp_Variant>
219475-1

> <s_i_glide_gridfile>
glide-grid_2hv5

> <i_i_glide_lignum>
92

> <i_i_glide_rotatable_bonds>
2

> <r_i_docking_score>
-8.06631447204611

> <r_i_glide_ligand_efficiency>
-0.322652578881844

> <r_i_glide_ligand_efficiency_sa>
-0.943441862918365

> <r_i_glide_ligand_efficiency_ln>
-1.91195825781341

> <r_i_glide_gscore>
-8.06631447204611

> <r_i_glide_lipo>
-3.18468887681677

> <r_i_glide_hbond>
0

> <r_i_glide_metal>
0

> <r_i_glide_rewards>
-3.35015915151515

> <r_i_glide_evdw>
-38.5487251281738

> <r_i_glide_ecoul>
1.02250754833221

> <r_i_glide_erotb>
0.242593680444667

> <r_i_glide_esite>
0

> <r_i_glide_emodel>
-46.0741036976138

> <r_i_glide_energy>
-37.5262175798416

> <r_i_glide_einternal>
0.517606854438782

> <i_i_glide_confnum>
2

> <i_i_glide_posenum>
272

> <r_i_glide_eff_state_penalty>
0

> <i_f3d_flags>
0

> <s_user_duplicate_titles>
219475

> <s_m_subgroup_title>
dock_pv

> <s_m_subgroupid>
dock_pv1

> <b_m_subgroup_collapsed>
0

$$$$
276969
                    3D
 Schrodinger Suite 2021-1.
 29 31  0  0  1  0            999 V2000
   16.6397  -12.3114   17.1862 C   0  0  0  0  0  0
   15.4803  -11.8280   17.7961 C   0  0  0  0  0  0
   15.0280  -10.5382   17.5141 C   0  0  0  0  0  0
   15.7198   -9.7374   16.6056 C   0  0  0  0  0  0
   16.8797  -10.2215   16.0008 C   0  0  0  0  0  0
   17.3442  -11.5066   16.2895 C   0  0  0  0  0  0
   17.4060   -9.1804   15.1020 C   0  0  0  0  0  0
   18.5448   -9.1538   14.2969 C   0  0  0  0  0  0
   18.8441   -8.0069   13.5639 C   0  0  0  0  0  0
   17.9763   -6.9159   13.5811 C   0  0  0  0  0  0
   16.8196   -6.9590   14.3593 C   0  0  0  0  0  0
   16.5461   -8.0826   15.1420 C   0  0  0  0  0  0
   15.3982   -8.3445   16.1012 C   0  0  2  0  0  0
   15.1400   -7.2595   17.1908 C   0  0  0  0  0  0
   16.2616   -6.8875   18.1785 C   0  0  0  0  0  0
   16.0458   -6.2197   19.1853 O   0  0  0  0  0  0
   17.4983   -7.3147   17.8123 O   0  0  0  0  0  0
   18.2611   -5.8152   12.8483 F   0  0  0  0  0  0
   16.9878  -13.3113   17.4018 H   0  0  0  0  0  0
   14.9312  -12.4504   18.4884 H   0  0  0  0  0  0
   14.1411  -10.1720   18.0010 H   0  0  0  0  0  0
   18.2384  -11.8922   15.8205 H   0  0  0  0  0  0
   19.2197   -9.9968   14.2522 H   0  0  0  0  0  0
   19.7507   -7.9673   12.9819 H   0  0  0  0  0  0
   16.1494   -6.1151   14.3604 H   0  0  0  0  0  0
   14.4845   -8.4162   15.5111 H   0  0  0  0  0  0
   14.8482   -6.3348   16.6956 H   0  0  0  0  0  0
   14.2734   -7.5544   17.7832 H   0  0  0  0  0  0
   18.1454   -7.0472   18.4675 H   0  0  0  0  0  0
  1  6  1  0  0  0
  1  2  2  0  0  0
  1 19  1  0  0  0
  2  3  1  0  0  0
  2 20  1  0  0  0
  3  4  2  0  0  0
  3 21  1  0  0  0
  4 13  1  0  0  0
  4  5  1  0  0  0
  5  6  2  0  0  0
  5  7  1  0  0  0
  6 22  1  0  0  0
  7 12  2  0  0  0
  7  8  1  0  0  0
  8  9  2  0  0  0
  8 23  1  0  0  0
  9 10  1  0  0  0
  9 24  1  0  0  0
 10 11  2  0  0  0
 10 18  1  0  0  0
 11 12  1  0  0  0
 11 25  1  0  0  0
 12 13  1  0  0  0
 13 14  1  0  0  0
 13 26  1  0  0  0
 14 15  1  0  0  0
 14 27  1  0  0  0
 14 28  1  0  0  0
 15 16  2  0  0  0
 15 17  1  0  0  0
 17 29  1  0  0  0
M  END
> <s_m_entry_id>
7181

> <s_m_entry_name>
ligand_docking-pose.323

> <s_m_Source_Path>
/home/csk/Desktop/cluster/DUD-E-result/aldr

> <s_m_Source_File>
ligand_docking-pose.sdf

> <i_m_Source_File_Index>
323

> <i_lp_mmshare_version>
53161

> <r_lp_tautomer_probability>
1

> <s_lp_Force_Field>
OPLS_2005

> <r_lp_Energy>
30.91944

> <b_lp_Chiralities_Consistent>
1

> <s_lp_Variant>
276969-2

> <s_i_glide_gridfile>
glide-grid_2hv5

> <i_i_glide_lignum>
129

> <i_i_glide_rotatable_bonds>
3

> <r_i_docking_score>
-8.05317187237482

> <r_i_glide_ligand_efficiency>
-0.447398437354157

> <r_i_glide_ligand_efficiency_sa>
-1.17251560334875

> <r_i_glide_ligand_efficiency_ln>
-2.07002630430615

> <r_i_glide_gscore>
-8.05317187237482

> <r_i_glide_lipo>
-3.01529765996575

> <r_i_glide_hbond>
0

> <r_i_glide_metal>
0

> <r_i_glide_rewards>
-3.51975981069267

> <r_i_glide_evdw>
-31.3046703338623

> <r_i_glide_ecoul>
-1.65594756603241

> <r_i_glide_erotb>
0.295511249881575

> <r_i_glide_esite>
0

> <r_i_glide_emodel>
-47.360491737022

> <r_i_glide_energy>
-32.9606178998947

> <r_i_glide_einternal>
1.85168850421906

> <i_i_glide_confnum>
3

> <i_i_glide_posenum>
354

> <r_i_glide_eff_state_penalty>
0

> <i_f3d_flags>
0

> <s_user_duplicate_titles>
276969

> <s_m_subgroup_title>
dock_pv

> <s_m_subgroupid>
dock_pv1

> <b_m_subgroup_collapsed>
0

$$$$
180876
                    3D
 Schrodinger Suite 2021-1.
 31 34  0  0  1  0            999 V2000
   16.7799  -12.8324   16.7145 C   0  0  0  0  0  0
   17.4908  -12.0483   15.8051 C   0  0  0  0  0  0
   17.4211  -10.6567   15.8929 C   0  0  0  0  0  0
   16.6686  -10.0466   16.8992 C   0  0  0  0  0  0
   15.9291  -10.8392   17.7809 C   0  0  0  0  0  0
   15.9937  -12.2293   17.6960 C   0  0  0  0  0  0
   15.2998  -12.9899   18.5713 F   0  0  0  0  0  0
   16.6940   -8.5337   16.7388 C   0  0  0  0  0  0
   16.9856   -7.5907   17.9445 C   0  0  0  0  0  0
   15.7450   -6.8576   18.4411 C   0  0  0  0  0  0
   15.7552   -6.0253   19.3439 O   0  0  0  0  0  0
   14.5957   -7.3149   17.7801 N   0  0  0  0  0  0
   14.9810   -7.9935   16.2501 S   0  0  0  0  0  0
   15.1122   -6.9150   15.2781 O   0  0  0  0  0  0
   14.1450   -9.1558   15.9442 O   0  0  0  0  0  0
   17.6260   -8.3721   15.5628 C   0  0  0  0  0  0
   18.0200   -9.6060   15.0534 C   0  0  0  0  0  0
   18.8673   -9.6678   13.9437 C   0  0  0  0  0  0
   19.3461   -8.4826   13.3829 C   0  0  0  0  0  0
   18.9379   -7.2486   13.8891 C   0  0  0  0  0  0
   18.0875   -7.1944   14.9802 C   0  0  0  0  0  0
   19.3449   -6.0923   13.3327 F   0  0  0  0  0  0
   16.8247  -13.9083   16.6501 H   0  0  0  0  0  0
   18.0754  -12.5276   15.0337 H   0  0  0  0  0  0
   15.2992  -10.3860   18.5324 H   0  0  0  0  0  0
   17.3475   -8.1150   18.8093 H   0  0  0  0  0  0
   17.7402   -6.8414   17.7040 H   0  0  0  0  0  0
   13.6521   -6.9820   18.0017 H   0  0  0  0  0  0
   19.1953  -10.6158   13.5437 H   0  0  0  0  0  0
   20.0602   -8.5152   12.5810 H   0  0  0  0  0  0
   17.7853   -6.2287   15.3536 H   0  0  0  0  0  0
  1  6  1  0  0  0
  1  2  2  0  0  0
  1 23  1  0  0  0
  2  3  1  0  0  0
  2 24  1  0  0  0
  3 17  1  0  0  0
  3  4  2  0  0  0
  4  5  1  0  0  0
  4  8  1  0  0  0
  5  6  2  0  0  0
  5 25  1  0  0  0
  6  7  1  0  0  0
  8 13  1  0  0  0
  8  9  1  0  0  0
  8 16  1  0  0  0
  9 10  1  0  0  0
  9 26  1  0  0  0
  9 27  1  0  0  0
 10 11  2  0  0  0
 10 12  1  0  0  0
 12 13  1  0  0  0
 12 28  1  0  0  0
 13 14  2  0  0  0
 13 15  2  0  0  0
 16 21  2  0  0  0
 16 17  1  0  0  0
 17 18  2  0  0  0
 18 19  1  0  0  0
 18 29  1  0  0  0
 19 20  2  0  0  0
 19 30  1  0  0  0
 20 21  1  0  0  0
 20 22  1  0  0  0
 21 31  1  0  0  0
M  END
> <s_m_entry_id>
7184

> <s_m_entry_name>
ligand_docking-pose.326

> <s_m_Source_Path>
/home/csk/Desktop/cluster/DUD-E-result/aldr

> <s_m_Source_File>
ligand_docking-pose.sdf

> <i_m_Source_File_Index>
326

> <i_lp_mmshare_version>
53161

> <r_lp_tautomer_probability>
1

> <s_lp_Force_Field>
OPLS_2005

> <r_lp_Energy>
42.525136

> <b_lp_Chiralities_Consistent>
1

> <s_lp_Variant>
180876-1

> <s_i_glide_gridfile>
glide-grid_2hv5

> <i_i_glide_lignum>
54

> <i_i_glide_rotatable_bonds>
0

> <r_i_docking_score>
-8.01915151183079

> <r_i_glide_ligand_efficiency>
-0.364506886901399

> <r_i_glide_ligand_efficiency_sa>
-1.02136263234012

> <r_i_glide_ligand_efficiency_ln>
-1.96017313514992

> <r_i_glide_gscore>
-8.01915151183079

> <r_i_glide_lipo>
-2.43703857407442

> <r_i_glide_hbond>
-0.357949479145847

> <r_i_glide_metal>
0

> <r_i_glide_rewards>
-3.1772944569236

> <r_i_glide_evdw>
-23.0959072113037

> <r_i_glide_ecoul>
-5.71473550796509

> <r_i_glide_erotb>
0

> <r_i_glide_esite>
-0.0348633149269726

> <r_i_glide_emodel>
-34.699891878207

> <r_i_glide_energy>
-28.8106427192688

> <r_i_glide_einternal>
0

> <i_i_glide_confnum>
2

> <i_i_glide_posenum>
125

> <r_i_glide_eff_state_penalty>
0

> <i_f3d_flags>
0

> <s_user_duplicate_titles>
180876

> <s_m_subgroup_title>
dock_pv

> <s_m_subgroupid>
dock_pv1

> <b_m_subgroup_collapsed>
0

$$$$
430866
                    3D
 Schrodinger Suite 2021-1.
 30 32  0  0  1  0            999 V2000
   18.0331   -7.9349   13.6794 C   0  0  0  0  0  0
   16.9940   -7.3769   14.4161 C   0  0  0  0  0  0
   16.3105   -8.1529   15.3501 C   0  0  0  0  0  0
   16.6293   -9.5057   15.5616 C   0  0  0  0  0  0
   17.6584  -10.0539   14.7716 C   0  0  0  0  0  0
   18.3486   -9.2806   13.8380 C   0  0  0  0  0  0
   19.3350   -9.8324   13.0951 F   0  0  0  0  0  0
   15.8159  -10.2825   16.6130 C   0  0  2  0  0  0
   15.3930   -9.3411   17.7903 C   0  0  0  0  0  0
   15.1871   -7.8343   17.4280 C   0  0  2  0  0  0
   15.2905   -7.5212   16.0297 O   0  0  0  0  0  0
   16.1668   -6.9009   18.1997 C   0  0  0  0  0  0
   15.7702   -6.1819   19.1162 O   0  0  0  0  0  0
   17.4559   -6.9148   17.8629 N   0  0  0  0  0  0
   16.5249  -11.5266   17.1584 C   0  0  0  0  0  0
   17.5851  -11.5642   17.7797 O   0  0  0  0  0  0
   15.7206  -12.5640   16.9105 N   0  0  0  0  0  0
   14.6128  -12.2598   16.2214 C   0  0  0  0  0  0
   13.8082  -13.0538   15.7434 O   0  0  0  0  0  0
   14.6705  -10.9337   16.0314 N   0  0  0  0  0  0
   18.5803   -7.3269   12.9783 H   0  0  0  0  0  0
   16.7237   -6.3437   14.2679 H   0  0  0  0  0  0
   17.9393  -11.0921   14.8715 H   0  0  0  0  0  0
   16.1408   -9.3952   18.5809 H   0  0  0  0  0  0
   14.4781   -9.7100   18.2555 H   0  0  0  0  0  0
   14.2002   -7.5037   17.7582 H   0  0  0  0  0  0
   18.1082   -6.3271   18.3594 H   0  0  0  0  0  0
   17.7764   -7.4984   17.1062 H   0  0  0  0  0  0
   15.9593  -13.5112   17.1552 H   0  0  0  0  0  0
   13.8357  -10.3953   15.8494 H   0  0  0  0  0  0
  1  6  1  0  0  0
  1  2  2  0  0  0
  1 21  1  0  0  0
  2  3  1  0  0  0
  2 22  1  0  0  0
  3 11  1  0  0  0
  3  4  2  0  0  0
  4  5  1  0  0  0
  4  8  1  0  0  0
  5  6  2  0  0  0
  5 23  1  0  0  0
  6  7  1  0  0  0
  8 20  1  0  0  0
  8  9  1  0  0  0
  8 15  1  0  0  0
  9 10  1  0  0  0
  9 24  1  0  0  0
  9 25  1  0  0  0
 10 11  1  0  0  0
 10 12  1  0  0  0
 10 26  1  0  0  0
 12 13  2  0  0  0
 12 14  1  0  0  0
 14 27  1  0  0  0
 14 28  1  0  0  0
 15 16  2  0  0  0
 15 17  1  0  0  0
 17 18  1  0  0  0
 17 29  1  0  0  0
 18 19  2  0  0  0
 18 20  1  0  0  0
 20 30  1  0  0  0
M  END
> <s_m_entry_id>
7185

> <s_m_entry_name>
ligand_docking-pose.327

> <s_m_Source_Path>
/home/csk/Desktop/cluster/DUD-E-result/aldr

> <s_m_Source_File>
ligand_docking-pose.sdf

> <i_m_Source_File_Index>
327

> <i_lp_mmshare_version>
53161

> <r_lp_tautomer_probability>
0.99999999978137

> <s_lp_Force_Field>
OPLS_2005

> <r_lp_Energy>
24.420546

> <b_lp_Chiralities_Consistent>
1

> <s_lp_Variant>
430866-4

> <s_i_glide_gridfile>
glide-grid_2hv5

> <i_i_glide_lignum>
48

> <i_i_glide_rotatable_bonds>
1

> <r_i_docking_score>
-8.01656932604327

> <r_i_glide_ligand_efficiency>
-0.400828466302164

> <r_i_glide_ligand_efficiency_sa>
-1.08801584907684

> <r_i_glide_ligand_efficiency_ln>
-2.00628289815648

> <r_i_glide_gscore>
-8.01656932604327

> <r_i_glide_lipo>
-2.32036311113396

> <r_i_glide_hbond>
-0.20823545633756

> <r_i_glide_metal>
0

> <r_i_glide_rewards>
-3.12530602475926

> <r_i_glide_evdw>
-28.9469165802002

> <r_i_glide_ecoul>
-6.06859111785889

> <r_i_glide_erotb>
0

> <r_i_glide_esite>
-0.00503023712365291

> <r_i_glide_emodel>
-44.9441763375298

> <r_i_glide_energy>
-35.0155076980591

> <r_i_glide_einternal>
0.688497126102448

> <i_i_glide_confnum>
1

> <i_i_glide_posenum>
14

> <r_i_glide_eff_state_penalty>
0

> <i_f3d_flags>
0

> <s_user_duplicate_titles>
430866

> <s_m_subgroup_title>
dock_pv

> <s_m_subgroupid>
dock_pv1

> <b_m_subgroup_collapsed>
0

$$$$
276237
                    3D
 Schrodinger Suite 2021-1.
 29 31  0  0  1  0            999 V2000
   18.8561   -8.0148   13.5456 C   0  0  0  0  0  0
   18.5436   -9.1632   14.2713 C   0  0  0  0  0  0
   17.4044   -9.1821   15.0759 C   0  0  0  0  0  0
   16.5534   -8.0778   15.1188 C   0  0  0  0  0  0
   16.8328   -6.9587   14.3303 C   0  0  0  0  0  0
   17.9928   -6.9197   13.5573 C   0  0  0  0  0  0
   18.2826   -5.8220   12.8244 F   0  0  0  0  0  0
   15.4143   -8.3220   16.0932 C   0  0  0  0  0  0
   15.7233   -9.7222   16.5893 C   0  0  0  0  0  0
   16.8750  -10.2169   15.9771 C   0  0  0  0  0  0
   17.3359  -11.5039   16.2644 C   0  0  0  0  0  0
   16.6318  -12.2998   17.1680 C   0  0  0  0  0  0
   15.4809  -11.8068   17.7854 C   0  0  0  0  0  0
   15.0292  -10.5174   17.5025 C   0  0  0  0  0  0
   14.8150  -12.5717   18.6794 F   0  0  0  0  0  0
   15.2107   -7.2302   17.1882 C   0  0  0  0  0  0
   16.3458   -6.9257   18.1863 C   0  0  0  0  0  0
   16.1432   -6.3424   19.2493 O   0  0  0  0  0  0
   17.5794   -7.3160   17.7749 O   0  0  0  0  0  0
   19.7738   -7.9766   12.9810 H   0  0  0  0  0  0
   19.2111  -10.0099   14.2257 H   0  0  0  0  0  0
   16.1653   -6.1154   14.3275 H   0  0  0  0  0  0
   14.4864   -8.3733   15.5208 H   0  0  0  0  0  0
   18.2255  -11.8955   15.7913 H   0  0  0  0  0  0
   16.9735  -13.2991   17.3937 H   0  0  0  0  0  0
   14.1450  -10.1516   17.9971 H   0  0  0  0  0  0
   14.9740   -6.2868   16.7001 H   0  0  0  0  0  0
   14.3246   -7.4832   17.7728 H   0  0  0  0  0  0
   18.2336   -7.0951   18.4414 H   0  0  0  0  0  0
  1  6  1  0  0  0
  1  2  2  0  0  0
  1 20  1  0  0  0
  2  3  1  0  0  0
  2 21  1  0  0  0
  3 10  1  0  0  0
  3  4  2  0  0  0
  4  5  1  0  0  0
  4  8  1  0  0  0
  5  6  2  0  0  0
  5 22  1  0  0  0
  6  7  1  0  0  0
  8  9  1  0  0  0
  8 16  1  0  0  0
  8 23  1  0  0  0
  9 14  2  0  0  0
  9 10  1  0  0  0
 10 11  2  0  0  0
 11 12  1  0  0  0
 11 24  1  0  0  0
 12 13  2  0  0  0
 12 25  1  0  0  0
 13 14  1  0  0  0
 13 15  1  0  0  0
 14 26  1  0  0  0
 16 17  1  0  0  0
 16 27  1  0  0  0
 16 28  1  0  0  0
 17 18  2  0  0  0
 17 19  1  0  0  0
 19 29  1  0  0  0
M  END
> <s_m_entry_id>
7186

> <s_m_entry_name>
ligand_docking-pose.328

> <s_m_Source_Path>
/home/csk/Desktop/cluster/DUD-E-result/aldr

> <s_m_Source_File>
ligand_docking-pose.sdf

> <i_m_Source_File_Index>
328

> <i_lp_mmshare_version>
53161

> <r_lp_tautomer_probability>
1

> <s_lp_Force_Field>
OPLS_2005

> <r_lp_Energy>
30.181079

> <b_lp_Chiralities_Consistent>
1

> <s_lp_Variant>
276237-1

> <s_i_glide_gridfile>
glide-grid_2hv5

> <i_i_glide_lignum>
56

> <i_i_glide_rotatable_bonds>
3

> <r_i_docking_score>
-8.01590386049813

> <r_i_glide_ligand_efficiency>
-0.421889676868323

> <r_i_glide_ligand_efficiency_sa>
-1.12577110822928

> <r_i_glide_ligand_efficiency_ln>
-2.03220379446511

> <r_i_glide_gscore>
-8.01590386049813

> <r_i_glide_lipo>
-3.02196445875108

> <r_i_glide_hbond>
0

> <r_i_glide_metal>
0

> <r_i_glide_rewards>
-3.41461917282749

> <r_i_glide_evdw>
-32.2228927612305

> <r_i_glide_ecoul>
-1.21206307411194

> <r_i_glide_erotb>
0.261344291163335

> <r_i_glide_esite>
-0.0477104209045884

> <r_i_glide_emodel>
-47.9263622667431

> <r_i_glide_energy>
-33.4349558353424

> <r_i_glide_einternal>
1.86027431488037

> <i_i_glide_confnum>
3

> <i_i_glide_posenum>
39

> <r_i_glide_eff_state_penalty>
0

> <i_f3d_flags>
0

> <s_user_duplicate_titles>
276237

> <s_m_subgroup_title>
dock_pv

> <s_m_subgroupid>
dock_pv1

> <b_m_subgroup_collapsed>
0

$$$$
219046
                    3D
 Schrodinger Suite 2021-1.
 37 40  0  0  1  0            999 V2000
   17.3295   -4.7457   10.7739 C   0  0  0  0  0  0
   15.9443   -4.8268   10.9030 C   0  0  0  0  0  0
   15.3937   -5.7150   11.8229 C   0  0  0  0  0  0
   16.2371   -6.5248   12.5810 C   0  0  0  0  0  0
   17.6084   -6.5463   12.3933 C   0  0  0  0  0  0
   18.1450   -5.5966   11.5229 C   0  0  0  0  0  0
   18.4861   -7.6646   13.0160 C   0  0  0  0  0  0
   18.0176   -8.4398   14.2250 N   0  0  0  0  0  0
   18.2076   -9.8072   14.1771 C   0  0  0  0  0  0
   18.7379  -10.3850   13.2269 O   0  0  0  0  0  0
   17.7091  -10.5113   15.3435 C   0  0  0  0  0  0
   17.7010  -11.8746   15.6292 C   0  0  0  0  0  0
   17.0640  -12.0710   16.8509 C   0  0  0  0  0  0
   16.6987  -10.8194   17.3031 C   0  0  0  0  0  0
   17.1262   -9.8553   16.4115 N   0  0  0  0  0  0
   16.9469   -8.3965   16.4875 C   0  0  2  0  0  0
   17.7338   -7.6835   15.3323 C   0  0  0  0  0  0
   18.0914   -6.5150   15.4220 O   0  0  0  0  0  0
   17.3195   -7.7594   17.8199 C   0  0  0  0  0  0
   16.1613   -6.8472   18.1805 C   0  0  0  0  0  0
   16.1449   -6.0220   19.0901 O   0  0  0  0  0  0
   15.1607   -7.1347   17.3332 N   0  0  0  0  0  0
   15.4398   -8.0977   16.4365 C   0  0  0  0  0  0
   14.6118   -8.6703   15.7382 O   0  0  0  0  0  0
   15.7450   -7.3150   13.5254 F   0  0  0  0  0  0
   17.7673   -4.0411   10.0824 H   0  0  0  0  0  0
   15.3017   -4.1803   10.3223 H   0  0  0  0  0  0
   14.3250   -5.7466   11.9779 H   0  0  0  0  0  0
   19.2076   -5.5562   11.3811 H   0  0  0  0  0  0
   18.5536   -8.3569   12.1811 H   0  0  0  0  0  0
   19.4930   -7.2864   13.2045 H   0  0  0  0  0  0
   18.0963  -12.6516   14.9893 H   0  0  0  0  0  0
   16.8700  -13.0199   17.3312 H   0  0  0  0  0  0
   16.1451  -10.5217   18.1810 H   0  0  0  0  0  0
   17.3450   -8.5150   18.5810 H   0  0  0  0  0  0
   18.2706   -7.2230   17.8545 H   0  0  0  0  0  0
   14.2404   -6.7338   17.4233 H   0  0  0  0  0  0
  1  6  1  0  0  0
  1  2  2  0  0  0
  1 26  1  0  0  0
  2  3  1  0  0  0
  2 27  1  0  0  0
  3  4  2  0  0  0
  3 28  1  0  0  0
  4  5  1  0  0  0
  4 25  1  0  0  0
  5  6  2  0  0  0
  5  7  1  0  0  0
  6 29  1  0  0  0
  7  8  1  0  0  0
  7 30  1  0  0  0
  7 31  1  0  0  0
  8 17  1  0  0  0
  8  9  1  0  0  0
  9 10  2  0  0  0
  9 11  1  0  0  0
 11 15  1  0  0  0
 11 12  2  0  0  0
 12 13  1  0  0  0
 12 32  1  0  0  0
 13 14  2  0  0  0
 13 33  1  0  0  0
 14 15  1  0  0  0
 14 34  1  0  0  0
 15 16  1  0  0  0
 16 23  1  0  0  0
 16 17  1  0  0  0
 16 19  1  0  0  0
 17 18  2  0  0  0
 19 20  1  0  0  0
 19 35  1  0  0  0
 19 36  1  0  0  0
 20 21  2  0  0  0
 20 22  1  0  0  0
 22 23  1  0  0  0
 22 37  1  0  0  0
 23 24  2  0  0  0
M  END
> <s_m_entry_id>
7187

> <s_m_entry_name>
ligand_docking-pose.329

> <s_m_Source_Path>
/home/csk/Desktop/cluster/DUD-E-result/aldr

> <s_m_Source_File>
ligand_docking-pose.sdf

> <i_m_Source_File_Index>
329

> <i_lp_mmshare_version>
53161

> <r_lp_tautomer_probability>
0.99995

> <s_lp_Force_Field>
OPLS_2005

> <r_lp_Energy>
33.552359

> <b_lp_Chiralities_Consistent>
1

> <s_lp_Variant>
219046-1

> <s_i_glide_gridfile>
glide-grid_2hv5

> <i_i_glide_lignum>
397

> <i_i_glide_rotatable_bonds>
2

> <r_i_docking_score>
-8.00577655509068

> <r_i_glide_ligand_efficiency>
-0.320231062203627

> <r_i_glide_ligand_efficiency_sa>
-0.936361305205477

> <r_i_glide_ligand_efficiency_ln>
-1.89760895732

> <r_i_glide_gscore>
-8.00577655509068

> <r_i_glide_lipo>
-2.88100199601586

> <r_i_glide_hbond>
0

> <r_i_glide_metal>
0

> <r_i_glide_rewards>
-3.65709125227273

> <r_i_glide_evdw>
-34.1176681518555

> <r_i_glide_ecoul>
-0.580950438976288

> <r_i_glide_erotb>
0.325342666637122

> <r_i_glide_esite>
0

> <r_i_glide_emodel>
-40.9298123606684

> <r_i_glide_energy>
-34.6986185908318

> <r_i_glide_einternal>
3.92215442657471

> <i_i_glide_confnum>
2

> <i_i_glide_posenum>
301

> <r_i_glide_eff_state_penalty>
0

> <i_f3d_flags>
0

> <s_user_duplicate_titles>
219046

> <s_m_subgroup_title>
dock_pv

> <s_m_subgroupid>
dock_pv1

> <b_m_subgroup_collapsed>
0

$$$$
517482
                    3D
 Schrodinger Suite 2021-1.
 44 46  0  0  1  0            999 V2000
   16.2274   -4.0834    9.9039 C   0  0  0  0  0  0
   17.5313   -4.4234   10.2563 C   0  0  0  0  0  0
   17.7494   -5.3269   11.2940 C   0  0  0  0  0  0
   16.6700   -5.8951   11.9793 C   0  0  0  0  0  0
   15.3664   -5.5468   11.6124 C   0  0  0  0  0  0
   15.1457   -4.6382   10.5811 C   0  0  0  0  0  0
   16.8920   -6.8687   13.0661 C   0  0  0  0  0  0
   17.6823   -7.9502   12.9804 C   0  0  0  0  0  0
   17.8152   -8.9031   14.0751 C   0  0  0  0  0  0
   18.4276   -9.9663   13.9980 O   0  0  0  0  0  0
   17.1259   -8.4695   15.3302 C   0  0  0  0  0  0
   17.1061   -9.2213   16.5121 C   0  0  0  0  0  0
   16.5691   -8.6746   17.6754 C   0  0  0  0  0  0
   16.1641   -7.3477   17.7200 C   0  0  0  0  0  0
   16.0752   -6.6340   16.5335 C   0  0  0  0  0  0
   16.4907   -7.2244   15.3473 C   0  0  0  0  0  0
   16.2479   -6.5148   14.1985 O   0  0  0  0  0  0
   15.8651   -6.7933   18.9375 O   0  0  0  0  0  0
   16.3801   -5.4893   19.2062 C   0  0  0  0  0  0
   16.4670   -5.3608   20.7332 C   0  0  0  0  0  0
   16.2447   -3.9441   21.3035 C   0  0  0  0  0  0
   16.2012   -3.9281   22.8445 C   0  0  0  0  0  0
   17.4418   -4.4467   23.3421 O   0  0  0  0  0  0
   17.4581   -4.7351   24.7445 N   0  3  0  0  0  0
   18.5126   -5.1974   25.1069 O   0  5  0  0  0  0
   16.4591   -4.4954   25.3825 O   0  0  0  0  0  0
   17.6269  -10.4854   16.5616 O   0  0  0  0  0  0
   16.0490   -3.3812    9.1024 H   0  0  0  0  0  0
   18.3666   -3.9877    9.7299 H   0  0  0  0  0  0
   18.7610   -5.5873   11.5692 H   0  0  0  0  0  0
   14.5195   -5.9694   12.1342 H   0  0  0  0  0  0
   14.1383   -4.3658   10.3048 H   0  0  0  0  0  0
   18.1452   -8.1223   12.0314 H   0  0  0  0  0  0
   16.5459   -9.2537   18.5809 H   0  0  0  0  0  0
   15.7056   -5.6254   16.5362 H   0  0  0  0  0  0
   15.7449   -4.7221   18.7708 H   0  0  0  0  0  0
   17.3740   -5.3481   18.7744 H   0  0  0  0  0  0
   17.4466   -5.7145   21.0314 H   0  0  0  0  0  0
   15.7733   -6.0602   21.1990 H   0  0  0  0  0  0
   15.3104   -3.5293   20.9232 H   0  0  0  0  0  0
   17.0343   -3.2779   20.9523 H   0  0  0  0  0  0
   15.3467   -4.5163   23.1891 H   0  0  0  0  0  0
   16.0468   -2.9103   23.2068 H   0  0  0  0  0  0
   17.9853  -10.7129   15.6938 H   0  0  0  0  0  0
  1  6  1  0  0  0
  1  2  2  0  0  0
  1 28  1  0  0  0
  2  3  1  0  0  0
  2 29  1  0  0  0
  3  4  2  0  0  0
  3 30  1  0  0  0
  4  5  1  0  0  0
  4  7  1  0  0  0
  5  6  2  0  0  0
  5 31  1  0  0  0
  6 32  1  0  0  0
  7 17  1  0  0  0
  7  8  2  0  0  0
  8  9  1  0  0  0
  8 33  1  0  0  0
  9 10  2  0  0  0
  9 11  1  0  0  0
 11 16  2  0  0  0
 11 12  1  0  0  0
 12 13  2  0  0  0
 12 27  1  0  0  0
 13 14  1  0  0  0
 13 34  1  0  0  0
 14 15  2  0  0  0
 14 18  1  0  0  0
 15 16  1  0  0  0
 15 35  1  0  0  0
 16 17  1  0  0  0
 18 19  1  0  0  0
 19 20  1  0  0  0
 19 36  1  0  0  0
 19 37  1  0  0  0
 20 21  1  0  0  0
 20 38  1  0  0  0
 20 39  1  0  0  0
 21 22  1  0  0  0
 21 40  1  0  0  0
 21 41  1  0  0  0
 22 23  1  0  0  0
 22 42  1  0  0  0
 22 43  1  0  0  0
 23 24  1  0  0  0
 24 25  1  0  0  0
 24 26  2  0  0  0
 27 44  1  0  0  0
M  CHG  2  24   1  25  -1
M  END
> <s_m_entry_id>
7188

> <s_m_entry_name>
ligand_docking-pose.330

> <s_m_Source_Path>
/home/csk/Desktop/cluster/DUD-E-result/aldr

> <s_m_Source_File>
ligand_docking-pose.sdf

> <i_m_Source_File_Index>
330

> <i_lp_mmshare_version>
53161

> <r_lp_tautomer_probability>
1

> <s_lp_Force_Field>
OPLS_2005

> <r_lp_Energy>
22.151327

> <b_lp_Chiralities_Consistent>
1

> <s_lp_Variant>
517482-1

> <s_i_glide_gridfile>
glide-grid_2hv5

> <i_i_glide_lignum>
329

> <i_i_glide_rotatable_bonds>
9

> <r_i_docking_score>
-7.99860731381242

> <r_i_glide_ligand_efficiency>
-0.296244715326386

> <r_i_glide_ligand_efficiency_sa>
-0.888734145002783

> <r_i_glide_ligand_efficiency_ln>
-1.86194391530797

> <r_i_glide_gscore>
-7.99860731381242

> <r_i_glide_lipo>
-5.180657094471

> <r_i_glide_hbond>
0

> <r_i_glide_metal>
0

> <r_i_glide_rewards>
-1.26133071022406

> <r_i_glide_evdw>
-47.5385780334473

> <r_i_glide_ecoul>
-1.06355690956116

> <r_i_glide_erotb>
0.979842928989187

> <r_i_glide_esite>
0

> <r_i_glide_emodel>
-60.3782105552972

> <r_i_glide_energy>
-48.6021349430084

> <r_i_glide_einternal>
13.8724298477173

> <i_i_glide_confnum>
64

> <i_i_glide_posenum>
338

> <r_i_glide_eff_state_penalty>
0

> <i_f3d_flags>
0

> <s_user_duplicate_titles>
517482

> <s_m_subgroup_title>
dock_pv

> <s_m_subgroupid>
dock_pv1

> <b_m_subgroup_collapsed>
0

$$$$
237266
                    3D
 Schrodinger Suite 2021-1.
 33 35  0  0  1  0            999 V2000
   15.9248   -4.0287    9.6592 C   0  0  0  0  0  0
   17.2673   -3.6692    9.6503 C   0  0  0  0  0  0
   18.1470   -4.2081   10.5843 C   0  0  0  0  0  0
   17.6855   -5.1234   11.5646 C   0  0  0  0  0  0
   18.5192   -5.6424   12.5810 C   0  0  0  0  0  0
   18.0408   -6.4849   13.5702 C   0  0  0  0  0  0
   16.6993   -6.8765   13.5738 C   0  0  0  0  0  0
   15.8503   -6.3596   12.5810 C   0  0  0  0  0  0
   16.3144   -5.4908   11.5701 C   0  0  0  0  0  0
   15.4417   -4.9317   10.6010 C   0  0  0  0  0  0
   16.1330   -7.6476   14.6989 C   0  0  0  0  0  0
   16.5130   -8.8703   15.1466 C   0  0  0  0  0  0
   15.8821   -9.4593   16.3074 C   0  0  0  0  0  0
   15.0058   -8.9226   16.9935 O   0  0  0  0  0  0
   16.3912  -10.6977   16.5466 N   0  0  0  0  0  0
   17.3450  -11.1921   15.6978 C   0  0  0  0  0  0
   18.1092  -12.6762   15.6570 S   0  0  0  0  0  0
   17.7450   -9.9731   14.5191 S   0  0  0  0  0  0
   15.9504  -11.4627   17.7437 C   0  0  0  0  0  0
   14.6735  -12.2752   17.4832 C   0  0  0  0  0  0
   14.1999  -12.5150   16.3928 O   0  0  0  0  0  0
   14.1450  -12.6400   18.6820 O   0  0  0  0  0  0
   19.2504   -6.9150   14.9809 Br  0  0  0  0  0  0
   15.2500   -3.6011    8.9322 H   0  0  0  0  0  0
   17.6264   -2.9627    8.9165 H   0  0  0  0  0  0
   19.1834   -3.9079   10.5810 H   0  0  0  0  0  0
   19.5303   -5.3150   12.6618 H   0  0  0  0  0  0
   14.7908   -6.5150   12.5810 H   0  0  0  0  0  0
   14.3927   -5.1924   10.6097 H   0  0  0  0  0  0
   15.3374   -7.1298   15.2171 H   0  0  0  0  0  0
   15.7275  -10.7613   18.5495 H   0  0  0  0  0  0
   16.7271  -12.1328   18.1098 H   0  0  0  0  0  0
   13.2204  -12.9150   18.5810 H   0  0  0  0  0  0
  1 10  1  0  0  0
  1  2  2  0  0  0
  1 24  1  0  0  0
  2  3  1  0  0  0
  2 25  1  0  0  0
  3  4  2  0  0  0
  3 26  1  0  0  0
  4  9  1  0  0  0
  4  5  1  0  0  0
  5  6  2  0  0  0
  5 27  1  0  0  0
  6  7  1  0  0  0
  6 23  1  0  0  0
  7  8  2  0  0  0
  7 11  1  0  0  0
  8  9  1  0  0  0
  8 28  1  0  0  0
  9 10  2  0  0  0
 10 29  1  0  0  0
 11 12  2  0  0  0
 11 30  1  0  0  0
 12 18  1  0  0  0
 12 13  1  0  0  0
 13 14  2  0  0  0
 13 15  1  0  0  0
 15 16  1  0  0  0
 15 19  1  0  0  0
 16 17  2  0  0  0
 16 18  1  0  0  0
 19 20  1  0  0  0
 19 31  1  0  0  0
 19 32  1  0  0  0
 20 21  2  0  0  0
 20 22  1  0  0  0
 22 33  1  0  0  0
M  END
> <s_m_entry_id>
7189

> <s_m_entry_name>
ligand_docking-pose.331

> <s_m_Source_Path>
/home/csk/Desktop/cluster/DUD-E-result/aldr

> <s_m_Source_File>
ligand_docking-pose.sdf

> <i_m_Source_File_Index>
331

> <i_lp_mmshare_version>
53161

> <r_lp_tautomer_probability>
1

> <s_lp_Force_Field>
OPLS_2005

> <r_lp_Energy>
17.728736

> <b_lp_Chiralities_Consistent>
1

> <s_lp_Variant>
237266-1

> <s_i_glide_gridfile>
glide-grid_2hv5

> <i_i_glide_lignum>
295

> <i_i_glide_rotatable_bonds>
4

> <r_i_docking_score>
-7.99392583334419

> <r_i_glide_ligand_efficiency>
-0.347561992754095

> <r_i_glide_ligand_efficiency_sa>
-0.988420073611719

> <r_i_glide_ligand_efficiency_ln>
-1.93300375141454

> <r_i_glide_gscore>
-7.99392583334419

> <r_i_glide_lipo>
-3.79956589178997

> <r_i_glide_hbond>
0

> <r_i_glide_metal>
0

> <r_i_glide_rewards>
-2.40837569716893

> <r_i_glide_evdw>
-36.8021202087402

> <r_i_glide_ecoul>
-2.00028014183044

> <r_i_glide_erotb>
0.354163787326294

> <r_i_glide_esite>
0

> <r_i_glide_emodel>
-51.900990826579

> <r_i_glide_energy>
-38.8024003505707

> <r_i_glide_einternal>
4.30583524703979

> <i_i_glide_confnum>
12

> <i_i_glide_posenum>
259

> <r_i_glide_eff_state_penalty>
0

> <i_f3d_flags>
0

> <s_user_duplicate_titles>
237266

> <s_m_subgroup_title>
dock_pv

> <s_m_subgroupid>
dock_pv1

> <b_m_subgroup_collapsed>
0

$$$$
69409
                    3D
 Schrodinger Suite 2021-1.
 33 34  0  0  1  0            999 V2000
   16.6346   -9.4031   17.0831 C   0  0  0  0  0  0
   17.3471   -8.1325   16.9253 N   0  0  0  0  0  0
   17.3045   -7.2019   18.0877 C   0  0  0  0  0  0
   15.9197   -6.5890   18.4038 C   0  0  0  0  0  0
   15.7486   -5.8907   19.3776 O   0  0  0  0  0  0
   14.9430   -6.9120   17.5077 O   0  0  0  0  0  0
   17.7227   -7.6508   15.7108 C   0  0  0  0  0  0
   18.1457   -6.5147   15.5831 O   0  0  0  0  0  0
   17.6026   -8.4966   14.4354 C   0  0  0  0  0  0
   18.3296   -7.8749   13.2075 C   0  0  0  0  0  0
   17.6364   -6.6805   12.5593 C   0  0  0  0  0  0
   18.3271   -5.7207   12.0047 N   0  0  0  0  0  0
   17.5550   -4.8956   11.2574 C   0  0  0  0  0  0
   18.0414   -3.8527   10.4542 C   0  0  0  0  0  0
   17.1155   -3.0747    9.7721 C   0  0  0  0  0  0
   15.7508   -3.3250    9.8470 C   0  0  0  0  0  0
   15.2539   -4.3945   10.5798 C   0  0  0  0  0  0
   16.1693   -5.1677   11.3029 C   0  0  0  0  0  0
   15.9039   -6.5154   12.3806 S   0  0  0  0  0  0
   13.9237   -4.6384   10.5908 F   0  0  0  0  0  0
   17.5481   -2.0817    8.9818 F   0  0  0  0  0  0
   19.3588   -3.5837   10.3411 F   0  0  0  0  0  0
   16.8534  -10.1260   16.2984 H   0  0  0  0  0  0
   16.9222   -9.8597   18.0267 H   0  0  0  0  0  0
   15.5574   -9.2524   17.1071 H   0  0  0  0  0  0
   18.0375   -6.4061   17.9755 H   0  0  0  0  0  0
   17.6627   -7.7158   18.9782 H   0  0  0  0  0  0
   14.0827   -6.5839   17.7793 H   0  0  0  0  0  0
   18.0372   -9.4771   14.6243 H   0  0  0  0  0  0
   16.5501   -8.6322   14.1916 H   0  0  0  0  0  0
   19.3634   -7.6378   13.4676 H   0  0  0  0  0  0
   18.4076   -8.6573   12.4651 H   0  0  0  0  0  0
   15.0724   -2.6462    9.3721 H   0  0  0  0  0  0
  1  2  1  0  0  0
  1 23  1  0  0  0
  1 24  1  0  0  0
  1 25  1  0  0  0
  2  3  1  0  0  0
  2  7  1  0  0  0
  3  4  1  0  0  0
  3 26  1  0  0  0
  3 27  1  0  0  0
  4  5  2  0  0  0
  4  6  1  0  0  0
  6 28  1  0  0  0
  7  8  2  0  0  0
  7  9  1  0  0  0
  9 10  1  0  0  0
  9 29  1  0  0  0
  9 30  1  0  0  0
 10 11  1  0  0  0
 10 31  1  0  0  0
 10 32  1  0  0  0
 11 19  1  0  0  0
 11 12  2  0  0  0
 12 13  1  0  0  0
 13 18  2  0  0  0
 13 14  1  0  0  0
 14 15  2  0  0  0
 14 22  1  0  0  0
 15 16  1  0  0  0
 15 21  1  0  0  0
 16 17  2  0  0  0
 16 33  1  0  0  0
 17 18  1  0  0  0
 17 20  1  0  0  0
 18 19  1  0  0  0
M  END
> <s_m_entry_id>
7190

> <s_m_entry_name>
ligand_docking-pose.332

> <s_m_Source_Path>
/home/csk/Desktop/cluster/DUD-E-result/aldr

> <s_m_Source_File>
ligand_docking-pose.sdf

> <i_m_Source_File_Index>
332

> <i_lp_mmshare_version>
53161

> <r_lp_tautomer_probability>
1

> <s_lp_Force_Field>
OPLS_2005

> <r_lp_Energy>
4.367526

> <b_lp_Chiralities_Consistent>
1

> <s_lp_Variant>
69409-1

> <s_i_glide_gridfile>
glide-grid_2hv5

> <i_i_glide_lignum>
693

> <i_i_glide_rotatable_bonds>
7

> <r_i_docking_score>
-7.99223825710396

> <r_i_glide_ligand_efficiency>
-0.363283557141089

> <r_i_glide_ligand_efficiency_sa>
-1.0179348142409

> <r_i_glide_ligand_efficiency_ln>
-1.95359455400986

> <r_i_glide_gscore>
-7.99223825710396

> <r_i_glide_lipo>
-3.15479460569063

> <r_i_glide_hbond>
-0.198404155803047

> <r_i_glide_metal>
0

> <r_i_glide_rewards>
-3.28864173271874

> <r_i_glide_evdw>
-31.2346515655518

> <r_i_glide_ecoul>
-4.0799765586853

> <r_i_glide_erotb>
0.852751020610841

> <r_i_glide_esite>
-0.029419721421999

> <r_i_glide_emodel>
-45.9990257274114

> <r_i_glide_energy>
-35.3146281242371

> <r_i_glide_einternal>
5.27438545227051

> <i_i_glide_confnum>
6

> <i_i_glide_posenum>
121

> <r_i_glide_eff_state_penalty>
0

> <i_f3d_flags>
0

> <s_user_duplicate_titles>
69409

> <s_m_subgroup_title>
dock_pv

> <s_m_subgroupid>
dock_pv1

> <b_m_subgroup_collapsed>
0

$$$$
219631
                    3D
 Schrodinger Suite 2021-1.
 40 43  0  0  1  0            999 V2000
   16.8494  -12.1713   16.9346 C   0  0  0  0  0  0
   17.5578  -11.9568   15.7575 C   0  0  0  0  0  0
   17.6002  -10.5884   15.5051 C   0  0  0  0  0  0
   16.9569   -9.9467   16.5467 N   0  0  0  0  0  0
   16.4596  -10.9252   17.3810 C   0  0  0  0  0  0
   16.7488   -8.4917   16.6200 C   0  0  2  0  0  0
   17.0032   -7.8322   17.9733 C   0  0  0  0  0  0
   15.8208   -6.9140   18.1829 C   0  0  0  0  0  0
   15.7452   -6.0504   19.0528 O   0  0  0  0  0  0
   14.8858   -7.2529   17.2775 N   0  0  0  0  0  0
   15.2601   -8.2213   16.4198 C   0  0  0  0  0  0
   14.5450   -8.8048   15.6155 O   0  0  0  0  0  0
   17.5528   -7.7385   15.5132 C   0  0  0  0  0  0
   17.7450   -6.5219   15.5987 O   0  0  0  0  0  0
   18.0229   -8.5041   14.4734 N   0  0  0  0  0  0
   18.1451   -9.8738   14.3712 C   0  0  0  0  0  0
   18.6739  -10.4380   13.4110 O   0  0  0  0  0  0
   18.6280   -7.7112   13.3642 C   0  0  0  0  0  0
   17.7106   -6.7418   12.6112 C   0  0  0  0  0  0
   16.3291   -6.9148   12.5472 C   0  0  0  0  0  0
   15.5602   -6.0766   11.7460 C   0  0  0  0  0  0
   16.1689   -5.0399   11.0264 C   0  0  0  0  0  0
   17.5377   -4.8221   11.1548 C   0  0  0  0  0  0
   18.2893   -5.6585   11.9649 C   0  0  0  0  0  0
   15.3431   -4.1105   10.1513 C   0  0  0  0  0  0
   15.3452   -4.5149    8.8904 F   0  0  0  0  0  0
   14.0954   -4.1154   10.5812 F   0  0  0  0  0  0
   15.8075   -2.8639   10.1765 F   0  0  0  0  0  0
   16.6147  -13.1273   17.3824 H   0  0  0  0  0  0
   17.9777  -12.7247   15.1234 H   0  0  0  0  0  0
   15.8408  -10.6413   18.2177 H   0  0  0  0  0  0
   16.9448   -8.5176   18.8022 H   0  0  0  0  0  0
   17.9451   -7.2861   18.0681 H   0  0  0  0  0  0
   13.9555   -6.8641   17.2847 H   0  0  0  0  0  0
   19.0422   -8.3507   12.5834 H   0  0  0  0  0  0
   19.4924   -7.1690   13.7557 H   0  0  0  0  0  0
   15.8481   -7.7144   13.0826 H   0  0  0  0  0  0
   14.4930   -6.2409   11.6844 H   0  0  0  0  0  0
   18.0180   -4.0053   10.6360 H   0  0  0  0  0  0
   19.3449   -5.4883   12.0611 H   0  0  0  0  0  0
  1  5  2  0  0  0
  1  2  1  0  0  0
  1 29  1  0  0  0
  2  3  2  0  0  0
  2 30  1  0  0  0
  3 16  1  0  0  0
  3  4  1  0  0  0
  4  5  1  0  0  0
  4  6  1  0  0  0
  5 31  1  0  0  0
  6 11  1  0  0  0
  6  7  1  0  0  0
  6 13  1  0  0  0
  7  8  1  0  0  0
  7 32  1  0  0  0
  7 33  1  0  0  0
  8  9  2  0  0  0
  8 10  1  0  0  0
 10 11  1  0  0  0
 10 34  1  0  0  0
 11 12  2  0  0  0
 13 14  2  0  0  0
 13 15  1  0  0  0
 15 16  1  0  0  0
 15 18  1  0  0  0
 16 17  2  0  0  0
 18 19  1  0  0  0
 18 35  1  0  0  0
 18 36  1  0  0  0
 19 24  1  0  0  0
 19 20  2  0  0  0
 20 21  1  0  0  0
 20 37  1  0  0  0
 21 22  2  0  0  0
 21 38  1  0  0  0
 22 23  1  0  0  0
 22 25  1  0  0  0
 23 24  2  0  0  0
 23 39  1  0  0  0
 24 40  1  0  0  0
 25 26  1  0  0  0
 25 27  1  0  0  0
 25 28  1  0  0  0
M  END
> <s_m_entry_id>
7192

> <s_m_entry_name>
ligand_docking-pose.334

> <s_m_Source_Path>
/home/csk/Desktop/cluster/DUD-E-result/aldr

> <s_m_Source_File>
ligand_docking-pose.sdf

> <i_m_Source_File_Index>
334

> <i_lp_mmshare_version>
53161

> <r_lp_tautomer_probability>
0.99995

> <s_lp_Force_Field>
OPLS_2005

> <r_lp_Energy>
33.956293

> <b_lp_Chiralities_Consistent>
1

> <s_lp_Variant>
219631-1

> <s_i_glide_gridfile>
glide-grid_2hv5

> <i_i_glide_lignum>
94

> <i_i_glide_rotatable_bonds>
3

> <r_i_docking_score>
-7.98323705139279

> <r_i_glide_ligand_efficiency>
-0.285115608978314

> <r_i_glide_ligand_efficiency_sa>
-0.865778912971511

> <r_i_glide_ligand_efficiency_ln>
-1.84276550948652

> <r_i_glide_gscore>
-7.98323705139279

> <r_i_glide_lipo>
-3.09935642246633

> <r_i_glide_hbond>
0

> <r_i_glide_metal>
0

> <r_i_glide_rewards>
-3.34968951072267

> <r_i_glide_evdw>
-35.4295234680176

> <r_i_glide_ecoul>
-0.117307990789413

> <r_i_glide_erotb>
0.254881253815499

> <r_i_glide_esite>
0

> <r_i_glide_emodel>
-43.2083193383285

> <r_i_glide_energy>
-35.546831458807

> <r_i_glide_einternal>
0.34051576256752

> <i_i_glide_confnum>
1

> <i_i_glide_posenum>
62

> <r_i_glide_eff_state_penalty>
0

> <i_f3d_flags>
0

> <s_user_duplicate_titles>
219631

> <s_m_subgroup_title>
dock_pv

> <s_m_subgroupid>
dock_pv1

> <b_m_subgroup_collapsed>
0

$$$$
219883
                    3D
 Schrodinger Suite 2021-1.
 37 40  0  0  1  0            999 V2000
   15.9581   -4.9281   11.0668 C   0  0  0  0  0  0
   17.3410   -4.7611   11.0763 C   0  0  0  0  0  0
   18.1376   -5.6607   11.7810 C   0  0  0  0  0  0
   17.5641   -6.7485   12.4375 C   0  0  0  0  0  0
   16.1771   -6.8688   12.4733 C   0  0  0  0  0  0
   15.3693   -5.9691   11.7810 C   0  0  0  0  0  0
   18.4663   -7.8114   13.0876 C   0  0  0  0  0  0
   17.9426   -8.5368   14.2873 N   0  0  0  0  0  0
   18.1450   -9.9024   14.2878 C   0  0  0  0  0  0
   18.7215  -10.5071   13.3810 O   0  0  0  0  0  0
   17.5852  -10.5694   15.4435 C   0  0  0  0  0  0
   17.5461  -11.9254   15.7599 C   0  0  0  0  0  0
   16.8509  -12.0848   16.9545 C   0  0  0  0  0  0
   16.4915  -10.8170   17.3636 C   0  0  0  0  0  0
   16.9777   -9.8796   16.4740 N   0  0  0  0  0  0
   16.8306   -8.4151   16.5213 C   0  0  2  0  0  0
   17.5537   -7.7236   15.3244 C   0  0  0  0  0  0
   17.7871   -6.5150   15.3515 O   0  0  0  0  0  0
   17.2699   -7.7622   17.8221 C   0  0  0  0  0  0
   16.1278   -6.8531   18.2337 C   0  0  0  0  0  0
   16.1450   -6.0387   19.1529 O   0  0  0  0  0  0
   15.0957   -7.1287   17.4197 N   0  0  0  0  0  0
   15.3415   -8.0774   16.4987 C   0  0  0  0  0  0
   14.5102   -8.6104   15.7810 O   0  0  0  0  0  0
   15.3347   -4.2314   10.5248 H   0  0  0  0  0  0
   17.7902   -3.9361   10.5439 H   0  0  0  0  0  0
   19.2058   -5.5375   11.7810 H   0  0  0  0  0  0
   15.7449   -7.6950   13.0074 H   0  0  0  0  0  0
   14.2945   -6.0806   11.7890 H   0  0  0  0  0  0
   18.6851   -8.5148   12.2827 H   0  0  0  0  0  0
   19.4265   -7.3623   13.3514 H   0  0  0  0  0  0
   17.9566  -12.7227   15.1554 H   0  0  0  0  0  0
   16.6173  -13.0198   17.4444 H   0  0  0  0  0  0
   15.9051  -10.4883   18.2071 H   0  0  0  0  0  0
   17.3450   -8.5150   18.5810 H   0  0  0  0  0  0
   18.2174   -7.2184   17.7974 H   0  0  0  0  0  0
   14.1836   -6.7165   17.5397 H   0  0  0  0  0  0
  1  6  1  0  0  0
  1  2  2  0  0  0
  1 25  1  0  0  0
  2  3  1  0  0  0
  2 26  1  0  0  0
  3  4  2  0  0  0
  3 27  1  0  0  0
  4  5  1  0  0  0
  4  7  1  0  0  0
  5  6  2  0  0  0
  5 28  1  0  0  0
  6 29  1  0  0  0
  7  8  1  0  0  0
  7 30  1  0  0  0
  7 31  1  0  0  0
  8 17  1  0  0  0
  8  9  1  0  0  0
  9 10  2  0  0  0
  9 11  1  0  0  0
 11 15  1  0  0  0
 11 12  2  0  0  0
 12 13  1  0  0  0
 12 32  1  0  0  0
 13 14  2  0  0  0
 13 33  1  0  0  0
 14 15  1  0  0  0
 14 34  1  0  0  0
 15 16  1  0  0  0
 16 23  1  0  0  0
 16 17  1  0  0  0
 16 19  1  0  0  0
 17 18  2  0  0  0
 19 20  1  0  0  0
 19 35  1  0  0  0
 19 36  1  0  0  0
 20 21  2  0  0  0
 20 22  1  0  0  0
 22 23  1  0  0  0
 22 37  1  0  0  0
 23 24  2  0  0  0
M  END
> <s_m_entry_id>
7196

> <s_m_entry_name>
ligand_docking-pose.338

> <s_m_Source_Path>
/home/csk/Desktop/cluster/DUD-E-result/aldr

> <s_m_Source_File>
ligand_docking-pose.sdf

> <i_m_Source_File_Index>
338

> <i_lp_mmshare_version>
53161

> <r_lp_tautomer_probability>
0.99995

> <s_lp_Force_Field>
OPLS_2005

> <r_lp_Energy>
32.269904

> <b_lp_Chiralities_Consistent>
1

> <s_lp_Variant>
219883-2

> <s_i_glide_gridfile>
glide-grid_2hv5

> <i_i_glide_lignum>
392

> <i_i_glide_rotatable_bonds>
2

> <r_i_docking_score>
-7.96397917393426

> <r_i_glide_ligand_efficiency>
-0.331832465580594

> <r_i_glide_ligand_efficiency_sa>
-0.957170460781339

> <r_i_glide_ligand_efficiency_ln>
-1.90614565951416

> <r_i_glide_gscore>
-7.96397917393426

> <r_i_glide_lipo>
-2.77878716862113

> <r_i_glide_hbond>
0

> <r_i_glide_metal>
0

> <r_i_glide_rewards>
-3.74541855707882

> <r_i_glide_evdw>
-36.6400604248047

> <r_i_glide_ecoul>
0.227909177541733

> <r_i_glide_erotb>
0.358043196374665

> <r_i_glide_esite>
0

> <r_i_glide_emodel>
-48.0694703730864

> <r_i_glide_energy>
-36.412151247263

> <r_i_glide_einternal>
1.07588160037994

> <i_i_glide_confnum>
3

> <i_i_glide_posenum>
302

> <r_i_glide_eff_state_penalty>
0

> <i_f3d_flags>
0

> <s_user_duplicate_titles>
219883

> <s_m_subgroup_title>
dock_pv

> <s_m_subgroupid>
dock_pv1

> <b_m_subgroup_collapsed>
0

$$$$
397122
                    3D
 Schrodinger Suite 2021-1.
 34 35  0  0  1  0            999 V2000
   15.4333   -6.0384   12.1810 C   0  0  0  0  0  0
   15.8656   -5.3751   11.0435 C   0  0  0  0  0  0
   17.2330   -5.1620   10.8382 C   0  0  0  0  0  0
   18.1450   -5.6325   11.7775 C   0  0  0  0  0  0
   17.7198   -6.3172   12.9054 C   0  0  0  0  0  0
   16.3559   -6.5150   13.1191 C   0  0  0  0  0  0
   15.8645   -7.1471   14.3517 C   0  0  0  0  0  0
   16.3799   -8.2259   14.9811 C   0  0  0  0  0  0
   15.7656   -8.7328   16.1865 C   0  0  0  0  0  0
   14.8275   -8.2042   16.7916 O   0  0  0  0  0  0
   16.3642   -9.8901   16.5571 N   0  0  0  0  0  0
   17.3841  -10.3896   15.8353 C   0  0  0  0  0  0
   17.9932  -11.4449   16.0138 O   0  0  0  0  0  0
   17.7450   -9.2485   14.5147 S   0  0  0  0  0  0
   15.9355  -10.5985   17.7810 C   0  0  0  0  0  0
   14.7999  -11.5890   17.5052 C   0  0  0  0  0  0
   14.5450  -12.0643   16.4199 O   0  0  0  0  0  0
   14.1450  -11.8407   18.6705 O   0  0  0  0  0  0
   17.7518   -4.5017    9.7427 O   0  0  0  0  0  0
   16.8994   -3.6460    8.9716 C   0  0  0  0  0  0
   16.6623   -2.3454    9.7120 C   0  0  0  0  0  0
   17.6022   -1.7150   10.1810 O   0  0  0  0  0  0
   15.3451   -1.9804    9.7810 O   0  0  0  0  0  0
   14.3687   -6.1150   12.3429 H   0  0  0  0  0  0
   15.1186   -5.0195   10.3530 H   0  0  0  0  0  0
   19.1943   -5.4556   11.6327 H   0  0  0  0  0  0
   18.4533   -6.6447   13.6274 H   0  0  0  0  0  0
   15.0037   -6.6546   14.7818 H   0  0  0  0  0  0
   15.6345   -9.8821   18.5486 H   0  0  0  0  0  0
   16.7693  -11.1699   18.1810 H   0  0  0  0  0  0
   13.3641  -12.3899   18.5326 H   0  0  0  0  0  0
   17.4425   -3.3151    8.0876 H   0  0  0  0  0  0
   15.9862   -4.1244    8.6162 H   0  0  0  0  0  0
   14.7105   -2.5639    9.3484 H   0  0  0  0  0  0
  1  6  1  0  0  0
  1  2  2  0  0  0
  1 24  1  0  0  0
  2  3  1  0  0  0
  2 25  1  0  0  0
  3  4  2  0  0  0
  3 19  1  0  0  0
  4  5  1  0  0  0
  4 26  1  0  0  0
  5  6  2  0  0  0
  5 27  1  0  0  0
  6  7  1  0  0  0
  7  8  2  0  0  0
  7 28  1  0  0  0
  8 14  1  0  0  0
  8  9  1  0  0  0
  9 10  2  0  0  0
  9 11  1  0  0  0
 11 12  1  0  0  0
 11 15  1  0  0  0
 12 13  2  0  0  0
 12 14  1  0  0  0
 15 16  1  0  0  0
 15 29  1  0  0  0
 15 30  1  0  0  0
 16 17  2  0  0  0
 16 18  1  0  0  0
 18 31  1  0  0  0
 19 20  1  0  0  0
 20 21  1  0  0  0
 20 32  1  0  0  0
 20 33  1  0  0  0
 21 22  2  0  0  0
 21 23  1  0  0  0
 23 34  1  0  0  0
M  END
> <s_m_entry_id>
7204

> <s_m_entry_name>
ligand_docking-pose.346

> <s_m_Source_Path>
/home/csk/Desktop/cluster/DUD-E-result/aldr

> <s_m_Source_File>
ligand_docking-pose.sdf

> <i_m_Source_File_Index>
346

> <i_lp_mmshare_version>
53161

> <r_lp_tautomer_probability>
1

> <s_lp_Force_Field>
OPLS_2005

> <r_lp_Energy>
18.108844

> <b_lp_Chiralities_Consistent>
1

> <s_lp_Variant>
397122-1

> <s_i_glide_gridfile>
glide-grid_2hv5

> <i_i_glide_lignum>
341

> <i_i_glide_rotatable_bonds>
8

> <r_i_docking_score>
-7.90879597129515

> <r_i_glide_ligand_efficiency>
-0.343860694404137

> <r_i_glide_ligand_efficiency_sa>
-0.977894073462695

> <r_i_glide_ligand_efficiency_ln>
-1.91241857885617

> <r_i_glide_gscore>
-7.90879597129515

> <r_i_glide_lipo>
-2.49048025250203

> <r_i_glide_hbond>
0

> <r_i_glide_metal>
0

> <r_i_glide_rewards>
-3.43774508281616

> <r_i_glide_evdw>
-35.3278884887695

> <r_i_glide_ecoul>
-8.07165431976318

> <r_i_glide_erotb>
0.996571936425991

> <r_i_glide_esite>
0

> <r_i_glide_emodel>
-55.4874109767059

> <r_i_glide_energy>
-43.3995428085327

> <r_i_glide_einternal>
10.5893154144287

> <i_i_glide_confnum>
65

> <i_i_glide_posenum>
42

> <r_i_glide_eff_state_penalty>
0

> <i_f3d_flags>
0

> <s_user_duplicate_titles>
397122

> <s_m_subgroup_title>
dock_pv

> <s_m_subgroupid>
dock_pv1

> <b_m_subgroup_collapsed>
0

$$$$
88628
                    3D
 Schrodinger Suite 2021-1.
 31 32  0  0  1  0            999 V2000
   15.1947   -5.7458   11.2808 C   0  0  0  0  0  0
   16.0870   -6.3224   12.1805 C   0  0  0  0  0  0
   17.4044   -5.8736   12.2727 C   0  0  0  0  0  0
   17.8282   -4.8765   11.3925 C   0  0  0  0  0  0
   16.9420   -4.2565   10.5008 C   0  0  0  0  0  0
   15.6188   -4.7117   10.4503 C   0  0  0  0  0  0
   17.3816   -3.1061    9.6782 N   0  3  0  0  0  0
   18.5451   -2.7288    9.7811 O   0  5  0  0  0  0
   16.5645   -2.5605    8.9430 O   0  0  0  0  0  0
   18.3741   -6.3702   13.3543 C   0  0  0  0  0  0
   17.9637   -7.5213   14.1861 N   0  0  0  0  0  0
   18.5174   -8.7335   14.0734 C   0  0  0  0  0  0
   19.4693   -9.0919   13.3802 O   0  0  0  0  0  0
   17.7440   -9.5874   14.9263 C   0  0  0  0  0  0
   17.8877  -10.8061   15.0426 O   0  0  0  0  0  0
   16.8458   -8.7892   15.5162 N   0  0  0  0  0  0
   16.9755   -7.5075   15.1084 C   0  0  0  0  0  0
   16.4036   -6.5254   15.5794 O   0  0  0  0  0  0
   15.6919   -9.3302   16.2724 C   0  0  0  0  0  0
   15.7334   -8.9116   17.7540 C   0  0  0  0  0  0
   16.3996   -8.0027   18.1998 O   0  0  0  0  0  0
   14.9201   -9.7282   18.4742 O   0  0  0  0  0  0
   14.1694   -6.0849   11.2445 H   0  0  0  0  0  0
   15.7453   -7.1057   12.8264 H   0  0  0  0  0  0
   18.8450   -4.5287   11.4407 H   0  0  0  0  0  0
   14.9106   -4.2518    9.7779 H   0  0  0  0  0  0
   18.5716   -5.5347   14.0285 H   0  0  0  0  0  0
   19.3335   -6.5816   12.8798 H   0  0  0  0  0  0
   15.6863  -10.4207   16.2137 H   0  0  0  0  0  0
   14.7598   -8.9884   15.8210 H   0  0  0  0  0  0
   14.4680  -10.3822   17.9386 H   0  0  0  0  0  0
  1  6  1  0  0  0
  1  2  2  0  0  0
  1 23  1  0  0  0
  2  3  1  0  0  0
  2 24  1  0  0  0
  3  4  2  0  0  0
  3 10  1  0  0  0
  4  5  1  0  0  0
  4 25  1  0  0  0
  5  6  2  0  0  0
  5  7  1  0  0  0
  6 26  1  0  0  0
  7  8  1  0  0  0
  7  9  2  0  0  0
 10 11  1  0  0  0
 10 27  1  0  0  0
 10 28  1  0  0  0
 11 17  1  0  0  0
 11 12  1  0  0  0
 12 13  2  0  0  0
 12 14  1  0  0  0
 14 15  2  0  0  0
 14 16  1  0  0  0
 16 17  1  0  0  0
 16 19  1  0  0  0
 17 18  2  0  0  0
 19 20  1  0  0  0
 19 29  1  0  0  0
 19 30  1  0  0  0
 20 21  2  0  0  0
 20 22  1  0  0  0
 22 31  1  0  0  0
M  CHG  2   7   1   8  -1
M  END
> <s_m_entry_id>
7205

> <s_m_entry_name>
ligand_docking-pose.347

> <s_m_Source_Path>
/home/csk/Desktop/cluster/DUD-E-result/aldr

> <s_m_Source_File>
ligand_docking-pose.sdf

> <i_m_Source_File_Index>
347

> <i_lp_mmshare_version>
53161

> <r_lp_tautomer_probability>
1

> <s_lp_Force_Field>
OPLS_2005

> <r_lp_Energy>
15.643491

> <b_lp_Chiralities_Consistent>
1

> <s_lp_Variant>
88628-1

> <s_i_glide_gridfile>
glide-grid_2hv5

> <i_i_glide_lignum>
437

> <i_i_glide_rotatable_bonds>
6

> <r_i_docking_score>
-7.90317871094128

> <r_i_glide_ligand_efficiency>
-0.359235395951876

> <r_i_glide_ligand_efficiency_sa>
-1.00659170738358

> <r_i_glide_ligand_efficiency_ln>
-1.93182515240183

> <r_i_glide_gscore>
-7.90317871094128

> <r_i_glide_lipo>
-2.49035914177298

> <r_i_glide_hbond>
0

> <r_i_glide_metal>
0

> <r_i_glide_rewards>
-3.77277133333333

> <r_i_glide_evdw>
-43.653133392334

> <r_i_glide_ecoul>
-1.60496973991394

> <r_i_glide_erotb>
0.783353894768827

> <r_i_glide_esite>
0

> <r_i_glide_emodel>
-65.6973088930181

> <r_i_glide_energy>
-45.2581031322479

> <r_i_glide_einternal>
2.1142897605896

> <i_i_glide_confnum>
62

> <i_i_glide_posenum>
273

> <r_i_glide_eff_state_penalty>
0

> <i_f3d_flags>
0

> <s_user_duplicate_titles>
88628

> <s_m_subgroup_title>
dock_pv

> <s_m_subgroupid>
dock_pv1

> <b_m_subgroup_collapsed>
0

$$$$
53220
                    3D
 Schrodinger Suite 2021-1.
 29 30  0  0  1  0            999 V2000
   16.2628   -3.1275    9.3742 C   0  0  0  0  0  0
   17.6168   -2.9222    9.6104 C   0  0  0  0  0  0
   18.2991   -3.7158   10.5254 C   0  0  0  0  0  0
   17.6225   -4.7378   11.2397 C   0  0  0  0  0  0
   18.2758   -5.5404   12.2066 C   0  0  0  0  0  0
   17.5852   -6.5330   12.8898 C   0  0  0  0  0  0
   16.2395   -6.7422   12.6350 C   0  0  0  0  0  0
   15.5503   -5.9670   11.7057 C   0  0  0  0  0  0
   16.2321   -4.9511   10.9891 C   0  0  0  0  0  0
   15.5712   -4.1349   10.0410 C   0  0  0  0  0  0
   18.4287   -7.6062   14.0450 S   0  0  0  0  0  0
   19.6358   -6.9128   14.5096 O   0  0  0  0  0  0
   18.5222   -8.9154   13.3890 O   0  0  0  0  0  0
   17.3390   -7.8020   15.4176 N   0  0  2  0  0  0
   17.5238   -6.9772   16.6384 C   0  0  0  0  0  0
   16.1682   -6.5150   17.1981 C   0  0  0  0  0  0
   15.1041   -6.5403   16.5811 O   0  0  0  0  0  0
   16.3102   -6.0216   18.4626 O   0  0  0  0  0  0
   15.7453   -2.5051    8.6600 H   0  0  0  0  0  0
   18.1381   -2.1378    9.0814 H   0  0  0  0  0  0
   19.3450   -3.5390   10.7031 H   0  0  0  0  0  0
   19.3233   -5.3850   12.4062 H   0  0  0  0  0  0
   15.7441   -7.5265   13.1770 H   0  0  0  0  0  0
   14.4972   -6.1313   11.5293 H   0  0  0  0  0  0
   14.5210   -4.2876    9.8460 H   0  0  0  0  0  0
   17.0207   -8.7636   15.5653 H   0  0  0  0  0  0
   18.1432   -6.1152   16.3963 H   0  0  0  0  0  0
   18.0677   -7.5673   17.3747 H   0  0  0  0  0  0
   17.2161   -6.0647   18.7758 H   0  0  0  0  0  0
  1 10  1  0  0  0
  1  2  2  0  0  0
  1 19  1  0  0  0
  2  3  1  0  0  0
  2 20  1  0  0  0
  3  4  2  0  0  0
  3 21  1  0  0  0
  4  9  1  0  0  0
  4  5  1  0  0  0
  5  6  2  0  0  0
  5 22  1  0  0  0
  6  7  1  0  0  0
  6 11  1  0  0  0
  7  8  2  0  0  0
  7 23  1  0  0  0
  8  9  1  0  0  0
  8 24  1  0  0  0
  9 10  2  0  0  0
 10 25  1  0  0  0
 11 12  2  0  0  0
 11 13  2  0  0  0
 11 14  1  0  0  0
 14 15  1  0  0  0
 14 26  1  0  0  0
 15 16  1  0  0  0
 15 27  1  0  0  0
 15 28  1  0  0  0
 16 17  2  0  0  0
 16 18  1  0  0  0
 18 29  1  0  0  0
M  END
> <s_m_entry_id>
7206

> <s_m_entry_name>
ligand_docking-pose.348

> <s_m_Source_Path>
/home/csk/Desktop/cluster/DUD-E-result/aldr

> <s_m_Source_File>
ligand_docking-pose.sdf

> <i_m_Source_File_Index>
348

> <i_lp_mmshare_version>
53161

> <r_lp_tautomer_probability>
1

> <s_lp_Force_Field>
OPLS_2005

> <r_lp_Energy>
8.722145

> <b_lp_Chiralities_Consistent>
1

> <s_lp_Variant>
53220-1

> <s_i_glide_gridfile>
glide-grid_2hv5

> <i_i_glide_lignum>
297

> <i_i_glide_rotatable_bonds>
5

> <r_i_docking_score>
-7.88552554460075

> <r_i_glide_ligand_efficiency>
-0.438084752477819

> <r_i_glide_ligand_efficiency_sa>
-1.14810684388423

> <r_i_glide_ligand_efficiency_ln>
-2.02693368020569

> <r_i_glide_gscore>
-7.88552554460075

> <r_i_glide_lipo>
-3.41037406289673

> <r_i_glide_hbond>
-0.32

> <r_i_glide_metal>
0

> <r_i_glide_rewards>
-2.70914295292379

> <r_i_glide_evdw>
-38.185359954834

> <r_i_glide_ecoul>
-1.9680871963501

> <r_i_glide_erotb>
0.758472548413987

> <r_i_glide_esite>
0

> <r_i_glide_emodel>
-54.6382301184989

> <r_i_glide_energy>
-40.1534471511841

> <r_i_glide_einternal>
5.45671606063843

> <i_i_glide_confnum>
3

> <i_i_glide_posenum>
259

> <r_i_glide_eff_state_penalty>
0

> <i_f3d_flags>
0

> <s_user_duplicate_titles>
53220

> <s_m_subgroup_title>
dock_pv

> <s_m_subgroupid>
dock_pv1

> <b_m_subgroup_collapsed>
0

$$$$
496917
                    3D
 Schrodinger Suite 2021-1.
 29 31  0  0  1  0            999 V2000
   17.7101  -13.0397   16.1414 C   0  0  0  0  0  0
   17.2080  -11.6249   15.9183 C   0  0  0  0  0  0
   16.1152  -11.1444   16.6439 C   0  0  0  0  0  0
   15.6572   -9.8459   16.4357 C   0  0  0  0  0  0
   16.3014   -9.0283   15.5111 C   0  0  0  0  0  0
   17.4115   -9.4806   14.7827 C   0  0  0  0  0  0
   17.8457  -10.7962   14.9898 C   0  0  0  0  0  0
   18.0835   -8.5733   13.7915 C   0  0  0  0  0  0
   19.1150   -8.9151   13.2147 O   0  0  0  0  0  0
   17.3743   -7.2950   13.5779 C   0  0  0  0  0  0
   16.2934   -7.0199   14.3301 C   0  0  0  0  0  0
   15.7587   -7.7827   15.3109 O   0  0  0  0  0  0
   17.9158   -6.3672   12.5764 C   0  0  0  0  0  0
   17.3035   -5.6041   11.6303 C   0  0  0  0  0  0
   15.8859   -5.5801   11.3075 C   0  0  0  0  0  0
   14.9895   -6.2703   11.7810 O   0  0  0  0  0  0
   15.6431   -4.6498   10.3718 N   0  0  0  0  0  0
   16.6176   -3.9196    9.8339 C   0  0  0  0  0  0
   16.5219   -3.0407    8.9811 O   0  0  0  0  0  0
   18.1450   -4.4504   10.5819 S   0  0  0  0  0  0
   18.8005  -13.0660   16.1160 H   0  0  0  0  0  0
   17.4087  -13.4252   17.1173 H   0  0  0  0  0  0
   17.3344  -13.7052   15.3624 H   0  0  0  0  0  0
   15.6113  -11.7798   17.3579 H   0  0  0  0  0  0
   14.7987   -9.4759   16.9760 H   0  0  0  0  0  0
   18.6779  -11.1862   14.4198 H   0  0  0  0  0  0
   15.7451   -6.1150   14.2119 H   0  0  0  0  0  0
   18.9825   -6.2194   12.6388 H   0  0  0  0  0  0
   14.6939   -4.5002   10.0655 H   0  0  0  0  0  0
  1  2  1  0  0  0
  1 21  1  0  0  0
  1 22  1  0  0  0
  1 23  1  0  0  0
  2  7  1  0  0  0
  2  3  2  0  0  0
  3  4  1  0  0  0
  3 24  1  0  0  0
  4  5  2  0  0  0
  4 25  1  0  0  0
  5 12  1  0  0  0
  5  6  1  0  0  0
  6  7  2  0  0  0
  6  8  1  0  0  0
  7 26  1  0  0  0
  8  9  2  0  0  0
  8 10  1  0  0  0
 10 11  2  0  0  0
 10 13  1  0  0  0
 11 12  1  0  0  0
 11 27  1  0  0  0
 13 14  2  0  0  0
 13 28  1  0  0  0
 14 20  1  0  0  0
 14 15  1  0  0  0
 15 16  2  0  0  0
 15 17  1  0  0  0
 17 18  1  0  0  0
 17 29  1  0  0  0
 18 19  2  0  0  0
 18 20  1  0  0  0
M  END
> <s_m_entry_id>
7211

> <s_m_entry_name>
ligand_docking-pose.353

> <s_m_Source_Path>
/home/csk/Desktop/cluster/DUD-E-result/aldr

> <s_m_Source_File>
ligand_docking-pose.sdf

> <i_m_Source_File_Index>
353

> <i_lp_mmshare_version>
53161

> <r_lp_tautomer_probability>
1

> <s_lp_Force_Field>
OPLS_2005

> <r_lp_Energy>
15.777327

> <b_lp_Chiralities_Consistent>
1

> <s_lp_Variant>
496917-1

> <s_i_glide_gridfile>
glide-grid_2hv5

> <i_i_glide_lignum>
486

> <i_i_glide_rotatable_bonds>
1

> <r_i_docking_score>
-7.87744578428107

> <r_i_glide_ligand_efficiency>
-0.393872289214053

> <r_i_glide_ligand_efficiency_sa>
-1.06913387946358

> <r_i_glide_ligand_efficiency_ln>
-1.97146486425491

> <r_i_glide_gscore>
-7.87744578428107

> <r_i_glide_lipo>
-2.8733646881673

> <r_i_glide_hbond>
0

> <r_i_glide_metal>
0

> <r_i_glide_rewards>
-3.25028481818182

> <r_i_glide_evdw>
-36.4838714599609

> <r_i_glide_ecoul>
-0.998643696308136

> <r_i_glide_erotb>
0.220193849512314

> <r_i_glide_esite>
0

> <r_i_glide_emodel>
-52.3273621806979

> <r_i_glide_energy>
-37.4825151562691

> <r_i_glide_einternal>
0.00302019948139787

> <i_i_glide_confnum>
4

> <i_i_glide_posenum>
227

> <r_i_glide_eff_state_penalty>
0

> <i_f3d_flags>
0

> <s_user_duplicate_titles>
496917

> <s_m_subgroup_title>
dock_pv

> <s_m_subgroupid>
dock_pv1

> <b_m_subgroup_collapsed>
0

$$$$
98814
                    3D
 Schrodinger Suite 2021-1.
 39 42  0  0  1  0            999 V2000
   16.6376  -12.4520   17.0379 C   0  0  0  0  0  0
   16.4529  -11.0854   17.2053 C   0  0  0  0  0  0
   17.0196  -10.1472   16.3231 C   0  0  0  0  0  0
   17.7441  -10.6263   15.2166 C   0  0  0  0  0  0
   17.9307  -12.0173   15.0507 C   0  0  0  0  0  0
   17.3859  -12.9129   15.9649 C   0  0  0  0  0  0
   18.6335  -12.5405   14.0175 F   0  0  0  0  0  0
   18.3090   -9.6760   14.1698 C   0  0  0  0  0  0
   18.9441  -10.0864   13.1963 O   0  0  0  0  0  0
   18.1113   -8.3313   14.3831 N   0  0  0  0  0  0
   17.6035   -7.7202   15.4966 C   0  0  0  0  0  0
   17.7434   -6.5151   15.7115 O   0  0  0  0  0  0
   16.7918   -8.6327   16.4737 C   0  0  2  0  0  0
   17.0159   -8.0996   17.8828 C   0  0  0  0  0  0
   15.8502   -7.1603   18.1522 C   0  0  0  0  0  0
   15.7799   -6.3261   19.0514 O   0  0  0  0  0  0
   14.9208   -7.4274   17.2197 N   0  0  0  0  0  0
   15.2876   -8.3595   16.3180 C   0  0  0  0  0  0
   14.5450   -8.9152   15.5165 O   0  0  0  0  0  0
   18.6729   -7.3882   13.3568 C   0  0  0  0  0  0
   17.7284   -6.4395   12.5818 C   0  0  0  0  0  0
   18.2855   -5.4457   11.7810 C   0  0  0  0  0  0
   17.5100   -4.6002   10.9961 C   0  0  0  0  0  0
   16.1291   -4.7258   11.0337 C   0  0  0  0  0  0
   15.5356   -5.7031   11.8229 C   0  0  0  0  0  0
   16.3361   -6.5151   12.6202 C   0  0  0  0  0  0
   15.7453   -7.3150   13.5014 F   0  0  0  0  0  0
   15.0565   -3.4281   10.1807 Br  0  0  0  0  0  0
   16.1900  -13.1527   17.7279 H   0  0  0  0  0  0
   15.8338  -10.7517   18.0253 H   0  0  0  0  0  0
   17.5320  -13.9721   15.8244 H   0  0  0  0  0  0
   16.9445   -8.9135   18.5826 H   0  0  0  0  0  0
   17.9725   -7.6028   18.0617 H   0  0  0  0  0  0
   13.9973   -7.0227   17.2414 H   0  0  0  0  0  0
   19.2032   -7.9354   12.5819 H   0  0  0  0  0  0
   19.4512   -6.7885   13.8344 H   0  0  0  0  0  0
   19.3449   -5.3282   11.7632 H   0  0  0  0  0  0
   17.9709   -3.8218   10.4067 H   0  0  0  0  0  0
   14.4595   -5.7588   11.9010 H   0  0  0  0  0  0
  1  6  1  0  0  0
  1  2  2  0  0  0
  1 29  1  0  0  0
  2  3  1  0  0  0
  2 30  1  0  0  0
  3 13  1  0  0  0
  3  4  2  0  0  0
  4  5  1  0  0  0
  4  8  1  0  0  0
  5  6  2  0  0  0
  5  7  1  0  0  0
  6 31  1  0  0  0
  8  9  2  0  0  0
  8 10  1  0  0  0
 10 11  1  0  0  0
 10 20  1  0  0  0
 11 12  2  0  0  0
 11 13  1  0  0  0
 13 18  1  0  0  0
 13 14  1  0  0  0
 14 15  1  0  0  0
 14 32  1  0  0  0
 14 33  1  0  0  0
 15 16  2  0  0  0
 15 17  1  0  0  0
 17 18  1  0  0  0
 17 34  1  0  0  0
 18 19  2  0  0  0
 20 21  1  0  0  0
 20 35  1  0  0  0
 20 36  1  0  0  0
 21 26  1  0  0  0
 21 22  2  0  0  0
 22 23  1  0  0  0
 22 37  1  0  0  0
 23 24  2  0  0  0
 23 38  1  0  0  0
 24 25  1  0  0  0
 24 28  1  0  0  0
 25 26  2  0  0  0
 25 39  1  0  0  0
 26 27  1  0  0  0
M  END
> <s_m_entry_id>
7213

> <s_m_entry_name>
ligand_docking-pose.355

> <s_m_Source_Path>
/home/csk/Desktop/cluster/DUD-E-result/aldr

> <s_m_Source_File>
ligand_docking-pose.sdf

> <i_m_Source_File_Index>
355

> <i_lp_mmshare_version>
53161

> <r_lp_tautomer_probability>
0.99999999995914

> <s_lp_Force_Field>
OPLS_2005

> <r_lp_Energy>
34.70341

> <b_lp_Chiralities_Consistent>
1

> <s_lp_Variant>
98814-2

> <s_i_glide_gridfile>
glide-grid_2hv5

> <i_i_glide_lignum>
66

> <i_i_glide_rotatable_bonds>
2

> <r_i_docking_score>
-7.87153296602231

> <r_i_glide_ligand_efficiency>
-0.28112617735794

> <r_i_glide_ligand_efficiency_sa>
-0.853664648922486

> <r_i_glide_ligand_efficiency_ln>
-1.81698092680855

> <r_i_glide_gscore>
-7.87153296602231

> <r_i_glide_lipo>
-3.21333074988159

> <r_i_glide_hbond>
0

> <r_i_glide_metal>
0

> <r_i_glide_rewards>
-3.04634695909091

> <r_i_glide_evdw>
-33.3876037597656

> <r_i_glide_ecoul>
-0.940629303455353

> <r_i_glide_erotb>
0.198619326456777

> <r_i_glide_esite>
0

> <r_i_glide_emodel>
-38.9004666360875

> <r_i_glide_energy>
-34.328233063221

> <r_i_glide_einternal>
3.63126921653748

> <i_i_glide_confnum>
1

> <i_i_glide_posenum>
86

> <r_i_glide_eff_state_penalty>
0

> <i_f3d_flags>
0

> <s_user_duplicate_titles>
98814

> <s_m_subgroup_title>
dock_pv

> <s_m_subgroupid>
dock_pv1

> <b_m_subgroup_collapsed>
0

$$$$
483907
                    3D
 Schrodinger Suite 2021-1.
 39 41  0  0  1  0            999 V2000
   20.3020  -12.7846   12.0956 C   0  0  0  0  0  0
   19.6306  -13.0132   13.3293 O   0  0  0  0  0  0
   18.9016  -11.9886   13.9037 C   0  0  0  0  0  0
   18.8237  -10.6935   13.3846 C   0  0  0  0  0  0
   18.0588   -9.7219   14.0183 C   0  0  0  0  0  0
   17.3714   -9.9891   15.2112 C   0  0  0  0  0  0
   17.4660  -11.2922   15.7418 C   0  0  0  0  0  0
   18.2152  -12.2768   15.0869 C   0  0  0  0  0  0
   18.3085  -13.5423   15.6161 O   0  0  0  0  0  0
   16.8390  -11.6715   16.9011 O   0  0  0  0  0  0
   16.5568   -8.8945   15.8410 C   0  0  0  0  0  0
   15.9331   -9.0670   16.8875 O   0  0  0  0  0  0
   16.5434   -7.6289   15.0624 C   0  0  0  0  0  0
   17.1981   -7.5251   13.8785 C   0  0  0  0  0  0
   17.9755   -8.5130   13.3635 O   0  0  0  0  0  0
   17.0806   -6.4450   12.8633 C   0  0  0  0  0  0
   18.2212   -5.7804   12.4037 C   0  0  0  0  0  0
   18.1440   -4.8571   11.3563 C   0  0  0  0  0  0
   16.9228   -4.5644   10.7571 C   0  0  0  0  0  0
   15.7667   -5.1909   11.2267 C   0  0  0  0  0  0
   15.8540   -6.1159   12.2675 C   0  0  0  0  0  0
   14.5371   -4.9144   10.6832 O   0  0  0  0  0  0
   16.8838   -3.6743    9.7125 O   0  0  0  0  0  0
   15.7470   -6.6243   15.5276 O   0  0  0  0  0  0
   16.0466   -6.1105   16.8339 C   0  0  0  0  0  0
   20.7800  -13.7101   11.7726 H   0  0  0  0  0  0
   19.6081  -12.4799   11.3095 H   0  0  0  0  0  0
   21.0837  -12.0310   12.2010 H   0  0  0  0  0  0
   19.3450  -10.4234   12.4829 H   0  0  0  0  0  0
   18.8704  -14.0868   15.0559 H   0  0  0  0  0  0
   16.9909  -12.6140   17.0215 H   0  0  0  0  0  0
   19.1827   -6.0131   12.8373 H   0  0  0  0  0  0
   19.0308   -4.3709   10.9850 H   0  0  0  0  0  0
   14.9463   -6.5875   12.5812 H   0  0  0  0  0  0
   14.4061   -3.9953   10.4359 H   0  0  0  0  0  0
   16.0723   -3.7369    9.2036 H   0  0  0  0  0  0
   15.5498   -5.1518   16.9797 H   0  0  0  0  0  0
   15.6840   -6.7556   17.6322 H   0  0  0  0  0  0
   17.1163   -5.9430   16.9803 H   0  0  0  0  0  0
  1  2  1  0  0  0
  1 26  1  0  0  0
  1 27  1  0  0  0
  1 28  1  0  0  0
  2  3  1  0  0  0
  3  8  1  0  0  0
  3  4  2  0  0  0
  4  5  1  0  0  0
  4 29  1  0  0  0
  5 15  1  0  0  0
  5  6  2  0  0  0
  6  7  1  0  0  0
  6 11  1  0  0  0
  7  8  2  0  0  0
  7 10  1  0  0  0
  8  9  1  0  0  0
  9 30  1  0  0  0
 10 31  1  0  0  0
 11 12  2  0  0  0
 11 13  1  0  0  0
 13 14  2  0  0  0
 13 24  1  0  0  0
 14 15  1  0  0  0
 14 16  1  0  0  0
 16 21  1  0  0  0
 16 17  2  0  0  0
 17 18  1  0  0  0
 17 32  1  0  0  0
 18 19  2  0  0  0
 18 33  1  0  0  0
 19 20  1  0  0  0
 19 23  1  0  0  0
 20 21  2  0  0  0
 20 22  1  0  0  0
 21 34  1  0  0  0
 22 35  1  0  0  0
 23 36  1  0  0  0
 24 25  1  0  0  0
 25 37  1  0  0  0
 25 38  1  0  0  0
 25 39  1  0  0  0
M  END
> <s_m_entry_id>
7216

> <s_m_entry_name>
ligand_docking-pose.358

> <s_m_Source_Path>
/home/csk/Desktop/cluster/DUD-E-result/aldr

> <s_m_Source_File>
ligand_docking-pose.sdf

> <i_m_Source_File_Index>
358

> <i_lp_mmshare_version>
53161

> <r_lp_tautomer_probability>
0.999999999999776

> <s_lp_Force_Field>
OPLS_2005

> <r_lp_Energy>
24.654891

> <b_lp_Chiralities_Consistent>
1

> <s_lp_Variant>
483907-1

> <s_i_glide_gridfile>
glide-grid_2hv5

> <i_i_glide_lignum>
709

> <i_i_glide_rotatable_bonds>
7

> <r_i_docking_score>
-7.84365715050442

> <r_i_glide_ligand_efficiency>
-0.313746286020177

> <r_i_glide_ligand_efficiency_sa>
-0.917399704637072

> <r_i_glide_ligand_efficiency_ln>
-1.85918180010654

> <r_i_glide_gscore>
-7.84365715050442

> <r_i_glide_lipo>
-3.67671304173498

> <r_i_glide_hbond>
-0.117917795315362

> <r_i_glide_metal>
0

> <r_i_glide_rewards>
-1.83136792424242

> <r_i_glide_evdw>
-36.6449356079102

> <r_i_glide_ecoul>
-3.62628078460693

> <r_i_glide_erotb>
0.158530508874896

> <r_i_glide_esite>
0

> <r_i_glide_emodel>
-48.5096850155874

> <r_i_glide_energy>
-40.2712163925171

> <r_i_glide_einternal>
9.34554100036621

> <i_i_glide_confnum>
1

> <i_i_glide_posenum>
3

> <r_i_glide_eff_state_penalty>
0

> <i_f3d_flags>
0

> <s_user_duplicate_titles>
483907

> <s_m_subgroup_title>
dock_pv

> <s_m_subgroupid>
dock_pv1

> <b_m_subgroup_collapsed>
0

$$$$
100264
                    3D
 Schrodinger Suite 2021-1.
 43 46  0  0  1  0            999 V2000
   14.3054  -13.5367   18.8415 C   0  0  0  0  0  0
   14.5457  -12.1417   18.7461 O   0  0  0  0  0  0
   15.3311  -11.6547   17.7199 C   0  0  0  0  0  0
   15.9274  -12.4390   16.7254 C   0  0  0  0  0  0
   16.7356  -11.8477   15.7575 C   0  0  0  0  0  0
   16.9943  -10.4698   15.7889 C   0  0  0  0  0  0
   16.4201   -9.6682   16.7876 C   0  0  0  0  0  0
   15.5556  -10.2797   17.7090 C   0  0  0  0  0  0
   14.9323   -9.5164   18.6292 F   0  0  0  0  0  0
   16.7463   -8.1641   16.8212 C   0  0  2  0  0  0
   17.0895   -7.6126   18.2082 C   0  0  0  0  0  0
   16.0631   -6.5371   18.4984 C   0  0  0  0  0  0
   16.0040   -5.8444   19.5120 O   0  0  0  0  0  0
   15.2195   -6.5154   17.4559 N   0  0  0  0  0  0
   15.5116   -7.3618   16.4557 C   0  0  0  0  0  0
   14.9450   -7.4375   15.3815 O   0  0  0  0  0  0
   17.7791   -7.6731   15.7859 C   0  0  0  0  0  0
   18.1660   -6.5149   15.8170 O   0  0  0  0  0  0
   18.1397   -8.5440   14.8005 N   0  0  0  0  0  0
   17.8516   -9.8805   14.6824 C   0  0  0  0  0  0
   18.2456  -10.5563   13.7274 O   0  0  0  0  0  0
   18.9723   -7.9100   13.7390 C   0  0  0  0  0  0
   18.2312   -6.8867   12.8668 C   0  0  0  0  0  0
   17.3445   -7.3494   11.9293 C   0  0  0  0  0  0
   16.8120   -6.5151   10.9360 C   0  0  0  0  0  0
   17.2269   -5.1962   10.8477 C   0  0  0  0  0  0
   18.1199   -4.7209   11.7903 C   0  0  0  0  0  0
   18.5465   -5.5387   12.8419 C   0  0  0  0  0  0
   19.3452   -5.0397   13.7986 F   0  0  0  0  0  0
   16.5903   -4.0605    9.4593 Br  0  0  0  0  0  0
   13.7086  -13.7424   19.7314 H   0  0  0  0  0  0
   13.7521  -13.8988   17.9742 H   0  0  0  0  0  0
   15.2426  -14.0840   18.9381 H   0  0  0  0  0  0
   15.7673  -13.5053   16.6828 H   0  0  0  0  0  0
   17.1629  -12.4760   14.9874 H   0  0  0  0  0  0
   16.9453   -8.3501   18.9810 H   0  0  0  0  0  0
   18.0995   -7.2130   18.3261 H   0  0  0  0  0  0
   14.4210   -5.9038   17.4201 H   0  0  0  0  0  0
   19.4062   -8.6457   13.0588 H   0  0  0  0  0  0
   19.8521   -7.4416   14.1879 H   0  0  0  0  0  0
   17.1418   -8.3936   12.0387 H   0  0  0  0  0  0
   16.1395   -6.8915   10.1821 H   0  0  0  0  0  0
   18.4740   -3.7116   11.7325 H   0  0  0  0  0  0
  1  2  1  0  0  0
  1 31  1  0  0  0
  1 32  1  0  0  0
  1 33  1  0  0  0
  2  3  1  0  0  0
  3  8  1  0  0  0
  3  4  2  0  0  0
  4  5  1  0  0  0
  4 34  1  0  0  0
  5  6  2  0  0  0
  5 35  1  0  0  0
  6 20  1  0  0  0
  6  7  1  0  0  0
  7  8  2  0  0  0
  7 10  1  0  0  0
  8  9  1  0  0  0
 10 15  1  0  0  0
 10 11  1  0  0  0
 10 17  1  0  0  0
 11 12  1  0  0  0
 11 36  1  0  0  0
 11 37  1  0  0  0
 12 13  2  0  0  0
 12 14  1  0  0  0
 14 15  1  0  0  0
 14 38  1  0  0  0
 15 16  2  0  0  0
 17 18  2  0  0  0
 17 19  1  0  0  0
 19 20  1  0  0  0
 19 22  1  0  0  0
 20 21  2  0  0  0
 22 23  1  0  0  0
 22 39  1  0  0  0
 22 40  1  0  0  0
 23 28  1  0  0  0
 23 24  2  0  0  0
 24 25  1  0  0  0
 24 41  1  0  0  0
 25 26  2  0  0  0
 25 42  1  0  0  0
 26 27  1  0  0  0
 26 30  1  0  0  0
 27 28  2  0  0  0
 27 43  1  0  0  0
 28 29  1  0  0  0
M  END
> <s_m_entry_id>
7219

> <s_m_entry_name>
ligand_docking-pose.361

> <s_m_Source_Path>
/home/csk/Desktop/cluster/DUD-E-result/aldr

> <s_m_Source_File>
ligand_docking-pose.sdf

> <i_m_Source_File_Index>
361

> <i_lp_mmshare_version>
53161

> <r_lp_tautomer_probability>
0.99999999995914

> <s_lp_Force_Field>
OPLS_2005

> <r_lp_Energy>
35.986177

> <b_lp_Chiralities_Consistent>
1

> <s_lp_Variant>
100264-1

> <s_i_glide_gridfile>
glide-grid_2hv5

> <i_i_glide_lignum>
729

> <i_i_glide_rotatable_bonds>
3

> <r_i_docking_score>
-7.80284290514784

> <r_i_glide_ligand_efficiency>
-0.260094763504928

> <r_i_glide_ligand_efficiency_sa>
-0.808174902874639

> <r_i_glide_ligand_efficiency_ln>
-1.77289092683251

> <r_i_glide_gscore>
-7.80284290514784

> <r_i_glide_lipo>
-3.74851546744095

> <r_i_glide_hbond>
-0.128300403629174

> <r_i_glide_metal>
0

> <r_i_glide_rewards>
-2.74864901137602

> <r_i_glide_evdw>
-25.745475769043

> <r_i_glide_ecoul>
-0.4441879093647

> <r_i_glide_erotb>
0.176523952155159

> <r_i_glide_esite>
0

> <r_i_glide_emodel>
-28.2750448607049

> <r_i_glide_energy>
-26.1896636784077

> <r_i_glide_einternal>
2.07946276664734

> <i_i_glide_confnum>
1

> <i_i_glide_posenum>
3

> <r_i_glide_eff_state_penalty>
0

> <i_f3d_flags>
0

> <s_user_duplicate_titles>
100264

> <s_m_subgroup_title>
dock_pv

> <s_m_subgroupid>
dock_pv1

> <b_m_subgroup_collapsed>
0

$$$$
98847
                    3D
 Schrodinger Suite 2021-1.
 39 42  0  0  1  0            999 V2000
   17.3927  -12.9181   15.8503 C   0  0  0  0  0  0
   17.9414  -11.9806   14.9843 C   0  0  0  0  0  0
   17.7354  -10.6072   15.1928 C   0  0  0  0  0  0
   16.9885  -10.1589   16.2961 C   0  0  0  0  0  0
   16.3965  -11.1359   17.1265 C   0  0  0  0  0  0
   16.6101  -12.4948   16.9158 C   0  0  0  0  0  0
   15.5670  -10.7764   18.1331 F   0  0  0  0  0  0
   16.7760   -8.6395   16.4713 C   0  0  2  0  0  0
   17.0128   -8.1095   17.8790 C   0  0  0  0  0  0
   15.8557   -7.1600   18.1546 C   0  0  0  0  0  0
   15.7976   -6.3249   19.0539 O   0  0  0  0  0  0
   14.9185   -7.4189   17.2275 N   0  0  0  0  0  0
   15.2731   -8.3543   16.3247 C   0  0  0  0  0  0
   14.5196   -8.9152   15.5368 O   0  0  0  0  0  0
   17.5986   -7.7172   15.5067 C   0  0  0  0  0  0
   17.7439   -6.5150   15.7327 O   0  0  0  0  0  0
   18.1038   -8.3140   14.3849 N   0  0  0  0  0  0
   18.3093   -9.6537   14.1617 C   0  0  0  0  0  0
   18.9445  -10.0727   13.1905 O   0  0  0  0  0  0
   18.6467   -7.3612   13.3598 C   0  0  0  0  0  0
   17.6798   -6.4330   12.5849 C   0  0  0  0  0  0
   18.2087   -5.4404   11.7731 C   0  0  0  0  0  0
   17.4215   -4.6107   10.9836 C   0  0  0  0  0  0
   16.0431   -4.7492   11.0412 C   0  0  0  0  0  0
   15.4700   -5.7149   11.8578 C   0  0  0  0  0  0
   16.2933   -6.5151   12.6464 C   0  0  0  0  0  0
   15.7450   -7.3150   13.5486 F   0  0  0  0  0  0
   14.9452   -3.4803   10.1810 Br  0  0  0  0  0  0
   17.5524  -13.9708   15.6763 H   0  0  0  0  0  0
   18.5174  -12.3383   14.1408 H   0  0  0  0  0  0
   16.1469  -13.2199   17.5686 H   0  0  0  0  0  0
   16.9446   -8.9158   18.5810 H   0  0  0  0  0  0
   17.9750   -7.6226   18.0563 H   0  0  0  0  0  0
   13.9980   -7.0086   17.2566 H   0  0  0  0  0  0
   19.1892   -7.9026   12.5903 H   0  0  0  0  0  0
   19.4124   -6.7445   13.8358 H   0  0  0  0  0  0
   19.2583   -5.3150   11.7810 H   0  0  0  0  0  0
   17.8694   -3.8328   10.3836 H   0  0  0  0  0  0
   14.3957   -5.7739   11.9509 H   0  0  0  0  0  0
  1  6  1  0  0  0
  1  2  2  0  0  0
  1 29  1  0  0  0
  2  3  1  0  0  0
  2 30  1  0  0  0
  3 18  1  0  0  0
  3  4  2  0  0  0
  4  5  1  0  0  0
  4  8  1  0  0  0
  5  6  2  0  0  0
  5  7  1  0  0  0
  6 31  1  0  0  0
  8 13  1  0  0  0
  8  9  1  0  0  0
  8 15  1  0  0  0
  9 10  1  0  0  0
  9 32  1  0  0  0
  9 33  1  0  0  0
 10 11  2  0  0  0
 10 12  1  0  0  0
 12 13  1  0  0  0
 12 34  1  0  0  0
 13 14  2  0  0  0
 15 16  2  0  0  0
 15 17  1  0  0  0
 17 18  1  0  0  0
 17 20  1  0  0  0
 18 19  2  0  0  0
 20 21  1  0  0  0
 20 35  1  0  0  0
 20 36  1  0  0  0
 21 26  1  0  0  0
 21 22  2  0  0  0
 22 23  1  0  0  0
 22 37  1  0  0  0
 23 24  2  0  0  0
 23 38  1  0  0  0
 24 25  1  0  0  0
 24 28  1  0  0  0
 25 26  2  0  0  0
 25 39  1  0  0  0
 26 27  1  0  0  0
M  END
> <s_m_entry_id>
7220

> <s_m_entry_name>
ligand_docking-pose.362

> <s_m_Source_Path>
/home/csk/Desktop/cluster/DUD-E-result/aldr

> <s_m_Source_File>
ligand_docking-pose.sdf

> <i_m_Source_File_Index>
362

> <i_lp_mmshare_version>
53161

> <r_lp_tautomer_probability>
0.99999999995914

> <s_lp_Force_Field>
OPLS_2005

> <r_lp_Energy>
31.678785

> <b_lp_Chiralities_Consistent>
1

> <s_lp_Variant>
98847-2

> <s_i_glide_gridfile>
glide-grid_2hv5

> <i_i_glide_lignum>
51

> <i_i_glide_rotatable_bonds>
2

> <r_i_docking_score>
-7.79357190925456

> <r_i_glide_ligand_efficiency>
-0.278341853901949

> <r_i_glide_ligand_efficiency_sa>
-0.84520980303128

> <r_i_glide_ligand_efficiency_ln>
-1.79898522587046

> <r_i_glide_gscore>
-7.79357190925456

> <r_i_glide_lipo>
-3.24022254533915

> <r_i_glide_hbond>
0

> <r_i_glide_metal>
0

> <r_i_glide_rewards>
-3.04634695909091

> <r_i_glide_evdw>
-29.827220916748

> <r_i_glide_ecoul>
-1.42840456962585

> <r_i_glide_erotb>
0.198619326456777

> <r_i_glide_esite>
0

> <r_i_glide_emodel>
-31.5326163790733

> <r_i_glide_energy>
-31.2556254863739

> <r_i_glide_einternal>
2.63391709327698

> <i_i_glide_confnum>
1

> <i_i_glide_posenum>
195

> <r_i_glide_eff_state_penalty>
0

> <i_f3d_flags>
0

> <s_user_duplicate_titles>
98847

> <s_m_subgroup_title>
dock_pv

> <s_m_subgroupid>
dock_pv1

> <b_m_subgroup_collapsed>
0

$$$$
128834
                    3D
 Schrodinger Suite 2021-1.
 28 30  0  0  1  0            999 V2000
   17.4067  -11.0761   14.7640 C   0  0  0  0  0  0
   18.3085  -10.6046   13.8188 C   0  0  0  0  0  0
   18.6141   -9.2537   13.7794 C   0  0  0  0  0  0
   17.9993   -8.3705   14.6594 C   0  0  0  0  0  0
   17.0531   -8.8381   15.5951 C   0  0  0  0  0  0
   16.7745  -10.2315   15.6989 C   0  0  0  0  0  0
   15.7724  -10.8398   16.7311 C   0  0  2  0  0  0
   15.3061   -9.8608   17.8422 C   0  0  0  0  0  0
   14.7623   -8.5576   17.2724 C   0  0  0  0  0  0
   16.2385   -7.6072   16.6360 S   0  0  0  0  0  0
   17.1331   -7.2863   17.7531 O   0  0  0  0  0  0
   15.7257   -6.5150   15.8038 O   0  0  0  0  0  0
   16.3596  -12.0778   17.4142 C   0  0  0  0  0  0
   17.3256  -12.1150   18.1742 O   0  0  0  0  0  0
   15.5502  -13.0987   17.1092 N   0  0  0  0  0  0
   14.5438  -12.7870   16.2786 C   0  0  0  0  0  0
   13.7803  -13.5579   15.7067 O   0  0  0  0  0  0
   14.6383  -11.4649   16.1036 N   0  0  0  0  0  0
   18.4752   -6.7077   14.5522 Cl  0  0  0  0  0  0
   19.0604  -11.6961   12.7133 Cl  0  0  0  0  0  0
   17.1957  -12.1366   14.7690 H   0  0  0  0  0  0
   19.3335   -8.8899   13.0599 H   0  0  0  0  0  0
   14.5407  -10.3216   18.4740 H   0  0  0  0  0  0
   16.1330   -9.5953   18.5014 H   0  0  0  0  0  0
   14.2678   -7.9452   18.0239 H   0  0  0  0  0  0
   14.0742   -8.7141   16.4415 H   0  0  0  0  0  0
   15.6955  -14.0295   17.4598 H   0  0  0  0  0  0
   13.8294  -10.9120   15.8565 H   0  0  0  0  0  0
  1  6  1  0  0  0
  1  2  2  0  0  0
  1 21  1  0  0  0
  2  3  1  0  0  0
  2 20  1  0  0  0
  3  4  2  0  0  0
  3 22  1  0  0  0
  4  5  1  0  0  0
  4 19  1  0  0  0
  5 10  1  0  0  0
  5  6  2  0  0  0
  6  7  1  0  0  0
  7 18  1  0  0  0
  7  8  1  0  0  0
  7 13  1  0  0  0
  8  9  1  0  0  0
  8 23  1  0  0  0
  8 24  1  0  0  0
  9 10  1  0  0  0
  9 25  1  0  0  0
  9 26  1  0  0  0
 10 11  2  0  0  0
 10 12  2  0  0  0
 13 14  2  0  0  0
 13 15  1  0  0  0
 15 16  1  0  0  0
 15 27  1  0  0  0
 16 17  2  0  0  0
 16 18  1  0  0  0
 18 28  1  0  0  0
M  END
> <s_m_entry_id>
7221

> <s_m_entry_name>
ligand_docking-pose.363

> <s_m_Source_Path>
/home/csk/Desktop/cluster/DUD-E-result/aldr

> <s_m_Source_File>
ligand_docking-pose.sdf

> <i_m_Source_File_Index>
363

> <i_lp_mmshare_version>
53161

> <r_lp_tautomer_probability>
0.99999999978137

> <s_lp_Force_Field>
OPLS_2005

> <r_lp_Energy>
21.556555

> <b_lp_Chiralities_Consistent>
1

> <s_lp_Variant>
128834-2

> <s_i_glide_gridfile>
glide-grid_2hv5

> <i_i_glide_lignum>
303

> <i_i_glide_rotatable_bonds>
0

> <r_i_docking_score>
-7.77701742982443

> <r_i_glide_ligand_efficiency>
-0.388850871491221

> <r_i_glide_ligand_efficiency_sa>
-1.05550365475005

> <r_i_glide_ligand_efficiency_ln>
-1.94633095948322

> <r_i_glide_gscore>
-7.77701742982443

> <r_i_glide_lipo>
-2.63156055074429

> <r_i_glide_hbond>
-0.32

> <r_i_glide_metal>
0

> <r_i_glide_rewards>
-2.21453174594268

> <r_i_glide_evdw>
-28.88547706604

> <r_i_glide_ecoul>
-7.66287136077881

> <r_i_glide_erotb>
0

> <r_i_glide_esite>
-0.0172205757186317

> <r_i_glide_emodel>
-51.329504205661

> <r_i_glide_energy>
-36.5483484268188

> <r_i_glide_einternal>
0

> <i_i_glide_confnum>
1

> <i_i_glide_posenum>
334

> <r_i_glide_eff_state_penalty>
0

> <i_f3d_flags>
0

> <s_user_duplicate_titles>
128834

> <s_m_subgroup_title>
dock_pv

> <s_m_subgroupid>
dock_pv1

> <b_m_subgroup_collapsed>
0

$$$$
10590
                    3D
 Schrodinger Suite 2021-1.
 24 25  0  0  1  0            999 V2000
   15.9080  -12.3213   16.3461 C   0  0  0  0  0  0
   16.6364  -11.2810   15.7663 C   0  0  0  0  0  0
   16.3457   -9.9452   16.0836 C   0  0  0  0  0  0
   17.0677   -8.7747   15.5108 C   0  0  0  0  0  0
   16.7510   -7.5390   15.9661 C   0  0  0  0  0  0
   15.6891   -7.2967   16.9435 C   0  0  0  0  0  0
   15.3452   -6.2026   17.3812 O   0  0  0  0  0  0
   14.9892   -8.3969   17.4013 O   0  0  0  0  0  0
   15.3226   -9.6857   17.0130 C   0  0  0  0  0  0
   14.5900  -10.7274   17.5853 C   0  0  0  0  0  0
   14.8776  -12.0465   17.2431 C   0  0  0  0  0  0
   14.1450  -13.0771   17.7713 O   0  0  0  0  0  0
   18.1620   -9.0818   14.4665 C   0  0  0  0  0  0
   18.9068   -7.9188   13.7812 C   0  0  0  0  0  0
   18.4373   -6.8088   13.5477 O   0  0  0  0  0  0
   20.1451   -8.3161   13.3815 O   0  0  0  0  0  0
   16.1321  -13.3449   16.0838 H   0  0  0  0  0  0
   17.4175  -11.5352   15.0652 H   0  0  0  0  0  0
   17.2775   -6.6707   15.6083 H   0  0  0  0  0  0
   13.8016  -10.5165   18.2897 H   0  0  0  0  0  0
   13.3079  -12.8104   18.1809 H   0  0  0  0  0  0
   17.7213   -9.6704   13.6616 H   0  0  0  0  0  0
   18.9049   -9.7147   14.9512 H   0  0  0  0  0  0
   20.6551   -7.5996   12.9811 H   0  0  0  0  0  0
  1 11  1  0  0  0
  1  2  2  0  0  0
  1 17  1  0  0  0
  2  3  1  0  0  0
  2 18  1  0  0  0
  3  9  2  0  0  0
  3  4  1  0  0  0
  4  5  2  0  0  0
  4 13  1  0  0  0
  5  6  1  0  0  0
  5 19  1  0  0  0
  6  7  2  0  0  0
  6  8  1  0  0  0
  8  9  1  0  0  0
  9 10  1  0  0  0
 10 11  2  0  0  0
 10 20  1  0  0  0
 11 12  1  0  0  0
 12 21  1  0  0  0
 13 14  1  0  0  0
 13 22  1  0  0  0
 13 23  1  0  0  0
 14 15  2  0  0  0
 14 16  1  0  0  0
 16 24  1  0  0  0
M  END
> <s_m_entry_id>
7222

> <s_m_entry_name>
ligand_docking-pose.364

> <s_m_Source_Path>
/home/csk/Desktop/cluster/DUD-E-result/aldr

> <s_m_Source_File>
ligand_docking-pose.sdf

> <i_m_Source_File_Index>
364

> <i_lp_mmshare_version>
53161

> <r_lp_tautomer_probability>
1

> <s_lp_Force_Field>
OPLS_2005

> <r_lp_Energy>
10.027221

> <b_lp_Chiralities_Consistent>
1

> <s_lp_Variant>
10590-1

> <s_i_glide_gridfile>
glide-grid_2hv5

> <i_i_glide_lignum>
80

> <i_i_glide_rotatable_bonds>
4

> <r_i_docking_score>
-7.7725606228148

> <r_i_glide_ligand_efficiency>
-0.485785038925925

> <r_i_glide_ligand_efficiency_sa>
-1.22410159140224

> <r_i_glide_ligand_efficiency_ln>
-2.06027245349984

> <r_i_glide_gscore>
-7.7725606228148

> <r_i_glide_lipo>
-2.15925521987424

> <r_i_glide_hbond>
-0.348484928114983

> <r_i_glide_metal>
0

> <r_i_glide_rewards>
-3.18916650109905

> <r_i_glide_evdw>
-27.1024646759033

> <r_i_glide_ecoul>
-9.43735313415527

> <r_i_glide_erotb>
0.695072230191943

> <r_i_glide_esite>
0

> <r_i_glide_emodel>
-50.9376224365091

> <r_i_glide_energy>
-36.5398178100586

> <r_i_glide_einternal>
3.97566413879395

> <i_i_glide_confnum>
6

> <i_i_glide_posenum>
168

> <r_i_glide_eff_state_penalty>
0

> <i_f3d_flags>
0

> <s_user_duplicate_titles>
10590

> <s_m_subgroup_title>
dock_pv

> <s_m_subgroupid>
dock_pv1

> <b_m_subgroup_collapsed>
0

$$$$
181316
                    3D
 Schrodinger Suite 2021-1.
 31 34  0  0  1  0            999 V2000
   16.6937  -12.8059   16.2593 C   0  0  0  0  0  0
   15.8682  -12.3262   17.2776 C   0  0  0  0  0  0
   15.8024  -10.9565   17.5368 C   0  0  0  0  0  0
   16.5752  -10.0662   16.7858 C   0  0  0  0  0  0
   17.3955  -10.5518   15.7657 C   0  0  0  0  0  0
   17.4607  -11.9207   15.5010 C   0  0  0  0  0  0
   18.0630   -9.4042   15.1284 C   0  0  0  0  0  0
   18.9451   -9.3051   14.0520 C   0  0  0  0  0  0
   19.4232   -8.0473   13.6722 C   0  0  0  0  0  0
   18.9774   -6.8991   14.3271 C   0  0  0  0  0  0
   18.1506   -7.0095   15.4251 C   0  0  0  0  0  0
   17.6763   -8.2543   15.8060 C   0  0  0  0  0  0
   16.6264   -8.5467   16.8286 C   0  0  2  0  0  0
   16.7821   -7.8225   18.1813 C   0  0  0  0  0  0
   15.7643   -6.7062   18.3936 C   0  0  0  0  0  0
   15.8609   -5.8416   19.2599 O   0  0  0  0  0  0
   14.6540   -6.9152   17.5737 N   0  0  0  0  0  0
   15.0321   -7.8320   16.1728 S   0  0  0  0  0  0
   15.3444   -6.9150   15.0688 O   0  0  0  0  0  0
   14.0669   -8.9153   15.9846 O   0  0  0  0  0  0
   19.3450   -5.3154   13.7806 Cl  0  0  0  0  0  0
   16.7363  -13.8654   16.0533 H   0  0  0  0  0  0
   15.2631  -13.0135   17.8502 H   0  0  0  0  0  0
   15.1356  -10.5938   18.3058 H   0  0  0  0  0  0
   18.0917  -12.3054   14.7127 H   0  0  0  0  0  0
   19.2803  -10.1847   13.5233 H   0  0  0  0  0  0
   20.1433   -7.9655   12.8758 H   0  0  0  0  0  0
   17.8095   -6.1156   15.9243 H   0  0  0  0  0  0
   16.5451   -8.5150   18.9808 H   0  0  0  0  0  0
   17.7926   -7.4537   18.3511 H   0  0  0  0  0  0
   13.7469   -6.4610   17.7046 H   0  0  0  0  0  0
  1  6  1  0  0  0
  1  2  2  0  0  0
  1 22  1  0  0  0
  2  3  1  0  0  0
  2 23  1  0  0  0
  3  4  2  0  0  0
  3 24  1  0  0  0
  4 13  1  0  0  0
  4  5  1  0  0  0
  5  6  2  0  0  0
  5  7  1  0  0  0
  6 25  1  0  0  0
  7 12  2  0  0  0
  7  8  1  0  0  0
  8  9  2  0  0  0
  8 26  1  0  0  0
  9 10  1  0  0  0
  9 27  1  0  0  0
 10 11  2  0  0  0
 10 21  1  0  0  0
 11 12  1  0  0  0
 11 28  1  0  0  0
 12 13  1  0  0  0
 13 18  1  0  0  0
 13 14  1  0  0  0
 14 15  1  0  0  0
 14 29  1  0  0  0
 14 30  1  0  0  0
 15 16  2  0  0  0
 15 17  1  0  0  0
 17 18  1  0  0  0
 17 31  1  0  0  0
 18 19  2  0  0  0
 18 20  2  0  0  0
M  END
> <s_m_entry_id>
7224

> <s_m_entry_name>
ligand_docking-pose.366

> <s_m_Source_Path>
/home/csk/Desktop/cluster/DUD-E-result/aldr

> <s_m_Source_File>
ligand_docking-pose.sdf

> <i_m_Source_File_Index>
366

> <i_lp_mmshare_version>
53161

> <r_lp_tautomer_probability>
1

> <s_lp_Force_Field>
OPLS_2005

> <r_lp_Energy>
42.978713

> <b_lp_Chiralities_Consistent>
1

> <s_lp_Variant>
181316-2

> <s_i_glide_gridfile>
glide-grid_2hv5

> <i_i_glide_lignum>
123

> <i_i_glide_rotatable_bonds>
0

> <r_i_docking_score>
-7.76604532656896

> <r_i_glide_ligand_efficiency>
-0.369811682217569

> <r_i_glide_ligand_efficiency_sa>
-1.0202823897428

> <r_i_glide_ligand_efficiency_ln>
-1.92013901422199

> <r_i_glide_gscore>
-7.76604532656896

> <r_i_glide_lipo>
-2.65968976938549

> <r_i_glide_hbond>
-0.359197766551489

> <r_i_glide_metal>
0

> <r_i_glide_rewards>
-2.79887025456532

> <r_i_glide_evdw>
-25.2620601654053

> <r_i_glide_ecoul>
-4.45833349227905

> <r_i_glide_erotb>
0

> <r_i_glide_esite>
-0.0164345039545363

> <r_i_glide_emodel>
-36.717048906965

> <r_i_glide_energy>
-29.7203936576843

> <r_i_glide_einternal>
0

> <i_i_glide_confnum>
2

> <i_i_glide_posenum>
356

> <r_i_glide_eff_state_penalty>
0

> <i_f3d_flags>
0

> <s_user_duplicate_titles>
181316

> <s_m_subgroup_title>
dock_pv

> <s_m_subgroupid>
dock_pv1

> <b_m_subgroup_collapsed>
0

$$$$
67794
                    3D
 Schrodinger Suite 2021-1.
 46 48  0  0  1  0            999 V2000
   17.0532   -5.2444   10.9512 C   0  0  0  0  0  0
   18.1615   -5.0813   11.7719 C   0  0  0  0  0  0
   18.2656   -5.7806   12.9752 C   0  0  0  0  0  0
   17.2353   -6.6383   13.3674 C   0  0  0  0  0  0
   16.1436   -6.8151   12.5225 C   0  0  0  0  0  0
   16.0394   -6.1148   11.3223 C   0  0  0  0  0  0
   17.2477   -7.3246   14.7312 C   0  0  0  0  0  0
   16.0933   -6.7899   15.6074 C   0  0  0  0  0  0
   16.1618   -7.1039   17.0410 N   0  0  0  0  0  0
   17.2364   -6.3646   17.7540 C   0  0  0  0  0  0
   16.7824   -5.5754   19.0032 C   0  0  0  0  0  0
   15.7378   -5.7104   19.5929 O   0  0  0  0  0  0
   17.7456   -4.6969   19.3812 O   0  0  0  0  0  0
   15.6178   -8.2364   17.5570 C   0  0  0  0  0  0
   15.7457   -8.5152   18.7425 O   0  0  0  0  0  0
   14.7709   -9.1992   16.6988 C   0  0  0  0  0  0
   14.9746  -10.6935   17.0695 C   0  0  0  0  0  0
   16.2176  -11.3023   16.4595 C   0  0  0  0  0  0
   16.6278  -10.9731   15.2684 N   0  0  0  0  0  0
   17.7067  -11.6895   14.8728 C   0  0  0  0  0  0
   18.3483  -11.5658   13.6303 C   0  0  0  0  0  0
   19.4480  -12.3861   13.3668 C   0  0  0  0  0  0
   19.9057  -13.2992   14.3136 C   0  0  0  0  0  0
   19.2751  -13.4287   15.5492 C   0  0  0  0  0  0
   18.1677  -12.6253   15.8239 C   0  0  0  0  0  0
   17.1608  -12.5407   17.2579 S   0  0  0  0  0  0
   19.7273  -14.2992   16.4679 F   0  0  0  0  0  0
   20.0855  -12.2918   12.1825 F   0  0  0  0  0  0
   17.9120  -10.6772   12.7096 F   0  0  0  0  0  0
   16.9842   -4.6975   10.0193 H   0  0  0  0  0  0
   18.9426   -4.4054   11.4627 H   0  0  0  0  0  0
   19.1306   -5.6279   13.6066 H   0  0  0  0  0  0
   15.3545   -7.4906   12.7898 H   0  0  0  0  0  0
   15.1808   -6.2506   10.6771 H   0  0  0  0  0  0
   17.1471   -8.3998   14.5790 H   0  0  0  0  0  0
   18.2150   -7.1502   15.2047 H   0  0  0  0  0  0
   16.1283   -5.7151   15.5578 H   0  0  0  0  0  0
   15.1321   -7.0781   15.1885 H   0  0  0  0  0  0
   17.9994   -7.0721   18.0818 H   0  0  0  0  0  0
   17.7448   -5.7131   17.0532 H   0  0  0  0  0  0
   17.4697   -4.2086   20.1595 H   0  0  0  0  0  0
   13.7408   -8.9251   16.9077 H   0  0  0  0  0  0
   14.8852   -9.0696   15.6271 H   0  0  0  0  0  0
   14.9602  -10.8318   18.1523 H   0  0  0  0  0  0
   14.1443  -11.2809   16.6929 H   0  0  0  0  0  0
   20.7683  -13.9067   14.0815 H   0  0  0  0  0  0
  1  6  1  0  0  0
  1  2  2  0  0  0
  1 30  1  0  0  0
  2  3  1  0  0  0
  2 31  1  0  0  0
  3  4  2  0  0  0
  3 32  1  0  0  0
  4  5  1  0  0  0
  4  7  1  0  0  0
  5  6  2  0  0  0
  5 33  1  0  0  0
  6 34  1  0  0  0
  7  8  1  0  0  0
  7 35  1  0  0  0
  7 36  1  0  0  0
  8  9  1  0  0  0
  8 37  1  0  0  0
  8 38  1  0  0  0
  9 10  1  0  0  0
  9 14  1  0  0  0
 10 11  1  0  0  0
 10 39  1  0  0  0
 10 40  1  0  0  0
 11 12  2  0  0  0
 11 13  1  0  0  0
 13 41  1  0  0  0
 14 15  2  0  0  0
 14 16  1  0  0  0
 16 17  1  0  0  0
 16 42  1  0  0  0
 16 43  1  0  0  0
 17 18  1  0  0  0
 17 44  1  0  0  0
 17 45  1  0  0  0
 18 26  1  0  0  0
 18 19  2  0  0  0
 19 20  1  0  0  0
 20 25  2  0  0  0
 20 21  1  0  0  0
 21 22  2  0  0  0
 21 29  1  0  0  0
 22 23  1  0  0  0
 22 28  1  0  0  0
 23 24  2  0  0  0
 23 46  1  0  0  0
 24 25  1  0  0  0
 24 27  1  0  0  0
 25 26  1  0  0  0
M  END
> <s_m_entry_id>
7225

> <s_m_entry_name>
ligand_docking-pose.367

> <s_m_Source_Path>
/home/csk/Desktop/cluster/DUD-E-result/aldr

> <s_m_Source_File>
ligand_docking-pose.sdf

> <i_m_Source_File_Index>
367

> <i_lp_mmshare_version>
53161

> <r_lp_tautomer_probability>
1

> <s_lp_Force_Field>
OPLS_2005

> <r_lp_Energy>
10.861103

> <b_lp_Chiralities_Consistent>
1

> <s_lp_Variant>
67794-1

> <s_i_glide_gridfile>
glide-grid_2hv5

> <i_i_glide_lignum>
349

> <i_i_glide_rotatable_bonds>
10

> <r_i_docking_score>
-7.76543146714407

> <r_i_glide_ligand_efficiency>
-0.267773498867037

> <r_i_glide_ligand_efficiency_sa>
-0.822685025118559

> <r_i_glide_ligand_efficiency_ln>
-1.77808689162422

> <r_i_glide_gscore>
-7.76543146714407

> <r_i_glide_lipo>
-3.80199194111498

> <r_i_glide_hbond>
-0.31002772443854

> <r_i_glide_metal>
0

> <r_i_glide_rewards>
-2.39046093520436

> <r_i_glide_evdw>
-36.6076011657715

> <r_i_glide_ecoul>
-1.39803946018219

> <r_i_glide_erotb>
0.777135110929712

> <r_i_glide_esite>
0

> <r_i_glide_emodel>
-46.2616707949095

> <r_i_glide_energy>
-38.0056406259537

> <r_i_glide_einternal>
6.10995960235596

> <i_i_glide_confnum>
1

> <i_i_glide_posenum>
53

> <r_i_glide_eff_state_penalty>
0

> <i_f3d_flags>
0

> <s_user_duplicate_titles>
67794

> <s_m_subgroup_title>
dock_pv

> <s_m_subgroupid>
dock_pv1

> <b_m_subgroup_collapsed>
0

$$$$
4020
                    3D
 Schrodinger Suite 2021-1.
 26 28  0  0  1  0            999 V2000
   14.7587  -10.7294   17.7383 C   0  0  0  0  0  0
   15.4837  -11.6926   17.0111 C   0  0  0  0  0  0
   16.4337  -11.2747   16.0417 C   0  0  0  0  0  0
   17.2436  -12.0988   15.2166 C   0  0  0  0  0  0
   18.1238  -11.5067   14.2915 C   0  0  0  0  0  0
   18.2221  -10.1101   14.1675 C   0  0  0  0  0  0
   17.4333   -9.2932   14.9816 C   0  0  0  0  0  0
   16.5804   -9.8903   15.8732 C   0  0  0  0  0  0
   15.8803   -8.9431   16.5659 C   0  0  0  0  0  0
   14.9494   -9.3527   17.5212 C   0  0  0  0  0  0
   16.3351   -7.6099   16.0626 C   0  0  0  0  0  0
   15.9473   -6.5010   16.4234 O   0  0  0  0  0  0
   17.2759   -7.9086   15.1107 N   0  0  0  0  0  0
   18.0041   -6.8840   14.3413 C   0  0  0  0  0  0
   17.2649   -6.5311   13.0335 C   0  0  0  0  0  0
   16.1544   -6.9142   12.7345 O   0  0  0  0  0  0
   18.0531   -5.7150   12.2769 O   0  0  0  0  0  0
   14.0306  -11.0551   18.4666 H   0  0  0  0  0  0
   15.3195  -12.7476   17.1766 H   0  0  0  0  0  0
   17.1666  -13.1731   15.3015 H   0  0  0  0  0  0
   18.7331  -12.1384   13.6622 H   0  0  0  0  0  0
   18.9053   -9.6883   13.4444 H   0  0  0  0  0  0
   14.3729   -8.6343   18.0852 H   0  0  0  0  0  0
   18.9955   -7.2643   14.0930 H   0  0  0  0  0  0
   18.1417   -5.9834   14.9395 H   0  0  0  0  0  0
   18.8886   -5.5187   12.7020 H   0  0  0  0  0  0
  1 10  1  0  0  0
  1  2  2  0  0  0
  1 18  1  0  0  0
  2  3  1  0  0  0
  2 19  1  0  0  0
  3  8  2  0  0  0
  3  4  1  0  0  0
  4  5  2  0  0  0
  4 20  1  0  0  0
  5  6  1  0  0  0
  5 21  1  0  0  0
  6  7  2  0  0  0
  6 22  1  0  0  0
  7 13  1  0  0  0
  7  8  1  0  0  0
  8  9  1  0  0  0
  9 10  2  0  0  0
  9 11  1  0  0  0
 10 23  1  0  0  0
 11 12  2  0  0  0
 11 13  1  0  0  0
 13 14  1  0  0  0
 14 15  1  0  0  0
 14 24  1  0  0  0
 14 25  1  0  0  0
 15 16  2  0  0  0
 15 17  1  0  0  0
 17 26  1  0  0  0
M  END
> <s_m_entry_id>
7227

> <s_m_entry_name>
ligand_docking-pose.369

> <s_m_Source_Path>
/home/csk/Desktop/cluster/DUD-E-result/aldr

> <s_m_Source_File>
ligand_docking-pose.sdf

> <i_m_Source_File_Index>
369

> <i_lp_mmshare_version>
53161

> <r_lp_tautomer_probability>
1

> <s_lp_Force_Field>
OPLS_2005

> <r_lp_Energy>
50.282309

> <b_lp_Chiralities_Consistent>
1

> <s_lp_Variant>
4020-1

> <s_i_glide_gridfile>
glide-grid_2hv5

> <i_i_glide_lignum>
74

> <i_i_glide_rotatable_bonds>
3

> <r_i_docking_score>
-7.75816871972695

> <r_i_glide_ligand_efficiency>
-0.456362865866291

> <r_i_glide_ligand_efficiency_sa>
-1.17343743455383

> <r_i_glide_ligand_efficiency_ln>
-2.02393345305363

> <r_i_glide_gscore>
-7.75816871972695

> <r_i_glide_lipo>
-2.28315473657301

> <r_i_glide_hbond>
-0.061751966518802

> <r_i_glide_metal>
0

> <r_i_glide_rewards>
-3.89354167541181

> <r_i_glide_evdw>
-29.1255149841309

> <r_i_glide_ecoul>
-2.61982774734497

> <r_i_glide_erotb>
0.32952957008496

> <r_i_glide_esite>
0

> <r_i_glide_emodel>
-46.6545868359677

> <r_i_glide_energy>
-31.7453427314758

> <r_i_glide_einternal>
0.228605896234512

> <i_i_glide_confnum>
1

> <i_i_glide_posenum>
27

> <r_i_glide_eff_state_penalty>
0

> <i_f3d_flags>
0

> <s_user_duplicate_titles>
4020

> <s_m_subgroup_title>
dock_pv

> <s_m_subgroupid>
dock_pv1

> <b_m_subgroup_collapsed>
0

$$$$
181290
                    3D
 Schrodinger Suite 2021-1.
 30 33  0  0  1  0            999 V2000
   16.0643  -12.5943   16.6401 C   0  0  0  0  0  0
   16.8946  -11.8725   15.7816 C   0  0  0  0  0  0
   17.0105  -10.4894   15.9354 C   0  0  0  0  0  0
   16.3208   -9.8249   16.9504 C   0  0  0  0  0  0
   15.4608  -10.5518   17.7810 C   0  0  0  0  0  0
   15.3445  -11.9337   17.6353 C   0  0  0  0  0  0
   14.5450  -12.6342   18.4691 F   0  0  0  0  0  0
   16.6166   -8.3245   16.9093 C   0  0  0  0  0  0
   17.1110   -7.6475   18.1580 C   0  0  0  0  0  0
   16.2204   -6.4544   18.4000 C   0  0  0  0  0  0
   16.3452   -5.6168   19.2889 O   0  0  0  0  0  0
   15.2549   -6.5150   17.4787 N   0  0  0  0  0  0
   15.3422   -7.5572   16.6423 C   0  0  0  0  0  0
   14.5450   -7.8537   15.7810 O   0  0  0  0  0  0
   17.5174   -8.2301   15.6962 C   0  0  0  0  0  0
   17.7450   -9.4912   15.1458 C   0  0  0  0  0  0
   18.5450   -9.6286   14.0121 C   0  0  0  0  0  0
   19.1149   -8.4940   13.4346 C   0  0  0  0  0  0
   18.8571   -7.2287   13.9641 C   0  0  0  0  0  0
   18.0747   -7.0989   15.1017 C   0  0  0  0  0  0
   19.3450   -6.1165   13.3810 F   0  0  0  0  0  0
   15.9676  -13.6641   16.5287 H   0  0  0  0  0  0
   17.4255  -12.3906   14.9966 H   0  0  0  0  0  0
   14.8938  -10.0589   18.5568 H   0  0  0  0  0  0
   18.1626   -7.3607   18.1288 H   0  0  0  0  0  0
   16.9450   -8.3169   18.9810 H   0  0  0  0  0  0
   14.4858   -5.8672   17.4484 H   0  0  0  0  0  0
   18.7369  -10.5988   13.5784 H   0  0  0  0  0  0
   19.7602   -8.5987   12.5810 H   0  0  0  0  0  0
   17.9024   -6.1150   15.5073 H   0  0  0  0  0  0
  1  6  1  0  0  0
  1  2  2  0  0  0
  1 22  1  0  0  0
  2  3  1  0  0  0
  2 23  1  0  0  0
  3 16  1  0  0  0
  3  4  2  0  0  0
  4  5  1  0  0  0
  4  8  1  0  0  0
  5  6  2  0  0  0
  5 24  1  0  0  0
  6  7  1  0  0  0
  8 13  1  0  0  0
  8  9  1  0  0  0
  8 15  1  0  0  0
  9 10  1  0  0  0
  9 25  1  0  0  0
  9 26  1  0  0  0
 10 11  2  0  0  0
 10 12  1  0  0  0
 12 13  1  0  0  0
 12 27  1  0  0  0
 13 14  2  0  0  0
 15 20  2  0  0  0
 15 16  1  0  0  0
 16 17  2  0  0  0
 17 18  1  0  0  0
 17 28  1  0  0  0
 18 19  2  0  0  0
 18 29  1  0  0  0
 19 20  1  0  0  0
 19 21  1  0  0  0
 20 30  1  0  0  0
M  END
> <s_m_entry_id>
7228

> <s_m_entry_name>
ligand_docking-pose.370

> <s_m_Source_Path>
/home/csk/Desktop/cluster/DUD-E-result/aldr

> <s_m_Source_File>
ligand_docking-pose.sdf

> <i_m_Source_File_Index>
370

> <i_lp_mmshare_version>
53161

> <r_lp_tautomer_probability>
0.99999999995914

> <s_lp_Force_Field>
OPLS_2005

> <r_lp_Energy>
38.533058

> <b_lp_Chiralities_Consistent>
1

> <s_lp_Variant>
181290-1

> <s_i_glide_gridfile>
glide-grid_2hv5

> <i_i_glide_lignum>
49

> <i_i_glide_rotatable_bonds>
0

> <r_i_docking_score>
-7.75684455117267

> <r_i_glide_ligand_efficiency>
-0.369373550055842

> <r_i_glide_ligand_efficiency_sa>
-1.01907361633059

> <r_i_glide_ligand_efficiency_ln>
-1.91786414109717

> <r_i_glide_gscore>
-7.75684455117267

> <r_i_glide_lipo>
-2.80407017415553

> <r_i_glide_hbond>
0

> <r_i_glide_metal>
0

> <r_i_glide_rewards>
-3.55950785872886

> <r_i_glide_evdw>
-27.7528743743896

> <r_i_glide_ecoul>
0.301085531711578

> <r_i_glide_erotb>
0

> <r_i_glide_esite>
-0.0507856293255423

> <r_i_glide_emodel>
-37.506214809658

> <r_i_glide_energy>
-27.4517888426781

> <r_i_glide_einternal>
0

> <i_i_glide_confnum>
1

> <i_i_glide_posenum>
392

> <r_i_glide_eff_state_penalty>
0

> <i_f3d_flags>
0

> <s_user_duplicate_titles>
181290

> <s_m_subgroup_title>
dock_pv

> <s_m_subgroupid>
dock_pv1

> <b_m_subgroup_collapsed>
0

$$$$
219217
                    3D
 Schrodinger Suite 2021-1.
 37 40  0  0  1  0            999 V2000
   15.5842   -5.4520   11.1198 C   0  0  0  0  0  0
   15.9549   -6.5150   11.9428 C   0  0  0  0  0  0
   17.2461   -6.6626   12.4229 C   0  0  0  0  0  0
   18.1450   -5.6445   12.1616 C   0  0  0  0  0  0
   17.8199   -4.5823   11.3147 C   0  0  0  0  0  0
   16.5391   -4.5004   10.7737 C   0  0  0  0  0  0
   16.0906   -3.0668    9.6037 Br  0  0  0  0  0  0
   19.3441   -5.7149   12.7537 F   0  0  0  0  0  0
   17.7111   -7.9515   13.1398 C   0  0  0  0  0  0
   17.3441   -8.1237   14.5798 N   0  0  0  0  0  0
   17.6938   -7.0890   15.4087 C   0  0  0  0  0  0
   18.4279   -6.1752   15.0529 O   0  0  0  0  0  0
   17.0550   -7.1687   16.7000 C   0  0  0  0  0  0
   16.9753   -6.2448   17.7374 C   0  0  0  0  0  0
   16.3814   -6.8334   18.8393 C   0  0  0  0  0  0
   16.0665   -8.1144   18.4387 C   0  0  0  0  0  0
   16.5392   -8.3564   17.1672 N   0  0  0  0  0  0
   16.5348   -9.6165   16.3987 C   0  0  1  0  0  0
   17.1821   -9.4286   14.9828 C   0  0  0  0  0  0
   17.5113  -10.4047   14.3000 O   0  0  0  0  0  0
   17.1741  -10.7872   17.1414 C   0  0  0  0  0  0
   16.0465  -11.7682   17.3802 C   0  0  0  0  0  0
   16.1474  -12.8184   18.0057 O   0  0  0  0  0  0
   14.9383  -11.2657   16.8128 N   0  0  0  0  0  0
   15.0813  -10.0613   16.2283 C   0  0  0  0  0  0
   14.1940   -9.4082   15.6902 O   0  0  0  0  0  0
   16.1453   -6.1169   20.3779 Cl  0  0  0  0  0  0
   14.5771   -5.3755   10.7372 H   0  0  0  0  0  0
   15.2938   -7.3127   12.1809 H   0  0  0  0  0  0
   18.5441   -3.8147   11.0944 H   0  0  0  0  0  0
   17.3457   -8.7837   12.5358 H   0  0  0  0  0  0
   18.7981   -8.0243   13.0602 H   0  0  0  0  0  0
   17.3424   -5.2311   17.7203 H   0  0  0  0  0  0
   15.5903   -8.9151   18.9811 H   0  0  0  0  0  0
   17.9752  -11.3009   16.6054 H   0  0  0  0  0  0
   17.5876  -10.4963   18.0990 H   0  0  0  0  0  0
   14.0541  -11.7505   16.8399 H   0  0  0  0  0  0
  1  6  1  0  0  0
  1  2  2  0  0  0
  1 28  1  0  0  0
  2  3  1  0  0  0
  2 29  1  0  0  0
  3  4  2  0  0  0
  3  9  1  0  0  0
  4  5  1  0  0  0
  4  8  1  0  0  0
  5  6  2  0  0  0
  5 30  1  0  0  0
  6  7  1  0  0  0
  9 10  1  0  0  0
  9 31  1  0  0  0
  9 32  1  0  0  0
 10 19  1  0  0  0
 10 11  1  0  0  0
 11 12  2  0  0  0
 11 13  1  0  0  0
 13 17  1  0  0  0
 13 14  2  0  0  0
 14 15  1  0  0  0
 14 33  1  0  0  0
 15 16  2  0  0  0
 15 27  1  0  0  0
 16 17  1  0  0  0
 16 34  1  0  0  0
 17 18  1  0  0  0
 18 25  1  0  0  0
 18 19  1  0  0  0
 18 21  1  0  0  0
 19 20  2  0  0  0
 21 22  1  0  0  0
 21 35  1  0  0  0
 21 36  1  0  0  0
 22 23  2  0  0  0
 22 24  1  0  0  0
 24 25  1  0  0  0
 24 37  1  0  0  0
 25 26  2  0  0  0
M  END
> <s_m_entry_id>
7231

> <s_m_entry_name>
ligand_docking-pose.373

> <s_m_Source_Path>
/home/csk/Desktop/cluster/DUD-E-result/aldr

> <s_m_Source_File>
ligand_docking-pose.sdf

> <i_m_Source_File_Index>
373

> <i_lp_mmshare_version>
53161

> <r_lp_tautomer_probability>
0.99995

> <s_lp_Force_Field>
OPLS_2005

> <r_lp_Energy>
32.641902

> <b_lp_Chiralities_Consistent>
1

> <s_lp_Variant>
219217-1

> <s_i_glide_gridfile>
glide-grid_2hv5

> <i_i_glide_lignum>
314

> <i_i_glide_rotatable_bonds>
2

> <r_i_docking_score>
-7.75267904566822

> <r_i_glide_ligand_efficiency>
-0.287136260950675

> <r_i_glide_ligand_efficiency_sa>
-0.861408781905671

> <r_i_glide_ligand_efficiency_ln>
-1.80469586892837

> <r_i_glide_gscore>
-7.75267904566822

> <r_i_glide_lipo>
-3.66400768030986

> <r_i_glide_hbond>
-0.005224667362872

> <r_i_glide_metal>
0

> <r_i_glide_rewards>
-2.92963376162358

> <r_i_glide_evdw>
-29.7877235412598

> <r_i_glide_ecoul>
0.963776051998138

> <r_i_glide_erotb>
0.194324473826908

> <r_i_glide_esite>
-0.00331764093554776

> <r_i_glide_emodel>
-41.0589865061206

> <r_i_glide_energy>
-28.8239474892616

> <r_i_glide_einternal>
9.55234622955322

> <i_i_glide_confnum>
3

> <i_i_glide_posenum>
11

> <r_i_glide_eff_state_penalty>
0

> <i_f3d_flags>
0

> <s_user_duplicate_titles>
219217

> <s_m_subgroup_title>
dock_pv

> <s_m_subgroupid>
dock_pv1

> <b_m_subgroup_collapsed>
0

$$$$
129689
                    3D
 Schrodinger Suite 2021-1.
 26 28  0  0  1  0            999 V2000
   17.5120  -10.9880   14.7735 C   0  0  0  0  0  0
   18.4101  -10.5170   13.8234 C   0  0  0  0  0  0
   18.6891   -9.1619   13.7587 C   0  0  0  0  0  0
   18.0587   -8.2764   14.6255 C   0  0  0  0  0  0
   17.1343   -8.7426   15.5846 C   0  0  0  0  0  0
   16.8625  -10.1386   15.6919 C   0  0  0  0  0  0
   15.8288  -10.7362   16.6958 C   0  0  2  0  0  0
   15.3453   -9.7377   17.7810 C   0  0  0  0  0  0
   14.8699   -8.4269   17.1597 C   0  0  0  0  0  0
   16.3304   -7.5234   16.6177 S   0  0  0  0  0  0
   16.3457  -12.0093   17.3839 C   0  0  0  0  0  0
   17.2909  -12.1150   18.1642 O   0  0  0  0  0  0
   15.5092  -12.9921   17.0361 N   0  0  0  0  0  0
   14.5439  -12.6299   16.1812 C   0  0  0  0  0  0
   13.7707  -13.3673   15.5800 O   0  0  0  0  0  0
   14.6977  -11.3123   16.0202 N   0  0  0  0  0  0
   18.4631   -6.5975   14.4623 Cl  0  0  0  0  0  0
   19.1775  -11.6146   12.7354 Cl  0  0  0  0  0  0
   17.3095  -12.0492   14.7864 H   0  0  0  0  0  0
   19.3944   -8.7938   13.0273 H   0  0  0  0  0  0
   14.5364  -10.1600   18.3815 H   0  0  0  0  0  0
   16.1477   -9.4892   18.4747 H   0  0  0  0  0  0
   14.3635   -7.7997   17.8931 H   0  0  0  0  0  0
   14.1887   -8.5701   16.3197 H   0  0  0  0  0  0
   15.6125  -13.9371   17.3662 H   0  0  0  0  0  0
   13.9219  -10.7272   15.7487 H   0  0  0  0  0  0
  1  6  1  0  0  0
  1  2  2  0  0  0
  1 19  1  0  0  0
  2  3  1  0  0  0
  2 18  1  0  0  0
  3  4  2  0  0  0
  3 20  1  0  0  0
  4  5  1  0  0  0
  4 17  1  0  0  0
  5 10  1  0  0  0
  5  6  2  0  0  0
  6  7  1  0  0  0
  7 16  1  0  0  0
  7  8  1  0  0  0
  7 11  1  0  0  0
  8  9  1  0  0  0
  8 21  1  0  0  0
  8 22  1  0  0  0
  9 10  1  0  0  0
  9 23  1  0  0  0
  9 24  1  0  0  0
 11 12  2  0  0  0
 11 13  1  0  0  0
 13 14  1  0  0  0
 13 25  1  0  0  0
 14 15  2  0  0  0
 14 16  1  0  0  0
 16 26  1  0  0  0
M  END
> <s_m_entry_id>
7234

> <s_m_entry_name>
ligand_docking-pose.376

> <s_m_Source_Path>
/home/csk/Desktop/cluster/DUD-E-result/aldr

> <s_m_Source_File>
ligand_docking-pose.sdf

> <i_m_Source_File_Index>
376

> <i_lp_mmshare_version>
53161

> <r_lp_tautomer_probability>
0.99999999978137

> <s_lp_Force_Field>
OPLS_2005

> <r_lp_Energy>
21.690703

> <b_lp_Chiralities_Consistent>
1

> <s_lp_Variant>
129689-1

> <s_i_glide_gridfile>
glide-grid_2hv5

> <i_i_glide_lignum>
300

> <i_i_glide_rotatable_bonds>
0

> <r_i_docking_score>
-7.74074600571174

> <r_i_glide_ligand_efficiency>
-0.430041444761763

> <r_i_glide_ligand_efficiency_sa>
-1.12702741442671

> <r_i_glide_ligand_efficiency_ln>
-1.9897188462775

> <r_i_glide_gscore>
-7.74074600571174

> <r_i_glide_lipo>
-2.93103492258706

> <r_i_glide_hbond>
-0.32

> <r_i_glide_metal>
0

> <r_i_glide_rewards>
-2.20436393873563

> <r_i_glide_evdw>
-27.1780471801758

> <r_i_glide_ecoul>
-6.06534767150879

> <r_i_glide_erotb>
0

> <r_i_glide_esite>
-0.0166426346539487

> <r_i_glide_emodel>
-48.6323459942072

> <r_i_glide_energy>
-33.2433948516846

> <r_i_glide_einternal>
0

> <i_i_glide_confnum>
1

> <i_i_glide_posenum>
119

> <r_i_glide_eff_state_penalty>
0

> <i_f3d_flags>
0

> <s_user_duplicate_titles>
129689

> <s_m_subgroup_title>
dock_pv

> <s_m_subgroupid>
dock_pv1

> <b_m_subgroup_collapsed>
0

$$$$
490411
                    3D
 Schrodinger Suite 2021-1.
 39 41  0  0  1  0            999 V2000
   20.0758  -12.9905   14.7986 C   0  0  0  0  0  0
   18.6551  -12.9811   14.9170 O   0  0  0  0  0  0
   18.0578  -11.7614   15.1601 C   0  0  0  0  0  0
   17.3092  -11.6237   16.3343 C   0  0  0  0  0  0
   16.6696  -10.4135   16.6298 C   0  0  0  0  0  0
   16.7960   -9.3117   15.7644 C   0  0  0  0  0  0
   16.1286   -7.9984   16.0408 C   0  0  0  0  0  0
   15.4920   -7.7700   17.0699 O   0  0  0  0  0  0
   16.2485   -7.0503   14.9603 C   0  0  0  0  0  0
   16.9712   -7.2865   13.8521 C   0  0  0  0  0  0
   17.6608   -8.4407   13.6453 O   0  0  0  0  0  0
   17.5460   -9.4624   14.5814 C   0  0  0  0  0  0
   18.1491  -10.6834   14.2587 C   0  0  0  0  0  0
   18.8467  -10.7803   13.0778 O   0  0  0  0  0  0
   18.3398  -11.7172   12.1368 C   0  0  0  0  0  0
   16.9649   -6.3754   12.6851 C   0  0  0  0  0  0
   18.1473   -5.8356   12.1829 C   0  0  0  0  0  0
   18.1380   -4.9148   11.1319 C   0  0  0  0  0  0
   16.9297   -4.5190   10.5614 C   0  0  0  0  0  0
   15.7307   -5.0389   11.0626 C   0  0  0  0  0  0
   15.7588   -5.9625   12.1073 C   0  0  0  0  0  0
   14.5100   -4.6405   10.5807 O   0  0  0  0  0  0
   16.9471   -3.6192    9.5237 O   0  0  0  0  0  0
   15.8959  -10.3208   17.7631 O   0  0  0  0  0  0
   17.2184  -12.6937   17.1958 O   0  0  0  0  0  0
   20.3925  -13.9357   14.3632 H   0  0  0  0  0  0
   20.4797  -12.1998   14.1676 H   0  0  0  0  0  0
   20.5442  -12.9155   15.7782 H   0  0  0  0  0  0
   15.7335   -6.1154   15.0369 H   0  0  0  0  0  0
   19.0035  -11.7209   11.2738 H   0  0  0  0  0  0
   18.2977  -12.7398   12.5098 H   0  0  0  0  0  0
   17.3452  -11.4338   11.7927 H   0  0  0  0  0  0
   19.0919   -6.1205   12.6230 H   0  0  0  0  0  0
   19.0577   -4.4987   10.7565 H   0  0  0  0  0  0
   14.8218   -6.3201   12.4969 H   0  0  0  0  0  0
   14.4828   -3.7722   10.1698 H   0  0  0  0  0  0
   16.1621   -3.6695    8.9715 H   0  0  0  0  0  0
   15.5441   -9.4238   17.8520 H   0  0  0  0  0  0
   17.6457  -13.4767   16.8363 H   0  0  0  0  0  0
  1  2  1  0  0  0
  1 26  1  0  0  0
  1 27  1  0  0  0
  1 28  1  0  0  0
  2  3  1  0  0  0
  3 13  1  0  0  0
  3  4  2  0  0  0
  4  5  1  0  0  0
  4 25  1  0  0  0
  5  6  2  0  0  0
  5 24  1  0  0  0
  6 12  1  0  0  0
  6  7  1  0  0  0
  7  8  2  0  0  0
  7  9  1  0  0  0
  9 10  2  0  0  0
  9 29  1  0  0  0
 10 11  1  0  0  0
 10 16  1  0  0  0
 11 12  1  0  0  0
 12 13  2  0  0  0
 13 14  1  0  0  0
 14 15  1  0  0  0
 15 30  1  0  0  0
 15 31  1  0  0  0
 15 32  1  0  0  0
 16 21  1  0  0  0
 16 17  2  0  0  0
 17 18  1  0  0  0
 17 33  1  0  0  0
 18 19  2  0  0  0
 18 34  1  0  0  0
 19 20  1  0  0  0
 19 23  1  0  0  0
 20 21  2  0  0  0
 20 22  1  0  0  0
 21 35  1  0  0  0
 22 36  1  0  0  0
 23 37  1  0  0  0
 24 38  1  0  0  0
 25 39  1  0  0  0
M  END
> <s_m_entry_id>
7238

> <s_m_entry_name>
ligand_docking-pose.380

> <s_m_Source_Path>
/home/csk/Desktop/cluster/DUD-E-result/aldr

> <s_m_Source_File>
ligand_docking-pose.sdf

> <i_m_Source_File_Index>
380

> <i_lp_mmshare_version>
53161

> <r_lp_tautomer_probability>
0.999999999999776

> <s_lp_Force_Field>
OPLS_2005

> <r_lp_Energy>
28.300254

> <b_lp_Chiralities_Consistent>
1

> <s_lp_Variant>
490411-1

> <s_i_glide_gridfile>
glide-grid_2hv5

> <i_i_glide_lignum>
742

> <i_i_glide_rotatable_bonds>
7

> <r_i_docking_score>
-7.71403885202622

> <r_i_glide_ligand_efficiency>
-0.308561554081049

> <r_i_glide_ligand_efficiency_sa>
-0.90223945649545

> <r_i_glide_ligand_efficiency_ln>
-1.82845837902025

> <r_i_glide_gscore>
-7.71403885202622

> <r_i_glide_lipo>
-3.69403469179073

> <r_i_glide_hbond>
0

> <r_i_glide_metal>
0

> <r_i_glide_rewards>
-1.92303459090909

> <r_i_glide_evdw>
-36.0940055847168

> <r_i_glide_ecoul>
-3.00533199310303

> <r_i_glide_erotb>
0.158530508874896

> <r_i_glide_esite>
0

> <r_i_glide_emodel>
-47.9906402065059

> <r_i_glide_energy>
-39.0993375778198

> <r_i_glide_einternal>
8.63706970214844

> <i_i_glide_confnum>
2

> <i_i_glide_posenum>
30

> <r_i_glide_eff_state_penalty>
0

> <i_f3d_flags>
0

> <s_user_duplicate_titles>
490411

> <s_m_subgroup_title>
dock_pv

> <s_m_subgroupid>
dock_pv1

> <b_m_subgroup_collapsed>
0

$$$$
219424
                    3D
 Schrodinger Suite 2021-1.
 37 40  0  0  1  0            999 V2000
   17.6253   -4.6010   11.0579 C   0  0  0  0  0  0
   18.3188   -5.4356   11.9159 C   0  0  0  0  0  0
   17.7247   -6.4532   12.6321 C   0  0  0  0  0  0
   16.3400   -6.4986   12.6086 C   0  0  0  0  0  0
   15.5877   -5.6710   11.7691 C   0  0  0  0  0  0
   16.2525   -4.7400   10.9641 C   0  0  0  0  0  0
   15.3450   -3.5758    9.7816 Br  0  0  0  0  0  0
   15.7452   -7.3171   13.4608 F   0  0  0  0  0  0
   18.6242   -7.4639   13.3810 C   0  0  0  0  0  0
   18.0107   -8.3647   14.4114 N   0  0  0  0  0  0
   18.2339   -9.7140   14.2509 C   0  0  0  0  0  0
   18.9279  -10.1830   13.3476 O   0  0  0  0  0  0
   17.5533  -10.5386   15.2276 C   0  0  0  0  0  0
   17.5094  -11.9240   15.3199 C   0  0  0  0  0  0
   16.6888  -12.2654   16.3840 C   0  0  0  0  0  0
   16.2468  -11.0891   16.9552 C   0  0  0  0  0  0
   16.8290  -10.0129   16.2857 N   0  0  0  0  0  0
   16.7023   -8.5564   16.5346 C   0  0  2  0  0  0
   17.5272   -7.7084   15.5124 C   0  0  0  0  0  0
   17.7447   -6.5153   15.7175 O   0  0  0  0  0  0
   17.0817   -8.0970   17.9257 C   0  0  0  0  0  0
   16.0409   -7.0605   18.3115 C   0  0  0  0  0  0
   16.1178   -6.2650   19.2446 O   0  0  0  0  0  0
   15.0241   -7.2046   17.4443 N   0  0  0  0  0  0
   15.2283   -8.1484   16.5065 C   0  0  0  0  0  0
   14.3754   -8.6345   15.7810 O   0  0  0  0  0  0
   15.1242  -10.9180   18.2541 Cl  0  0  0  0  0  0
   18.1424   -3.8426   10.4894 H   0  0  0  0  0  0
   19.3448   -5.3149   12.0508 H   0  0  0  0  0  0
   14.5094   -5.7304   11.7590 H   0  0  0  0  0  0
   19.1010   -8.0409   12.5911 H   0  0  0  0  0  0
   19.4472   -6.9206   13.8512 H   0  0  0  0  0  0
   17.9988  -12.6163   14.6482 H   0  0  0  0  0  0
   16.4183  -13.2660   16.6905 H   0  0  0  0  0  0
   16.9449   -8.9325   18.5812 H   0  0  0  0  0  0
   18.0954   -7.7088   18.0528 H   0  0  0  0  0  0
   14.1461   -6.7208   17.5479 H   0  0  0  0  0  0
  1  6  1  0  0  0
  1  2  2  0  0  0
  1 28  1  0  0  0
  2  3  1  0  0  0
  2 29  1  0  0  0
  3  4  2  0  0  0
  3  9  1  0  0  0
  4  5  1  0  0  0
  4  8  1  0  0  0
  5  6  2  0  0  0
  5 30  1  0  0  0
  6  7  1  0  0  0
  9 10  1  0  0  0
  9 31  1  0  0  0
  9 32  1  0  0  0
 10 19  1  0  0  0
 10 11  1  0  0  0
 11 12  2  0  0  0
 11 13  1  0  0  0
 13 17  1  0  0  0
 13 14  2  0  0  0
 14 15  1  0  0  0
 14 33  1  0  0  0
 15 16  2  0  0  0
 15 34  1  0  0  0
 16 17  1  0  0  0
 16 27  1  0  0  0
 17 18  1  0  0  0
 18 25  1  0  0  0
 18 19  1  0  0  0
 18 21  1  0  0  0
 19 20  2  0  0  0
 21 22  1  0  0  0
 21 35  1  0  0  0
 21 36  1  0  0  0
 22 23  2  0  0  0
 22 24  1  0  0  0
 24 25  1  0  0  0
 24 37  1  0  0  0
 25 26  2  0  0  0
M  END
> <s_m_entry_id>
7240

> <s_m_entry_name>
ligand_docking-pose.382

> <s_m_Source_Path>
/home/csk/Desktop/cluster/DUD-E-result/aldr

> <s_m_Source_File>
ligand_docking-pose.sdf

> <i_m_Source_File_Index>
382

> <i_lp_mmshare_version>
53161

> <r_lp_tautomer_probability>
0.99995

> <s_lp_Force_Field>
OPLS_2005

> <r_lp_Energy>
34.000803

> <b_lp_Chiralities_Consistent>
1

> <s_lp_Variant>
219424-1

> <s_i_glide_gridfile>
glide-grid_2hv5

> <i_i_glide_lignum>
316

> <i_i_glide_rotatable_bonds>
2

> <r_i_docking_score>
-7.69812254371825

> <r_i_glide_ligand_efficiency>
-0.285115649767343

> <r_i_glide_ligand_efficiency_sa>
-0.855346948362333

> <r_i_glide_ligand_efficiency_ln>
-1.79199601470865

> <r_i_glide_gscore>
-7.69812254371825

> <r_i_glide_lipo>
-3.17643337082558

> <r_i_glide_hbond>
0

> <r_i_glide_metal>
0

> <r_i_glide_rewards>
-3.00931293409091

> <r_i_glide_evdw>
-33.959400177002

> <r_i_glide_ecoul>
-0.0582046918570995

> <r_i_glide_erotb>
0.194324473826908

> <r_i_glide_esite>
0

> <r_i_glide_emodel>
-34.2217570144353

> <r_i_glide_energy>
-34.0176048688591

> <r_i_glide_einternal>
3.83088350296021

> <i_i_glide_confnum>
1

> <i_i_glide_posenum>
231

> <r_i_glide_eff_state_penalty>
0

> <i_f3d_flags>
0

> <s_user_duplicate_titles>
219424

> <s_m_subgroup_title>
dock_pv

> <s_m_subgroupid>
dock_pv1

> <b_m_subgroup_collapsed>
0

$$$$
10559
                    3D
 Schrodinger Suite 2021-1.
 29 31  0  0  1  0            999 V2000
   17.8535  -12.5303   13.9062 C   0  0  0  0  0  0
   18.4439  -11.3242   13.5727 C   0  0  0  0  0  0
   18.1447  -10.1676   14.2851 C   0  0  0  0  0  0
   17.2237  -10.1609   15.3818 C   0  0  0  0  0  0
   16.6099  -11.4268   15.6899 C   0  0  0  0  0  0
   16.9449  -12.5909   14.9518 C   0  0  0  0  0  0
   15.6657  -11.5252   16.7328 C   0  0  0  0  0  0
   15.3579  -10.4219   17.5039 C   0  0  0  0  0  0
   15.9779   -9.2065   17.2653 C   0  0  0  0  0  0
   16.8770   -9.0006   16.1929 C   0  0  0  0  0  0
   17.4250   -7.5934   16.1163 C   0  0  0  0  0  0
   17.1630   -6.7217   17.1150 C   0  0  0  0  0  0
   16.3157   -7.0341   18.2485 C   0  0  0  0  0  0
   16.1182   -6.3300   19.2366 O   0  0  0  0  0  0
   15.6403   -8.2209   18.1807 O   0  0  0  0  0  0
   18.2119   -7.0503   14.9168 C   0  0  0  0  0  0
   17.3681   -6.9113   13.6411 C   0  0  0  0  0  0
   16.1472   -7.0425   13.5983 O   0  0  0  0  0  0
   18.1448   -6.5388   12.5869 O   0  0  0  0  0  0
   18.0954  -13.4222   13.3469 H   0  0  0  0  0  0
   19.1423  -11.2832   12.7491 H   0  0  0  0  0  0
   18.6476   -9.2923   13.9442 H   0  0  0  0  0  0
   16.4813  -13.5356   15.2000 H   0  0  0  0  0  0
   15.1947  -12.4751   16.9427 H   0  0  0  0  0  0
   14.6527  -10.5195   18.3173 H   0  0  0  0  0  0
   17.5488   -5.7170   17.0589 H   0  0  0  0  0  0
   19.1510   -7.5784   14.7821 H   0  0  0  0  0  0
   18.5454   -6.0340   15.1289 H   0  0  0  0  0  0
   19.0714   -6.4734   12.8228 H   0  0  0  0  0  0
  1  6  1  0  0  0
  1  2  2  0  0  0
  1 20  1  0  0  0
  2  3  1  0  0  0
  2 21  1  0  0  0
  3  4  2  0  0  0
  3 22  1  0  0  0
  4 10  1  0  0  0
  4  5  1  0  0  0
  5  6  2  0  0  0
  5  7  1  0  0  0
  6 23  1  0  0  0
  7  8  2  0  0  0
  7 24  1  0  0  0
  8  9  1  0  0  0
  8 25  1  0  0  0
  9 15  1  0  0  0
  9 10  2  0  0  0
 10 11  1  0  0  0
 11 12  2  0  0  0
 11 16  1  0  0  0
 12 13  1  0  0  0
 12 26  1  0  0  0
 13 14  2  0  0  0
 13 15  1  0  0  0
 16 17  1  0  0  0
 16 27  1  0  0  0
 16 28  1  0  0  0
 17 18  2  0  0  0
 17 19  1  0  0  0
 19 29  1  0  0  0
M  END
> <s_m_entry_id>
7241

> <s_m_entry_name>
ligand_docking-pose.383

> <s_m_Source_Path>
/home/csk/Desktop/cluster/DUD-E-result/aldr

> <s_m_Source_File>
ligand_docking-pose.sdf

> <i_m_Source_File_Index>
383

> <i_lp_mmshare_version>
53161

> <r_lp_tautomer_probability>
1

> <s_lp_Force_Field>
OPLS_2005

> <r_lp_Energy>
28.069602

> <b_lp_Chiralities_Consistent>
1

> <s_lp_Variant>
10559-1

> <s_i_glide_gridfile>
glide-grid_2hv5

> <i_i_glide_lignum>
130

> <i_i_glide_rotatable_bonds>
3

> <r_i_docking_score>
-7.69342498788656

> <r_i_glide_ligand_efficiency>
-0.404917104625609

> <r_i_glide_ligand_efficiency_sa>
-1.08048146851822

> <r_i_glide_ligand_efficiency_ln>
-1.95044847404697

> <r_i_glide_gscore>
-7.69342498788656

> <r_i_glide_lipo>
-2.935334681453

> <r_i_glide_hbond>
0

> <r_i_glide_metal>
0

> <r_i_glide_rewards>
-3.02565340909091

> <r_i_glide_evdw>
-31.4282684326172

> <r_i_glide_ecoul>
-2.88708639144897

> <r_i_glide_erotb>
0.272039483005549

> <r_i_glide_esite>
0

> <r_i_glide_emodel>
-50.2375121719816

> <r_i_glide_energy>
-34.3153548240662

> <r_i_glide_einternal>
0.0528218187391758

> <i_i_glide_confnum>
2

> <i_i_glide_posenum>
310

> <r_i_glide_eff_state_penalty>
0

> <i_f3d_flags>
0

> <s_user_duplicate_titles>
10559

> <s_m_subgroup_title>
dock_pv

> <s_m_subgroupid>
dock_pv1

> <b_m_subgroup_collapsed>
0

$$$$
625903
                    3D
 Schrodinger Suite 2021-1.
 44 46  0  0  1  0            999 V2000
   16.1779   -3.9514    9.8451 C   0  0  0  0  0  0
   17.4914   -4.3245   10.1187 C   0  0  0  0  0  0
   17.7449   -5.2728   11.1064 C   0  0  0  0  0  0
   16.6933   -5.8416   11.8301 C   0  0  0  0  0  0
   15.3790   -5.4611   11.5444 C   0  0  0  0  0  0
   15.1227   -4.5151   10.5570 C   0  0  0  0  0  0
   16.9607   -6.8464   12.8755 C   0  0  0  0  0  0
   17.7385   -7.9305   12.7179 C   0  0  0  0  0  0
   17.9448   -8.9096   13.7639 C   0  0  0  0  0  0
   18.5907   -9.9471   13.6262 O   0  0  0  0  0  0
   17.2588   -8.5562   15.0382 C   0  0  0  0  0  0
   17.2494   -9.3945   16.1561 C   0  0  0  0  0  0
   16.7318   -8.9384   17.3592 C   0  0  0  0  0  0
   16.2693   -7.6336   17.4956 C   0  0  0  0  0  0
   16.1496   -6.8436   16.3598 C   0  0  0  0  0  0
   16.6057   -7.3219   15.1408 C   0  0  0  0  0  0
   16.3849   -6.5149   14.0517 O   0  0  0  0  0  0
   15.9639   -7.1352   18.7359 O   0  0  0  0  0  0
   16.7559   -6.0677   19.1652 C   0  0  0  0  0  0
   16.1453   -5.3719   20.2160 O   0  0  0  0  0  0
   16.2000   -4.0080   20.1810 C   0  0  0  0  0  0
   16.5388   -3.3148   19.2211 O   0  0  0  0  0  0
   15.7430   -3.3465   21.4878 C   0  0  0  0  0  0
   16.1572   -4.0667   22.7906 C   0  0  0  0  0  0
   17.5845   -4.1150   22.9020 O   0  0  0  0  0  0
   18.0638   -4.6605   24.1369 N   0  3  0  0  0  0
   19.2618   -4.5621   24.2486 O   0  5  0  0  0  0
   17.2523   -5.1506   24.8920 O   0  0  0  0  0  0
   17.7453  -10.6680   16.1073 O   0  0  0  0  0  0
   15.9717   -3.2186    9.0780 H   0  0  0  0  0  0
   18.3073   -3.8845    9.5646 H   0  0  0  0  0  0
   18.7647   -5.5568   11.3216 H   0  0  0  0  0  0
   14.5530   -5.8864   12.0971 H   0  0  0  0  0  0
   14.1070   -4.2172   10.3459 H   0  0  0  0  0  0
   18.1449   -8.1149   11.7509 H   0  0  0  0  0  0
   16.7510   -9.6089   18.1896 H   0  0  0  0  0  0
   15.7449   -5.8493   16.4298 H   0  0  0  0  0  0
   17.0467   -5.4305   18.3255 H   0  0  0  0  0  0
   17.6639   -6.5147   19.5700 H   0  0  0  0  0  0
   14.6581   -3.2598   21.4548 H   0  0  0  0  0  0
   16.1182   -2.3225   21.5053 H   0  0  0  0  0  0
   15.7451   -5.0758   22.8327 H   0  0  0  0  0  0
   15.7305   -3.5183   23.6348 H   0  0  0  0  0  0
   18.1065  -10.8338   15.2262 H   0  0  0  0  0  0
  1  6  1  0  0  0
  1  2  2  0  0  0
  1 30  1  0  0  0
  2  3  1  0  0  0
  2 31  1  0  0  0
  3  4  2  0  0  0
  3 32  1  0  0  0
  4  5  1  0  0  0
  4  7  1  0  0  0
  5  6  2  0  0  0
  5 33  1  0  0  0
  6 34  1  0  0  0
  7 17  1  0  0  0
  7  8  2  0  0  0
  8  9  1  0  0  0
  8 35  1  0  0  0
  9 10  2  0  0  0
  9 11  1  0  0  0
 11 16  2  0  0  0
 11 12  1  0  0  0
 12 13  2  0  0  0
 12 29  1  0  0  0
 13 14  1  0  0  0
 13 36  1  0  0  0
 14 15  2  0  0  0
 14 18  1  0  0  0
 15 16  1  0  0  0
 15 37  1  0  0  0
 16 17  1  0  0  0
 18 19  1  0  0  0
 19 20  1  0  0  0
 19 38  1  0  0  0
 19 39  1  0  0  0
 20 21  1  0  0  0
 21 22  2  0  0  0
 21 23  1  0  0  0
 23 24  1  0  0  0
 23 40  1  0  0  0
 23 41  1  0  0  0
 24 25  1  0  0  0
 24 42  1  0  0  0
 24 43  1  0  0  0
 25 26  1  0  0  0
 26 27  1  0  0  0
 26 28  2  0  0  0
 29 44  1  0  0  0
M  CHG  2  26   1  27  -1
M  END
> <s_m_entry_id>
7250

> <s_m_entry_name>
ligand_docking-pose.392

> <s_m_Source_Path>
/home/csk/Desktop/cluster/DUD-E-result/aldr

> <s_m_Source_File>
ligand_docking-pose.sdf

> <i_m_Source_File_Index>
392

> <i_lp_mmshare_version>
53161

> <r_lp_tautomer_probability>
1

> <s_lp_Force_Field>
OPLS_2005

> <r_lp_Energy>
24.871415

> <b_lp_Chiralities_Consistent>
1

> <s_lp_Variant>
625903-1

> <s_i_glide_gridfile>
glide-grid_2hv5

> <i_i_glide_lignum>
333

> <i_i_glide_rotatable_bonds>
10

> <r_i_docking_score>
-7.64106234962564

> <r_i_glide_ligand_efficiency>
-0.263484908607781

> <r_i_glide_ligand_efficiency_sa>
-0.809509117121363

> <r_i_glide_ligand_efficiency_ln>
-1.74960951744121

> <r_i_glide_gscore>
-7.64106234962564

> <r_i_glide_lipo>
-4.39410719887784

> <r_i_glide_hbond>
-0.27218671453031

> <r_i_glide_metal>
0

> <r_i_glide_rewards>
-0.893249713337113

> <r_i_glide_evdw>
-53.8890342712402

> <r_i_glide_ecoul>
-2.40837049484253

> <r_i_glide_erotb>
0.97418856490801

> <r_i_glide_esite>
0

> <r_i_glide_emodel>
-65.19362588281

> <r_i_glide_energy>
-56.2974047660828

> <r_i_glide_einternal>
21.6780757904053

> <i_i_glide_confnum>
42

> <i_i_glide_posenum>
36

> <r_i_glide_eff_state_penalty>
0

> <i_f3d_flags>
0

> <s_user_duplicate_titles>
625903

> <s_m_subgroup_title>
dock_pv

> <s_m_subgroupid>
dock_pv1

> <b_m_subgroup_collapsed>
0

$$$$
45534
                    3D
 Schrodinger Suite 2021-1.
 27 28  0  0  1  0            999 V2000
   19.0572   -7.4522   13.3958 C   0  0  0  0  0  0
   18.3336   -8.2726   14.3662 N   0  0  0  0  0  0
   18.2148   -9.6575   14.3535 C   0  0  0  0  0  0
   18.7171  -10.5777   13.4294 C   0  0  0  0  0  0
   18.4742  -11.9395   13.6256 C   0  0  0  0  0  0
   17.7498  -12.3684   14.7411 C   0  0  0  0  0  0
   17.2717  -11.4405   15.6677 C   0  0  0  0  0  0
   17.5052  -10.0758   15.4671 C   0  0  0  0  0  0
   17.1517   -8.8656   16.2914 C   0  0  1  0  0  0
   17.7452   -7.7148   15.4488 C   0  0  0  0  0  0
   17.6985   -6.5212   15.7411 O   0  0  0  0  0  0
   15.6243   -8.6927   16.6131 C   0  0  1  0  0  0
   15.0804   -9.8571   17.3340 C   0  0  0  0  0  0
   14.6558  -10.7688   17.9060 N   0  0  0  0  0  0
   15.2377   -7.3765   17.3087 C   0  0  0  0  0  0
   14.5497   -6.5218   16.7560 O   0  0  0  0  0  0
   15.7457   -7.2704   18.5745 O   0  0  0  0  0  0
   17.5238  -13.6880   14.9317 F   0  0  0  0  0  0
   18.3917   -7.1700   12.5798 H   0  0  0  0  0  0
   19.4484   -6.5386   13.8446 H   0  0  0  0  0  0
   19.9052   -7.9979   12.9827 H   0  0  0  0  0  0
   19.3084  -10.2635   12.5815 H   0  0  0  0  0  0
   18.8543  -12.6656   12.9211 H   0  0  0  0  0  0
   16.7373  -11.8048   16.5303 H   0  0  0  0  0  0
   17.7206   -8.8924   17.2220 H   0  0  0  0  0  0
   15.0881   -8.6958   15.6632 H   0  0  0  0  0  0
   16.2595   -8.0302   18.8579 H   0  0  0  0  0  0
  1  2  1  0  0  0
  1 19  1  0  0  0
  1 20  1  0  0  0
  1 21  1  0  0  0
  2 10  1  0  0  0
  2  3  1  0  0  0
  3  8  2  0  0  0
  3  4  1  0  0  0
  4  5  2  0  0  0
  4 22  1  0  0  0
  5  6  1  0  0  0
  5 23  1  0  0  0
  6  7  2  0  0  0
  6 18  1  0  0  0
  7  8  1  0  0  0
  7 24  1  0  0  0
  8  9  1  0  0  0
  9 10  1  0  0  0
  9 12  1  0  0  0
  9 25  1  0  0  0
 10 11  2  0  0  0
 12 13  1  0  0  0
 12 15  1  0  0  0
 12 26  1  0  0  0
 13 14  3  0  0  0
 15 16  2  0  0  0
 15 17  1  0  0  0
 17 27  1  0  0  0
M  END
> <s_m_entry_id>
7254

> <s_m_entry_name>
ligand_docking-pose.396

> <s_m_Source_Path>
/home/csk/Desktop/cluster/DUD-E-result/aldr

> <s_m_Source_File>
ligand_docking-pose.sdf

> <i_m_Source_File_Index>
396

> <i_lp_mmshare_version>
53161

> <r_lp_tautomer_probability>
1

> <s_lp_Force_Field>
OPLS_2005

> <r_lp_Energy>
28.282561

> <b_lp_Chiralities_Consistent>
1

> <s_lp_Variant>
45534-3

> <s_i_glide_gridfile>
glide-grid_2hv5

> <i_i_glide_lignum>
638

> <i_i_glide_rotatable_bonds>
3

> <r_i_docking_score>
-7.63201579485737

> <r_i_glide_ligand_efficiency>
-0.424000877492076

> <r_i_glide_ligand_efficiency_sa>
-1.11119664975379

> <r_i_glide_ligand_efficiency_ln>
-1.96177030623536

> <r_i_glide_gscore>
-7.63201579485737

> <r_i_glide_lipo>
-1.79160277241944

> <r_i_glide_hbond>
-0.32

> <r_i_glide_metal>
0

> <r_i_glide_rewards>
-4.16180879720251

> <r_i_glide_evdw>
-24.0021457672119

> <r_i_glide_ecoul>
-4.83623647689819

> <r_i_glide_erotb>
0.566938534659909

> <r_i_glide_esite>
0

> <r_i_glide_emodel>
-40.0705122477128

> <r_i_glide_energy>
-28.8383822441101

> <r_i_glide_einternal>
2.46066379547119

> <i_i_glide_confnum>
5

> <i_i_glide_posenum>
196

> <r_i_glide_eff_state_penalty>
0

> <i_f3d_flags>
0

> <s_user_duplicate_titles>
45534

> <s_m_subgroup_title>
dock_pv

> <s_m_subgroupid>
dock_pv1

> <b_m_subgroup_collapsed>
0

$$$$
219148
                    3D
 Schrodinger Suite 2021-1.
 37 40  0  0  1  0            999 V2000
   17.6307   -4.6132   11.0438 C   0  0  0  0  0  0
   18.3210   -5.4419   11.9141 C   0  0  0  0  0  0
   17.7241   -6.4646   12.6218 C   0  0  0  0  0  0
   16.3415   -6.5149   12.5785 C   0  0  0  0  0  0
   15.5939   -5.7057   11.7168 C   0  0  0  0  0  0
   16.2603   -4.7691   10.9238 C   0  0  0  0  0  0
   15.3450   -3.6263    9.7255 Br  0  0  0  0  0  0
   15.7450   -7.3150   13.4437 F   0  0  0  0  0  0
   18.6113   -7.4825   13.3806 C   0  0  0  0  0  0
   17.9853   -8.3714   14.4168 N   0  0  0  0  0  0
   18.1708   -9.7265   14.2569 C   0  0  0  0  0  0
   18.8422  -10.2140   13.3477 O   0  0  0  0  0  0
   17.4765  -10.5322   15.2398 C   0  0  0  0  0  0
   17.3942  -11.9136   15.3408 C   0  0  0  0  0  0
   16.5711  -12.2413   16.4089 C   0  0  0  0  0  0
   16.1700  -11.0474   16.9758 C   0  0  0  0  0  0
   16.7717   -9.9887   16.2984 N   0  0  0  0  0  0
   16.6831   -8.5323   16.5463 C   0  0  2  0  0  0
   17.5144   -7.7044   15.5161 C   0  0  0  0  0  0
   17.7450   -6.5150   15.7151 O   0  0  0  0  0  0
   17.0824   -8.0860   17.9348 C   0  0  0  0  0  0
   16.0565   -7.0425   18.3409 C   0  0  0  0  0  0
   16.1450   -6.2646   19.2876 O   0  0  0  0  0  0
   15.0349   -7.1591   17.4749 N   0  0  0  0  0  0
   15.2218   -8.0904   16.5209 C   0  0  0  0  0  0
   14.3654   -8.5452   15.7810 O   0  0  0  0  0  0
   14.9437  -10.8218   18.4236 Br  0  0  0  0  0  0
   16.0624  -13.9872   16.9612 Br  0  0  0  0  0  0
   18.1476   -3.8489   10.4832 H   0  0  0  0  0  0
   19.3450   -5.3150   12.0673 H   0  0  0  0  0  0
   14.5166   -5.7785   11.6914 H   0  0  0  0  0  0
   19.0745   -8.0693   12.5870 H   0  0  0  0  0  0
   19.4436   -6.9489   13.8456 H   0  0  0  0  0  0
   17.8612  -12.6217   14.6703 H   0  0  0  0  0  0
   16.9451   -8.9276   18.5810 H   0  0  0  0  0  0
   18.1030   -7.7146   18.0540 H   0  0  0  0  0  0
   14.1653   -6.6621   17.5872 H   0  0  0  0  0  0
  1  6  1  0  0  0
  1  2  2  0  0  0
  1 29  1  0  0  0
  2  3  1  0  0  0
  2 30  1  0  0  0
  3  4  2  0  0  0
  3  9  1  0  0  0
  4  5  1  0  0  0
  4  8  1  0  0  0
  5  6  2  0  0  0
  5 31  1  0  0  0
  6  7  1  0  0  0
  9 10  1  0  0  0
  9 32  1  0  0  0
  9 33  1  0  0  0
 10 19  1  0  0  0
 10 11  1  0  0  0
 11 12  2  0  0  0
 11 13  1  0  0  0
 13 17  1  0  0  0
 13 14  2  0  0  0
 14 15  1  0  0  0
 14 34  1  0  0  0
 15 16  2  0  0  0
 15 28  1  0  0  0
 16 17  1  0  0  0
 16 27  1  0  0  0
 17 18  1  0  0  0
 18 25  1  0  0  0
 18 19  1  0  0  0
 18 21  1  0  0  0
 19 20  2  0  0  0
 21 22  1  0  0  0
 21 35  1  0  0  0
 21 36  1  0  0  0
 22 23  2  0  0  0
 22 24  1  0  0  0
 24 25  1  0  0  0
 24 37  1  0  0  0
 25 26  2  0  0  0
M  END
> <s_m_entry_id>
7256

> <s_m_entry_name>
ligand_docking-pose.398

> <s_m_Source_Path>
/home/csk/Desktop/cluster/DUD-E-result/aldr

> <s_m_Source_File>
ligand_docking-pose.sdf

> <i_m_Source_File_Index>
398

> <i_lp_mmshare_version>
53161

> <r_lp_tautomer_probability>
0.99995

> <s_lp_Force_Field>
OPLS_2005

> <r_lp_Energy>
33.379325

> <b_lp_Chiralities_Consistent>
1

> <s_lp_Variant>
219148-2

> <s_i_glide_gridfile>
glide-grid_2hv5

> <i_i_glide_lignum>
313

> <i_i_glide_rotatable_bonds>
2

> <r_i_docking_score>
-7.62674654836076

> <r_i_glide_ligand_efficiency>
-0.272383805298598

> <r_i_glide_ligand_efficiency_sa>
-0.827117658368543

> <r_i_glide_ligand_efficiency_ln>
-1.76047703437073

> <r_i_glide_gscore>
-7.62674654836076

> <r_i_glide_lipo>
-3.2399200185195

> <r_i_glide_hbond>
0

> <r_i_glide_metal>
0

> <r_i_glide_rewards>
-2.7

> <r_i_glide_evdw>
-34.9623489379883

> <r_i_glide_ecoul>
0.225053086876869

> <r_i_glide_erotb>
0.0275329540266262

> <r_i_glide_esite>
0

> <r_i_glide_emodel>
-34.4498179526061

> <r_i_glide_energy>
-34.7372958511114

> <r_i_glide_einternal>
1.94591534137726

> <i_i_glide_confnum>
2

> <i_i_glide_posenum>
162

> <r_i_glide_eff_state_penalty>
0

> <i_f3d_flags>
0

> <s_user_duplicate_titles>
219148

> <s_m_subgroup_title>
dock_pv

> <s_m_subgroupid>
dock_pv1

> <b_m_subgroup_collapsed>
0

$$$$
128134
                    3D
 Schrodinger Suite 2021-1.
 31 34  0  0  1  0            999 V2000
   16.2761  -12.1155   16.4646 C   0  0  0  0  0  0
   15.4733  -11.4681   17.3297 C   0  0  0  0  0  0
   15.3417  -10.0238   17.3795 C   0  0  0  0  0  0
   14.5650   -9.5074   18.1802 O   0  0  0  0  0  0
   16.1319   -9.3327   16.4899 N   0  0  0  0  0  0
   16.9942   -9.9571   15.5174 C   0  0  0  0  0  0
   17.0834  -11.3654   15.4986 C   0  0  0  0  0  0
   17.8945  -12.0255   14.5802 C   0  0  0  0  0  0
   18.6370  -11.2871   13.6689 C   0  0  0  0  0  0
   18.5610   -9.8975   13.6767 C   0  0  0  0  0  0
   17.7449   -9.2010   14.5836 C   0  0  0  0  0  0
   17.5930   -7.6665   14.5719 C   0  0  1  0  0  0
   17.2693   -7.1970   16.0100 C   0  0  0  0  0  0
   15.9771   -7.8565   16.5208 C   0  0  0  0  0  0
   18.8197   -6.9084   14.0637 C   0  0  0  0  0  0
   19.9299   -6.8522   14.5810 O   0  0  0  0  0  0
   18.4137   -6.2350   12.9809 N   0  0  0  0  0  0
   17.1443   -6.4686   12.6137 C   0  0  0  0  0  0
   16.6095   -6.1603   11.5550 O   0  0  0  0  0  0
   16.6343   -7.2194   13.5928 N   0  0  0  0  0  0
   19.6554  -12.0924   12.5331 Cl  0  0  0  0  0  0
   16.3153  -13.1962   16.4793 H   0  0  0  0  0  0
   14.8706  -12.0343   18.0259 H   0  0  0  0  0  0
   17.9509  -13.1045   14.5687 H   0  0  0  0  0  0
   19.1594   -9.3506   12.9664 H   0  0  0  0  0  0
   18.0809   -7.4526   16.6966 H   0  0  0  0  0  0
   17.1563   -6.1151   16.0647 H   0  0  0  0  0  0
   15.1268   -7.5954   15.8892 H   0  0  0  0  0  0
   15.7547   -7.4879   17.5250 H   0  0  0  0  0  0
   19.0214   -5.6258   12.4604 H   0  0  0  0  0  0
   15.6472   -7.2291   13.7914 H   0  0  0  0  0  0
  1  7  1  0  0  0
  1  2  2  0  0  0
  1 22  1  0  0  0
  2  3  1  0  0  0
  2 23  1  0  0  0
  3  4  2  0  0  0
  3  5  1  0  0  0
  5 14  1  0  0  0
  5  6  1  0  0  0
  6 11  1  0  0  0
  6  7  2  0  0  0
  7  8  1  0  0  0
  8  9  2  0  0  0
  8 24  1  0  0  0
  9 10  1  0  0  0
  9 21  1  0  0  0
 10 11  2  0  0  0
 10 25  1  0  0  0
 11 12  1  0  0  0
 12 20  1  0  0  0
 12 13  1  0  0  0
 12 15  1  0  0  0
 13 14  1  0  0  0
 13 26  1  0  0  0
 13 27  1  0  0  0
 14 28  1  0  0  0
 14 29  1  0  0  0
 15 16  2  0  0  0
 15 17  1  0  0  0
 17 18  1  0  0  0
 17 30  1  0  0  0
 18 19  2  0  0  0
 18 20  1  0  0  0
 20 31  1  0  0  0
M  END
> <s_m_entry_id>
7258

> <s_m_entry_name>
ligand_docking-pose.400

> <s_m_Source_Path>
/home/csk/Desktop/cluster/DUD-E-result/aldr

> <s_m_Source_File>
ligand_docking-pose.sdf

> <i_m_Source_File_Index>
400

> <i_lp_mmshare_version>
53161

> <r_lp_tautomer_probability>
0.99999999978137

> <s_lp_Force_Field>
OPLS_2005

> <r_lp_Energy>
47.297584

> <b_lp_Chiralities_Consistent>
1

> <s_lp_Variant>
128134-2

> <s_i_glide_gridfile>
glide-grid_2hv5

> <i_i_glide_lignum>
458

> <i_i_glide_rotatable_bonds>
0

> <r_i_docking_score>
-7.61753330391179

> <r_i_glide_ligand_efficiency>
-0.362739681138657

> <r_i_glide_ligand_efficiency_sa>
-1.0007712750106

> <r_i_glide_ligand_efficiency_ln>
-1.8834197167168

> <r_i_glide_gscore>
-7.61753330391179

> <r_i_glide_lipo>
-2.55081508024188

> <r_i_glide_hbond>
0

> <r_i_glide_metal>
0

> <r_i_glide_rewards>
-3.46831341085711

> <r_i_glide_evdw>
-37.2986640930176

> <r_i_glide_ecoul>
1.77685594558716

> <r_i_glide_erotb>
0

> <r_i_glide_esite>
0

> <r_i_glide_emodel>
-50.0725663274135

> <r_i_glide_energy>
-35.5218081474304

> <r_i_glide_einternal>
0

> <i_i_glide_confnum>
1

> <i_i_glide_posenum>
286

> <r_i_glide_eff_state_penalty>
0

> <i_f3d_flags>
0

> <s_user_duplicate_titles>
128134

> <s_m_subgroup_title>
dock_pv

> <s_m_subgroupid>
dock_pv1

> <b_m_subgroup_collapsed>
0

$$$$
273049
                    3D
 Schrodinger Suite 2021-1.
 39 41  0  0  1  0            999 V2000
   19.1795  -11.1478   13.7042 C   0  0  0  0  0  0
   17.8488  -11.6410   13.7668 O   0  0  0  0  0  0
   17.2042  -11.5128   14.9794 C   0  0  0  0  0  0
   16.8997  -12.6579   15.7099 C   0  0  0  0  0  0
   16.1675  -12.5724   16.8868 C   0  0  0  0  0  0
   15.6983  -11.3445   17.3388 C   0  0  0  0  0  0
   15.9811  -10.1676   16.6233 C   0  0  0  0  0  0
   16.7481  -10.2755   15.4504 C   0  0  0  0  0  0
   17.0607   -9.1742   14.6804 O   0  0  0  0  0  0
   16.5182   -7.9711   14.9874 C   0  0  0  0  0  0
   15.7836   -7.7409   16.0932 C   0  0  0  0  0  0
   15.4824   -8.8192   17.0507 C   0  0  0  0  0  0
   14.8721   -8.6706   18.1081 O   0  0  0  0  0  0
   15.2748   -6.5149   16.3643 O   0  0  0  0  0  0
   15.9594   -5.7828   17.3806 C   0  0  0  0  0  0
   16.9157   -6.9928   13.9628 C   0  0  0  0  0  0
   18.2612   -6.6460   13.9181 C   0  0  0  0  0  0
   18.7186   -5.7795   12.9411 C   0  0  0  0  0  0
   17.8788   -5.3136   11.9323 C   0  0  0  0  0  0
   16.5258   -5.6430   11.9672 C   0  0  0  0  0  0
   16.0465   -6.4377   13.0061 C   0  0  0  0  0  0
   15.6604   -5.1446   11.0217 O   0  0  0  0  0  0
   18.3668   -4.4951   10.9468 O   0  0  0  0  0  0
   14.9451  -11.3375   18.4823 O   0  0  0  0  0  0
   17.3135  -13.8767   15.2559 O   0  0  0  0  0  0
   19.4760  -11.0580   12.6592 H   0  0  0  0  0  0
   19.3048  -10.1675   14.1668 H   0  0  0  0  0  0
   19.8624  -11.8530   14.1802 H   0  0  0  0  0  0
   15.9355  -13.4725   17.4370 H   0  0  0  0  0  0
   15.6033   -4.7534   17.3805 H   0  0  0  0  0  0
   15.7801   -6.1955   18.3742 H   0  0  0  0  0  0
   17.0364   -5.7530   17.2067 H   0  0  0  0  0  0
   18.9555   -7.0309   14.6519 H   0  0  0  0  0  0
   19.7451   -5.4897   12.9809 H   0  0  0  0  0  0
   14.9787   -6.5150   13.0718 H   0  0  0  0  0  0
   14.7355   -5.3279   11.2043 H   0  0  0  0  0  0
   17.6468   -4.2117   10.3753 H   0  0  0  0  0  0
   14.6698  -10.4364   18.6912 H   0  0  0  0  0  0
   17.7500  -13.7713   14.4070 H   0  0  0  0  0  0
  1  2  1  0  0  0
  1 26  1  0  0  0
  1 27  1  0  0  0
  1 28  1  0  0  0
  2  3  1  0  0  0
  3  8  1  0  0  0
  3  4  2  0  0  0
  4  5  1  0  0  0
  4 25  1  0  0  0
  5  6  2  0  0  0
  5 29  1  0  0  0
  6  7  1  0  0  0
  6 24  1  0  0  0
  7 12  1  0  0  0
  7  8  2  0  0  0
  8  9  1  0  0  0
  9 10  1  0  0  0
 10 11  2  0  0  0
 10 16  1  0  0  0
 11 12  1  0  0  0
 11 14  1  0  0  0
 12 13  2  0  0  0
 14 15  1  0  0  0
 15 30  1  0  0  0
 15 31  1  0  0  0
 15 32  1  0  0  0
 16 21  1  0  0  0
 16 17  2  0  0  0
 17 18  1  0  0  0
 17 33  1  0  0  0
 18 19  2  0  0  0
 18 34  1  0  0  0
 19 20  1  0  0  0
 19 23  1  0  0  0
 20 21  2  0  0  0
 20 22  1  0  0  0
 21 35  1  0  0  0
 22 36  1  0  0  0
 23 37  1  0  0  0
 24 38  1  0  0  0
 25 39  1  0  0  0
M  END
> <s_m_entry_id>
7259

> <s_m_entry_name>
ligand_docking-pose.401

> <s_m_Source_Path>
/home/csk/Desktop/cluster/DUD-E-result/aldr

> <s_m_Source_File>
ligand_docking-pose.sdf

> <i_m_Source_File_Index>
401

> <i_lp_mmshare_version>
53161

> <r_lp_tautomer_probability>
0.999999999999776

> <s_lp_Force_Field>
OPLS_2005

> <r_lp_Energy>
27.300073

> <b_lp_Chiralities_Consistent>
1

> <s_lp_Variant>
273049-1

> <s_i_glide_gridfile>
glide-grid_2hv5

> <i_i_glide_lignum>
755

> <i_i_glide_rotatable_bonds>
7

> <r_i_docking_score>
-7.60805922455451

> <r_i_glide_ligand_efficiency>
-0.30432236898218

> <r_i_glide_ligand_efficiency_sa>
-0.88984400408409

> <r_i_glide_ligand_efficiency_ln>
-1.8033380313563

> <r_i_glide_gscore>
-7.60805922455451

> <r_i_glide_lipo>
-3.64357125855724

> <r_i_glide_hbond>
-0.298016930685484

> <r_i_glide_metal>
0

> <r_i_glide_rewards>
-1.84803459090909

> <r_i_glide_evdw>
-31.2796745300293

> <r_i_glide_ecoul>
-2.75322151184082

> <r_i_glide_erotb>
0.158530508874896

> <r_i_glide_esite>
0

> <r_i_glide_emodel>
-44.1743669898958

> <r_i_glide_energy>
-34.0328960418701

> <r_i_glide_einternal>
5.39507293701172

> <i_i_glide_confnum>
4

> <i_i_glide_posenum>
66

> <r_i_glide_eff_state_penalty>
0

> <i_f3d_flags>
0

> <s_user_duplicate_titles>
273049

> <s_m_subgroup_title>
dock_pv

> <s_m_subgroupid>
dock_pv1

> <b_m_subgroup_collapsed>
0

$$$$
490587
                    3D
 Schrodinger Suite 2021-1.
 35 37  0  0  1  0            999 V2000
   14.2232  -11.3547   18.5916 C   0  0  0  0  0  0
   14.5543  -10.0551   18.1017 O   0  0  0  0  0  0
   15.5450   -9.9633   17.1412 C   0  0  0  0  0  0
   16.4313  -11.0140   16.8774 C   0  0  0  0  0  0
   17.3632  -10.9327   15.8590 C   0  0  0  0  0  0
   17.4519   -9.7748   15.0742 C   0  0  0  0  0  0
   18.3820   -9.6918   13.9114 C   0  0  0  0  0  0
   19.1748  -10.5855   13.6177 O   0  0  0  0  0  0
   18.1974   -8.5139   13.1129 C   0  0  0  0  0  0
   17.3313   -7.5327   13.4255 C   0  0  0  0  0  0
   16.5916   -7.5414   14.5728 O   0  0  0  0  0  0
   16.5955   -8.6914   15.3610 C   0  0  0  0  0  0
   15.6474   -8.7831   16.3922 C   0  0  0  0  0  0
   14.7835   -7.7435   16.6531 O   0  0  0  0  0  0
   17.0539   -6.3806   12.5278 C   0  0  0  0  0  0
   15.7392   -6.1147   12.1416 C   0  0  0  0  0  0
   15.4326   -5.1724   11.1632 C   0  0  0  0  0  0
   16.4516   -4.4291   10.5803 C   0  0  0  0  0  0
   17.7747   -4.6368   10.9806 C   0  0  0  0  0  0
   18.0707   -5.6115   11.9447 C   0  0  0  0  0  0
   18.7755   -3.8959   10.4047 O   0  0  0  0  0  0
   16.1361   -3.4886    9.6311 O   0  0  0  0  0  0
   18.1436  -12.0380   15.6378 O   0  0  0  0  0  0
   13.3450  -11.3151   19.2218 H   0  0  0  0  0  0
   13.9989  -12.0493   17.7803 H   0  0  0  0  0  0
   15.0235  -11.7677   19.2053 H   0  0  0  0  0  0
   16.3896  -11.9367   17.4337 H   0  0  0  0  0  0
   18.7204   -8.5146   12.1810 H   0  0  0  0  0  0
   14.1615   -7.9718   17.3514 H   0  0  0  0  0  0
   14.9450   -6.6838   12.5713 H   0  0  0  0  0  0
   14.4050   -5.0103   10.8696 H   0  0  0  0  0  0
   19.0960   -5.7895   12.2271 H   0  0  0  0  0  0
   18.4496   -3.4489    9.6201 H   0  0  0  0  0  0
   16.3179   -2.5902    9.9173 H   0  0  0  0  0  0
   18.7214  -11.8955   14.8775 H   0  0  0  0  0  0
  1  2  1  0  0  0
  1 24  1  0  0  0
  1 25  1  0  0  0
  1 26  1  0  0  0
  2  3  1  0  0  0
  3 13  1  0  0  0
  3  4  2  0  0  0
  4  5  1  0  0  0
  4 27  1  0  0  0
  5  6  2  0  0  0
  5 23  1  0  0  0
  6 12  1  0  0  0
  6  7  1  0  0  0
  7  8  2  0  0  0
  7  9  1  0  0  0
  9 10  2  0  0  0
  9 28  1  0  0  0
 10 11  1  0  0  0
 10 15  1  0  0  0
 11 12  1  0  0  0
 12 13  2  0  0  0
 13 14  1  0  0  0
 14 29  1  0  0  0
 15 20  1  0  0  0
 15 16  2  0  0  0
 16 17  1  0  0  0
 16 30  1  0  0  0
 17 18  2  0  0  0
 17 31  1  0  0  0
 18 19  1  0  0  0
 18 22  1  0  0  0
 19 20  2  0  0  0
 19 21  1  0  0  0
 20 32  1  0  0  0
 21 33  1  0  0  0
 22 34  1  0  0  0
 23 35  1  0  0  0
M  END
> <s_m_entry_id>
7260

> <s_m_entry_name>
ligand_docking-pose.402

> <s_m_Source_Path>
/home/csk/Desktop/cluster/DUD-E-result/aldr

> <s_m_Source_File>
ligand_docking-pose.sdf

> <i_m_Source_File_Index>
402

> <i_lp_mmshare_version>
53161

> <r_lp_tautomer_probability>
0.999999999999776

> <s_lp_Force_Field>
OPLS_2005

> <r_lp_Energy>
17.160596

> <b_lp_Chiralities_Consistent>
1

> <s_lp_Variant>
490587-1

> <s_i_glide_gridfile>
glide-grid_2hv5

> <i_i_glide_lignum>
739

> <i_i_glide_rotatable_bonds>
6

> <r_i_docking_score>
-7.60266290298278

> <r_i_glide_ligand_efficiency>
-0.330550560999251

> <r_i_glide_ligand_efficiency_sa>
-0.940041824614683

> <r_i_glide_ligand_efficiency_ln>
-1.83839282707705

> <r_i_glide_gscore>
-7.60266290298278

> <r_i_glide_lipo>
-3.75367354498918

> <r_i_glide_hbond>
0

> <r_i_glide_metal>
0

> <r_i_glide_rewards>
-2.13609051515151

> <r_i_glide_evdw>
-35.404483795166

> <r_i_glide_ecoul>
-0.858512699604034

> <r_i_glide_erotb>
0.186102251856818

> <r_i_glide_esite>
0

> <r_i_glide_emodel>
-45.143930318721

> <r_i_glide_energy>
-36.2629964947701

> <r_i_glide_einternal>
5.31510400772095

> <i_i_glide_confnum>
3

> <i_i_glide_posenum>
10

> <r_i_glide_eff_state_penalty>
0

> <i_f3d_flags>
0

> <s_user_duplicate_titles>
490587

> <s_m_subgroup_title>
dock_pv

> <s_m_subgroupid>
dock_pv1

> <b_m_subgroup_collapsed>
0

$$$$
98813
                    3D
 Schrodinger Suite 2021-1.
 39 42  0  0  1  0            999 V2000
   16.0933  -12.6009   16.7417 C   0  0  0  0  0  0
   16.8462  -11.9565   15.7633 C   0  0  0  0  0  0
   17.0133  -10.5623   15.7951 C   0  0  0  0  0  0
   16.4598   -9.8064   16.8391 C   0  0  0  0  0  0
   15.6604  -10.4755   17.7810 C   0  0  0  0  0  0
   15.4885  -11.8561   17.7478 C   0  0  0  0  0  0
   14.5450  -12.6346   18.9644 Cl  0  0  0  0  0  0
   16.6772   -8.2823   16.8586 C   0  0  2  0  0  0
   17.0972   -7.7150   18.2106 C   0  0  0  0  0  0
   16.1069   -6.6186   18.5383 C   0  0  0  0  0  0
   16.1594   -5.8444   19.4903 O   0  0  0  0  0  0
   15.1431   -6.6877   17.6092 N   0  0  0  0  0  0
   15.3220   -7.6278   16.6687 C   0  0  0  0  0  0
   14.5450   -7.9206   15.7810 O   0  0  0  0  0  0
   17.5816   -7.6965   15.7377 C   0  0  0  0  0  0
   17.9606   -6.5232   15.7754 O   0  0  0  0  0  0
   17.8440   -8.5404   14.6918 N   0  0  0  0  0  0
   17.7450   -9.9098   14.6398 C   0  0  0  0  0  0
   18.2038  -10.5751   13.7057 O   0  0  0  0  0  0
   18.4370   -7.8654   13.5077 C   0  0  0  0  0  0
   17.5865   -6.7880   12.8118 C   0  0  0  0  0  0
   16.2282   -6.9150   12.5810 C   0  0  0  0  0  0
   15.5421   -6.0325   11.7430 C   0  0  0  0  0  0
   16.2342   -4.9707   11.1614 C   0  0  0  0  0  0
   17.5646   -4.7480   11.5093 C   0  0  0  0  0  0
   18.1873   -5.6215   12.3993 C   0  0  0  0  0  0
   19.3450   -5.3150   12.9810 F   0  0  0  0  0  0
   15.3450   -3.7702    9.9874 Br  0  0  0  0  0  0
   15.9641  -13.6729   16.7065 H   0  0  0  0  0  0
   17.2745  -12.5515   14.9675 H   0  0  0  0  0  0
   15.1712   -9.9146   18.5649 H   0  0  0  0  0  0
   16.9450   -8.4524   18.9810 H   0  0  0  0  0  0
   18.1236   -7.3457   18.2777 H   0  0  0  0  0  0
   14.3157   -6.1150   17.6425 H   0  0  0  0  0  0
   18.6893   -8.5684   12.7128 H   0  0  0  0  0  0
   19.4062   -7.4578   13.8038 H   0  0  0  0  0  0
   15.7450   -7.7150   13.0716 H   0  0  0  0  0  0
   14.4887   -6.1667   11.5437 H   0  0  0  0  0  0
   18.0806   -3.8678   11.1581 H   0  0  0  0  0  0
  1  6  1  0  0  0
  1  2  2  0  0  0
  1 29  1  0  0  0
  2  3  1  0  0  0
  2 30  1  0  0  0
  3 18  1  0  0  0
  3  4  2  0  0  0
  4  5  1  0  0  0
  4  8  1  0  0  0
  5  6  2  0  0  0
  5 31  1  0  0  0
  6  7  1  0  0  0
  8 13  1  0  0  0
  8  9  1  0  0  0
  8 15  1  0  0  0
  9 10  1  0  0  0
  9 32  1  0  0  0
  9 33  1  0  0  0
 10 11  2  0  0  0
 10 12  1  0  0  0
 12 13  1  0  0  0
 12 34  1  0  0  0
 13 14  2  0  0  0
 15 16  2  0  0  0
 15 17  1  0  0  0
 17 18  1  0  0  0
 17 20  1  0  0  0
 18 19  2  0  0  0
 20 21  1  0  0  0
 20 35  1  0  0  0
 20 36  1  0  0  0
 21 26  1  0  0  0
 21 22  2  0  0  0
 22 23  1  0  0  0
 22 37  1  0  0  0
 23 24  2  0  0  0
 23 38  1  0  0  0
 24 25  1  0  0  0
 24 28  1  0  0  0
 25 26  2  0  0  0
 25 39  1  0  0  0
 26 27  1  0  0  0
M  END
> <s_m_entry_id>
7262

> <s_m_entry_name>
ligand_docking-pose.404

> <s_m_Source_Path>
/home/csk/Desktop/cluster/DUD-E-result/aldr

> <s_m_Source_File>
ligand_docking-pose.sdf

> <i_m_Source_File_Index>
404

> <i_lp_mmshare_version>
53161

> <r_lp_tautomer_probability>
0.99999999995914

> <s_lp_Force_Field>
OPLS_2005

> <r_lp_Energy>
32.410116

> <b_lp_Chiralities_Consistent>
1

> <s_lp_Variant>
98813-1

> <s_i_glide_gridfile>
glide-grid_2hv5

> <i_i_glide_lignum>
25

> <i_i_glide_rotatable_bonds>
2

> <r_i_docking_score>
-7.5717911260853

> <r_i_glide_ligand_efficiency>
-0.270421111645904

> <r_i_glide_ligand_efficiency_sa>
-0.821157764474219

> <r_i_glide_ligand_efficiency_ln>
-1.74779170934825

> <r_i_glide_gscore>
-7.5717911260853

> <r_i_glide_lipo>
-3.37766276991374

> <r_i_glide_hbond>
-0.0211814833700512

> <r_i_glide_metal>
0

> <r_i_glide_rewards>
-2.89732647611666

> <r_i_glide_evdw>
-32.0066070556641

> <r_i_glide_ecoul>
0.924549520015717

> <r_i_glide_erotb>
0.186027528095999

> <r_i_glide_esite>
0

> <r_i_glide_emodel>
-31.5065738234508

> <r_i_glide_energy>
-31.0820575356483

> <r_i_glide_einternal>
1.98960077762604

> <i_i_glide_confnum>
3

> <i_i_glide_posenum>
7

> <r_i_glide_eff_state_penalty>
0

> <i_f3d_flags>
0

> <s_user_duplicate_titles>
98813

> <s_m_subgroup_title>
dock_pv

> <s_m_subgroupid>
dock_pv1

> <b_m_subgroup_collapsed>
0

$$$$
104394
                    3D
 Schrodinger Suite 2021-1.
 34 35  0  0  1  0            999 V2000
   16.2692  -11.9768   16.8013 C   0  0  0  0  0  0
   17.4049  -11.7641   16.0303 C   0  0  0  0  0  0
   17.6227  -10.5234   15.4364 C   0  0  0  0  0  0
   16.7105   -9.4566   15.6004 C   0  0  0  0  0  0
   15.5693   -9.7136   16.3931 C   0  0  0  0  0  0
   15.3494  -10.9537   16.9847 C   0  0  0  0  0  0
   16.8709   -8.1496   14.9863 N   0  0  0  0  0  0
   16.0310   -7.0199   15.4910 C   0  0  0  0  0  0
   16.3778   -6.5789   16.9361 C   0  0  0  0  0  0
   15.7450   -5.7163   17.5003 O   0  0  0  0  0  0
   17.4619   -7.2075   17.4734 O   0  0  0  0  0  0
   17.7105   -7.8920   13.9220 C   0  0  0  0  0  0
   18.6996   -8.5642   13.6319 O   0  0  0  0  0  0
   17.3897   -6.7575   12.9660 C   0  0  0  0  0  0
   16.1329   -6.6415   12.3596 C   0  0  0  0  0  0
   15.8884   -5.6848   11.3781 C   0  0  0  0  0  0
   16.9081   -4.8154   10.9800 C   0  0  0  0  0  0
   18.1472   -4.9116   11.6109 C   0  0  0  0  0  0
   18.3913   -5.8661   12.5914 C   0  0  0  0  0  0
   16.6985   -3.8200    9.9021 N   0  3  0  0  0  0
   17.5626   -2.9671    9.7100 O   0  5  0  0  0  0
   15.6803   -3.8983    9.2277 O   0  0  0  0  0  0
   16.0990  -12.9421   17.2556 H   0  0  0  0  0  0
   18.1201  -12.5615   15.8900 H   0  0  0  0  0  0
   18.5379  -10.4411   14.8747 H   0  0  0  0  0  0
   14.8077   -8.9711   16.5666 H   0  0  0  0  0  0
   14.4622  -11.1216   17.5788 H   0  0  0  0  0  0
   16.1312   -6.1151   14.8990 H   0  0  0  0  0  0
   14.9738   -7.2732   15.4299 H   0  0  0  0  0  0
   17.6455   -6.8819   18.3566 H   0  0  0  0  0  0
   15.3451   -7.3379   12.5816 H   0  0  0  0  0  0
   14.9134   -5.6411   10.9123 H   0  0  0  0  0  0
   18.9449   -4.2452   11.3264 H   0  0  0  0  0  0
   19.3721   -5.9328   13.0389 H   0  0  0  0  0  0
  1  6  1  0  0  0
  1  2  2  0  0  0
  1 23  1  0  0  0
  2  3  1  0  0  0
  2 24  1  0  0  0
  3  4  2  0  0  0
  3 25  1  0  0  0
  4  5  1  0  0  0
  4  7  1  0  0  0
  5  6  2  0  0  0
  5 26  1  0  0  0
  6 27  1  0  0  0
  7  8  1  0  0  0
  7 12  1  0  0  0
  8  9  1  0  0  0
  8 28  1  0  0  0
  8 29  1  0  0  0
  9 10  2  0  0  0
  9 11  1  0  0  0
 11 30  1  0  0  0
 12 13  2  0  0  0
 12 14  1  0  0  0
 14 19  1  0  0  0
 14 15  2  0  0  0
 15 16  1  0  0  0
 15 31  1  0  0  0
 16 17  2  0  0  0
 16 32  1  0  0  0
 17 18  1  0  0  0
 17 20  1  0  0  0
 18 19  2  0  0  0
 18 33  1  0  0  0
 19 34  1  0  0  0
 20 21  1  0  0  0
 20 22  2  0  0  0
M  CHG  2  20   1  21  -1
M  END
> <s_m_entry_id>
7263

> <s_m_entry_name>
ligand_docking-pose.405

> <s_m_Source_Path>
/home/csk/Desktop/cluster/DUD-E-result/aldr

> <s_m_Source_File>
ligand_docking-pose.sdf

> <i_m_Source_File_Index>
405

> <i_lp_mmshare_version>
53161

> <r_lp_tautomer_probability>
1

> <s_lp_Force_Field>
OPLS_2005

> <r_lp_Energy>
33.601743

> <b_lp_Chiralities_Consistent>
1

> <s_lp_Variant>
104394-1

> <s_i_glide_gridfile>
glide-grid_2hv5

> <i_i_glide_lignum>
433

> <i_i_glide_rotatable_bonds>
7

> <r_i_docking_score>
-7.56922813510136

> <r_i_glide_ligand_efficiency>
-0.344055824322789

> <r_i_glide_ligand_efficiency_sa>
-0.964057950700201

> <r_i_glide_ligand_efficiency_ln>
-1.85019545052333

> <r_i_glide_gscore>
-7.56922813510136

> <r_i_glide_lipo>
-3.03962534582626

> <r_i_glide_hbond>
0

> <r_i_glide_metal>
0

> <r_i_glide_rewards>
-3.56390018765709

> <r_i_glide_evdw>
-39.9419822692871

> <r_i_glide_ecoul>
0.118034072220325

> <r_i_glide_erotb>
1.01925012487944

> <r_i_glide_esite>
-0.00555872386614993

> <r_i_glide_emodel>
-51.8496368200388

> <r_i_glide_energy>
-39.8239481970668

> <r_i_glide_einternal>
7.97786664962769

> <i_i_glide_confnum>
75

> <i_i_glide_posenum>
336

> <r_i_glide_eff_state_penalty>
0

> <i_f3d_flags>
0

> <s_user_duplicate_titles>
104394

> <s_m_subgroup_title>
dock_pv

> <s_m_subgroupid>
dock_pv1

> <b_m_subgroup_collapsed>
0

$$$$
45412
                    3D
 Schrodinger Suite 2021-1.
 24 25  0  0  1  0            999 V2000
   16.5463  -11.6949   15.7657 C   0  0  0  0  0  0
   15.3056  -11.7537   16.4059 C   0  0  0  0  0  0
   14.7043  -10.5833   16.8702 C   0  0  0  0  0  0
   15.3521   -9.3672   16.6749 C   0  0  0  0  0  0
   16.5816   -9.2927   16.0441 C   0  0  0  0  0  0
   17.1916  -10.4673   15.5918 C   0  0  0  0  0  0
   17.0483   -7.8606   16.1135 C   0  0  2  0  0  0
   15.8449   -7.1533   16.7648 C   0  0  0  0  0  0
   15.7344   -5.9501   16.9817 O   0  0  0  0  0  0
   14.9472   -8.1042   17.0628 N   0  0  0  0  0  0
   17.5028   -7.1042   14.8189 C   0  0  2  0  0  0
   16.5074   -6.7840   13.7831 C   0  0  0  0  0  0
   15.7489   -6.5152   12.9525 N   0  0  0  0  0  0
   18.7961   -7.6107   14.1803 C   0  0  0  0  0  0
   18.9281   -8.7065   13.6464 O   0  0  0  0  0  0
   19.7461   -6.6429   14.1807 O   0  0  0  0  0  0
   17.0152  -12.6026   15.4152 H   0  0  0  0  0  0
   14.8135  -12.7050   16.5478 H   0  0  0  0  0  0
   13.7556  -10.6338   17.3812 H   0  0  0  0  0  0
   18.1661  -10.4613   15.1320 H   0  0  0  0  0  0
   17.8570   -7.7989   16.8437 H   0  0  0  0  0  0
   14.0551   -7.8986   17.4866 H   0  0  0  0  0  0
   17.7558   -6.1150   15.1854 H   0  0  0  0  0  0
   20.5218   -6.9270   13.6848 H   0  0  0  0  0  0
  1  6  1  0  0  0
  1  2  2  0  0  0
  1 17  1  0  0  0
  2  3  1  0  0  0
  2 18  1  0  0  0
  3  4  2  0  0  0
  3 19  1  0  0  0
  4 10  1  0  0  0
  4  5  1  0  0  0
  5  6  2  0  0  0
  5  7  1  0  0  0
  6 20  1  0  0  0
  7  8  1  0  0  0
  7 11  1  0  0  0
  7 21  1  0  0  0
  8  9  2  0  0  0
  8 10  1  0  0  0
 10 22  1  0  0  0
 11 12  1  0  0  0
 11 14  1  0  0  0
 11 23  1  0  0  0
 12 13  3  0  0  0
 14 15  2  0  0  0
 14 16  1  0  0  0
 16 24  1  0  0  0
M  END
> <s_m_entry_id>
7264

> <s_m_entry_name>
ligand_docking-pose.406

> <s_m_Source_Path>
/home/csk/Desktop/cluster/DUD-E-result/aldr

> <s_m_Source_File>
ligand_docking-pose.sdf

> <i_m_Source_File_Index>
406

> <i_lp_mmshare_version>
53161

> <r_lp_tautomer_probability>
1

> <s_lp_Force_Field>
OPLS_2005

> <r_lp_Energy>
25.390432

> <b_lp_Chiralities_Consistent>
1

> <s_lp_Variant>
45412-2

> <s_i_glide_gridfile>
glide-grid_2hv5

> <i_i_glide_lignum>
167

> <i_i_glide_rotatable_bonds>
3

> <r_i_docking_score>
-7.56888323443831

> <r_i_glide_ligand_efficiency>
-0.473055202152394

> <r_i_glide_ligand_efficiency_sa>
-1.19202441280649

> <r_i_glide_ligand_efficiency_ln>
-2.00628369316247

> <r_i_glide_gscore>
-7.56888323443831

> <r_i_glide_lipo>
-1.74774762837286

> <r_i_glide_hbond>
-0.157685325481572

> <r_i_glide_metal>
0

> <r_i_glide_rewards>
-4.0295838067076

> <r_i_glide_evdw>
-26.5432071685791

> <r_i_glide_ecoul>
-4.4340672492981

> <r_i_glide_erotb>
0.358403971947396

> <r_i_glide_esite>
0

> <r_i_glide_emodel>
-41.8794148987617

> <r_i_glide_energy>
-30.9772744178772

> <r_i_glide_einternal>
2.30224776268005

> <i_i_glide_confnum>
1

> <i_i_glide_posenum>
215

> <r_i_glide_eff_state_penalty>
0

> <i_f3d_flags>
0

> <s_user_duplicate_titles>
45412

> <s_m_subgroup_title>
dock_pv

> <s_m_subgroupid>
dock_pv1

> <b_m_subgroup_collapsed>
0

$$$$
2107
                    3D
 Schrodinger Suite 2021-1.
 36 38  0  0  1  0            999 V2000
   16.7801   -5.5994   11.5780 C   0  0  0  0  0  0
   17.3161   -6.9157   12.1514 C   0  0  0  0  0  0
   16.5553   -7.3126   13.2897 O   0  0  0  0  0  0
   17.0200   -7.1143   14.5373 C   0  0  0  0  0  0
   18.1334   -6.6561   14.8108 O   0  0  0  0  0  0
   16.0004   -7.5426   15.6205 C   0  0  2  0  0  0
   16.0891   -6.6012   16.8214 C   0  0  0  0  0  0
   15.6448   -5.4720   16.9816 O   0  0  0  0  0  0
   16.8995   -7.3138   17.9176 C   0  0  0  0  0  0
   17.2756   -6.8247   18.9756 O   0  0  0  0  0  0
   17.0570   -8.5602   17.4508 N   0  0  0  0  0  0
   16.2064   -8.9324   16.3251 C   0  0  1  0  0  0
   14.8027   -9.3832   16.8515 C   0  0  0  0  0  0
   14.8194  -10.8059   17.4119 C   0  0  0  0  0  0
   15.1025  -11.6968   16.3450 O   0  0  0  0  0  0
   16.2546  -11.4170   15.6408 C   0  0  0  0  0  0
   16.8332  -10.1258   15.5398 C   0  0  0  0  0  0
   18.0163  -10.0432   14.7813 C   0  0  0  0  0  0
   18.5404  -11.1398   14.0989 C   0  0  0  0  0  0
   17.9272  -12.3811   14.1945 C   0  0  0  0  0  0
   16.7921  -12.5225   14.9825 C   0  0  0  0  0  0
   19.6684  -11.0029   13.3688 F   0  0  0  0  0  0
   17.3198   -5.3220   10.6728 H   0  0  0  0  0  0
   16.8929   -4.7854   12.2931 H   0  0  0  0  0  0
   15.7229   -5.6797   11.3225 H   0  0  0  0  0  0
   17.2380   -7.6990   11.3985 H   0  0  0  0  0  0
   18.3803   -6.8197   12.3781 H   0  0  0  0  0  0
   15.0131   -7.4661   15.1686 H   0  0  0  0  0  0
   17.5780   -9.2517   17.9683 H   0  0  0  0  0  0
   14.4126   -8.7072   17.6132 H   0  0  0  0  0  0
   14.0747   -9.3548   16.0384 H   0  0  0  0  0  0
   13.8536  -11.0657   17.8480 H   0  0  0  0  0  0
   15.5716  -10.8969   18.1954 H   0  0  0  0  0  0
   18.5814   -9.1301   14.7214 H   0  0  0  0  0  0
   18.3416  -13.2304   13.6701 H   0  0  0  0  0  0
   16.3127  -13.4868   15.0681 H   0  0  0  0  0  0
  1  2  1  0  0  0
  1 23  1  0  0  0
  1 24  1  0  0  0
  1 25  1  0  0  0
  2  3  1  0  0  0
  2 26  1  0  0  0
  2 27  1  0  0  0
  3  4  1  0  0  0
  4  5  2  0  0  0
  4  6  1  0  0  0
  6 12  1  0  0  0
  6  7  1  0  0  0
  6 28  1  0  0  0
  7  8  2  0  0  0
  7  9  1  0  0  0
  9 10  2  0  0  0
  9 11  1  0  0  0
 11 12  1  0  0  0
 11 29  1  0  0  0
 12 17  1  0  0  0
 12 13  1  0  0  0
 13 14  1  0  0  0
 13 30  1  0  0  0
 13 31  1  0  0  0
 14 15  1  0  0  0
 14 32  1  0  0  0
 14 33  1  0  0  0
 15 16  1  0  0  0
 16 21  2  0  0  0
 16 17  1  0  0  0
 17 18  2  0  0  0
 18 19  1  0  0  0
 18 34  1  0  0  0
 19 20  2  0  0  0
 19 22  1  0  0  0
 20 21  1  0  0  0
 20 35  1  0  0  0
 21 36  1  0  0  0
M  END
> <s_m_entry_id>
7268

> <s_m_entry_name>
ligand_docking-pose.410

> <s_m_Source_Path>
/home/csk/Desktop/cluster/DUD-E-result/aldr

> <s_m_Source_File>
ligand_docking-pose.sdf

> <i_m_Source_File_Index>
410

> <i_lp_mmshare_version>
53161

> <r_lp_tautomer_probability>
1

> <s_lp_Force_Field>
OPLS_2005

> <r_lp_Energy>
23.245851

> <b_lp_Chiralities_Consistent>
1

> <s_lp_Variant>
2107-1

> <s_i_glide_gridfile>
glide-grid_2hv5

> <i_i_glide_lignum>
624

> <i_i_glide_rotatable_bonds>
3

> <r_i_docking_score>
-7.53663939825256

> <r_i_glide_ligand_efficiency>
-0.342574518102389

> <r_i_glide_ligand_efficiency_sa>
-0.959907272414172

> <r_i_glide_ligand_efficiency_ln>
-1.84222957453442

> <r_i_glide_gscore>
-7.53663939825256

> <r_i_glide_lipo>
-2.54354611541801

> <r_i_glide_hbond>
-0.197782513735168

> <r_i_glide_metal>
0

> <r_i_glide_rewards>
-3.31606281255864

> <r_i_glide_evdw>
-30.766960144043

> <r_i_glide_ecoul>
-0.911157131195068

> <r_i_glide_erotb>
0.195773620340671

> <r_i_glide_esite>
0

> <r_i_glide_emodel>
-43.8749994122029

> <r_i_glide_energy>
-31.678117275238

> <r_i_glide_einternal>
0.620334923267365

> <i_i_glide_confnum>
1

> <i_i_glide_posenum>
33

> <r_i_glide_eff_state_penalty>
0

> <i_f3d_flags>
0

> <s_user_duplicate_titles>
2107

> <s_m_subgroup_title>
dock_pv

> <s_m_subgroupid>
dock_pv1

> <b_m_subgroup_collapsed>
0

$$$$
68474
                    3D
 Schrodinger Suite 2021-1.
 40 42  0  0  1  0            999 V2000
   14.8851  -12.3996   17.3905 C   0  0  0  0  0  0
   15.4134  -11.9860   16.1770 C   0  0  0  0  0  0
   15.7011  -10.6368   15.9634 C   0  0  0  0  0  0
   15.4763   -9.6802   16.9739 C   0  0  0  0  0  0
   14.9450  -10.1338   18.1867 C   0  0  0  0  0  0
   14.6415  -11.4734   18.4012 C   0  0  0  0  0  0
   15.7256   -8.2797   16.7857 N   0  0  0  0  0  0
   14.9852   -7.2866   17.6195 C   0  0  0  0  0  0
   15.9619   -6.4742   18.5049 C   0  0  0  0  0  0
   16.1503   -6.6784   19.6803 O   0  0  0  0  0  0
   16.5368   -5.4695   17.7876 O   0  0  0  0  0  0
   16.4967   -7.7690   15.7811 C   0  0  0  0  0  0
   16.2439   -6.6569   15.3078 O   0  0  0  0  0  0
   17.8469   -8.4270   15.4316 C   0  0  0  0  0  0
   18.2124   -8.5701   13.9381 C   0  0  0  0  0  0
   17.8991   -7.3526   13.0835 C   0  0  0  0  0  0
   16.8557   -7.3146   12.3289 N   0  0  0  0  0  0
   16.7704   -6.1704   11.6053 C   0  0  0  0  0  0
   15.7446   -5.8809   10.6998 C   0  0  0  0  0  0
   15.8645   -4.7493    9.9035 C   0  0  0  0  0  0
   16.9467   -3.8869   10.0268 C   0  0  0  0  0  0
   17.9356   -4.1170   10.9809 C   0  0  0  0  0  0
   17.8353   -5.2678   11.7885 C   0  0  0  0  0  0
   18.8020   -5.8698   13.1422 S   0  0  0  0  0  0
   18.9451   -3.2231   11.1116 F   0  0  0  0  0  0
   14.9451   -4.5150    8.9536 F   0  0  0  0  0  0
   14.6802   -6.7016   10.5820 F   0  0  0  0  0  0
   14.6563  -13.4409   17.5593 H   0  0  0  0  0  0
   15.5887  -12.7060   15.3902 H   0  0  0  0  0  0
   16.0633  -10.3474   14.9921 H   0  0  0  0  0  0
   14.7900   -9.4653   19.0201 H   0  0  0  0  0  0
   14.2393  -11.7984   19.3474 H   0  0  0  0  0  0
   14.4455   -6.5936   16.9768 H   0  0  0  0  0  0
   14.1757   -7.7322   18.1808 H   0  0  0  0  0  0
   16.3493   -5.5653   16.8467 H   0  0  0  0  0  0
   18.5447   -7.7008   15.8449 H   0  0  0  0  0  0
   18.0346   -9.3526   15.9796 H   0  0  0  0  0  0
   19.2832   -8.7769   13.8743 H   0  0  0  0  0  0
   17.7442   -9.4656   13.5230 H   0  0  0  0  0  0
   17.0166   -3.0190    9.3846 H   0  0  0  0  0  0
  1  6  1  0  0  0
  1  2  2  0  0  0
  1 28  1  0  0  0
  2  3  1  0  0  0
  2 29  1  0  0  0
  3  4  2  0  0  0
  3 30  1  0  0  0
  4  5  1  0  0  0
  4  7  1  0  0  0
  5  6  2  0  0  0
  5 31  1  0  0  0
  6 32  1  0  0  0
  7  8  1  0  0  0
  7 12  1  0  0  0
  8  9  1  0  0  0
  8 33  1  0  0  0
  8 34  1  0  0  0
  9 10  2  0  0  0
  9 11  1  0  0  0
 11 35  1  0  0  0
 12 13  2  0  0  0
 12 14  1  0  0  0
 14 15  1  0  0  0
 14 36  1  0  0  0
 14 37  1  0  0  0
 15 16  1  0  0  0
 15 38  1  0  0  0
 15 39  1  0  0  0
 16 24  1  0  0  0
 16 17  2  0  0  0
 17 18  1  0  0  0
 18 23  2  0  0  0
 18 19  1  0  0  0
 19 20  2  0  0  0
 19 27  1  0  0  0
 20 21  1  0  0  0
 20 26  1  0  0  0
 21 22  2  0  0  0
 21 40  1  0  0  0
 22 23  1  0  0  0
 22 25  1  0  0  0
 23 24  1  0  0  0
M  END
> <s_m_entry_id>
7269

> <s_m_entry_name>
ligand_docking-pose.411

> <s_m_Source_Path>
/home/csk/Desktop/cluster/DUD-E-result/aldr

> <s_m_Source_File>
ligand_docking-pose.sdf

> <i_m_Source_File_Index>
411

> <i_lp_mmshare_version>
53161

> <r_lp_tautomer_probability>
1

> <s_lp_Force_Field>
OPLS_2005

> <r_lp_Energy>
19.613058

> <b_lp_Chiralities_Consistent>
1

> <s_lp_Variant>
68474-1

> <s_i_glide_gridfile>
glide-grid_2hv5

> <i_i_glide_lignum>
434

> <i_i_glide_rotatable_bonds>
8

> <r_i_docking_score>
-7.5341328494422

> <r_i_glide_ligand_efficiency>
-0.279041957386748

> <r_i_glide_ligand_efficiency_sa>
-0.837125871240568

> <r_i_glide_ligand_efficiency_ln>
-1.75382191746259

> <r_i_glide_gscore>
-7.5341328494422

> <r_i_glide_lipo>
-4.03382157945148

> <r_i_glide_hbond>
0

> <r_i_glide_metal>
0

> <r_i_glide_rewards>
-2.5358363831985

> <r_i_glide_evdw>
-32.6136741638184

> <r_i_glide_ecoul>
0.252573430538177

> <r_i_glide_erotb>
0.628322806817966

> <r_i_glide_esite>
0

> <r_i_glide_emodel>
-31.2247156525245

> <r_i_glide_energy>
-32.3611007332802

> <r_i_glide_einternal>
11.2242641448975

> <i_i_glide_confnum>
23

> <i_i_glide_posenum>
54

> <r_i_glide_eff_state_penalty>
0

> <i_f3d_flags>
0

> <s_user_duplicate_titles>
68474

> <s_m_subgroup_title>
dock_pv

> <s_m_subgroupid>
dock_pv1

> <b_m_subgroup_collapsed>
0

$$$$
128969
                    3D
 Schrodinger Suite 2021-1.
 26 28  0  0  1  0            999 V2000
   17.3477  -10.7448   14.9350 C   0  0  0  0  0  0
   16.6210  -10.0459   15.9177 C   0  0  0  0  0  0
   16.8308   -8.6414   15.9901 C   0  0  0  0  0  0
   17.7744   -8.0248   15.1744 C   0  0  0  0  0  0
   18.5191   -8.7564   14.2632 C   0  0  0  0  0  0
   18.2914  -10.1237   14.1211 C   0  0  0  0  0  0
   19.1760  -11.0760   12.9812 Cl  0  0  0  0  0  0
   19.7449   -7.9374   13.3810 Cl  0  0  0  0  0  0
   16.0299   -7.5758   17.1560 S   0  0  0  0  0  0
   14.5450   -8.5492   17.3992 C   0  0  0  0  0  0
   14.9850   -9.9149   17.9312 C   0  0  0  0  0  0
   15.5919  -10.7976   16.8089 C   0  0  2  0  0  0
   16.2083  -12.0560   17.4248 C   0  0  0  0  0  0
   17.1741  -12.1150   18.1809 O   0  0  0  0  0  0
   15.4454  -13.0819   17.0379 N   0  0  0  0  0  0
   14.4681  -12.7587   16.1811 C   0  0  0  0  0  0
   13.7589  -13.5292   15.5437 O   0  0  0  0  0  0
   14.5450  -11.4293   16.0515 N   0  0  0  0  0  0
   17.1919  -11.8064   14.8073 H   0  0  0  0  0  0
   17.9603   -6.9642   15.2718 H   0  0  0  0  0  0
   13.9416   -8.0125   18.1303 H   0  0  0  0  0  0
   13.9719   -8.6098   16.4724 H   0  0  0  0  0  0
   14.1450  -10.4096   18.4239 H   0  0  0  0  0  0
   15.7322   -9.7180   18.6989 H   0  0  0  0  0  0
   15.6351  -14.0315   17.3100 H   0  0  0  0  0  0
   13.7403  -10.8898   15.7699 H   0  0  0  0  0  0
  1  6  1  0  0  0
  1  2  2  0  0  0
  1 19  1  0  0  0
  2 12  1  0  0  0
  2  3  1  0  0  0
  3  4  2  0  0  0
  3  9  1  0  0  0
  4  5  1  0  0  0
  4 20  1  0  0  0
  5  6  2  0  0  0
  5  8  1  0  0  0
  6  7  1  0  0  0
  9 10  1  0  0  0
 10 11  1  0  0  0
 10 21  1  0  0  0
 10 22  1  0  0  0
 11 12  1  0  0  0
 11 23  1  0  0  0
 11 24  1  0  0  0
 12 18  1  0  0  0
 12 13  1  0  0  0
 13 14  2  0  0  0
 13 15  1  0  0  0
 15 16  1  0  0  0
 15 25  1  0  0  0
 16 17  2  0  0  0
 16 18  1  0  0  0
 18 26  1  0  0  0
M  END
> <s_m_entry_id>
7273

> <s_m_entry_name>
ligand_docking-pose.415

> <s_m_Source_Path>
/home/csk/Desktop/cluster/DUD-E-result/aldr

> <s_m_Source_File>
ligand_docking-pose.sdf

> <i_m_Source_File_Index>
415

> <i_lp_mmshare_version>
53161

> <r_lp_tautomer_probability>
0.99999999978137

> <s_lp_Force_Field>
OPLS_2005

> <r_lp_Energy>
21.145434

> <b_lp_Chiralities_Consistent>
1

> <s_lp_Variant>
128969-1

> <s_i_glide_gridfile>
glide-grid_2hv5

> <i_i_glide_lignum>
3

> <i_i_glide_rotatable_bonds>
0

> <r_i_docking_score>
-7.51289171573582

> <r_i_glide_ligand_efficiency>
-0.417382873096435

> <r_i_glide_ligand_efficiency_sa>
-1.09385257170378

> <r_i_glide_ligand_efficiency_ln>
-1.93115007595023

> <r_i_glide_gscore>
-7.51289171573582

> <r_i_glide_lipo>
-2.61271256012732

> <r_i_glide_hbond>
-0.32

> <r_i_glide_metal>
0

> <r_i_glide_rewards>
-2.3729908745367

> <r_i_glide_evdw>
-26.1061420440674

> <r_i_glide_ecoul>
-5.93661260604858

> <r_i_glide_erotb>
0

> <r_i_glide_esite>
-0.0113892879611488

> <r_i_glide_emodel>
-45.3753778312003

> <r_i_glide_energy>
-32.042754650116

> <r_i_glide_einternal>
0

> <i_i_glide_confnum>
1

> <i_i_glide_posenum>
148

> <r_i_glide_eff_state_penalty>
0

> <i_f3d_flags>
0

> <s_user_duplicate_titles>
128969

> <s_m_subgroup_title>
dock_pv

> <s_m_subgroupid>
dock_pv1

> <b_m_subgroup_collapsed>
0

$$$$
115902
                    3D
 Schrodinger Suite 2021-1.
 41 43  0  0  1  0            999 V2000
   14.6206  -11.3239   18.0617 C   0  0  0  0  0  0
   15.3854  -10.1833   17.6797 O   0  0  0  0  0  0
   16.2895  -10.3084   16.6431 C   0  0  0  0  0  0
   16.9870  -11.5016   16.4392 C   0  0  0  0  0  0
   17.8726  -11.6561   15.3729 C   0  0  0  0  0  0
   18.0517  -10.6091   14.4615 C   0  0  0  0  0  0
   17.4048   -9.3907   14.6894 C   0  0  0  0  0  0
   16.5250   -9.2236   15.7809 C   0  0  0  0  0  0
   15.8288   -7.9092   15.9561 C   0  0  0  0  0  0
   15.0999   -7.6149   16.9005 O   0  0  0  0  0  0
   16.0323   -7.0089   14.8492 C   0  0  0  0  0  0
   16.8774   -7.2536   13.8345 C   0  0  0  0  0  0
   17.6208   -8.3863   13.7499 O   0  0  0  0  0  0
   16.9343   -6.3780   12.6416 C   0  0  0  0  0  0
   18.1404   -5.8416   12.1804 C   0  0  0  0  0  0
   18.1450   -4.9149   11.1323 C   0  0  0  0  0  0
   16.9551   -4.4974   10.5401 C   0  0  0  0  0  0
   15.7446   -5.0256   10.9932 C   0  0  0  0  0  0
   15.7459   -5.9661   12.0199 C   0  0  0  0  0  0
   14.5448   -4.5755   10.5081 O   0  0  0  0  0  0
   16.9840   -3.5539    9.5459 O   0  0  0  0  0  0
   18.8981  -10.7273   13.3807 O   0  0  0  0  0  0
   18.5408  -11.7135   12.4160 C   0  0  0  0  0  0
   18.5981  -12.8123   15.2114 O   0  0  0  0  0  0
   19.2554  -13.3112   16.3683 C   0  0  0  0  0  0
   13.7494  -11.0029   18.6325 H   0  0  0  0  0  0
   15.2037  -11.9928   18.6941 H   0  0  0  0  0  0
   14.2527  -11.8818   17.1973 H   0  0  0  0  0  0
   16.8384  -12.3321   17.1107 H   0  0  0  0  0  0
   15.4448   -6.1169   14.8076 H   0  0  0  0  0  0
   19.0691   -6.1272   12.6529 H   0  0  0  0  0  0
   19.0771   -4.4950   10.7991 H   0  0  0  0  0  0
   14.7948   -6.3288   12.3715 H   0  0  0  0  0  0
   14.6496   -3.9119    9.8193 H   0  0  0  0  0  0
   17.8655   -3.2253    9.3583 H   0  0  0  0  0  0
   19.2252  -11.6607   11.5689 H   0  0  0  0  0  0
   18.6032  -12.7278   12.8006 H   0  0  0  0  0  0
   17.5283  -11.5508   12.0393 H   0  0  0  0  0  0
   20.0412  -13.9930   16.0545 H   0  0  0  0  0  0
   19.7262  -12.5177   16.9583 H   0  0  0  0  0  0
   18.5657  -13.8580   17.0097 H   0  0  0  0  0  0
  1  2  1  0  0  0
  1 26  1  0  0  0
  1 27  1  0  0  0
  1 28  1  0  0  0
  2  3  1  0  0  0
  3  8  1  0  0  0
  3  4  2  0  0  0
  4  5  1  0  0  0
  4 29  1  0  0  0
  5  6  2  0  0  0
  5 24  1  0  0  0
  6  7  1  0  0  0
  6 22  1  0  0  0
  7 13  1  0  0  0
  7  8  2  0  0  0
  8  9  1  0  0  0
  9 10  2  0  0  0
  9 11  1  0  0  0
 11 12  2  0  0  0
 11 30  1  0  0  0
 12 13  1  0  0  0
 12 14  1  0  0  0
 14 19  1  0  0  0
 14 15  2  0  0  0
 15 16  1  0  0  0
 15 31  1  0  0  0
 16 17  2  0  0  0
 16 32  1  0  0  0
 17 18  1  0  0  0
 17 21  1  0  0  0
 18 19  2  0  0  0
 18 20  1  0  0  0
 19 33  1  0  0  0
 20 34  1  0  0  0
 21 35  1  0  0  0
 22 23  1  0  0  0
 23 36  1  0  0  0
 23 37  1  0  0  0
 23 38  1  0  0  0
 24 25  1  0  0  0
 25 39  1  0  0  0
 25 40  1  0  0  0
 25 41  1  0  0  0
M  END
> <s_m_entry_id>
7275

> <s_m_entry_name>
ligand_docking-pose.417

> <s_m_Source_Path>
/home/csk/Desktop/cluster/DUD-E-result/aldr

> <s_m_Source_File>
ligand_docking-pose.sdf

> <i_m_Source_File_Index>
417

> <i_lp_mmshare_version>
53161

> <r_lp_tautomer_probability>
0.999999999999776

> <s_lp_Force_Field>
OPLS_2005

> <r_lp_Energy>
29.211064

> <b_lp_Chiralities_Consistent>
1

> <s_lp_Variant>
115902-1

> <s_i_glide_gridfile>
glide-grid_2hv5

> <i_i_glide_lignum>
748

> <i_i_glide_rotatable_bonds>
6

> <r_i_docking_score>
-7.49997107531256

> <r_i_glide_ligand_efficiency>
-0.299998843012503

> <r_i_glide_ligand_efficiency_sa>
-0.877201937470693

> <r_i_glide_ligand_efficiency_ln>
-1.77771790084551

> <r_i_glide_gscore>
-7.49997107531256

> <r_i_glide_lipo>
-3.81992173684181

> <r_i_glide_hbond>
0

> <r_i_glide_metal>
0

> <r_i_glide_rewards>
-1.93648563636364

> <r_i_glide_evdw>
-37.5599136352539

> <r_i_glide_ecoul>
-0.171431928873062

> <r_i_glide_erotb>
0.160146768986536

> <r_i_glide_esite>
0

> <r_i_glide_emodel>
-42.2812204117772

> <r_i_glide_energy>
-37.731345564127

> <r_i_glide_einternal>
7.48378944396973

> <i_i_glide_confnum>
2

> <i_i_glide_posenum>
6

> <r_i_glide_eff_state_penalty>
0

> <i_f3d_flags>
0

> <s_user_duplicate_titles>
115902

> <s_m_subgroup_title>
dock_pv

> <s_m_subgroupid>
dock_pv1

> <b_m_subgroup_collapsed>
0

$$$$
45413
                    3D
 Schrodinger Suite 2021-1.
 24 25  0  0  1  0            999 V2000
   15.2761  -11.3444   16.1811 C   0  0  0  0  0  0
   14.7672  -10.1416   16.6732 C   0  0  0  0  0  0
   15.5659   -9.0014   16.6226 C   0  0  0  0  0  0
   16.8382   -9.0318   16.0809 C   0  0  0  0  0  0
   17.3469  -10.2369   15.5891 C   0  0  0  0  0  0
   16.5646  -11.3923   15.6416 C   0  0  0  0  0  0
   17.0572  -12.5589   15.1713 F   0  0  0  0  0  0
   17.4379   -7.6534   16.2065 C   0  0  2  0  0  0
   16.3303   -6.8896   16.9663 C   0  0  0  0  0  0
   16.3808   -5.7331   17.3800 O   0  0  0  0  0  0
   15.2981   -7.7368   17.1086 N   0  0  0  0  0  0
   17.8571   -6.9049   14.8893 C   0  0  2  0  0  0
   16.7859   -6.6881   13.9022 C   0  0  0  0  0  0
   15.9614   -6.5150   13.1115 N   0  0  0  0  0  0
   19.0896   -7.4860   14.1808 C   0  0  0  0  0  0
   19.0928   -8.5614   13.5886 O   0  0  0  0  0  0
   20.1407   -6.6227   14.1875 O   0  0  0  0  0  0
   14.6756  -12.2418   16.2185 H   0  0  0  0  0  0
   13.7745  -10.1142   17.0968 H   0  0  0  0  0  0
   18.3412  -10.3054   15.1787 H   0  0  0  0  0  0
   18.2901   -7.6856   16.8847 H   0  0  0  0  0  0
   14.4424   -7.4768   17.5749 H   0  0  0  0  0  0
   18.1459   -5.8960   15.1800 H   0  0  0  0  0  0
   20.8504   -6.9154   13.5998 H   0  0  0  0  0  0
  1  6  1  0  0  0
  1  2  2  0  0  0
  1 18  1  0  0  0
  2  3  1  0  0  0
  2 19  1  0  0  0
  3 11  1  0  0  0
  3  4  2  0  0  0
  4  5  1  0  0  0
  4  8  1  0  0  0
  5  6  2  0  0  0
  5 20  1  0  0  0
  6  7  1  0  0  0
  8  9  1  0  0  0
  8 12  1  0  0  0
  8 21  1  0  0  0
  9 10  2  0  0  0
  9 11  1  0  0  0
 11 22  1  0  0  0
 12 13  1  0  0  0
 12 15  1  0  0  0
 12 23  1  0  0  0
 13 14  3  0  0  0
 15 16  2  0  0  0
 15 17  1  0  0  0
 17 24  1  0  0  0
M  END
> <s_m_entry_id>
7276

> <s_m_entry_name>
ligand_docking-pose.418

> <s_m_Source_Path>
/home/csk/Desktop/cluster/DUD-E-result/aldr

> <s_m_Source_File>
ligand_docking-pose.sdf

> <i_m_Source_File_Index>
418

> <i_lp_mmshare_version>
53161

> <r_lp_tautomer_probability>
1

> <s_lp_Force_Field>
OPLS_2005

> <r_lp_Energy>
25.087677

> <b_lp_Chiralities_Consistent>
1

> <s_lp_Variant>
45413-2

> <s_i_glide_gridfile>
glide-grid_2hv5

> <i_i_glide_lignum>
60

> <i_i_glide_rotatable_bonds>
3

> <r_i_docking_score>
-7.48738170194215

> <r_i_glide_ligand_efficiency>
-0.440434217761303

> <r_i_glide_ligand_efficiency_sa>
-1.13248039495608

> <r_i_glide_ligand_efficiency_ln>
-1.95329115024398

> <r_i_glide_gscore>
-7.48738170194215

> <r_i_glide_lipo>
-1.83870709268317

> <r_i_glide_hbond>
0

> <r_i_glide_metal>
0

> <r_i_glide_rewards>
-4.0049559702324

> <r_i_glide_evdw>
-24.8146591186523

> <r_i_glide_ecoul>
-4.77362775802612

> <r_i_glide_erotb>
0.313058480609967

> <r_i_glide_esite>
0

> <r_i_glide_emodel>
-40.6483478750064

> <r_i_glide_energy>
-29.5882868766785

> <r_i_glide_einternal>
1.96033024787903

> <i_i_glide_confnum>
2

> <i_i_glide_posenum>
28

> <r_i_glide_eff_state_penalty>
0

> <i_f3d_flags>
0

> <s_user_duplicate_titles>
45413

> <s_m_subgroup_title>
dock_pv

> <s_m_subgroupid>
dock_pv1

> <b_m_subgroup_collapsed>
0

$$$$
129121
                    3D
 Schrodinger Suite 2021-1.
 32 35  0  0  1  0            999 V2000
   14.7700  -11.3176   18.3310 C   0  0  0  0  0  0
   15.6106  -12.2017   17.6716 C   0  0  0  0  0  0
   16.4797  -11.7416   16.6888 C   0  0  0  0  0  0
   16.5089  -10.3639   16.3265 C   0  0  0  0  0  0
   15.6458   -9.4529   17.0080 C   0  0  0  0  0  0
   14.7980   -9.9605   18.0266 C   0  0  0  0  0  0
   15.6516   -8.0814   16.6287 C   0  0  0  0  0  0
   16.4836   -7.6448   15.6039 C   0  0  0  0  0  0
   17.3419   -8.5071   14.9162 C   0  0  0  0  0  0
   17.3440   -9.8679   15.2881 C   0  0  0  0  0  0
   18.1264  -10.8341   14.6748 O   0  0  0  0  0  0
   18.6313  -10.5216   13.3811 C   0  0  0  0  0  0
   19.2513   -9.1216   13.3870 C   0  0  0  0  0  0
   18.1779   -8.0590   13.7030 C   0  0  2  0  0  0
   18.8908   -6.7209   13.8635 C   0  0  0  0  0  0
   19.8563   -6.4891   14.5811 O   0  0  0  0  0  0
   18.3274   -5.8831   12.9829 N   0  0  0  0  0  0
   17.3452   -6.4235   12.2468 C   0  0  0  0  0  0
   16.5690   -5.8461   11.4950 O   0  0  0  0  0  0
   17.3450   -7.7150   12.5809 N   0  0  0  0  0  0
   14.6118   -6.9219   17.3812 Cl  0  0  0  0  0  0
   14.0941  -11.6870   19.0890 H   0  0  0  0  0  0
   15.5837  -13.2533   17.9187 H   0  0  0  0  0  0
   17.1217  -12.4456   16.1790 H   0  0  0  0  0  0
   14.1455   -9.2884   18.5615 H   0  0  0  0  0  0
   16.4414   -6.6039   15.3171 H   0  0  0  0  0  0
   19.3764  -11.2682   13.1031 H   0  0  0  0  0  0
   17.8225  -10.5783   12.6501 H   0  0  0  0  0  0
   19.7448   -8.9150   12.4493 H   0  0  0  0  0  0
   20.0223   -9.1326   14.1592 H   0  0  0  0  0  0
   18.6108   -4.9221   12.8842 H   0  0  0  0  0  0
   17.0199   -8.4301   11.9488 H   0  0  0  0  0  0
  1  6  1  0  0  0
  1  2  2  0  0  0
  1 22  1  0  0  0
  2  3  1  0  0  0
  2 23  1  0  0  0
  3  4  2  0  0  0
  3 24  1  0  0  0
  4 10  1  0  0  0
  4  5  1  0  0  0
  5  6  2  0  0  0
  5  7  1  0  0  0
  6 25  1  0  0  0
  7  8  2  0  0  0
  7 21  1  0  0  0
  8  9  1  0  0  0
  8 26  1  0  0  0
  9 14  1  0  0  0
  9 10  2  0  0  0
 10 11  1  0  0  0
 11 12  1  0  0  0
 12 13  1  0  0  0
 12 27  1  0  0  0
 12 28  1  0  0  0
 13 14  1  0  0  0
 13 29  1  0  0  0
 13 30  1  0  0  0
 14 20  1  0  0  0
 14 15  1  0  0  0
 15 16  2  0  0  0
 15 17  1  0  0  0
 17 18  1  0  0  0
 17 31  1  0  0  0
 18 19  2  0  0  0
 18 20  1  0  0  0
 20 32  1  0  0  0
M  END
> <s_m_entry_id>
7277

> <s_m_entry_name>
ligand_docking-pose.419

> <s_m_Source_Path>
/home/csk/Desktop/cluster/DUD-E-result/aldr

> <s_m_Source_File>
ligand_docking-pose.sdf

> <i_m_Source_File_Index>
419

> <i_lp_mmshare_version>
53161

> <r_lp_tautomer_probability>
0.99999999978137

> <s_lp_Force_Field>
OPLS_2005

> <r_lp_Energy>
28.315551

> <b_lp_Chiralities_Consistent>
1

> <s_lp_Variant>
129121-2

> <s_i_glide_gridfile>
glide-grid_2hv5

> <i_i_glide_lignum>
135

> <i_i_glide_rotatable_bonds>
0

> <r_i_docking_score>
-7.46904392692602

> <r_i_glide_ligand_efficiency>
-0.355668758425048

> <r_i_glide_ligand_efficiency_sa>
-0.981263135406496

> <r_i_glide_ligand_efficiency_ln>
-1.84670601830811

> <r_i_glide_gscore>
-7.46904392692602

> <r_i_glide_lipo>
-2.58353078352296

> <r_i_glide_hbond>
0

> <r_i_glide_metal>
0

> <r_i_glide_rewards>
-3.1451445

> <r_i_glide_evdw>
-35.8862762451172

> <r_i_glide_ecoul>
0.359634459018707

> <r_i_glide_erotb>
0

> <r_i_glide_esite>
0

> <r_i_glide_emodel>
-48.3842670923724

> <r_i_glide_energy>
-35.5266417860985

> <r_i_glide_einternal>
0

> <i_i_glide_confnum>
1

> <i_i_glide_posenum>
64

> <r_i_glide_eff_state_penalty>
0

> <i_f3d_flags>
0

> <s_user_duplicate_titles>
129121

> <s_m_subgroup_title>
dock_pv

> <s_m_subgroupid>
dock_pv1

> <b_m_subgroup_collapsed>
0

$$$$
625981
                    3D
 Schrodinger Suite 2021-1.
 43 45  0  0  1  0            999 V2000
   17.8695  -12.6901   16.5862 C   0  0  0  0  0  0
   17.0120  -11.4389   16.4712 C   0  0  0  0  0  0
   15.7995  -11.5139   16.2626 O   0  0  0  0  0  0
   17.7455  -10.3089   16.6254 O   0  0  0  0  0  0
   17.1286   -9.0869   16.4882 C   0  0  0  0  0  0
   16.5744   -8.4930   17.6309 C   0  0  0  0  0  0
   15.9910   -7.2302   17.5743 C   0  0  0  0  0  0
   15.8248   -6.6347   16.3472 C   0  0  0  0  0  0
   16.3553   -7.2113   15.2059 C   0  0  0  0  0  0
   17.0965   -8.3966   15.2591 C   0  0  0  0  0  0
   17.8326   -8.8265   14.0224 C   0  0  0  0  0  0
   18.5316   -9.8342   13.9623 O   0  0  0  0  0  0
   17.6575   -7.9177   12.8956 C   0  0  0  0  0  0
   16.8321   -6.8591   12.9369 C   0  0  0  0  0  0
   16.1419   -6.5150   14.0424 O   0  0  0  0  0  0
   16.6406   -5.8712   11.8503 C   0  0  0  0  0  0
   15.3535   -5.4693   11.4746 C   0  0  0  0  0  0
   15.1754   -4.5200   10.4706 C   0  0  0  0  0  0
   16.2825   -3.9791    9.8241 C   0  0  0  0  0  0
   17.5693   -4.3739   10.1818 C   0  0  0  0  0  0
   17.7444   -5.3164   11.1922 C   0  0  0  0  0  0
   15.5874   -6.5140   18.6742 O   0  0  0  0  0  0
   16.5569   -6.3380   19.7054 C   0  0  0  0  0  0
   16.9768   -4.8644   19.8325 C   0  0  0  0  0  0
   15.8592   -4.0283   20.1802 O   0  0  0  0  0  0
   15.6117   -2.9149   19.3103 N   0  3  0  0  0  0
   16.1450   -2.9141   18.2240 O   0  5  0  0  0  0
   14.8284   -2.1287   19.7818 O   0  0  0  0  0  0
   18.4863  -12.6504   17.4837 H   0  0  0  0  0  0
   17.2419  -13.5794   16.6327 H   0  0  0  0  0  0
   18.5220  -12.7716   15.7165 H   0  0  0  0  0  0
   16.6282   -8.9943   18.5803 H   0  0  0  0  0  0
   15.3450   -5.6836   16.3123 H   0  0  0  0  0  0
   18.1450   -8.1149   11.9637 H   0  0  0  0  0  0
   14.4877   -5.8794   11.9745 H   0  0  0  0  0  0
   14.1797   -4.2098   10.1883 H   0  0  0  0  0  0
   16.1367   -3.2481    9.0418 H   0  0  0  0  0  0
   18.4254   -3.9507    9.6782 H   0  0  0  0  0  0
   18.7443   -5.6124   11.4728 H   0  0  0  0  0  0
   17.4612   -6.9153   19.5180 H   0  0  0  0  0  0
   16.1439   -6.6985   20.6476 H   0  0  0  0  0  0
   17.5379   -4.5830   18.9412 H   0  0  0  0  0  0
   17.6963   -4.7776   20.6474 H   0  0  0  0  0  0
  1  2  1  0  0  0
  1 29  1  0  0  0
  1 30  1  0  0  0
  1 31  1  0  0  0
  2  3  2  0  0  0
  2  4  1  0  0  0
  4  5  1  0  0  0
  5 10  1  0  0  0
  5  6  2  0  0  0
  6  7  1  0  0  0
  6 32  1  0  0  0
  7  8  2  0  0  0
  7 22  1  0  0  0
  8  9  1  0  0  0
  8 33  1  0  0  0
  9 15  1  0  0  0
  9 10  2  0  0  0
 10 11  1  0  0  0
 11 12  2  0  0  0
 11 13  1  0  0  0
 13 14  2  0  0  0
 13 34  1  0  0  0
 14 15  1  0  0  0
 14 16  1  0  0  0
 16 21  1  0  0  0
 16 17  2  0  0  0
 17 18  1  0  0  0
 17 35  1  0  0  0
 18 19  2  0  0  0
 18 36  1  0  0  0
 19 20  1  0  0  0
 19 37  1  0  0  0
 20 21  2  0  0  0
 20 38  1  0  0  0
 21 39  1  0  0  0
 22 23  1  0  0  0
 23 24  1  0  0  0
 23 40  1  0  0  0
 23 41  1  0  0  0
 24 25  1  0  0  0
 24 42  1  0  0  0
 24 43  1  0  0  0
 25 26  1  0  0  0
 26 27  1  0  0  0
 26 28  2  0  0  0
M  CHG  2  26   1  27  -1
M  END
> <s_m_entry_id>
7280

> <s_m_entry_name>
ligand_docking-pose.422

> <s_m_Source_Path>
/home/csk/Desktop/cluster/DUD-E-result/aldr

> <s_m_Source_File>
ligand_docking-pose.sdf

> <i_m_Source_File_Index>
422

> <i_lp_mmshare_version>
53161

> <r_lp_tautomer_probability>
1

> <s_lp_Force_Field>
OPLS_2005

> <r_lp_Energy>
22.052506

> <b_lp_Chiralities_Consistent>
1

> <s_lp_Variant>
625981-1

> <s_i_glide_gridfile>
glide-grid_2hv5

> <i_i_glide_lignum>
630

> <i_i_glide_rotatable_bonds>
8

> <r_i_docking_score>
-7.4607718775715

> <r_i_glide_ligand_efficiency>
-0.266456138484697

> <r_i_glide_ligand_efficiency_sa>
-0.809117770712489

> <r_i_glide_ligand_efficiency_ln>
-1.72216520712448

> <r_i_glide_gscore>
-7.4607718775715

> <r_i_glide_lipo>
-4.81954708823565

> <r_i_glide_hbond>
-0.08081999544216

> <r_i_glide_metal>
0

> <r_i_glide_rewards>
-0.981987314853219

> <r_i_glide_evdw>
-49.6104545593262

> <r_i_glide_ecoul>
0.773596346378326

> <r_i_glide_erotb>
0.786065796969084

> <r_i_glide_esite>
0

> <r_i_glide_emodel>
-59.1379304953055

> <r_i_glide_energy>
-48.8368582129478

> <r_i_glide_einternal>
12.0701122283936

> <i_i_glide_confnum>
3

> <i_i_glide_posenum>
140

> <r_i_glide_eff_state_penalty>
0

> <i_f3d_flags>
0

> <s_user_duplicate_titles>
625981

> <s_m_subgroup_title>
dock_pv

> <s_m_subgroupid>
dock_pv1

> <b_m_subgroup_collapsed>
0

$$$$
10493
                    3D
 Schrodinger Suite 2021-1.
 23 24  0  0  1  0            999 V2000
   16.2406  -12.3200   16.5599 C   0  0  0  0  0  0
   16.8265  -11.2673   15.8542 C   0  0  0  0  0  0
   16.4408   -9.9414   16.1031 C   0  0  0  0  0  0
   17.0204   -8.7542   15.4128 C   0  0  0  0  0  0
   16.5247   -7.5316   15.7171 C   0  0  0  0  0  0
   15.4587   -7.3209   16.6944 C   0  0  0  0  0  0
   14.9457   -6.2449   16.9809 O   0  0  0  0  0  0
   14.9802   -8.4315   17.3557 O   0  0  0  0  0  0
   15.4394   -9.7056   17.0631 C   0  0  0  0  0  0
   14.8600  -10.7568   17.7732 C   0  0  0  0  0  0
   15.2621  -12.0655   17.5208 C   0  0  0  0  0  0
   14.5486  -13.3691   18.3978 Cl  0  0  0  0  0  0
   18.1459   -9.0321   14.3943 C   0  0  0  0  0  0
   18.9428   -7.8634   13.7810 C   0  0  0  0  0  0
   18.5393   -6.7172   13.6086 O   0  0  0  0  0  0
   20.1669   -8.2956   13.3812 O   0  0  0  0  0  0
   16.5480  -13.3370   16.3608 H   0  0  0  0  0  0
   17.5781  -11.5046   15.1174 H   0  0  0  0  0  0
   16.9033   -6.6448   15.2430 H   0  0  0  0  0  0
   14.1030  -10.5602   18.5179 H   0  0  0  0  0  0
   17.7391   -9.6162   13.5686 H   0  0  0  0  0  0
   18.8770   -9.6659   14.8974 H   0  0  0  0  0  0
   20.6988   -7.5864   12.9961 H   0  0  0  0  0  0
  1 11  1  0  0  0
  1  2  2  0  0  0
  1 17  1  0  0  0
  2  3  1  0  0  0
  2 18  1  0  0  0
  3  9  2  0  0  0
  3  4  1  0  0  0
  4  5  2  0  0  0
  4 13  1  0  0  0
  5  6  1  0  0  0
  5 19  1  0  0  0
  6  7  2  0  0  0
  6  8  1  0  0  0
  8  9  1  0  0  0
  9 10  1  0  0  0
 10 11  2  0  0  0
 10 20  1  0  0  0
 11 12  1  0  0  0
 13 14  1  0  0  0
 13 21  1  0  0  0
 13 22  1  0  0  0
 14 15  2  0  0  0
 14 16  1  0  0  0
 16 23  1  0  0  0
M  END
> <s_m_entry_id>
7281

> <s_m_entry_name>
ligand_docking-pose.423

> <s_m_Source_Path>
/home/csk/Desktop/cluster/DUD-E-result/aldr

> <s_m_Source_File>
ligand_docking-pose.sdf

> <i_m_Source_File_Index>
423

> <i_lp_mmshare_version>
53161

> <r_lp_tautomer_probability>
1

> <s_lp_Force_Field>
OPLS_2005

> <r_lp_Energy>
9.891959

> <b_lp_Chiralities_Consistent>
1

> <s_lp_Variant>
10493-1

> <s_i_glide_gridfile>
glide-grid_2hv5

> <i_i_glide_lignum>
79

> <i_i_glide_rotatable_bonds>
3

> <r_i_docking_score>
-7.45313496522218

> <r_i_glide_ligand_efficiency>
-0.465820935326386

> <r_i_glide_ligand_efficiency_sa>
-1.17379520271405

> <r_i_glide_ligand_efficiency_ln>
-1.97560230228257

> <r_i_glide_gscore>
-7.45313496522218

> <r_i_glide_lipo>
-2.07284591174355

> <r_i_glide_hbond>
-0.304

> <r_i_glide_metal>
0

> <r_i_glide_rewards>
-3.09919598129675

> <r_i_glide_evdw>
-27.2866039276123

> <r_i_glide_ecoul>
-6.10644865036011

> <r_i_glide_erotb>
0.303204421752758

> <r_i_glide_esite>
0

> <r_i_glide_emodel>
-46.6382589459171

> <r_i_glide_energy>
-33.3930525779724

> <r_i_glide_einternal>
3.19037008285522

> <i_i_glide_confnum>
3

> <i_i_glide_posenum>
168

> <r_i_glide_eff_state_penalty>
0

> <i_f3d_flags>
0

> <s_user_duplicate_titles>
10493

> <s_m_subgroup_title>
dock_pv

> <s_m_subgroupid>
dock_pv1

> <b_m_subgroup_collapsed>
0

$$$$
128518
                    3D
 Schrodinger Suite 2021-1.
 36 39  0  0  1  0            999 V2000
   21.5902   -8.9150   13.2871 C   0  0  0  0  0  0
   20.2099   -8.7302   12.9810 O   0  0  0  0  0  0
   19.3504   -9.6909   13.4482 C   0  0  0  0  0  0
   19.3446  -11.0086   12.9810 C   0  0  0  0  0  0
   18.4645  -11.9449   13.5087 C   0  0  0  0  0  0
   17.5866  -11.5872   14.5261 C   0  0  0  0  0  0
   17.5814  -10.2609   15.0380 C   0  0  0  0  0  0
   18.4783   -9.3074   14.4747 C   0  0  0  0  0  0
   18.5269   -7.9936   14.9810 C   0  0  0  0  0  0
   17.7450   -7.6446   16.0536 C   0  0  0  0  0  0
   16.7962   -8.5222   16.5873 C   0  0  0  0  0  0
   16.7282   -9.8370   16.0887 C   0  0  0  0  0  0
   15.8173  -10.7886   16.5196 O   0  0  0  0  0  0
   15.1139  -10.5156   17.7289 C   0  0  0  0  0  0
   14.6394   -9.0635   17.7951 C   0  0  0  0  0  0
   15.8113   -8.0638   17.6556 C   0  0  2  0  0  0
   15.2543   -6.7220   17.2449 C   0  0  0  0  0  0
   14.5450   -6.5150   16.2772 O   0  0  0  0  0  0
   15.7455   -5.8178   18.0904 N   0  0  0  0  0  0
   16.3984   -6.3396   19.1312 C   0  0  0  0  0  0
   16.9450   -5.7150   20.0316 O   0  0  0  0  0  0
   16.4257   -7.6562   18.8904 N   0  0  0  0  0  0
   22.2041   -8.5158   12.4809 H   0  0  0  0  0  0
   21.8556   -8.3632   14.1810 H   0  0  0  0  0  0
   21.8795   -9.9621   13.3810 H   0  0  0  0  0  0
   20.0189  -11.3150   12.1972 H   0  0  0  0  0  0
   18.4650  -12.9560   13.1281 H   0  0  0  0  0  0
   16.9092  -12.3241   14.9329 H   0  0  0  0  0  0
   19.2160   -7.2685   14.5709 H   0  0  0  0  0  0
   17.8428   -6.6376   16.4326 H   0  0  0  0  0  0
   14.2580  -11.1895   17.7901 H   0  0  0  0  0  0
   15.7450  -10.7387   18.5810 H   0  0  0  0  0  0
   13.9159   -8.9607   16.9810 H   0  0  0  0  0  0
   14.1450   -8.9151   18.7425 H   0  0  0  0  0  0
   15.6327   -4.8247   17.9684 H   0  0  0  0  0  0
   16.5472   -8.3300   19.6342 H   0  0  0  0  0  0
  1  2  1  0  0  0
  1 23  1  0  0  0
  1 24  1  0  0  0
  1 25  1  0  0  0
  2  3  1  0  0  0
  3  8  1  0  0  0
  3  4  2  0  0  0
  4  5  1  0  0  0
  4 26  1  0  0  0
  5  6  2  0  0  0
  5 27  1  0  0  0
  6  7  1  0  0  0
  6 28  1  0  0  0
  7 12  2  0  0  0
  7  8  1  0  0  0
  8  9  2  0  0  0
  9 10  1  0  0  0
  9 29  1  0  0  0
 10 11  2  0  0  0
 10 30  1  0  0  0
 11 16  1  0  0  0
 11 12  1  0  0  0
 12 13  1  0  0  0
 13 14  1  0  0  0
 14 15  1  0  0  0
 14 31  1  0  0  0
 14 32  1  0  0  0
 15 16  1  0  0  0
 15 33  1  0  0  0
 15 34  1  0  0  0
 16 22  1  0  0  0
 16 17  1  0  0  0
 17 18  2  0  0  0
 17 19  1  0  0  0
 19 20  1  0  0  0
 19 35  1  0  0  0
 20 21  2  0  0  0
 20 22  1  0  0  0
 22 36  1  0  0  0
M  END
> <s_m_entry_id>
7285

> <s_m_entry_name>
ligand_docking-pose.427

> <s_m_Source_Path>
/home/csk/Desktop/cluster/DUD-E-result/aldr

> <s_m_Source_File>
ligand_docking-pose.sdf

> <i_m_Source_File_Index>
427

> <i_lp_mmshare_version>
53161

> <r_lp_tautomer_probability>
0.99999999978137

> <s_lp_Force_Field>
OPLS_2005

> <r_lp_Energy>
31.966766

> <b_lp_Chiralities_Consistent>
1

> <s_lp_Variant>
128518-2

> <s_i_glide_gridfile>
glide-grid_2hv5

> <i_i_glide_lignum>
744

> <i_i_glide_rotatable_bonds>
1

> <r_i_docking_score>
-7.39194717397866

> <r_i_glide_ligand_efficiency>
-0.335997598817212

> <r_i_glide_ligand_efficiency_sa>
-0.941478485921548

> <r_i_glide_ligand_efficiency_ln>
-1.80686151714477

> <r_i_glide_gscore>
-7.39194717397866

> <r_i_glide_lipo>
-2.72262848389685

> <r_i_glide_hbond>
-0.32

> <r_i_glide_metal>
0

> <r_i_glide_rewards>
-3.00684878327487

> <r_i_glide_evdw>
-10.7873020172119

> <r_i_glide_ecoul>
-5.35403203964233

> <r_i_glide_erotb>
0

> <r_i_glide_esite>
0

> <r_i_glide_emodel>
-22.7881170585764

> <r_i_glide_energy>
-16.1413340568542

> <r_i_glide_einternal>
5.64184522628784

> <i_i_glide_confnum>
1

> <i_i_glide_posenum>
72

> <r_i_glide_eff_state_penalty>
0

> <i_f3d_flags>
0

> <s_user_duplicate_titles>
128518

> <s_m_subgroup_title>
dock_pv

> <s_m_subgroupid>
dock_pv1

> <b_m_subgroup_collapsed>
0

$$$$
104985
                    3D
 Schrodinger Suite 2021-1.
 46 48  0  0  1  0            999 V2000
   16.9252   -2.1191    8.9908 C   0  0  0  0  0  0
   18.1029   -2.2984    9.7147 C   0  0  0  0  0  0
   18.2465   -3.4455   10.4831 C   0  0  0  0  0  0
   17.1970   -4.3607   10.5503 C   0  0  0  0  0  0
   15.9912   -4.1185    9.9044 C   0  0  0  0  0  0
   15.8686   -3.0080    9.1136 C   0  0  0  0  0  0
   17.3396   -5.6833   11.1991 C   0  0  0  0  0  0
   16.8778   -6.6371   10.5810 O   0  0  0  0  0  0
   17.9246   -5.7165   12.4142 N   0  0  0  0  0  0
   17.9900   -6.8317   13.2628 C   0  0  0  0  0  0
   17.7561   -8.1332   12.8249 C   0  0  0  0  0  0
   17.7453   -9.1907   13.6992 C   0  0  0  0  0  0
   17.8009   -8.9678   15.0714 C   0  0  0  0  0  0
   18.1447   -7.6820   15.5151 C   0  0  0  0  0  0
   18.2730   -6.6261   14.6106 C   0  0  0  0  0  0
   17.4572  -10.1526   15.9496 C   0  0  0  0  0  0
   17.7623  -11.2597   15.4935 O   0  0  0  0  0  0
   16.6950  -10.0197   17.0872 N   0  0  0  0  0  0
   16.3763   -8.7296   17.7714 C   0  0  0  0  0  0
   15.3522   -7.8515   17.0216 C   0  0  0  0  0  0
   14.5848   -8.2607   16.1839 O   0  0  0  0  0  0
   15.4442   -6.5618   17.4537 O   0  0  0  0  0  0
   16.1486  -11.1771   17.7159 C   0  0  0  0  0  0
   14.8415  -11.1024   18.1997 C   0  0  0  0  0  0
   14.3350  -12.1203   18.9804 C   0  0  0  0  0  0
   15.0917  -13.2584   19.2390 C   0  0  0  0  0  0
   16.3746  -13.3833   18.7118 C   0  0  0  0  0  0
   16.9039  -12.3474   17.9494 C   0  0  0  0  0  0
   16.8172   -1.3143    8.2904 H   0  0  0  0  0  0
   18.9152   -1.5888    9.6383 H   0  0  0  0  0  0
   19.1803   -3.6411   10.9751 H   0  0  0  0  0  0
   15.1637   -4.8131    9.9506 H   0  0  0  0  0  0
   14.9484   -2.9099    8.5813 H   0  0  0  0  0  0
   18.1675   -4.8275   12.8220 H   0  0  0  0  0  0
   17.5677   -8.3804   11.8013 H   0  0  0  0  0  0
   17.5470  -10.1759   13.2943 H   0  0  0  0  0  0
   18.3548   -7.4616   16.5457 H   0  0  0  0  0  0
   18.5462   -5.6483   14.9766 H   0  0  0  0  0  0
   15.9706   -8.9223   18.7686 H   0  0  0  0  0  0
   17.2949   -8.1909   17.9842 H   0  0  0  0  0  0
   16.1211   -6.4433   18.1191 H   0  0  0  0  0  0
   14.2155  -10.2404   18.0185 H   0  0  0  0  0  0
   13.3450  -11.9872   19.3808 H   0  0  0  0  0  0
   14.6715  -14.0414   19.8503 H   0  0  0  0  0  0
   16.9754  -14.2595   18.9165 H   0  0  0  0  0  0
   17.9186  -12.4368   17.5968 H   0  0  0  0  0  0
  1  6  1  0  0  0
  1  2  2  0  0  0
  1 29  1  0  0  0
  2  3  1  0  0  0
  2 30  1  0  0  0
  3  4  2  0  0  0
  3 31  1  0  0  0
  4  5  1  0  0  0
  4  7  1  0  0  0
  5  6  2  0  0  0
  5 32  1  0  0  0
  6 33  1  0  0  0
  7  8  2  0  0  0
  7  9  1  0  0  0
  9 10  1  0  0  0
  9 34  1  0  0  0
 10 15  1  0  0  0
 10 11  2  0  0  0
 11 12  1  0  0  0
 11 35  1  0  0  0
 12 13  2  0  0  0
 12 36  1  0  0  0
 13 14  1  0  0  0
 13 16  1  0  0  0
 14 15  2  0  0  0
 14 37  1  0  0  0
 15 38  1  0  0  0
 16 17  2  0  0  0
 16 18  1  0  0  0
 18 19  1  0  0  0
 18 23  1  0  0  0
 19 20  1  0  0  0
 19 39  1  0  0  0
 19 40  1  0  0  0
 20 21  2  0  0  0
 20 22  1  0  0  0
 22 41  1  0  0  0
 23 28  1  0  0  0
 23 24  2  0  0  0
 24 25  1  0  0  0
 24 42  1  0  0  0
 25 26  2  0  0  0
 25 43  1  0  0  0
 26 27  1  0  0  0
 26 44  1  0  0  0
 27 28  2  0  0  0
 27 45  1  0  0  0
 28 46  1  0  0  0
M  END
> <s_m_entry_id>
7286

> <s_m_entry_name>
ligand_docking-pose.428

> <s_m_Source_Path>
/home/csk/Desktop/cluster/DUD-E-result/aldr

> <s_m_Source_File>
ligand_docking-pose.sdf

> <i_m_Source_File_Index>
428

> <i_lp_mmshare_version>
53161

> <r_lp_tautomer_probability>
1

> <s_lp_Force_Field>
OPLS_2005

> <r_lp_Energy>
42.096632

> <b_lp_Chiralities_Consistent>
1

> <s_lp_Variant>
104985-1

> <s_i_glide_gridfile>
glide-grid_2hv5

> <i_i_glide_lignum>
409

> <i_i_glide_rotatable_bonds>
9

> <r_i_docking_score>
-7.38639442710592

> <r_i_glide_ligand_efficiency>
-0.263799800968068

> <r_i_glide_ligand_efficiency_sa>
-0.801051565512875

> <r_i_glide_ligand_efficiency_ln>
-1.70499670774019

> <r_i_glide_gscore>
-7.38639442710592

> <r_i_glide_lipo>
-3.31927292389692

> <r_i_glide_hbond>
0

> <r_i_glide_metal>
0

> <r_i_glide_rewards>
-2.84554263051111

> <r_i_glide_evdw>
-32.3404273986816

> <r_i_glide_ecoul>
-4.72081327438354

> <r_i_glide_erotb>
1.10356448839373

> <r_i_glide_esite>
0

> <r_i_glide_emodel>
-52.7964950054745

> <r_i_glide_energy>
-37.0612406730652

> <r_i_glide_einternal>
16.4262237548828

> <i_i_glide_confnum>
57

> <i_i_glide_posenum>
122

> <r_i_glide_eff_state_penalty>
0

> <i_f3d_flags>
0

> <s_user_duplicate_titles>
104985

> <s_m_subgroup_title>
dock_pv

> <s_m_subgroupid>
dock_pv1

> <b_m_subgroup_collapsed>
0

$$$$
237267
                    3D
 Schrodinger Suite 2021-1.
 35 37  0  0  1  0            999 V2000
   16.9849   -2.8881    9.0253 C   0  0  0  0  0  0
   18.1994   -3.1029    9.6488 C   0  0  0  0  0  0
   18.3560   -4.1174   10.5827 C   0  0  0  0  0  0
   17.2423   -4.8625   11.0514 C   0  0  0  0  0  0
   15.9823   -4.5835   10.4428 C   0  0  0  0  0  0
   15.8885   -3.6459    9.3888 C   0  0  0  0  0  0
   14.8322   -5.1709   10.9702 C   0  0  0  0  0  0
   14.9233   -5.9522   12.0998 C   0  0  0  0  0  0
   16.1285   -6.3210   12.6972 C   0  0  0  0  0  0
   17.3067   -5.7801   12.1623 C   0  0  0  0  0  0
   18.5458   -5.9177   12.9190 N   0  3  0  0  0  0
   18.9453   -4.9271   13.4789 O   0  5  0  0  0  0
   19.1053   -6.9893   12.9821 O   0  0  0  0  0  0
   16.0172   -7.0047   14.0214 C   0  0  0  0  0  0
   16.5903   -8.1100   14.5751 C   0  0  0  0  0  0
   16.1912   -8.5269   15.9043 C   0  0  0  0  0  0
   15.5045   -7.8638   16.6890 O   0  0  0  0  0  0
   16.6343   -9.7868   16.1565 N   0  0  0  0  0  0
   17.3440  -10.4392   15.1863 C   0  0  0  0  0  0
   17.8152  -12.0349   15.0575 S   0  0  0  0  0  0
   17.7450   -9.2998   13.9407 S   0  0  0  0  0  0
   16.3401  -10.4324   17.4620 C   0  0  0  0  0  0
   15.0319  -11.2517   17.4981 C   0  0  0  0  0  0
   14.5455  -11.6067   18.5476 O   0  0  0  0  0  0
   14.5454  -11.5565   16.2592 O   0  0  0  0  0  0
   16.8841   -2.1168    8.2764 H   0  0  0  0  0  0
   19.0311   -2.4677    9.4050 H   0  0  0  0  0  0
   19.3307   -4.2865   10.9936 H   0  0  0  0  0  0
   14.9452   -3.4580    8.9133 H   0  0  0  0  0  0
   13.8628   -4.9020   10.5728 H   0  0  0  0  0  0
   13.9744   -6.1150   12.5758 H   0  0  0  0  0  0
   15.3107   -6.4917   14.6527 H   0  0  0  0  0  0
   16.2454   -9.6671   18.2333 H   0  0  0  0  0  0
   17.1680  -11.0663   17.7756 H   0  0  0  0  0  0
   15.1148  -11.2361   15.5605 H   0  0  0  0  0  0
  1  6  1  0  0  0
  1  2  2  0  0  0
  1 26  1  0  0  0
  2  3  1  0  0  0
  2 27  1  0  0  0
  3  4  2  0  0  0
  3 28  1  0  0  0
  4 10  1  0  0  0
  4  5  1  0  0  0
  5  6  2  0  0  0
  5  7  1  0  0  0
  6 29  1  0  0  0
  7  8  2  0  0  0
  7 30  1  0  0  0
  8  9  1  0  0  0
  8 31  1  0  0  0
  9 10  2  0  0  0
  9 14  1  0  0  0
 10 11  1  0  0  0
 11 12  1  0  0  0
 11 13  2  0  0  0
 14 15  2  0  0  0
 14 32  1  0  0  0
 15 21  1  0  0  0
 15 16  1  0  0  0
 16 17  2  0  0  0
 16 18  1  0  0  0
 18 19  1  0  0  0
 18 22  1  0  0  0
 19 20  2  0  0  0
 19 21  1  0  0  0
 22 23  1  0  0  0
 22 33  1  0  0  0
 22 34  1  0  0  0
 23 24  2  0  0  0
 23 25  1  0  0  0
 25 35  1  0  0  0
M  CHG  2  11   1  12  -1
M  END
> <s_m_entry_id>
7287

> <s_m_entry_name>
ligand_docking-pose.429

> <s_m_Source_Path>
/home/csk/Desktop/cluster/DUD-E-result/aldr

> <s_m_Source_File>
ligand_docking-pose.sdf

> <i_m_Source_File_Index>
429

> <i_lp_mmshare_version>
53161

> <r_lp_tautomer_probability>
1

> <s_lp_Force_Field>
OPLS_2005

> <r_lp_Energy>
23.526614

> <b_lp_Chiralities_Consistent>
1

> <s_lp_Variant>
237267-1

> <s_i_glide_gridfile>
glide-grid_2hv5

> <i_i_glide_lignum>
141

> <i_i_glide_rotatable_bonds>
5

> <r_i_docking_score>
-7.38460038636416

> <r_i_glide_ligand_efficiency>
-0.295384015454566

> <r_i_glide_ligand_efficiency_sa>
-0.863708099846973

> <r_i_glide_ligand_efficiency_ln>
-1.75037159018418

> <r_i_glide_gscore>
-7.38460038636416

> <r_i_glide_lipo>
-3.34236042474343

> <r_i_glide_hbond>
0

> <r_i_glide_metal>
0

> <r_i_glide_rewards>
-3.46686172954072

> <r_i_glide_evdw>
-26.9018936157227

> <r_i_glide_ecoul>
2.3725802898407

> <r_i_glide_erotb>
0.413829405230023

> <r_i_glide_esite>
0

> <r_i_glide_emodel>
-32.3308661649804

> <r_i_glide_energy>
-24.529313325882

> <r_i_glide_einternal>
4.46079587936401

> <i_i_glide_confnum>
14

> <i_i_glide_posenum>
8

> <r_i_glide_eff_state_penalty>
0

> <i_f3d_flags>
0

> <s_user_duplicate_titles>
237267

> <s_m_subgroup_title>
dock_pv

> <s_m_subgroupid>
dock_pv1

> <b_m_subgroup_collapsed>
0

$$$$
97235
                    3D
 Schrodinger Suite 2021-1.
 28 29  0  0  1  0            999 V2000
   16.3607   -4.8813   20.0237 C   0  0  0  0  0  0
   15.7450   -6.1152   19.6586 O   0  0  0  0  0  0
   16.1651   -6.7706   18.5143 C   0  0  0  0  0  0
   17.0137   -6.1857   17.5753 C   0  0  0  0  0  0
   17.5034   -6.9150   16.4968 C   0  0  0  0  0  0
   17.1217   -8.2453   16.2844 C   0  0  0  0  0  0
   16.2052   -8.8107   17.1858 C   0  0  0  0  0  0
   15.7452   -8.0863   18.2859 C   0  0  0  0  0  0
   15.8083  -10.2046   16.9569 C   0  0  0  0  0  0
   16.3477  -10.9110   15.9414 C   0  0  0  0  0  0
   17.3449  -10.3828   15.0231 C   0  0  0  0  0  0
   17.8590  -11.1108   14.1736 O   0  0  0  0  0  0
   17.6420   -9.0518   15.2124 N   0  0  0  0  0  0
   18.6365   -8.4402   14.2856 C   0  0  0  0  0  0
   17.9914   -7.3743   13.3801 C   0  0  0  0  0  0
   16.8095   -7.3150   13.1149 O   0  0  0  0  0  0
   18.9444   -6.4860   12.9812 O   0  0  0  0  0  0
   15.9932   -4.5601   20.9978 H   0  0  0  0  0  0
   17.4442   -4.9814   20.1044 H   0  0  0  0  0  0
   16.1277   -4.0887   19.3109 H   0  0  0  0  0  0
   17.3448   -5.1664   17.6887 H   0  0  0  0  0  0
   18.1968   -6.4070   15.8471 H   0  0  0  0  0  0
   15.0882   -8.5774   18.9806 H   0  0  0  0  0  0
   15.0647  -10.6646   17.5932 H   0  0  0  0  0  0
   16.0345  -11.9316   15.7807 H   0  0  0  0  0  0
   19.4171   -7.9793   14.8881 H   0  0  0  0  0  0
   19.1445   -9.1723   13.6554 H   0  0  0  0  0  0
   19.8342   -6.7188   13.2590 H   0  0  0  0  0  0
  1  2  1  0  0  0
  1 18  1  0  0  0
  1 19  1  0  0  0
  1 20  1  0  0  0
  2  3  1  0  0  0
  3  8  1  0  0  0
  3  4  2  0  0  0
  4  5  1  0  0  0
  4 21  1  0  0  0
  5  6  2  0  0  0
  5 22  1  0  0  0
  6 13  1  0  0  0
  6  7  1  0  0  0
  7  8  2  0  0  0
  7  9  1  0  0  0
  8 23  1  0  0  0
  9 10  2  0  0  0
  9 24  1  0  0  0
 10 11  1  0  0  0
 10 25  1  0  0  0
 11 12  2  0  0  0
 11 13  1  0  0  0
 13 14  1  0  0  0
 14 15  1  0  0  0
 14 26  1  0  0  0
 14 27  1  0  0  0
 15 16  2  0  0  0
 15 17  1  0  0  0
 17 28  1  0  0  0
M  END
> <s_m_entry_id>
7288

> <s_m_entry_name>
ligand_docking-pose.430

> <s_m_Source_Path>
/home/csk/Desktop/cluster/DUD-E-result/aldr

> <s_m_Source_File>
ligand_docking-pose.sdf

> <i_m_Source_File_Index>
430

> <i_lp_mmshare_version>
53161

> <r_lp_tautomer_probability>
1

> <s_lp_Force_Field>
OPLS_2005

> <r_lp_Energy>
24.849706

> <b_lp_Chiralities_Consistent>
1

> <s_lp_Variant>
97235-1

> <s_i_glide_gridfile>
glide-grid_2hv5

> <i_i_glide_lignum>
721

> <i_i_glide_rotatable_bonds>
4

> <r_i_docking_score>
-7.38407058826404

> <r_i_glide_ligand_efficiency>
-0.434357093427296

> <r_i_glide_ligand_efficiency_sa>
-1.11685439704666

> <r_i_glide_ligand_efficiency_ln>
-1.92633958131075

> <r_i_glide_gscore>
-7.38407058826404

> <r_i_glide_lipo>
-2.4959664713805

> <r_i_glide_hbond>
-0.310648413967224

> <r_i_glide_metal>
0

> <r_i_glide_rewards>
-3.36292880927703

> <r_i_glide_evdw>
-26.2434997558594

> <r_i_glide_ecoul>
-3.55248165130615

> <r_i_glide_erotb>
0.630520341849613

> <r_i_glide_esite>
0

> <r_i_glide_emodel>
-41.211009738569

> <r_i_glide_energy>
-29.7959814071655

> <r_i_glide_einternal>
2.14942836761475

> <i_i_glide_confnum>
2

> <i_i_glide_posenum>
316

> <r_i_glide_eff_state_penalty>
0

> <i_f3d_flags>
0

> <s_user_duplicate_titles>
97235

> <s_m_subgroup_title>
dock_pv

> <s_m_subgroupid>
dock_pv1

> <b_m_subgroup_collapsed>
0

$$$$
489469
                    3D
 Schrodinger Suite 2021-1.
 42 44  0  0  1  0            999 V2000
   18.5062  -13.1856   17.2992 C   0  0  0  0  0  0
   17.9723  -12.5435   16.1500 O   0  0  0  0  0  0
   17.1626  -11.4430   16.3336 C   0  0  0  0  0  0
   16.2252  -11.4154   17.3625 C   0  0  0  0  0  0
   15.4188  -10.3070   17.5481 C   0  0  0  0  0  0
   15.5080   -9.1923   16.7203 C   0  0  0  0  0  0
   16.4345   -9.2173   15.6740 C   0  0  0  0  0  0
   17.2616  -10.3386   15.4694 C   0  0  0  0  0  0
   18.2179  -10.3287   14.3310 C   0  0  0  0  0  0
   18.8602  -11.3174   13.9730 O   0  0  0  0  0  0
   18.3537   -9.0153   13.7127 C   0  0  0  0  0  0
   17.4481   -8.0352   13.8894 C   0  0  0  0  0  0
   16.4633   -8.1150   14.8263 O   0  0  0  0  0  0
   17.3171   -6.8275   13.0281 C   0  0  0  0  0  0
   18.3580   -5.9605   12.6828 C   0  0  0  0  0  0
   18.1459   -4.9501   11.7311 C   0  0  0  0  0  0
   16.9058   -4.7708   11.1294 C   0  0  0  0  0  0
   15.8492   -5.5952   11.5029 C   0  0  0  0  0  0
   16.0865   -6.6187   12.4131 C   0  0  0  0  0  0
   14.5936   -5.4155   10.9810 O   0  0  0  0  0  0
   16.7367   -3.7931   10.1816 O   0  0  0  0  0  0
   19.3456   -8.9144   12.8212 O   0  0  0  0  0  0
   20.6522   -8.7889   13.3810 C   0  0  0  0  0  0
   14.6457   -8.1359   16.9167 O   0  0  0  0  0  0
   15.2463   -6.9118   17.3169 C   0  0  0  0  0  0
   14.5451  -10.3167   18.5810 O   0  0  0  0  0  0
   19.3272  -13.8260   16.9781 H   0  0  0  0  0  0
   17.7632  -13.8123   17.7916 H   0  0  0  0  0  0
   18.9076  -12.4720   18.0208 H   0  0  0  0  0  0
   16.1006  -12.2642   18.0164 H   0  0  0  0  0  0
   19.3416   -6.0959   13.1108 H   0  0  0  0  0  0
   18.9450   -4.2996   11.4288 H   0  0  0  0  0  0
   15.3411   -7.3541   12.5828 H   0  0  0  0  0  0
   13.9150   -5.9627   11.3836 H   0  0  0  0  0  0
   15.8162   -3.7487    9.9044 H   0  0  0  0  0  0
   21.3479   -8.5150   12.5917 H   0  0  0  0  0  0
   20.7058   -8.0177   14.1520 H   0  0  0  0  0  0
   21.0061   -9.7350   13.7805 H   0  0  0  0  0  0
   14.5515   -6.1085   17.0824 H   0  0  0  0  0  0
   15.4259   -6.9103   18.3924 H   0  0  0  0  0  0
   16.1856   -6.6840   16.8124 H   0  0  0  0  0  0
   14.0321   -9.5053   18.5599 H   0  0  0  0  0  0
  1  2  1  0  0  0
  1 27  1  0  0  0
  1 28  1  0  0  0
  1 29  1  0  0  0
  2  3  1  0  0  0
  3  8  1  0  0  0
  3  4  2  0  0  0
  4  5  1  0  0  0
  4 30  1  0  0  0
  5  6  2  0  0  0
  5 26  1  0  0  0
  6  7  1  0  0  0
  6 24  1  0  0  0
  7 13  1  0  0  0
  7  8  2  0  0  0
  8  9  1  0  0  0
  9 10  2  0  0  0
  9 11  1  0  0  0
 11 12  2  0  0  0
 11 22  1  0  0  0
 12 13  1  0  0  0
 12 14  1  0  0  0
 14 19  1  0  0  0
 14 15  2  0  0  0
 15 16  1  0  0  0
 15 31  1  0  0  0
 16 17  2  0  0  0
 16 32  1  0  0  0
 17 18  1  0  0  0
 17 21  1  0  0  0
 18 19  2  0  0  0
 18 20  1  0  0  0
 19 33  1  0  0  0
 20 34  1  0  0  0
 21 35  1  0  0  0
 22 23  1  0  0  0
 23 36  1  0  0  0
 23 37  1  0  0  0
 23 38  1  0  0  0
 24 25  1  0  0  0
 25 39  1  0  0  0
 25 40  1  0  0  0
 25 41  1  0  0  0
 26 42  1  0  0  0
M  END
> <s_m_entry_id>
7291

> <s_m_entry_name>
ligand_docking-pose.433

> <s_m_Source_Path>
/home/csk/Desktop/cluster/DUD-E-result/aldr

> <s_m_Source_File>
ligand_docking-pose.sdf

> <i_m_Source_File_Index>
433

> <i_lp_mmshare_version>
53161

> <r_lp_tautomer_probability>
0.999999999999776

> <s_lp_Force_Field>
OPLS_2005

> <r_lp_Energy>
31.282777

> <b_lp_Chiralities_Consistent>
1

> <s_lp_Variant>
489469-1

> <s_i_glide_gridfile>
glide-grid_2hv5

> <i_i_glide_lignum>
749

> <i_i_glide_rotatable_bonds>
7

> <r_i_docking_score>
-7.37329165604733

> <r_i_glide_ligand_efficiency>
-0.283588140617205

> <r_i_glide_ligand_efficiency_sa>
-0.84012875071302

> <r_i_glide_ligand_efficiency_ln>
-1.73159335167946

> <r_i_glide_gscore>
-7.37329165604733

> <r_i_glide_lipo>
-4.11516759023408

> <r_i_glide_hbond>
0

> <r_i_glide_metal>
0

> <r_i_glide_rewards>
-1.67135693714369

> <r_i_glide_evdw>
-33.1466674804688

> <r_i_glide_ecoul>
-0.514334917068481

> <r_i_glide_erotb>
0.147716482914154

> <r_i_glide_esite>
0

> <r_i_glide_emodel>
-33.3572899596633

> <r_i_glide_energy>
-33.6610023975372

> <r_i_glide_einternal>
6.23561477661133

> <i_i_glide_confnum>
2

> <i_i_glide_posenum>
2

> <r_i_glide_eff_state_penalty>
0

> <i_f3d_flags>
0

> <s_user_duplicate_titles>
489469

> <s_m_subgroup_title>
dock_pv

> <s_m_subgroupid>
dock_pv1

> <b_m_subgroup_collapsed>
0

$$$$
128341
                    3D
 Schrodinger Suite 2021-1.
 26 28  0  0  1  0            999 V2000
   17.7818   -7.4203   15.3850 C   0  0  0  0  0  0
   18.7273   -7.2773   14.3768 C   0  0  0  0  0  0
   19.1922   -8.4007   13.7054 C   0  0  0  0  0  0
   18.6796   -9.6594   13.9959 C   0  0  0  0  0  0
   17.7440   -9.8060   15.0256 C   0  0  0  0  0  0
   17.2926   -8.6833   15.7591 C   0  0  0  0  0  0
   16.3411   -8.8806   16.9538 C   0  0  2  0  0  0
   16.3315  -10.3704   17.3738 C   0  0  0  0  0  0
   16.2314  -11.2964   16.1499 C   0  0  0  0  0  0
   17.3749  -11.1106   15.3153 O   0  0  0  0  0  0
   14.9447   -8.3910   16.6061 C   0  0  0  0  0  0
   14.1454   -8.9267   15.8476 O   0  0  0  0  0  0
   14.7518   -7.2784   17.3241 N   0  0  0  0  0  0
   15.7459   -6.9856   18.1813 C   0  0  0  0  0  0
   15.7439   -6.1163   19.0470 O   0  0  0  0  0  0
   16.6181   -7.9869   18.0478 N   0  0  0  0  0  0
   19.2796  -11.0288   13.1256 Cl  0  0  0  0  0  0
   19.3441   -5.7173   13.9854 Cl  0  0  0  0  0  0
   17.4574   -6.5351   15.9107 H   0  0  0  0  0  0
   19.9806   -8.2999   12.9811 H   0  0  0  0  0  0
   17.2894  -10.6121   17.8311 H   0  0  0  0  0  0
   15.5425  -10.5907   18.0960 H   0  0  0  0  0  0
   15.3222  -11.1119   15.5787 H   0  0  0  0  0  0
   16.2004  -12.3387   16.4680 H   0  0  0  0  0  0
   13.8539   -6.8228   17.3634 H   0  0  0  0  0  0
   17.5500   -7.9428   18.4334 H   0  0  0  0  0  0
  1  6  1  0  0  0
  1  2  2  0  0  0
  1 19  1  0  0  0
  2  3  1  0  0  0
  2 18  1  0  0  0
  3  4  2  0  0  0
  3 20  1  0  0  0
  4  5  1  0  0  0
  4 17  1  0  0  0
  5 10  1  0  0  0
  5  6  2  0  0  0
  6  7  1  0  0  0
  7 16  1  0  0  0
  7  8  1  0  0  0
  7 11  1  0  0  0
  8  9  1  0  0  0
  8 21  1  0  0  0
  8 22  1  0  0  0
  9 10  1  0  0  0
  9 23  1  0  0  0
  9 24  1  0  0  0
 11 12  2  0  0  0
 11 13  1  0  0  0
 13 14  1  0  0  0
 13 25  1  0  0  0
 14 15  2  0  0  0
 14 16  1  0  0  0
 16 26  1  0  0  0
M  END
> <s_m_entry_id>
7294

> <s_m_entry_name>
ligand_docking-pose.436

> <s_m_Source_Path>
/home/csk/Desktop/cluster/DUD-E-result/aldr

> <s_m_Source_File>
ligand_docking-pose.sdf

> <i_m_Source_File_Index>
436

> <i_lp_mmshare_version>
53161

> <r_lp_tautomer_probability>
0.99999999978137

> <s_lp_Force_Field>
OPLS_2005

> <r_lp_Energy>
21.920362

> <b_lp_Chiralities_Consistent>
1

> <s_lp_Variant>
128341-1

> <s_i_glide_gridfile>
glide-grid_2hv5

> <i_i_glide_lignum>
298

> <i_i_glide_rotatable_bonds>
0

> <r_i_docking_score>
-7.34423838548861

> <r_i_glide_ligand_efficiency>
-0.408013243638256

> <r_i_glide_ligand_efficiency_sa>
-1.069297195958

> <r_i_glide_ligand_efficiency_ln>
-1.88779860705657

> <r_i_glide_gscore>
-7.34423838548861

> <r_i_glide_lipo>
-2.41821157477195

> <r_i_glide_hbond>
0

> <r_i_glide_metal>
0

> <r_i_glide_rewards>
-3.11329273731616

> <r_i_glide_evdw>
-30.8031921386719

> <r_i_glide_ecoul>
-1.81716310977936

> <r_i_glide_erotb>
0

> <r_i_glide_esite>
0

> <r_i_glide_emodel>
-45.4804348116612

> <r_i_glide_energy>
-32.6203552484512

> <r_i_glide_einternal>
0

> <i_i_glide_confnum>
2

> <i_i_glide_posenum>
40

> <r_i_glide_eff_state_penalty>
0

> <i_f3d_flags>
0

> <s_user_duplicate_titles>
128341

> <s_m_subgroup_title>
dock_pv

> <s_m_subgroupid>
dock_pv1

> <b_m_subgroup_collapsed>
0

$$$$
490410
                    3D
 Schrodinger Suite 2021-1.
 36 38  0  0  1  0            999 V2000
   17.9908   -6.5150   14.6797 C   0  0  0  0  0  0
   18.0765   -6.9311   16.0450 O   0  0  0  0  0  0
   17.2328   -7.9165   16.4675 C   0  0  0  0  0  0
   17.3450   -9.2312   15.8089 C   0  0  0  0  0  0
   18.0853   -9.4892   14.8576 O   0  0  0  0  0  0
   16.4812  -10.2900   16.4192 C   0  0  0  0  0  0
   15.6617   -9.9620   17.5105 C   0  0  0  0  0  0
   14.8708  -10.9246   18.1293 C   0  0  0  0  0  0
   14.8926  -12.2399   17.6790 C   0  0  0  0  0  0
   15.6853  -12.5890   16.5823 C   0  0  0  0  0  0
   16.4746  -11.6194   15.9542 C   0  0  0  0  0  0
   17.2483  -12.0063   14.8846 O   0  0  0  0  0  0
   15.6959  -13.8793   16.1056 O   0  0  0  0  0  0
   14.1450  -13.1839   18.3306 O   0  0  0  0  0  0
   15.6319   -8.6983   18.0692 O   0  0  0  0  0  0
   16.4608   -7.7435   17.5689 C   0  0  0  0  0  0
   16.3360   -6.4681   18.3169 C   0  0  0  0  0  0
   16.1454   -5.2729   17.6379 C   0  0  0  0  0  0
   16.1450   -4.0390   18.2873 C   0  0  0  0  0  0
   16.2676   -3.9936   19.6715 C   0  0  0  0  0  0
   16.4455   -5.1822   20.3849 C   0  0  0  0  0  0
   16.4563   -6.4018   19.7034 C   0  0  0  0  0  0
   16.5450   -5.1712   21.7524 O   0  0  0  0  0  0
   16.1450   -2.7883   20.3091 O   0  0  0  0  0  0
   18.5487   -5.5868   14.5633 H   0  0  0  0  0  0
   18.4398   -7.2256   13.9873 H   0  0  0  0  0  0
   16.9603   -6.3270   14.3732 H   0  0  0  0  0  0
   14.2684  -10.6510   18.9794 H   0  0  0  0  0  0
   17.7455  -11.2530   14.5393 H   0  0  0  0  0  0
   16.2778  -13.9559   15.3434 H   0  0  0  0  0  0
   13.2606  -12.8783   18.5810 H   0  0  0  0  0  0
   15.9983   -5.3176   16.5803 H   0  0  0  0  0  0
   15.9984   -3.1315   17.7212 H   0  0  0  0  0  0
   16.5449   -7.3149   20.2549 H   0  0  0  0  0  0
   16.2046   -4.3583   22.1377 H   0  0  0  0  0  0
   16.9356   -2.5129   20.7824 H   0  0  0  0  0  0
  1  2  1  0  0  0
  1 25  1  0  0  0
  1 26  1  0  0  0
  1 27  1  0  0  0
  2  3  1  0  0  0
  3 16  2  0  0  0
  3  4  1  0  0  0
  4  5  2  0  0  0
  4  6  1  0  0  0
  6 11  2  0  0  0
  6  7  1  0  0  0
  7  8  2  0  0  0
  7 15  1  0  0  0
  8  9  1  0  0  0
  8 28  1  0  0  0
  9 10  2  0  0  0
  9 14  1  0  0  0
 10 11  1  0  0  0
 10 13  1  0  0  0
 11 12  1  0  0  0
 12 29  1  0  0  0
 13 30  1  0  0  0
 14 31  1  0  0  0
 15 16  1  0  0  0
 16 17  1  0  0  0
 17 22  1  0  0  0
 17 18  2  0  0  0
 18 19  1  0  0  0
 18 32  1  0  0  0
 19 20  2  0  0  0
 19 33  1  0  0  0
 20 21  1  0  0  0
 20 24  1  0  0  0
 21 22  2  0  0  0
 21 23  1  0  0  0
 22 34  1  0  0  0
 23 35  1  0  0  0
 24 36  1  0  0  0
M  END
> <s_m_entry_id>
7296

> <s_m_entry_name>
ligand_docking-pose.438

> <s_m_Source_Path>
/home/csk/Desktop/cluster/DUD-E-result/aldr

> <s_m_Source_File>
ligand_docking-pose.sdf

> <i_m_Source_File_Index>
438

> <i_lp_mmshare_version>
53161

> <r_lp_tautomer_probability>
0.999999999999776

> <s_lp_Force_Field>
OPLS_2005

> <r_lp_Energy>
20.778023

> <b_lp_Chiralities_Consistent>
1

> <s_lp_Variant>
490410-1

> <s_i_glide_gridfile>
glide-grid_2hv5

> <i_i_glide_lignum>
781

> <i_i_glide_rotatable_bonds>
7

> <r_i_docking_score>
-7.33943974056402

> <r_i_glide_ligand_efficiency>
-0.305809989190167

> <r_i_glide_ligand_efficiency_sa>
-0.882108650076001

> <r_i_glide_ligand_efficiency_ln>
-1.75666471486146

> <r_i_glide_gscore>
-7.33943974056402

> <r_i_glide_lipo>
-3.36542569677486

> <r_i_glide_hbond>
0

> <r_i_glide_metal>
0

> <r_i_glide_rewards>
-2.02678460267243

> <r_i_glide_evdw>
-30.3632144927979

> <r_i_glide_ecoul>
-3.99768686294556

> <r_i_glide_erotb>
0.170584312964997

> <r_i_glide_esite>
0

> <r_i_glide_emodel>
-40.4872543633481

> <r_i_glide_energy>
-34.3609013557434

> <r_i_glide_einternal>
6.64396142959595

> <i_i_glide_confnum>
3

> <i_i_glide_posenum>
112

> <r_i_glide_eff_state_penalty>
0

> <i_f3d_flags>
0

> <s_user_duplicate_titles>
490410

> <s_m_subgroup_title>
dock_pv

> <s_m_subgroupid>
dock_pv1

> <b_m_subgroup_collapsed>
0

$$$$
219294
                    3D
 Schrodinger Suite 2021-1.
 37 40  0  0  1  0            999 V2000
   17.4293   -4.7447   11.0131 C   0  0  0  0  0  0
   18.2093   -5.5858   11.8000 C   0  0  0  0  0  0
   17.6666   -6.5461   12.6430 C   0  0  0  0  0  0
   16.2844   -6.5512   12.7617 C   0  0  0  0  0  0
   15.4665   -5.7349   11.9851 C   0  0  0  0  0  0
   16.0478   -4.8316   11.1079 C   0  0  0  0  0  0
   14.9577   -3.5992   10.1810 Br  0  0  0  0  0  0
   15.7450   -7.3150   13.6964 F   0  0  0  0  0  0
   18.5927   -7.5493   13.3810 C   0  0  0  0  0  0
   18.0255   -8.3873   14.5000 N   0  0  0  0  0  0
   18.1450   -9.7521   14.3710 C   0  0  0  0  0  0
   18.6730  -10.2908   13.3953 O   0  0  0  0  0  0
   17.5634  -10.4967   15.4761 C   0  0  0  0  0  0
   17.4977  -11.8720   15.6585 C   0  0  0  0  0  0
   16.6928  -12.1276   16.7578 C   0  0  0  0  0  0
   16.2664  -10.9077   17.2422 C   0  0  0  0  0  0
   16.8990   -9.8883   16.5350 N   0  0  0  0  0  0
   16.7958   -8.4169   16.6907 C   0  0  2  0  0  0
   17.6671   -7.6790   15.6166 C   0  0  0  0  0  0
   18.0070   -6.5150   15.7751 O   0  0  0  0  0  0
   17.1027   -7.8222   18.0704 C   0  0  0  0  0  0
   16.0298   -6.7750   18.3024 C   0  0  0  0  0  0
   16.0326   -5.9191   19.1837 O   0  0  0  0  0  0
   15.0721   -6.9941   17.3859 N   0  0  0  0  0  0
   15.3331   -8.0028   16.5352 C   0  0  0  0  0  0
   14.5298   -8.5292   15.7810 O   0  0  0  0  0  0
   14.9450  -10.5987   18.5810 Br  0  0  0  0  0  0
   17.8883   -4.0063   10.3727 H   0  0  0  0  0  0
   19.2627   -5.4899   11.7810 H   0  0  0  0  0  0
   14.3947   -5.7468   12.1142 H   0  0  0  0  0  0
   19.0046   -8.1752   12.5903 H   0  0  0  0  0  0
   19.4581   -7.0049   13.7659 H   0  0  0  0  0  0
   17.9378  -12.6162   15.0084 H   0  0  0  0  0  0
   16.3885  -13.1008   17.1161 H   0  0  0  0  0  0
   16.9450   -8.5150   18.8788 H   0  0  0  0  0  0
   18.1000   -7.3918   18.1890 H   0  0  0  0  0  0
   14.1861   -6.5150   17.3978 H   0  0  0  0  0  0
  1  6  1  0  0  0
  1  2  2  0  0  0
  1 28  1  0  0  0
  2  3  1  0  0  0
  2 29  1  0  0  0
  3  4  2  0  0  0
  3  9  1  0  0  0
  4  5  1  0  0  0
  4  8  1  0  0  0
  5  6  2  0  0  0
  5 30  1  0  0  0
  6  7  1  0  0  0
  9 10  1  0  0  0
  9 31  1  0  0  0
  9 32  1  0  0  0
 10 19  1  0  0  0
 10 11  1  0  0  0
 11 12  2  0  0  0
 11 13  1  0  0  0
 13 17  1  0  0  0
 13 14  2  0  0  0
 14 15  1  0  0  0
 14 33  1  0  0  0
 15 16  2  0  0  0
 15 34  1  0  0  0
 16 17  1  0  0  0
 16 27  1  0  0  0
 17 18  1  0  0  0
 18 25  1  0  0  0
 18 19  1  0  0  0
 18 21  1  0  0  0
 19 20  2  0  0  0
 21 22  1  0  0  0
 21 35  1  0  0  0
 21 36  1  0  0  0
 22 23  2  0  0  0
 22 24  1  0  0  0
 24 25  1  0  0  0
 24 37  1  0  0  0
 25 26  2  0  0  0
M  END
> <s_m_entry_id>
7300

> <s_m_entry_name>
ligand_docking-pose.442

> <s_m_Source_Path>
/home/csk/Desktop/cluster/DUD-E-result/aldr

> <s_m_Source_File>
ligand_docking-pose.sdf

> <i_m_Source_File_Index>
442

> <i_lp_mmshare_version>
53161

> <r_lp_tautomer_probability>
0.99995

> <s_lp_Force_Field>
OPLS_2005

> <r_lp_Energy>
32.260204

> <b_lp_Chiralities_Consistent>
1

> <s_lp_Variant>
219294-2

> <s_i_glide_gridfile>
glide-grid_2hv5

> <i_i_glide_lignum>
311

> <i_i_glide_rotatable_bonds>
2

> <r_i_docking_score>
-7.30903714804785

> <r_i_glide_ligand_efficiency>
-0.270705079557328

> <r_i_glide_ligand_efficiency_sa>
-0.812115237779783

> <r_i_glide_ligand_efficiency_ln>
-1.70142334917065

> <r_i_glide_gscore>
-7.30903714804785

> <r_i_glide_lipo>
-3.07205119502991

> <r_i_glide_hbond>
0

> <r_i_glide_metal>
0

> <r_i_glide_rewards>
-2.70623588863636

> <r_i_glide_evdw>
-33.383129119873

> <r_i_glide_ecoul>
-0.169840455055237

> <r_i_glide_erotb>
0.163882459870359

> <r_i_glide_esite>
0

> <r_i_glide_emodel>
-33.1872938047014

> <r_i_glide_energy>
-33.5529695749283

> <r_i_glide_einternal>
4.03703355789185

> <i_i_glide_confnum>
2

> <i_i_glide_posenum>
281

> <r_i_glide_eff_state_penalty>
0

> <i_f3d_flags>
0

> <s_user_duplicate_titles>
219294

> <s_m_subgroup_title>
dock_pv

> <s_m_subgroupid>
dock_pv1

> <b_m_subgroup_collapsed>
0

$$$$
54081
                    3D
 Schrodinger Suite 2021-1.
 47 49  0  0  1  0            999 V2000
   17.2841   -2.3711    9.3783 C   0  0  0  0  0  0
   18.3573   -2.9920   10.0027 C   0  0  0  0  0  0
   18.1445   -4.1782   10.6906 C   0  0  0  0  0  0
   16.8645   -4.7420   10.7651 C   0  0  0  0  0  0
   15.8005   -4.1090   10.1120 C   0  0  0  0  0  0
   16.0121   -2.9205    9.4303 C   0  0  0  0  0  0
   16.5875   -5.9549   11.6129 C   0  0  0  0  0  0
   15.4247   -6.3412   11.7570 O   0  0  0  0  0  0
   17.6535   -6.5385   12.2151 N   0  0  0  0  0  0
   17.6049   -7.4698   13.2603 C   0  0  0  0  0  0
   16.5391   -7.4526   14.1509 C   0  0  0  0  0  0
   16.3458   -8.5277   14.9810 C   0  0  0  0  0  0
   17.2876   -9.5432   15.0978 C   0  0  0  0  0  0
   18.4350   -9.4948   14.3030 C   0  0  0  0  0  0
   18.5938   -8.4558   13.3814 C   0  0  0  0  0  0
   16.9430  -10.9140   16.2224 S   0  0  0  0  0  0
   18.1899  -11.3323   16.8547 O   0  0  0  0  0  0
   16.1448  -11.8804   15.4620 O   0  0  0  0  0  0
   15.9201  -10.3047   17.5720 N   0  0  0  0  0  0
   14.7890  -11.1586   17.9848 C   0  0  0  0  0  0
   15.2224  -12.5362   18.5157 C   0  0  0  0  0  0
   16.3855  -12.8650   18.7417 O   0  0  0  0  0  0
   14.1448  -13.3309   18.7553 O   0  0  0  0  0  0
   15.8348   -8.9111   17.7852 C   0  0  0  0  0  0
   14.6089   -8.2803   17.6006 C   0  0  0  0  0  0
   14.5462   -6.9149   17.3968 C   0  0  0  0  0  0
   15.6938   -6.1319   17.5244 C   0  0  0  0  0  0
   16.9183   -6.7300   17.7826 C   0  0  0  0  0  0
   16.9889   -8.1154   17.8576 C   0  0  0  0  0  0
   17.4265   -1.4524    8.8407 H   0  0  0  0  0  0
   19.3403   -2.5460    9.9733 H   0  0  0  0  0  0
   18.9767   -4.6280   11.2010 H   0  0  0  0  0  0
   14.7936   -4.5023   10.1611 H   0  0  0  0  0  0
   15.1766   -2.4124    8.9816 H   0  0  0  0  0  0
   18.5707   -6.3280   11.8603 H   0  0  0  0  0  0
   15.7659   -6.6999   14.1093 H   0  0  0  0  0  0
   15.3683   -8.6213   15.4012 H   0  0  0  0  0  0
   19.1698  -10.2838   14.3502 H   0  0  0  0  0  0
   19.4518   -8.4749   12.7281 H   0  0  0  0  0  0
   14.2238  -10.6712   18.7782 H   0  0  0  0  0  0
   14.1383  -11.2999   17.1231 H   0  0  0  0  0  0
   13.2837  -12.9198   18.5819 H   0  0  0  0  0  0
   13.7452   -8.8718   17.3794 H   0  0  0  0  0  0
   13.6018   -6.5154   17.0811 H   0  0  0  0  0  0
   15.6483   -5.0627   17.3794 H   0  0  0  0  0  0
   17.8162   -6.1333   17.8309 H   0  0  0  0  0  0
   17.9646   -8.5655   17.8570 H   0  0  0  0  0  0
  1  6  1  0  0  0
  1  2  2  0  0  0
  1 30  1  0  0  0
  2  3  1  0  0  0
  2 31  1  0  0  0
  3  4  2  0  0  0
  3 32  1  0  0  0
  4  5  1  0  0  0
  4  7  1  0  0  0
  5  6  2  0  0  0
  5 33  1  0  0  0
  6 34  1  0  0  0
  7  8  2  0  0  0
  7  9  1  0  0  0
  9 10  1  0  0  0
  9 35  1  0  0  0
 10 15  1  0  0  0
 10 11  2  0  0  0
 11 12  1  0  0  0
 11 36  1  0  0  0
 12 13  2  0  0  0
 12 37  1  0  0  0
 13 14  1  0  0  0
 13 16  1  0  0  0
 14 15  2  0  0  0
 14 38  1  0  0  0
 15 39  1  0  0  0
 16 17  2  0  0  0
 16 18  2  0  0  0
 16 19  1  0  0  0
 19 20  1  0  0  0
 19 24  1  0  0  0
 20 21  1  0  0  0
 20 40  1  0  0  0
 20 41  1  0  0  0
 21 22  2  0  0  0
 21 23  1  0  0  0
 23 42  1  0  0  0
 24 29  1  0  0  0
 24 25  2  0  0  0
 25 26  1  0  0  0
 25 43  1  0  0  0
 26 27  2  0  0  0
 26 44  1  0  0  0
 27 28  1  0  0  0
 27 45  1  0  0  0
 28 29  2  0  0  0
 28 46  1  0  0  0
 29 47  1  0  0  0
M  END
> <s_m_entry_id>
7301

> <s_m_entry_name>
ligand_docking-pose.443

> <s_m_Source_Path>
/home/csk/Desktop/cluster/DUD-E-result/aldr

> <s_m_Source_File>
ligand_docking-pose.sdf

> <i_m_Source_File_Index>
443

> <i_lp_mmshare_version>
53161

> <r_lp_tautomer_probability>
1

> <s_lp_Force_Field>
OPLS_2005

> <r_lp_Energy>
22.740028

> <b_lp_Chiralities_Consistent>
1

> <s_lp_Variant>
54081-1

> <s_i_glide_gridfile>
glide-grid_2hv5

> <i_i_glide_lignum>
411

> <i_i_glide_rotatable_bonds>
9

> <r_i_docking_score>
-7.30417983504164

> <r_i_glide_ligand_efficiency>
-0.25186827017385

> <r_i_glide_ligand_efficiency_sa>
-0.773819123442948

> <r_i_glide_ligand_efficiency_ln>
-1.67247196420497

> <r_i_glide_gscore>
-7.30417983504164

> <r_i_glide_lipo>
-4.64484107257872

> <r_i_glide_hbond>
-0.304

> <r_i_glide_metal>
0

> <r_i_glide_rewards>
-0.173374184767457

> <r_i_glide_evdw>
-38.6294784545898

> <r_i_glide_ecoul>
-7.66749906539917

> <r_i_glide_erotb>
0.935522029202391

> <r_i_glide_esite>
-0.0358878243584867

> <r_i_glide_emodel>
-39.2155433700592

> <r_i_glide_energy>
-46.296977519989

> <r_i_glide_einternal>
20.9228134155273

> <i_i_glide_confnum>
7

> <i_i_glide_posenum>
221

> <r_i_glide_eff_state_penalty>
0

> <i_f3d_flags>
0

> <s_user_duplicate_titles>
54081

> <s_m_subgroup_title>
dock_pv

> <s_m_subgroupid>
dock_pv1

> <b_m_subgroup_collapsed>
0

$$$$
10511
                    3D
 Schrodinger Suite 2021-1.
 23 24  0  0  1  0            999 V2000
   15.8264  -12.1217   16.1862 C   0  0  0  0  0  0
   14.9565  -11.8826   17.2497 C   0  0  0  0  0  0
   14.8187  -10.5927   17.7573 C   0  0  0  0  0  0
   15.5433   -9.5433   17.1923 C   0  0  0  0  0  0
   16.4242   -9.7650   16.1192 C   0  0  0  0  0  0
   16.5589  -11.0734   15.6263 C   0  0  0  0  0  0
   17.1653   -8.5886   15.5853 C   0  0  0  0  0  0
   16.9611   -7.3810   16.1664 C   0  0  0  0  0  0
   16.0180   -7.1767   17.2744 C   0  0  0  0  0  0
   15.7469   -6.1132   17.8252 O   0  0  0  0  0  0
   15.3467   -8.2869   17.7411 O   0  0  0  0  0  0
   18.1326   -8.8640   14.4134 C   0  0  0  0  0  0
   18.9167   -7.6955   13.7865 C   0  0  0  0  0  0
   18.4856   -6.5578   13.6215 O   0  0  0  0  0  0
   20.1451   -8.1155   13.3811 O   0  0  0  0  0  0
   15.9319  -13.1224   15.7923 H   0  0  0  0  0  0
   14.3843  -12.6922   17.6796 H   0  0  0  0  0  0
   14.1454  -10.4107   18.5815 H   0  0  0  0  0  0
   17.2225  -11.2991   14.8051 H   0  0  0  0  0  0
   17.5013   -6.5154   15.8227 H   0  0  0  0  0  0
   17.5701   -9.3176   13.5973 H   0  0  0  0  0  0
   18.8495   -9.6117   14.7540 H   0  0  0  0  0  0
   20.6867   -7.4161   12.9876 H   0  0  0  0  0  0
  1  6  1  0  0  0
  1  2  2  0  0  0
  1 16  1  0  0  0
  2  3  1  0  0  0
  2 17  1  0  0  0
  3  4  2  0  0  0
  3 18  1  0  0  0
  4 11  1  0  0  0
  4  5  1  0  0  0
  5  6  2  0  0  0
  5  7  1  0  0  0
  6 19  1  0  0  0
  7  8  2  0  0  0
  7 12  1  0  0  0
  8  9  1  0  0  0
  8 20  1  0  0  0
  9 10  2  0  0  0
  9 11  1  0  0  0
 12 13  1  0  0  0
 12 21  1  0  0  0
 12 22  1  0  0  0
 13 14  2  0  0  0
 13 15  1  0  0  0
 15 23  1  0  0  0
M  END
> <s_m_entry_id>
7303

> <s_m_entry_name>
ligand_docking-pose.445

> <s_m_Source_Path>
/home/csk/Desktop/cluster/DUD-E-result/aldr

> <s_m_Source_File>
ligand_docking-pose.sdf

> <i_m_Source_File_Index>
445

> <i_lp_mmshare_version>
53161

> <r_lp_tautomer_probability>
1

> <s_lp_Force_Field>
OPLS_2005

> <r_lp_Energy>
10.454188

> <b_lp_Chiralities_Consistent>
1

> <s_lp_Variant>
10511-1

> <s_i_glide_gridfile>
glide-grid_2hv5

> <i_i_glide_lignum>
143

> <i_i_glide_rotatable_bonds>
3

> <r_i_docking_score>
-7.28880186566591

> <r_i_glide_ligand_efficiency>
-0.485920124377728

> <r_i_glide_ligand_efficiency_sa>
-1.19838207681876

> <r_i_glide_ligand_efficiency_ln>
-1.96566968362492

> <r_i_glide_gscore>
-7.28880186566591

> <r_i_glide_lipo>
-2.18815244673589

> <r_i_glide_hbond>
0

> <r_i_glide_metal>
0

> <r_i_glide_rewards>
-3.2658495586582

> <r_i_glide_evdw>
-26.9353218078613

> <r_i_glide_ecoul>
-5.88343381881714

> <r_i_glide_erotb>
0.394481302943809

> <r_i_glide_esite>
0

> <r_i_glide_emodel>
-45.3054786765001

> <r_i_glide_energy>
-32.8187556266785

> <r_i_glide_einternal>
3.34450006484985

> <i_i_glide_confnum>
3

> <i_i_glide_posenum>
25

> <r_i_glide_eff_state_penalty>
0

> <i_f3d_flags>
0

> <s_user_duplicate_titles>
10511

> <s_m_subgroup_title>
dock_pv

> <s_m_subgroupid>
dock_pv1

> <b_m_subgroup_collapsed>
0

$$$$
96876
                    3D
 Schrodinger Suite 2021-1.
 29 30  0  0  1  0            999 V2000
   18.4316   -7.3610   14.7618 C   0  0  0  0  0  0
   17.4744   -8.3779   15.3730 C   0  0  0  0  0  0
   16.5499   -8.0137   16.2862 C   0  0  0  0  0  0
   15.5989   -8.9110   16.9137 C   0  0  0  0  0  0
   14.8341   -8.4877   17.7807 O   0  0  0  0  0  0
   15.6447  -10.2054   16.4499 N   0  0  0  0  0  0
   16.6151  -10.6983   15.5077 C   0  0  0  0  0  0
   17.5598   -9.8014   14.9595 C   0  0  0  0  0  0
   18.5314  -10.2671   14.0628 C   0  0  0  0  0  0
   18.5810  -11.6164   13.6958 C   0  0  0  0  0  0
   17.6309  -12.4970   14.2129 C   0  0  0  0  0  0
   16.6646  -12.0458   15.1064 C   0  0  0  0  0  0
   19.6368  -12.1168   12.7973 N   0  3  0  0  0  0
   19.3193  -12.9222   11.9270 O   0  5  0  0  0  0
   20.7817  -11.7155   12.9809 O   0  0  0  0  0  0
   14.6484  -11.1521   17.0416 C   0  0  0  0  0  0
   15.2983  -12.1079   18.0627 C   0  0  0  0  0  0
   16.4963  -12.2645   18.1829 O   0  0  0  0  0  0
   14.3426  -12.7508   18.7921 O   0  0  0  0  0  0
   18.2778   -7.2940   13.6846 H   0  0  0  0  0  0
   19.4689   -7.6308   14.9529 H   0  0  0  0  0  0
   18.2771   -6.3633   15.1752 H   0  0  0  0  0  0
   16.4931   -6.9790   16.5903 H   0  0  0  0  0  0
   19.2664   -9.5906   13.6491 H   0  0  0  0  0  0
   17.6507  -13.5435   13.9381 H   0  0  0  0  0  0
   15.9654  -12.7766   15.4786 H   0  0  0  0  0  0
   13.8235  -10.6221   17.5203 H   0  0  0  0  0  0
   14.1825  -11.7343   16.2476 H   0  0  0  0  0  0
   13.4321  -12.5147   18.5816 H   0  0  0  0  0  0
  1  2  1  0  0  0
  1 20  1  0  0  0
  1 21  1  0  0  0
  1 22  1  0  0  0
  2  8  1  0  0  0
  2  3  2  0  0  0
  3  4  1  0  0  0
  3 23  1  0  0  0
  4  5  2  0  0  0
  4  6  1  0  0  0
  6  7  1  0  0  0
  6 16  1  0  0  0
  7 12  1  0  0  0
  7  8  2  0  0  0
  8  9  1  0  0  0
  9 10  2  0  0  0
  9 24  1  0  0  0
 10 11  1  0  0  0
 10 13  1  0  0  0
 11 12  2  0  0  0
 11 25  1  0  0  0
 12 26  1  0  0  0
 13 14  1  0  0  0
 13 15  2  0  0  0
 16 17  1  0  0  0
 16 27  1  0  0  0
 16 28  1  0  0  0
 17 18  2  0  0  0
 17 19  1  0  0  0
 19 29  1  0  0  0
M  CHG  2  13   1  14  -1
M  END
> <s_m_entry_id>
7307

> <s_m_entry_name>
ligand_docking-pose.449

> <s_m_Source_Path>
/home/csk/Desktop/cluster/DUD-E-result/aldr

> <s_m_Source_File>
ligand_docking-pose.sdf

> <i_m_Source_File_Index>
449

> <i_lp_mmshare_version>
53161

> <r_lp_tautomer_probability>
1

> <s_lp_Force_Field>
OPLS_2005

> <r_lp_Energy>
23.425434

> <b_lp_Chiralities_Consistent>
1

> <s_lp_Variant>
96876-1

> <s_i_glide_gridfile>
glide-grid_2hv5

> <i_i_glide_lignum>
526

> <i_i_glide_rotatable_bonds>
4

> <r_i_docking_score>
-7.24747193261316

> <r_i_glide_ligand_efficiency>
-0.381445891190166

> <r_i_glide_ligand_efficiency_sa>
-1.01785084395105

> <r_i_glide_ligand_efficiency_ln>
-1.83738979634177

> <r_i_glide_gscore>
-7.24747193261316

> <r_i_glide_lipo>
-2.14351047202156

> <r_i_glide_hbond>
-0.304

> <r_i_glide_metal>
0

> <r_i_glide_rewards>
-2.9998286086936

> <r_i_glide_evdw>
-24.5777645111084

> <r_i_glide_ecoul>
-7.19056415557861

> <r_i_glide_erotb>
0.515896973519266

> <r_i_glide_esite>
-0.00855697652505038

> <r_i_glide_emodel>
-43.5300278159482

> <r_i_glide_energy>
-31.768328666687

> <r_i_glide_einternal>
3.75722908973694

> <i_i_glide_confnum>
3

> <i_i_glide_posenum>
357

> <r_i_glide_eff_state_penalty>
0

> <i_f3d_flags>
0

> <s_user_duplicate_titles>
96876

> <s_m_subgroup_title>
dock_pv

> <s_m_subgroupid>
dock_pv1

> <b_m_subgroup_collapsed>
0

$$$$
129494
                    3D
 Schrodinger Suite 2021-1.
 26 28  0  0  1  0            999 V2000
   18.9546   -8.5623   13.3940 C   0  0  0  0  0  0
   18.5457   -9.8087   13.8505 C   0  0  0  0  0  0
   17.7024   -9.8984   14.9525 C   0  0  0  0  0  0
   17.2485   -8.7400   15.6244 C   0  0  0  0  0  0
   17.6448   -7.4938   15.1085 C   0  0  0  0  0  0
   18.4854   -7.4016   14.0024 C   0  0  0  0  0  0
   18.9450   -5.8514   13.4008 Cl  0  0  0  0  0  0
   16.3749   -8.8847   16.8834 C   0  0  2  0  0  0
   16.4188  -10.3518   17.3809 C   0  0  0  0  0  0
   16.3062  -11.3551   16.2212 C   0  0  0  0  0  0
   17.4342  -11.1911   15.3641 O   0  0  0  0  0  0
   14.9492   -8.4515   16.5828 C   0  0  0  0  0  0
   14.1451   -9.0360   15.8655 O   0  0  0  0  0  0
   14.7429   -7.3318   17.2898 N   0  0  0  0  0  0
   15.7596   -6.9841   18.1007 C   0  0  0  0  0  0
   15.7451   -6.1156   18.9687 O   0  0  0  0  0  0
   16.6898   -7.9237   17.9093 N   0  0  0  0  0  0
   19.6545   -8.5151   12.5810 H   0  0  0  0  0  0
   18.9111  -10.7053   13.3723 H   0  0  0  0  0  0
   17.3091   -6.5808   15.5777 H   0  0  0  0  0  0
   17.3981  -10.5400   17.8178 H   0  0  0  0  0  0
   15.6625  -10.5513   18.1431 H   0  0  0  0  0  0
   15.3811  -11.2199   15.6607 H   0  0  0  0  0  0
   16.3043  -12.3766   16.6020 H   0  0  0  0  0  0
   13.8331   -6.9019   17.3501 H   0  0  0  0  0  0
   17.6443   -7.8087   18.2180 H   0  0  0  0  0  0
  1  6  1  0  0  0
  1  2  2  0  0  0
  1 18  1  0  0  0
  2  3  1  0  0  0
  2 19  1  0  0  0
  3 11  1  0  0  0
  3  4  2  0  0  0
  4  5  1  0  0  0
  4  8  1  0  0  0
  5  6  2  0  0  0
  5 20  1  0  0  0
  6  7  1  0  0  0
  8 17  1  0  0  0
  8  9  1  0  0  0
  8 12  1  0  0  0
  9 10  1  0  0  0
  9 21  1  0  0  0
  9 22  1  0  0  0
 10 11  1  0  0  0
 10 23  1  0  0  0
 10 24  1  0  0  0
 12 13  2  0  0  0
 12 14  1  0  0  0
 14 15  1  0  0  0
 14 25  1  0  0  0
 15 16  2  0  0  0
 15 17  1  0  0  0
 17 26  1  0  0  0
M  END
> <s_m_entry_id>
7310

> <s_m_entry_name>
ligand_docking-pose.452

> <s_m_Source_Path>
/home/csk/Desktop/cluster/DUD-E-result/aldr

> <s_m_Source_File>
ligand_docking-pose.sdf

> <i_m_Source_File_Index>
452

> <i_lp_mmshare_version>
53161

> <r_lp_tautomer_probability>
0.99999999978137

> <s_lp_Force_Field>
OPLS_2005

> <r_lp_Energy>
21.914327

> <b_lp_Chiralities_Consistent>
1

> <s_lp_Variant>
129494-1

> <s_i_glide_gridfile>
glide-grid_2hv5

> <i_i_glide_lignum>
22

> <i_i_glide_rotatable_bonds>
0

> <r_i_docking_score>
-7.21475235466027

> <r_i_glide_ligand_efficiency>
-0.424397197332957

> <r_i_glide_ligand_efficiency_sa>
-1.09124469959861

> <r_i_glide_ligand_efficiency_ln>
-1.88216822469521

> <r_i_glide_gscore>
-7.21475235466027

> <r_i_glide_lipo>
-2.31299109145553

> <r_i_glide_hbond>
0

> <r_i_glide_metal>
0

> <r_i_glide_rewards>
-3.16467556316965

> <r_i_glide_evdw>
-29.9492816925049

> <r_i_glide_ecoul>
-1.59747743606567

> <r_i_glide_erotb>
0

> <r_i_glide_esite>
0

> <r_i_glide_emodel>
-44.6974807435264

> <r_i_glide_energy>
-31.5467591285706

> <r_i_glide_einternal>
0

> <i_i_glide_confnum>
2

> <i_i_glide_posenum>
9

> <r_i_glide_eff_state_penalty>
0

> <i_f3d_flags>
0

> <s_user_duplicate_titles>
129494

> <s_m_subgroup_title>
dock_pv

> <s_m_subgroupid>
dock_pv1

> <b_m_subgroup_collapsed>
0

$$$$
430974
                    3D
 Schrodinger Suite 2021-1.
 35 36  0  0  1  0            999 V2000
   15.8487   -6.7194   12.9046 C   0  0  0  0  0  0
   17.2964   -6.5630   12.8103 N   0  0  0  0  0  0
   17.7449   -5.3143   12.1431 C   0  0  0  0  0  0
   17.5174   -5.2750   10.6257 C   0  0  0  0  0  0
   18.1501   -4.5203    9.8930 O   0  0  0  0  0  0
   16.5590   -6.1259   10.1811 O   0  0  0  0  0  0
   18.0647   -7.1789   13.7749 C   0  0  0  0  0  0
   19.3482   -6.5172   14.5756 S   0  0  0  0  0  0
   17.7409   -8.5785   14.1559 C   0  0  0  0  0  0
   18.3449   -9.5788   13.3911 C   0  0  0  0  0  0
   18.1632  -10.9210   13.6722 C   0  0  0  0  0  0
   17.3750  -11.3111   14.7412 C   0  0  0  0  0  0
   16.7386  -10.3563   15.5864 C   0  0  0  0  0  0
   16.9418   -8.9610   15.2974 C   0  0  0  0  0  0
   16.3352   -8.0048   16.1571 C   0  0  0  0  0  0
   15.5515   -8.3994   17.2302 C   0  0  0  0  0  0
   15.3373   -9.7428   17.5004 C   0  0  0  0  0  0
   15.9157  -10.7437   16.7051 C   0  0  0  0  0  0
   15.7007  -12.2455   17.0067 C   0  0  0  0  0  0
   14.9031  -12.4929   18.0472 F   0  0  0  0  0  0
   15.1600  -12.8516   15.9499 F   0  0  0  0  0  0
   16.8761  -12.8129   17.2815 F   0  0  0  0  0  0
   14.5455  -10.0400   18.5768 O   0  0  0  0  0  0
   15.5638   -7.7147   12.5811 H   0  0  0  0  0  0
   15.4967   -6.5665   13.9237 H   0  0  0  0  0  0
   15.2984   -6.0008   12.2942 H   0  0  0  0  0  0
   18.8029   -5.1047   12.2835 H   0  0  0  0  0  0
   17.1964   -4.4898   12.5801 H   0  0  0  0  0  0
   16.5013   -6.1181    9.2196 H   0  0  0  0  0  0
   19.0036   -9.3139   12.5809 H   0  0  0  0  0  0
   18.6446  -11.6678   13.0579 H   0  0  0  0  0  0
   17.2653  -12.3701   14.9198 H   0  0  0  0  0  0
   16.4825   -6.9488   15.9819 H   0  0  0  0  0  0
   15.1001   -7.6513   17.8637 H   0  0  0  0  0  0
   14.3751  -10.9851   18.6487 H   0  0  0  0  0  0
  1  2  1  0  0  0
  1 24  1  0  0  0
  1 25  1  0  0  0
  1 26  1  0  0  0
  2  3  1  0  0  0
  2  7  1  0  0  0
  3  4  1  0  0  0
  3 27  1  0  0  0
  3 28  1  0  0  0
  4  5  2  0  0  0
  4  6  1  0  0  0
  6 29  1  0  0  0
  7  8  2  0  0  0
  7  9  1  0  0  0
  9 14  1  0  0  0
  9 10  2  0  0  0
 10 11  1  0  0  0
 10 30  1  0  0  0
 11 12  2  0  0  0
 11 31  1  0  0  0
 12 13  1  0  0  0
 12 32  1  0  0  0
 13 18  2  0  0  0
 13 14  1  0  0  0
 14 15  2  0  0  0
 15 16  1  0  0  0
 15 33  1  0  0  0
 16 17  2  0  0  0
 16 34  1  0  0  0
 17 18  1  0  0  0
 17 23  1  0  0  0
 18 19  1  0  0  0
 19 20  1  0  0  0
 19 21  1  0  0  0
 19 22  1  0  0  0
 23 35  1  0  0  0
M  END
> <s_m_entry_id>
7315

> <s_m_entry_name>
ligand_docking-pose.457

> <s_m_Source_Path>
/home/csk/Desktop/cluster/DUD-E-result/aldr

> <s_m_Source_File>
ligand_docking-pose.sdf

> <i_m_Source_File_Index>
457

> <i_lp_mmshare_version>
53161

> <r_lp_tautomer_probability>
1

> <s_lp_Force_Field>
OPLS_2005

> <r_lp_Energy>
37.193904

> <b_lp_Chiralities_Consistent>
1

> <s_lp_Variant>
430974-1

> <s_i_glide_gridfile>
glide-grid_2hv5

> <i_i_glide_lignum>
695

> <i_i_glide_rotatable_bonds>
7

> <r_i_docking_score>
-7.17686903142309

> <r_i_glide_ligand_efficiency>
-0.312037783974917

> <r_i_glide_ligand_efficiency_sa>
-0.887393949384849

> <r_i_glide_ligand_efficiency_ln>
-1.73543200804855

> <r_i_glide_gscore>
-7.17686903142309

> <r_i_glide_lipo>
-2.83118973460524

> <r_i_glide_hbond>
0

> <r_i_glide_metal>
0

> <r_i_glide_rewards>
-3.42762577838568

> <r_i_glide_evdw>
-22.5808181762695

> <r_i_glide_ecoul>
-2.71106767654419

> <r_i_glide_erotb>
0.643880699497273

> <r_i_glide_esite>
-0.0262331576343304

> <r_i_glide_emodel>
-29.5396235551773

> <r_i_glide_energy>
-25.2918858528137

> <r_i_glide_einternal>
6.25623798370361

> <i_i_glide_confnum>
21

> <i_i_glide_posenum>
364

> <r_i_glide_eff_state_penalty>
0

> <i_f3d_flags>
0

> <s_user_duplicate_titles>
430974

> <s_m_subgroup_title>
dock_pv

> <s_m_subgroupid>
dock_pv1

> <b_m_subgroup_collapsed>
0

$$$$
219533
                    3D
 Schrodinger Suite 2021-1.
 37 40  0  0  1  0            999 V2000
   17.3605   -4.8603   10.7958 C   0  0  0  0  0  0
   18.1576   -5.5022   11.7331 C   0  0  0  0  0  0
   17.6557   -6.4543   12.6059 C   0  0  0  0  0  0
   16.2720   -6.5727   12.6723 C   0  0  0  0  0  0
   15.4362   -5.9460   11.7508 C   0  0  0  0  0  0
   16.0029   -5.1411   10.7712 C   0  0  0  0  0  0
   14.9452   -4.4740    9.3639 Br  0  0  0  0  0  0
   15.7458   -7.3153   13.6374 F   0  0  0  0  0  0
   18.6382   -7.3699   13.3727 C   0  0  0  0  0  0
   18.0818   -8.3142   14.3976 N   0  0  0  0  0  0
   18.2786   -9.6607   14.1800 C   0  0  0  0  0  0
   18.9008  -10.1044   13.2155 O   0  0  0  0  0  0
   17.6727  -10.5068   15.1884 C   0  0  0  0  0  0
   17.6389  -11.8937   15.2934 C   0  0  0  0  0  0
   16.9012  -12.2507   16.4200 C   0  0  0  0  0  0
   16.4987  -11.0630   16.9911 C   0  0  0  0  0  0
   16.9908   -9.9934   16.2735 N   0  0  0  0  0  0
   16.8107   -8.5574   16.5360 C   0  0  2  0  0  0
   17.6379   -7.6926   15.5347 C   0  0  0  0  0  0
   17.8728   -6.5149   15.7757 O   0  0  0  0  0  0
   17.1341   -8.1083   17.9424 C   0  0  0  0  0  0
   16.0816   -7.0734   18.2954 C   0  0  0  0  0  0
   16.1398   -6.2636   19.2183 O   0  0  0  0  0  0
   15.0819   -7.2457   17.4134 N   0  0  0  0  0  0
   15.3195   -8.2053   16.4976 C   0  0  0  0  0  0
   14.4821   -8.7308   15.7803 O   0  0  0  0  0  0
   16.5021  -14.0023   17.0372 Br  0  0  0  0  0  0
   17.7964   -4.1933   10.0671 H   0  0  0  0  0  0
   19.1980   -5.3154   11.7505 H   0  0  0  0  0  0
   14.3682   -6.1071   11.7704 H   0  0  0  0  0  0
   19.1481   -7.9219   12.5842 H   0  0  0  0  0  0
   19.4215   -6.7593   13.8278 H   0  0  0  0  0  0
   18.0930  -12.5839   14.5961 H   0  0  0  0  0  0
   15.8720  -10.8887   17.8513 H   0  0  0  0  0  0
   16.9472   -8.9506   18.5802 H   0  0  0  0  0  0
   18.1397   -7.7194   18.1141 H   0  0  0  0  0  0
   14.1932   -6.7772   17.4961 H   0  0  0  0  0  0
  1  6  1  0  0  0
  1  2  2  0  0  0
  1 28  1  0  0  0
  2  3  1  0  0  0
  2 29  1  0  0  0
  3  4  2  0  0  0
  3  9  1  0  0  0
  4  5  1  0  0  0
  4  8  1  0  0  0
  5  6  2  0  0  0
  5 30  1  0  0  0
  6  7  1  0  0  0
  9 10  1  0  0  0
  9 31  1  0  0  0
  9 32  1  0  0  0
 10 19  1  0  0  0
 10 11  1  0  0  0
 11 12  2  0  0  0
 11 13  1  0  0  0
 13 17  1  0  0  0
 13 14  2  0  0  0
 14 15  1  0  0  0
 14 33  1  0  0  0
 15 16  2  0  0  0
 15 27  1  0  0  0
 16 17  1  0  0  0
 16 34  1  0  0  0
 17 18  1  0  0  0
 18 25  1  0  0  0
 18 19  1  0  0  0
 18 21  1  0  0  0
 19 20  2  0  0  0
 21 22  1  0  0  0
 21 35  1  0  0  0
 21 36  1  0  0  0
 22 23  2  0  0  0
 22 24  1  0  0  0
 24 25  1  0  0  0
 24 37  1  0  0  0
 25 26  2  0  0  0
M  END
> <s_m_entry_id>
7316

> <s_m_entry_name>
ligand_docking-pose.458

> <s_m_Source_Path>
/home/csk/Desktop/cluster/DUD-E-result/aldr

> <s_m_Source_File>
ligand_docking-pose.sdf

> <i_m_Source_File_Index>
458

> <i_lp_mmshare_version>
53161

> <r_lp_tautomer_probability>
0.99995

> <s_lp_Force_Field>
OPLS_2005

> <r_lp_Energy>
32.503565

> <b_lp_Chiralities_Consistent>
1

> <s_lp_Variant>
219533-2

> <s_i_glide_gridfile>
glide-grid_2hv5

> <i_i_glide_lignum>
309

> <i_i_glide_rotatable_bonds>
2

> <r_i_docking_score>
-7.17325145768536

> <r_i_glide_ligand_efficiency>
-0.265675979914273

> <r_i_glide_ligand_efficiency_sa>
-0.797027938867193

> <r_i_glide_ligand_efficiency_ln>
-1.66981467905633

> <r_i_glide_gscore>
-7.17325145768536

> <r_i_glide_lipo>
-3.10723328919138

> <r_i_glide_hbond>
0

> <r_i_glide_metal>
0

> <r_i_glide_rewards>
-2.70623588863636

> <r_i_glide_evdw>
-32.1602020263672

> <r_i_glide_ecoul>
0.56230241060257

> <r_i_glide_erotb>
0.163882459870359

> <r_i_glide_esite>
0

> <r_i_glide_emodel>
-32.016059019632

> <r_i_glide_energy>
-31.5978996157646

> <r_i_glide_einternal>
4.3264684677124

> <i_i_glide_confnum>
2

> <i_i_glide_posenum>
15

> <r_i_glide_eff_state_penalty>
0

> <i_f3d_flags>
0

> <s_user_duplicate_titles>
219533

> <s_m_subgroup_title>
dock_pv

> <s_m_subgroupid>
dock_pv1

> <b_m_subgroup_collapsed>
0

$$$$
276240
                    3D
 Schrodinger Suite 2021-1.
 42 43  0  0  1  0            999 V2000
   19.1433   -6.3539   14.1852 C   0  0  0  0  0  0
   18.2501   -7.4049   13.5031 C   0  0  0  0  0  0
   17.4842   -6.8019   12.3073 C   0  0  0  0  0  0
   17.3031   -8.0677   14.5122 C   0  0  0  0  0  0
   16.2393   -7.3218   15.0369 C   0  0  0  0  0  0
   15.3462   -7.8912   15.9360 C   0  0  0  0  0  0
   15.5182   -9.2087   16.3432 C   0  0  0  0  0  0
   16.5984   -9.9811   15.8721 C   0  0  0  0  0  0
   17.4648   -9.4008   14.9339 C   0  0  0  0  0  0
   18.5452  -10.1159   14.4551 O   0  0  0  0  0  0
   18.4350  -11.5576   14.4067 C   0  0  1  0  0  0
   17.7560  -12.1493   15.6681 C   0  0  0  0  0  0
   18.1513  -13.7018   16.1927 S   0  0  0  0  0  0
   16.8668  -11.3059   16.3139 N   0  0  0  0  0  0
   16.2181  -11.7048   17.5981 C   0  0  0  0  0  0
   14.8094  -12.2762   17.3885 C   0  0  0  0  0  0
   14.3393  -12.6343   16.3116 O   0  0  0  0  0  0
   14.1450  -12.2840   18.5748 O   0  0  0  0  0  0
   17.9241  -12.0093   12.9922 C   0  0  0  0  0  0
   17.0141  -13.2581   12.9211 C   0  0  0  0  0  0
   19.0966  -12.1877   12.0074 C   0  0  0  0  0  0
   19.8236   -6.8166   14.9012 H   0  0  0  0  0  0
   19.7439   -5.8120   13.4571 H   0  0  0  0  0  0
   18.5511   -5.6148   14.7196 H   0  0  0  0  0  0
   18.9115   -8.1659   13.0872 H   0  0  0  0  0  0
   16.9450   -7.5798   11.7717 H   0  0  0  0  0  0
   16.7660   -6.0393   12.6082 H   0  0  0  0  0  0
   18.1517   -6.3244   11.5946 H   0  0  0  0  0  0
   16.0991   -6.2934   14.7416 H   0  0  0  0  0  0
   14.5197   -7.3129   16.3245 H   0  0  0  0  0  0
   14.7951   -9.5979   17.0411 H   0  0  0  0  0  0
   19.4728  -11.8838   14.4670 H   0  0  0  0  0  0
   16.1372  -10.8238   18.2299 H   0  0  0  0  0  0
   16.7968  -12.4158   18.1821 H   0  0  0  0  0  0
   13.2068  -12.5155   18.4852 H   0  0  0  0  0  0
   17.3451  -11.1767   12.5999 H   0  0  0  0  0  0
   17.5747  -14.1530   13.1793 H   0  0  0  0  0  0
   16.1652  -13.1999   13.6019 H   0  0  0  0  0  0
   16.6144  -13.4032   11.9165 H   0  0  0  0  0  0
   19.7106  -13.0491   12.2714 H   0  0  0  0  0  0
   18.7431  -12.3301   10.9849 H   0  0  0  0  0  0
   19.7444  -11.3152   12.0100 H   0  0  0  0  0  0
  1  2  1  0  0  0
  1 22  1  0  0  0
  1 23  1  0  0  0
  1 24  1  0  0  0
  2  3  1  0  0  0
  2  4  1  0  0  0
  2 25  1  0  0  0
  3 26  1  0  0  0
  3 27  1  0  0  0
  3 28  1  0  0  0
  4  9  1  0  0  0
  4  5  2  0  0  0
  5  6  1  0  0  0
  5 29  1  0  0  0
  6  7  2  0  0  0
  6 30  1  0  0  0
  7  8  1  0  0  0
  7 31  1  0  0  0
  8 14  1  0  0  0
  8  9  2  0  0  0
  9 10  1  0  0  0
 10 11  1  0  0  0
 11 12  1  0  0  0
 11 19  1  0  0  0
 11 32  1  0  0  0
 12 13  2  0  0  0
 12 14  1  0  0  0
 14 15  1  0  0  0
 15 16  1  0  0  0
 15 33  1  0  0  0
 15 34  1  0  0  0
 16 17  2  0  0  0
 16 18  1  0  0  0
 18 35  1  0  0  0
 19 20  1  0  0  0
 19 21  1  0  0  0
 19 36  1  0  0  0
 20 37  1  0  0  0
 20 38  1  0  0  0
 20 39  1  0  0  0
 21 40  1  0  0  0
 21 41  1  0  0  0
 21 42  1  0  0  0
M  END
> <s_m_entry_id>
7318

> <s_m_entry_name>
ligand_docking-pose.460

> <s_m_Source_Path>
/home/csk/Desktop/cluster/DUD-E-result/aldr

> <s_m_Source_File>
ligand_docking-pose.sdf

> <i_m_Source_File_Index>
460

> <i_lp_mmshare_version>
53161

> <r_lp_tautomer_probability>
1

> <s_lp_Force_Field>
OPLS_2005

> <r_lp_Energy>
30.025028

> <b_lp_Chiralities_Consistent>
1

> <s_lp_Variant>
276240-1

> <s_i_glide_gridfile>
glide-grid_2hv5

> <i_i_glide_lignum>
549

> <i_i_glide_rotatable_bonds>
5

> <r_i_docking_score>
-7.15413242118301

> <r_i_glide_ligand_efficiency>
-0.340672972437286

> <r_i_glide_ligand_efficiency_sa>
-0.939890898943008

> <r_i_glide_ligand_efficiency_ln>
-1.76884478485176

> <r_i_glide_gscore>
-7.15413242118301

> <r_i_glide_lipo>
-2.83727809713816

> <r_i_glide_hbond>
0

> <r_i_glide_metal>
0

> <r_i_glide_rewards>
-2.57402921639194

> <r_i_glide_evdw>
-28.5340385437012

> <r_i_glide_ecoul>
-4.71579074859619

> <r_i_glide_erotb>
0.391245431821576

> <r_i_glide_esite>
0

> <r_i_glide_emodel>
-37.5373042582787

> <r_i_glide_energy>
-33.2498292922974

> <r_i_glide_einternal>
10.9796581268311

> <i_i_glide_confnum>
1

> <i_i_glide_posenum>
274

> <r_i_glide_eff_state_penalty>
0

> <i_f3d_flags>
0

> <s_user_duplicate_titles>
276240

> <s_m_subgroup_title>
dock_pv

> <s_m_subgroupid>
dock_pv1

> <b_m_subgroup_collapsed>
0

$$$$
44797
                    3D
 Schrodinger Suite 2021-1.
 24 25  0  0  1  0            999 V2000
   15.2637  -11.3477   16.1830 C   0  0  0  0  0  0
   14.7667  -10.1449   16.6858 C   0  0  0  0  0  0
   15.5681   -9.0092   16.6275 C   0  0  0  0  0  0
   16.8370   -9.0414   16.0774 C   0  0  0  0  0  0
   17.3364  -10.2459   15.5760 C   0  0  0  0  0  0
   16.5469  -11.3979   15.6298 C   0  0  0  0  0  0
   17.2164  -13.0377   14.9406 Br  0  0  0  0  0  0
   17.4435   -7.6658   16.2047 C   0  0  2  0  0  0
   16.3387   -6.9007   16.9681 C   0  0  0  0  0  0
   16.3898   -5.7441   17.3808 O   0  0  0  0  0  0
   15.3054   -7.7448   17.1179 N   0  0  0  0  0  0
   17.8628   -6.9140   14.8892 C   0  0  2  0  0  0
   16.7929   -6.6923   13.9026 C   0  0  0  0  0  0
   15.9688   -6.5162   13.1112 N   0  0  0  0  0  0
   19.0969   -7.4931   14.1809 C   0  0  0  0  0  0
   19.1058   -8.5711   13.5934 O   0  0  0  0  0  0
   20.1439   -6.6249   14.1858 O   0  0  0  0  0  0
   14.6569  -12.2416   16.2158 H   0  0  0  0  0  0
   13.7761  -10.1148   17.1162 H   0  0  0  0  0  0
   18.3283  -10.3171   15.1582 H   0  0  0  0  0  0
   18.2966   -7.7039   16.8846 H   0  0  0  0  0  0
   14.4502   -7.4864   17.5890 H   0  0  0  0  0  0
   18.1463   -5.9059   15.1880 H   0  0  0  0  0  0
   20.8514   -6.9157   13.5958 H   0  0  0  0  0  0
  1  6  1  0  0  0
  1  2  2  0  0  0
  1 18  1  0  0  0
  2  3  1  0  0  0
  2 19  1  0  0  0
  3 11  1  0  0  0
  3  4  2  0  0  0
  4  5  1  0  0  0
  4  8  1  0  0  0
  5  6  2  0  0  0
  5 20  1  0  0  0
  6  7  1  0  0  0
  8  9  1  0  0  0
  8 12  1  0  0  0
  8 21  1  0  0  0
  9 10  2  0  0  0
  9 11  1  0  0  0
 11 22  1  0  0  0
 12 13  1  0  0  0
 12 15  1  0  0  0
 12 23  1  0  0  0
 13 14  3  0  0  0
 15 16  2  0  0  0
 15 17  1  0  0  0
 17 24  1  0  0  0
M  END
> <s_m_entry_id>
7320

> <s_m_entry_name>
ligand_docking-pose.462

> <s_m_Source_Path>
/home/csk/Desktop/cluster/DUD-E-result/aldr

> <s_m_Source_File>
ligand_docking-pose.sdf

> <i_m_Source_File_Index>
462

> <i_lp_mmshare_version>
53161

> <r_lp_tautomer_probability>
1

> <s_lp_Force_Field>
OPLS_2005

> <r_lp_Energy>
25.061078

> <b_lp_Chiralities_Consistent>
1

> <s_lp_Variant>
44797-2

> <s_i_glide_gridfile>
glide-grid_2hv5

> <i_i_glide_lignum>
7

> <i_i_glide_rotatable_bonds>
3

> <r_i_docking_score>
-7.14477899409135

> <r_i_glide_ligand_efficiency>
-0.420281117299491

> <r_i_glide_ligand_efficiency_sa>
-1.08066109879288

> <r_i_glide_ligand_efficiency_ln>
-1.8639137331529

> <r_i_glide_gscore>
-7.14477899409135

> <r_i_glide_lipo>
-1.88512476059134

> <r_i_glide_hbond>
0

> <r_i_glide_metal>
0

> <r_i_glide_rewards>
-3.50028873231282

> <r_i_glide_evdw>
-25.3936805725098

> <r_i_glide_ecoul>
-4.66550779342651

> <r_i_glide_erotb>
0.210144696452274

> <r_i_glide_esite>
0

> <r_i_glide_emodel>
-40.7481726116036

> <r_i_glide_energy>
-30.0591883659363

> <r_i_glide_einternal>
2.09485125541687

> <i_i_glide_confnum>
2

> <i_i_glide_posenum>
54

> <r_i_glide_eff_state_penalty>
0

> <i_f3d_flags>
0

> <s_user_duplicate_titles>
44797

> <s_m_subgroup_title>
dock_pv

> <s_m_subgroupid>
dock_pv1

> <b_m_subgroup_collapsed>
0

$$$$
497026
                    3D
 Schrodinger Suite 2021-1.
 34 36  0  0  1  0            999 V2000
   16.6131  -11.4658   16.2336 C   0  0  0  0  0  0
   17.2979  -10.3399   15.7822 C   0  0  0  0  0  0
   16.8884   -9.0737   16.1859 C   0  0  0  0  0  0
   15.7612   -8.9016   16.9928 C   0  0  0  0  0  0
   15.0775  -10.0398   17.4394 C   0  0  0  0  0  0
   15.5185  -11.3229   17.0931 C   0  0  0  0  0  0
   14.8571  -12.5105   17.6585 N   0  3  0  0  0  0
   14.6882  -13.4818   16.9284 O   0  5  0  0  0  0
   14.5450  -12.4704   18.8444 O   0  0  0  0  0  0
   15.3101   -7.5186   17.3297 C   0  0  0  0  0  0
   14.1904   -7.3150   17.7810 O   0  0  0  0  0  0
   16.3197   -6.4717   17.0832 C   0  0  0  0  0  0
   17.3738   -6.7918   16.2957 C   0  0  0  0  0  0
   17.6402   -8.0067   15.7570 O   0  0  0  0  0  0
   16.0756   -5.1181   17.6221 C   0  0  0  0  0  0
   16.1613   -4.6156   18.8725 C   0  0  0  0  0  0
   16.4386   -5.3884   20.0506 C   0  0  0  0  0  0
   16.5450   -6.5997   20.0542 O   0  0  0  0  0  0
   16.4715   -4.6128   21.1586 N   0  0  0  0  0  0
   16.1450   -3.3218   21.0181 C   0  0  0  0  0  0
   16.0187   -2.5150   21.9139 O   0  0  0  0  0  0
   15.8549   -2.9371   19.3064 S   0  0  0  0  0  0
   16.5677   -5.2277   22.5233 C   0  0  0  0  0  0
   17.5343   -4.5150   23.4928 C   0  0  0  0  0  0
   18.7379   -4.5150   23.3570 O   0  0  0  0  0  0
   16.8467   -3.9236   24.5122 O   0  0  0  0  0  0
   16.9499  -12.4501   15.9376 H   0  0  0  0  0  0
   18.1450  -10.4435   15.1241 H   0  0  0  0  0  0
   14.2196   -9.9432   18.0888 H   0  0  0  0  0  0
   18.1450   -6.1150   15.9794 H   0  0  0  0  0  0
   15.7450   -4.3381   16.9810 H   0  0  0  0  0  0
   16.9346   -6.2461   22.4410 H   0  0  0  0  0  0
   15.5845   -5.3302   22.9810 H   0  0  0  0  0  0
   15.8919   -3.9499   24.4071 H   0  0  0  0  0  0
  1  6  1  0  0  0
  1  2  2  0  0  0
  1 27  1  0  0  0
  2  3  1  0  0  0
  2 28  1  0  0  0
  3 14  1  0  0  0
  3  4  2  0  0  0
  4  5  1  0  0  0
  4 10  1  0  0  0
  5  6  2  0  0  0
  5 29  1  0  0  0
  6  7  1  0  0  0
  7  8  1  0  0  0
  7  9  2  0  0  0
 10 11  2  0  0  0
 10 12  1  0  0  0
 12 13  2  0  0  0
 12 15  1  0  0  0
 13 14  1  0  0  0
 13 30  1  0  0  0
 15 16  2  0  0  0
 15 31  1  0  0  0
 16 22  1  0  0  0
 16 17  1  0  0  0
 17 18  2  0  0  0
 17 19  1  0  0  0
 19 20  1  0  0  0
 19 23  1  0  0  0
 20 21  2  0  0  0
 20 22  1  0  0  0
 23 24  1  0  0  0
 23 32  1  0  0  0
 23 33  1  0  0  0
 24 25  2  0  0  0
 24 26  1  0  0  0
 26 34  1  0  0  0
M  CHG  2   7   1   8  -1
M  END
> <s_m_entry_id>
7323

> <s_m_entry_name>
ligand_docking-pose.465

> <s_m_Source_Path>
/home/csk/Desktop/cluster/DUD-E-result/aldr

> <s_m_Source_File>
ligand_docking-pose.sdf

> <i_m_Source_File_Index>
465

> <i_lp_mmshare_version>
53161

> <r_lp_tautomer_probability>
1

> <s_lp_Force_Field>
OPLS_2005

> <r_lp_Energy>
18.394145

> <b_lp_Chiralities_Consistent>
1

> <s_lp_Variant>
497026-1

> <s_i_glide_gridfile>
glide-grid_2hv5

> <i_i_glide_lignum>
73

> <i_i_glide_rotatable_bonds>
5

> <r_i_docking_score>
-7.09963028571518

> <r_i_glide_ligand_efficiency>
-0.273062703296738

> <r_i_glide_ligand_efficiency_sa>
-0.808947184066731

> <r_i_glide_ligand_efficiency_ln>
-1.66732487681315

> <r_i_glide_gscore>
-7.09963028571518

> <r_i_glide_lipo>
-2.83066004700237

> <r_i_glide_hbond>
0

> <r_i_glide_metal>
0

> <r_i_glide_rewards>
-3.00294464412526

> <r_i_glide_evdw>
-34.6873626708984

> <r_i_glide_ecoul>
0.747555613517761

> <r_i_glide_erotb>
0.410086422228024

> <r_i_glide_esite>
-0.0538772252983209

> <r_i_glide_emodel>
-32.5426071998124

> <r_i_glide_energy>
-33.9398070573807

> <r_i_glide_einternal>
8.00767707824707

> <i_i_glide_confnum>
12

> <i_i_glide_posenum>
296

> <r_i_glide_eff_state_penalty>
0

> <i_f3d_flags>
0

> <s_user_duplicate_titles>
497026

> <s_m_subgroup_title>
dock_pv

> <s_m_subgroupid>
dock_pv1

> <b_m_subgroup_collapsed>
0

$$$$
10560
                    3D
 Schrodinger Suite 2021-1.
 25 26  0  0  1  0            999 V2000
   15.8025  -12.1876   16.2054 C   0  0  0  0  0  0
   14.8948  -11.9662   17.2328 C   0  0  0  0  0  0
   14.7537  -10.6870   17.7567 C   0  0  0  0  0  0
   15.4892   -9.6297   17.2194 C   0  0  0  0  0  0
   16.3938   -9.8187   16.1512 C   0  0  0  0  0  0
   16.5503  -11.1386   15.6671 C   0  0  0  0  0  0
   17.4182  -11.4801   14.6641 O   0  0  0  0  0  0
   17.1012   -8.5855   15.6563 C   0  0  0  0  0  0
   16.8859   -7.4156   16.3107 C   0  0  0  0  0  0
   15.9723   -7.2773   17.4410 C   0  0  0  0  0  0
   15.7542   -6.2592   18.0930 O   0  0  0  0  0  0
   15.2615   -8.3930   17.8006 O   0  0  0  0  0  0
   18.0631   -8.7043   14.4501 C   0  0  0  0  0  0
   18.4943   -7.3841   13.7892 C   0  0  0  0  0  0
   17.7750   -6.7723   13.0057 O   0  0  0  0  0  0
   19.7312   -6.9723   14.1832 O   0  0  0  0  0  0
   14.1458  -13.0073   17.7076 O   0  0  0  0  0  0
   15.9189  -13.1887   15.8068 H   0  0  0  0  0  0
   14.0742  -10.5079   18.5749 H   0  0  0  0  0  0
   17.8419  -10.7227   14.2609 H   0  0  0  0  0  0
   17.3910   -6.5194   15.9905 H   0  0  0  0  0  0
   17.5468   -9.2282   13.6481 H   0  0  0  0  0  0
   18.9344   -9.3000   14.7245 H   0  0  0  0  0  0
   20.1833   -7.5773   14.7721 H   0  0  0  0  0  0
   13.4246  -12.7453   18.2923 H   0  0  0  0  0  0
  1  6  1  0  0  0
  1  2  2  0  0  0
  1 18  1  0  0  0
  2  3  1  0  0  0
  2 17  1  0  0  0
  3  4  2  0  0  0
  3 19  1  0  0  0
  4 12  1  0  0  0
  4  5  1  0  0  0
  5  6  2  0  0  0
  5  8  1  0  0  0
  6  7  1  0  0  0
  7 20  1  0  0  0
  8  9  2  0  0  0
  8 13  1  0  0  0
  9 10  1  0  0  0
  9 21  1  0  0  0
 10 11  2  0  0  0
 10 12  1  0  0  0
 13 14  1  0  0  0
 13 22  1  0  0  0
 13 23  1  0  0  0
 14 15  2  0  0  0
 14 16  1  0  0  0
 16 24  1  0  0  0
 17 25  1  0  0  0
M  END
> <s_m_entry_id>
7326

> <s_m_entry_name>
ligand_docking-pose.468

> <s_m_Source_Path>
/home/csk/Desktop/cluster/DUD-E-result/aldr

> <s_m_Source_File>
ligand_docking-pose.sdf

> <i_m_Source_File_Index>
468

> <i_lp_mmshare_version>
53161

> <r_lp_tautomer_probability>
1

> <s_lp_Force_Field>
OPLS_2005

> <r_lp_Energy>
14.740385

> <b_lp_Chiralities_Consistent>
1

> <s_lp_Variant>
10560-1

> <s_i_glide_gridfile>
glide-grid_2hv5

> <i_i_glide_lignum>
288

> <i_i_glide_rotatable_bonds>
5

> <r_i_docking_score>
-7.08771545579978

> <r_i_glide_ligand_efficiency>
-0.416924438576458

> <r_i_glide_ligand_efficiency_sa>
-1.07203013259474

> <r_i_glide_ligand_efficiency_ln>
-1.84902712675515

> <r_i_glide_gscore>
-7.08771545579978

> <r_i_glide_lipo>
-2.20203338634284

> <r_i_glide_hbond>
-0.32

> <r_i_glide_metal>
0

> <r_i_glide_rewards>
-2.94878895454546

> <r_i_glide_evdw>
-30.6512603759766

> <r_i_glide_ecoul>
-4.67651319503784

> <r_i_glide_erotb>
0.617146883143022

> <r_i_glide_esite>
0

> <r_i_glide_emodel>
-48.7271802725507

> <r_i_glide_energy>
-35.3277735710144

> <r_i_glide_einternal>
2.88091611862183

> <i_i_glide_confnum>
8

> <i_i_glide_posenum>
204

> <r_i_glide_eff_state_penalty>
0

> <i_f3d_flags>
0

> <s_user_duplicate_titles>
10560

> <s_m_subgroup_title>
dock_pv

> <s_m_subgroupid>
dock_pv1

> <b_m_subgroup_collapsed>
0

$$$$
4027
                    3D
 Schrodinger Suite 2021-1.
 36 37  0  0  1  0            999 V2000
   19.1061   -6.0370   13.7670 C   0  0  0  0  0  0
   18.4406   -6.6462   14.8124 C   0  0  0  0  0  0
   17.0993   -6.9765   14.6767 C   0  0  0  0  0  0
   16.4074   -6.5169   13.5496 C   0  0  0  0  0  0
   17.0628   -5.9182   12.4710 C   0  0  0  0  0  0
   18.4348   -5.7097   12.5877 C   0  0  0  0  0  0
   16.3168   -5.4651   11.2715 N   0  3  0  0  0  0
   16.9298   -4.8641   10.3926 O   0  5  0  0  0  0
   15.1153   -5.7098   11.2033 O   0  0  0  0  0  0
   16.4121   -7.6912   15.8004 C   0  0  0  0  0  0
   15.6020   -7.0202   16.4485 O   0  0  0  0  0  0
   16.7821   -8.9762   16.1497 N   0  0  0  0  0  0
   16.3738   -9.4376   17.5047 C   0  0  0  0  0  0
   14.9231   -9.9450   17.6251 C   0  0  0  0  0  0
   14.5457  -10.5791   18.5811 O   0  0  0  0  0  0
   14.1452   -9.6494   16.5467 O   0  0  0  0  0  0
   17.3225   -9.9871   15.2717 C   0  0  0  0  0  0
   16.8323  -11.3071   15.3408 C   0  0  0  0  0  0
   17.3368  -12.3232   14.5336 C   0  0  0  0  0  0
   18.3710  -12.0638   13.6334 C   0  0  0  0  0  0
   18.9006  -10.7772   13.5905 C   0  0  0  0  0  0
   18.3768   -9.7608   14.3746 C   0  0  0  0  0  0
   18.8989  -13.1263   12.7461 N   0  3  0  0  0  0
   19.9231  -12.9048   12.1055 O   0  5  0  0  0  0
   18.2836  -14.1849   12.6846 O   0  0  0  0  0  0
   20.1450   -5.8252   13.8983 H   0  0  0  0  0  0
   18.9803   -6.9146   15.7067 H   0  0  0  0  0  0
   15.3452   -6.5273   13.5229 H   0  0  0  0  0  0
   18.9448   -5.2289   11.7732 H   0  0  0  0  0  0
   17.0484  -10.2304   17.8215 H   0  0  0  0  0  0
   16.5181   -8.6454   18.2402 H   0  0  0  0  0  0
   13.2516   -9.9734   16.6800 H   0  0  0  0  0  0
   16.0258  -11.5867   15.9954 H   0  0  0  0  0  0
   16.9109  -13.3142   14.6097 H   0  0  0  0  0  0
   19.7521  -10.5487   12.9780 H   0  0  0  0  0  0
   18.9082   -8.8426   14.2869 H   0  0  0  0  0  0
  1  6  1  0  0  0
  1  2  2  0  0  0
  1 26  1  0  0  0
  2  3  1  0  0  0
  2 27  1  0  0  0
  3  4  2  0  0  0
  3 10  1  0  0  0
  4  5  1  0  0  0
  4 28  1  0  0  0
  5  6  2  0  0  0
  5  7  1  0  0  0
  6 29  1  0  0  0
  7  8  1  0  0  0
  7  9  2  0  0  0
 10 11  2  0  0  0
 10 12  1  0  0  0
 12 13  1  0  0  0
 12 17  1  0  0  0
 13 14  1  0  0  0
 13 30  1  0  0  0
 13 31  1  0  0  0
 14 15  2  0  0  0
 14 16  1  0  0  0
 16 32  1  0  0  0
 17 22  1  0  0  0
 17 18  2  0  0  0
 18 19  1  0  0  0
 18 33  1  0  0  0
 19 20  2  0  0  0
 19 34  1  0  0  0
 20 21  1  0  0  0
 20 23  1  0  0  0
 21 22  2  0  0  0
 21 35  1  0  0  0
 22 36  1  0  0  0
 23 24  1  0  0  0
 23 25  2  0  0  0
M  CHG  4   7   1   8  -1  23   1  24  -1
M  END
> <s_m_entry_id>
7328

> <s_m_entry_name>
ligand_docking-pose.470

> <s_m_Source_Path>
/home/csk/Desktop/cluster/DUD-E-result/aldr

> <s_m_Source_File>
ligand_docking-pose.sdf

> <i_m_Source_File_Index>
470

> <i_lp_mmshare_version>
53161

> <r_lp_tautomer_probability>
1

> <s_lp_Force_Field>
OPLS_2005

> <r_lp_Energy>
34.154628

> <b_lp_Chiralities_Consistent>
1

> <s_lp_Variant>
4027-1

> <s_i_glide_gridfile>
glide-grid_2hv5

> <i_i_glide_lignum>
441

> <i_i_glide_rotatable_bonds>
8

> <r_i_docking_score>
-7.08457304904139

> <r_i_glide_ligand_efficiency>
-0.283382921961656

> <r_i_glide_ligand_efficiency_sa>
-0.828616689633402

> <r_i_glide_ligand_efficiency_ln>
-1.67925612014492

> <r_i_glide_gscore>
-7.08457304904139

> <r_i_glide_lipo>
-3.13666984894719

> <r_i_glide_hbond>
0

> <r_i_glide_metal>
0

> <r_i_glide_rewards>
-2.91719513310791

> <r_i_glide_evdw>
-33.5516395568848

> <r_i_glide_ecoul>
-0.999733090400696

> <r_i_glide_erotb>
0.796833874418048

> <r_i_glide_esite>
0

> <r_i_glide_emodel>
-41.6099104296165

> <r_i_glide_energy>
-34.5513726472855

> <r_i_glide_einternal>
9.5211763381958

> <i_i_glide_confnum>
73

> <i_i_glide_posenum>
202

> <r_i_glide_eff_state_penalty>
0

> <i_f3d_flags>
0

> <s_user_duplicate_titles>
4027

> <s_m_subgroup_title>
dock_pv

> <s_m_subgroupid>
dock_pv1

> <b_m_subgroup_collapsed>
0

$$$$
219789
                    3D
 Schrodinger Suite 2021-1.
 24 26  0  0  1  0            999 V2000
   17.7505  -11.5683   15.0161 C   0  0  0  0  0  0
   16.7446  -11.6541   15.9730 C   0  0  0  0  0  0
   16.1936  -10.3890   16.1411 C   0  0  0  0  0  0
   16.9352   -9.4946   15.3804 N   0  0  0  0  0  0
   17.8601  -10.2352   14.6709 C   0  0  0  0  0  0
   16.6907   -8.0327   15.3346 C   0  0  2  0  0  0
   16.7969   -7.4325   13.9247 C   0  0  0  0  0  0
   18.0624   -6.6072   13.9272 C   0  0  0  0  0  0
   18.5451   -6.0286   12.9591 O   0  0  0  0  0  0
   18.5451   -6.6332   15.1765 N   0  0  0  0  0  0
   17.8221   -7.3254   16.0779 C   0  0  0  0  0  0
   18.0544   -7.4007   17.2837 O   0  0  0  0  0  0
   15.3510   -7.6649   16.0617 C   0  0  0  0  0  0
   14.9450   -6.5154   16.2076 O   0  0  0  0  0  0
   14.7593   -8.6665   16.7495 N   0  0  0  0  0  0
   15.1301   -9.9395   17.0117 C   0  0  0  0  0  0
   14.5447  -10.5870   17.8745 O   0  0  0  0  0  0
   18.3477  -12.3847   14.6346 H   0  0  0  0  0  0
   16.4160  -12.5570   16.4692 H   0  0  0  0  0  0
   18.5359   -9.7467   13.9833 H   0  0  0  0  0  0
   16.9421   -8.1735   13.1382 H   0  0  0  0  0  0
   15.9560   -6.7968   13.6383 H   0  0  0  0  0  0
   19.3656   -6.1107   15.4451 H   0  0  0  0  0  0
   13.9171   -8.3872   17.2272 H   0  0  0  0  0  0
  1  5  2  0  0  0
  1  2  1  0  0  0
  1 18  1  0  0  0
  2  3  2  0  0  0
  2 19  1  0  0  0
  3 16  1  0  0  0
  3  4  1  0  0  0
  4  5  1  0  0  0
  4  6  1  0  0  0
  5 20  1  0  0  0
  6 11  1  0  0  0
  6  7  1  0  0  0
  6 13  1  0  0  0
  7  8  1  0  0  0
  7 21  1  0  0  0
  7 22  1  0  0  0
  8  9  2  0  0  0
  8 10  1  0  0  0
 10 11  1  0  0  0
 10 23  1  0  0  0
 11 12  2  0  0  0
 13 14  2  0  0  0
 13 15  1  0  0  0
 15 16  1  0  0  0
 15 24  1  0  0  0
 16 17  2  0  0  0
M  END
> <s_m_entry_id>
7329

> <s_m_entry_name>
ligand_docking-pose.471

> <s_m_Source_Path>
/home/csk/Desktop/cluster/DUD-E-result/aldr

> <s_m_Source_File>
ligand_docking-pose.sdf

> <i_m_Source_File_Index>
471

> <i_lp_mmshare_version>
53161

> <r_lp_tautomer_probability>
0.99995

> <s_lp_Force_Field>
OPLS_2005

> <r_lp_Energy>
23.377946

> <b_lp_Chiralities_Consistent>
1

> <s_lp_Variant>
219789-1

> <s_i_glide_gridfile>
glide-grid_2hv5

> <i_i_glide_lignum>
90

> <i_i_glide_rotatable_bonds>
0

> <r_i_docking_score>
-7.0818619726063

> <r_i_glide_ligand_efficiency>
-0.416580116035665

> <r_i_glide_ligand_efficiency_sa>
-1.07114478238518

> <r_i_glide_ligand_efficiency_ln>
-1.84750008334064

> <r_i_glide_gscore>
-7.0818619726063

> <r_i_glide_lipo>
-1.03793012565176

> <r_i_glide_hbond>
-0.32

> <r_i_glide_metal>
0

> <r_i_glide_rewards>
-3.58017428908558

> <r_i_glide_evdw>
-27.0124912261963

> <r_i_glide_ecoul>
-5.28755331039429

> <r_i_glide_erotb>
0

> <r_i_glide_esite>
0

> <r_i_glide_emodel>
-43.3006204576496

> <r_i_glide_energy>
-32.3000445365906

> <r_i_glide_einternal>
0

> <i_i_glide_confnum>
1

> <i_i_glide_posenum>
92

> <r_i_glide_eff_state_penalty>
0

> <i_f3d_flags>
0

> <s_user_duplicate_titles>
219789

> <s_m_subgroup_title>
dock_pv

> <s_m_subgroupid>
dock_pv1

> <b_m_subgroup_collapsed>
0

$$$$
128865
                    3D
 Schrodinger Suite 2021-1.
 26 28  0  0  1  0            999 V2000
   16.4401   -7.5922   15.5933 C   0  0  0  0  0  0
   17.3240   -8.4589   14.9320 C   0  0  0  0  0  0
   17.3386   -9.8093   15.3447 C   0  0  0  0  0  0
   16.5364  -10.2551   16.3914 C   0  0  0  0  0  0
   15.6716   -9.3756   17.0353 C   0  0  0  0  0  0
   15.6213   -8.0373   16.6321 C   0  0  0  0  0  0
   14.5453   -6.9155   17.3803 Cl  0  0  0  0  0  0
   14.6719   -9.9798   18.3091 Cl  0  0  0  0  0  0
   18.1440  -10.7791   14.7764 O   0  0  0  0  0  0
   18.6029  -10.5136   13.4487 C   0  0  0  0  0  0
   19.2346   -9.1141   13.4128 C   0  0  0  0  0  0
   18.1672   -8.0409   13.7134 C   0  0  2  0  0  0
   18.8818   -6.7035   13.8575 C   0  0  0  0  0  0
   19.8407   -6.4632   14.5810 O   0  0  0  0  0  0
   18.3072   -5.8701   12.9813 N   0  0  0  0  0  0
   17.3448   -6.4272   12.2307 C   0  0  0  0  0  0
   16.5683   -5.8590   11.4722 O   0  0  0  0  0  0
   17.3450   -7.7155   12.5810 N   0  0  0  0  0  0
   16.3713   -6.5607   15.2796 H   0  0  0  0  0  0
   16.5748  -11.2916   16.6910 H   0  0  0  0  0  0
   19.3362  -11.2705   13.1672 H   0  0  0  0  0  0
   17.7717  -10.5815   12.7441 H   0  0  0  0  0  0
   19.7399   -8.9157   12.4776 H   0  0  0  0  0  0
   20.0084   -9.1146   14.1807 H   0  0  0  0  0  0
   18.5761   -4.9041   12.8861 H   0  0  0  0  0  0
   17.0259   -8.4381   11.9541 H   0  0  0  0  0  0
  1  6  1  0  0  0
  1  2  2  0  0  0
  1 19  1  0  0  0
  2 12  1  0  0  0
  2  3  1  0  0  0
  3  4  2  0  0  0
  3  9  1  0  0  0
  4  5  1  0  0  0
  4 20  1  0  0  0
  5  6  2  0  0  0
  5  8  1  0  0  0
  6  7  1  0  0  0
  9 10  1  0  0  0
 10 11  1  0  0  0
 10 21  1  0  0  0
 10 22  1  0  0  0
 11 12  1  0  0  0
 11 23  1  0  0  0
 11 24  1  0  0  0
 12 18  1  0  0  0
 12 13  1  0  0  0
 13 14  2  0  0  0
 13 15  1  0  0  0
 15 16  1  0  0  0
 15 25  1  0  0  0
 16 17  2  0  0  0
 16 18  1  0  0  0
 18 26  1  0  0  0
M  END
> <s_m_entry_id>
7331

> <s_m_entry_name>
ligand_docking-pose.473

> <s_m_Source_Path>
/home/csk/Desktop/cluster/DUD-E-result/aldr

> <s_m_Source_File>
ligand_docking-pose.sdf

> <i_m_Source_File_Index>
473

> <i_lp_mmshare_version>
53161

> <r_lp_tautomer_probability>
0.99999999978137

> <s_lp_Force_Field>
OPLS_2005

> <r_lp_Energy>
22.636458

> <b_lp_Chiralities_Consistent>
1

> <s_lp_Variant>
128865-2

> <s_i_glide_gridfile>
glide-grid_2hv5

> <i_i_glide_lignum>
2

> <i_i_glide_rotatable_bonds>
0

> <r_i_docking_score>
-7.06324315225237

> <r_i_glide_ligand_efficiency>
-0.392402397347354

> <r_i_glide_ligand_efficiency_sa>
-1.02838520492421

> <r_i_glide_ligand_efficiency_ln>
-1.81557023128094

> <r_i_glide_gscore>
-7.06324315225237

> <r_i_glide_lipo>
-2.43202780501108

> <r_i_glide_hbond>
0

> <r_i_glide_metal>
0

> <r_i_glide_rewards>
-3.05993637878788

> <r_i_glide_evdw>
-33.3152809143066

> <r_i_glide_ecoul>
0.629900515079498

> <r_i_glide_erotb>
0

> <r_i_glide_esite>
0

> <r_i_glide_emodel>
-44.1360460696986

> <r_i_glide_energy>
-32.6853803992271

> <r_i_glide_einternal>
0

> <i_i_glide_confnum>
1

> <i_i_glide_posenum>
237

> <r_i_glide_eff_state_penalty>
0

> <i_f3d_flags>
0

> <s_user_duplicate_titles>
128865

> <s_m_subgroup_title>
dock_pv

> <s_m_subgroupid>
dock_pv1

> <b_m_subgroup_collapsed>
0

$$$$
468606
                    3D
 Schrodinger Suite 2021-1.
 36 39  0  0  1  0            999 V2000
   15.7588  -13.6166   19.3020 C   0  0  0  0  0  0
   14.7403  -12.6777   19.1878 C   0  0  0  0  0  0
   14.8911  -11.5982   18.3294 C   0  0  0  0  0  0
   16.0266  -11.5211   17.5229 C   0  0  0  0  0  0
   17.0109  -12.5077   17.5553 C   0  0  0  0  0  0
   16.8777  -13.5512   18.4790 C   0  0  0  0  0  0
   18.1386  -12.4355   16.5961 C   0  0  0  0  0  0
   19.0082  -13.2947   16.5607 O   0  0  0  0  0  0
   18.1368  -11.2453   15.7547 C   0  0  0  0  0  0
   17.2112  -10.2743   15.9127 C   0  0  0  0  0  0
   16.1634  -10.3945   16.7706 O   0  0  0  0  0  0
   17.0912   -9.0206   15.1263 C   0  0  0  0  0  0
   16.0978   -8.0937   15.4745 C   0  0  0  0  0  0
   15.7466   -7.0921   14.5856 C   0  0  0  0  0  0
   16.3992   -6.9593   13.3685 C   0  0  0  0  0  0
   17.5359   -7.7375   13.1266 C   0  0  0  0  0  0
   17.8917   -8.7633   14.0011 C   0  0  0  0  0  0
   15.7945   -6.1000   12.3298 C   0  0  0  0  0  0
   16.4634   -5.2760   11.4999 C   0  0  0  0  0  0
   15.8185   -4.4873   10.4845 C   0  0  0  0  0  0
   14.6326   -4.5176   10.1838 O   0  0  0  0  0  0
   16.7107   -3.6589    9.9299 N   0  0  0  0  0  0
   17.9662   -3.6099   10.3774 C   0  0  0  0  0  0
   18.8585   -2.7989   10.1238 O   0  0  0  0  0  0
   18.1605   -4.9318   11.5485 S   0  0  0  0  0  0
   15.6669  -14.3964   20.0395 H   0  0  0  0  0  0
   13.8386  -12.7717   19.7786 H   0  0  0  0  0  0
   14.1395  -10.8379   18.2657 H   0  0  0  0  0  0
   17.6474  -14.2993   18.5624 H   0  0  0  0  0  0
   18.8730  -11.1658   14.9765 H   0  0  0  0  0  0
   15.4891   -8.2165   16.3532 H   0  0  0  0  0  0
   14.8643   -6.5074   14.7934 H   0  0  0  0  0  0
   18.0832   -7.6447   12.1981 H   0  0  0  0  0  0
   18.7175   -9.4023   13.7249 H   0  0  0  0  0  0
   14.7142   -6.1842   12.2379 H   0  0  0  0  0  0
   16.3809   -3.0204    9.2279 H   0  0  0  0  0  0
  1  6  1  0  0  0
  1  2  2  0  0  0
  1 26  1  0  0  0
  2  3  1  0  0  0
  2 27  1  0  0  0
  3  4  2  0  0  0
  3 28  1  0  0  0
  4 11  1  0  0  0
  4  5  1  0  0  0
  5  6  2  0  0  0
  5  7  1  0  0  0
  6 29  1  0  0  0
  7  8  2  0  0  0
  7  9  1  0  0  0
  9 10  2  0  0  0
  9 30  1  0  0  0
 10 11  1  0  0  0
 10 12  1  0  0  0
 12 17  1  0  0  0
 12 13  2  0  0  0
 13 14  1  0  0  0
 13 31  1  0  0  0
 14 15  2  0  0  0
 14 32  1  0  0  0
 15 16  1  0  0  0
 15 18  1  0  0  0
 16 17  2  0  0  0
 16 33  1  0  0  0
 17 34  1  0  0  0
 18 19  2  0  0  0
 18 35  1  0  0  0
 19 25  1  0  0  0
 19 20  1  0  0  0
 20 21  2  0  0  0
 20 22  1  0  0  0
 22 23  1  0  0  0
 22 36  1  0  0  0
 23 24  2  0  0  0
 23 25  1  0  0  0
M  END
> <s_m_entry_id>
7334

> <s_m_entry_name>
ligand_docking-pose.476

> <s_m_Source_Path>
/home/csk/Desktop/cluster/DUD-E-result/aldr

> <s_m_Source_File>
ligand_docking-pose.sdf

> <i_m_Source_File_Index>
476

> <i_lp_mmshare_version>
53161

> <r_lp_tautomer_probability>
1

> <s_lp_Force_Field>
OPLS_2005

> <r_lp_Energy>
20.088249

> <b_lp_Chiralities_Consistent>
1

> <s_lp_Variant>
468606-1

> <s_i_glide_gridfile>
glide-grid_2hv5

> <i_i_glide_lignum>
248

> <i_i_glide_rotatable_bonds>
2

> <r_i_docking_score>
-7.0051199220701

> <r_i_glide_ligand_efficiency>
-0.280204796882804

> <r_i_glide_ligand_efficiency_sa>
-0.819323795538551

> <r_i_glide_ligand_efficiency_ln>
-1.66042334803465

> <r_i_glide_gscore>
-7.0051199220701

> <r_i_glide_lipo>
-2.43807410280323

> <r_i_glide_hbond>
0

> <r_i_glide_metal>
0

> <r_i_glide_rewards>
-2.8270845

> <r_i_glide_evdw>
-33.7153282165527

> <r_i_glide_ecoul>
-2.44212245941162

> <r_i_glide_erotb>
0.312123460472517

> <r_i_glide_esite>
0

> <r_i_glide_emodel>
-40.8199727406638

> <r_i_glide_energy>
-36.1574506759644

> <r_i_glide_einternal>
2.59277582168579

> <i_i_glide_confnum>
11

> <i_i_glide_posenum>
73

> <r_i_glide_eff_state_penalty>
0

> <i_f3d_flags>
0

> <s_user_duplicate_titles>
468606

> <s_m_subgroup_title>
dock_pv

> <s_m_subgroupid>
dock_pv1

> <b_m_subgroup_collapsed>
0

$$$$
13102
                    3D
 Schrodinger Suite 2021-1.
 33 35  0  0  1  0            999 V2000
   14.7738  -12.7573   17.0582 C   0  0  0  0  0  0
   15.5556  -13.1999   15.9957 C   0  0  0  0  0  0
   16.4983  -12.3343   15.3857 C   0  0  0  0  0  0
   17.3191  -12.7211   14.3048 C   0  0  0  0  0  0
   18.2281  -11.8203   13.7405 C   0  0  0  0  0  0
   18.2879  -10.4931   14.1985 C   0  0  0  0  0  0
   17.4855  -10.0700   15.2721 C   0  0  0  0  0  0
   16.6023  -11.0070   15.8719 C   0  0  0  0  0  0
   15.8193  -10.5746   16.9745 C   0  0  0  0  0  0
   14.9122  -11.4667   17.5510 C   0  0  0  0  0  0
   15.9682   -9.1959   17.5665 C   0  0  0  0  0  0
   15.3451   -8.8468   18.5783 O   0  0  0  0  0  0
   16.8806   -8.3827   16.9282 N   0  0  0  0  0  0
   17.5849   -8.6404   15.7707 C   0  0  0  0  0  0
   18.2736   -7.7894   15.1928 O   0  0  0  0  0  0
   17.2104   -7.1033   17.6289 C   0  0  0  0  0  0
   16.1456   -6.0182   17.4022 C   0  0  0  0  0  0
   15.1888   -6.1171   16.6659 O   0  0  0  0  0  0
   16.4565   -4.9332   18.1641 O   0  0  0  0  0  0
   19.0615  -12.2701   12.5989 C   0  0  0  0  0  0
   18.6269  -12.9245   11.6521 O   0  0  0  0  0  0
   20.5704  -12.1126   12.7433 C   0  0  0  0  0  0
   21.2882  -13.6468   13.7801 Br  0  0  0  0  0  0
   14.0498  -13.4176   17.5125 H   0  0  0  0  0  0
   15.4411  -14.2032   15.6184 H   0  0  0  0  0  0
   17.2426  -13.7329   13.9267 H   0  0  0  0  0  0
   18.9696   -9.7965   13.7300 H   0  0  0  0  0  0
   14.2985  -11.1648   18.3904 H   0  0  0  0  0  0
   17.3086   -7.2872   18.7014 H   0  0  0  0  0  0
   18.1681   -6.6898   17.3034 H   0  0  0  0  0  0
   17.2663   -5.0627   18.6602 H   0  0  0  0  0  0
   21.0486  -12.1256   11.7631 H   0  0  0  0  0  0
   20.8363  -11.1938   13.2602 H   0  0  0  0  0  0
  1 10  1  0  0  0
  1  2  2  0  0  0
  1 24  1  0  0  0
  2  3  1  0  0  0
  2 25  1  0  0  0
  3  8  2  0  0  0
  3  4  1  0  0  0
  4  5  2  0  0  0
  4 26  1  0  0  0
  5  6  1  0  0  0
  5 20  1  0  0  0
  6  7  2  0  0  0
  6 27  1  0  0  0
  7 14  1  0  0  0
  7  8  1  0  0  0
  8  9  1  0  0  0
  9 10  2  0  0  0
  9 11  1  0  0  0
 10 28  1  0  0  0
 11 12  2  0  0  0
 11 13  1  0  0  0
 13 14  1  0  0  0
 13 16  1  0  0  0
 14 15  2  0  0  0
 16 17  1  0  0  0
 16 29  1  0  0  0
 16 30  1  0  0  0
 17 18  2  0  0  0
 17 19  1  0  0  0
 19 31  1  0  0  0
 20 21  2  0  0  0
 20 22  1  0  0  0
 22 23  1  0  0  0
 22 32  1  0  0  0
 22 33  1  0  0  0
M  END
> <s_m_entry_id>
7335

> <s_m_entry_name>
ligand_docking-pose.477

> <s_m_Source_Path>
/home/csk/Desktop/cluster/DUD-E-result/aldr

> <s_m_Source_File>
ligand_docking-pose.sdf

> <i_m_Source_File_Index>
477

> <i_lp_mmshare_version>
53161

> <r_lp_tautomer_probability>
0.99990000499975

> <s_lp_Force_Field>
OPLS_2005

> <r_lp_Energy>
36.811857

> <b_lp_Chiralities_Consistent>
1

> <s_lp_Variant>
13102-1

> <s_i_glide_gridfile>
glide-grid_2hv5

> <i_i_glide_lignum>
75

> <i_i_glide_rotatable_bonds>
5

> <r_i_docking_score>
-7.00023852216893

> <r_i_glide_ligand_efficiency>
-0.304358196616041

> <r_i_glide_ligand_efficiency_sa>
-0.865554224498882

> <r_i_glide_ligand_efficiency_ln>
-1.69272114931399

> <r_i_glide_gscore>
-7.00023852216893

> <r_i_glide_lipo>
-1.75042187335014

> <r_i_glide_hbond>
-0.32

> <r_i_glide_metal>
0

> <r_i_glide_rewards>
-2.98353727031202

> <r_i_glide_evdw>
-29.9036388397217

> <r_i_glide_ecoul>
-5.74305152893066

> <r_i_glide_erotb>
0.410360292818912

> <r_i_glide_esite>
0

> <r_i_glide_emodel>
-44.5467539682305

> <r_i_glide_energy>
-35.6466903686523

> <r_i_glide_einternal>
5.74902725219727

> <i_i_glide_confnum>
7

> <i_i_glide_posenum>
145

> <r_i_glide_eff_state_penalty>
0

> <i_f3d_flags>
0

> <s_user_duplicate_titles>
13102

> <s_m_subgroup_title>
dock_pv

> <s_m_subgroupid>
dock_pv1

> <b_m_subgroup_collapsed>
0

$$$$
626067
                    3D
 Schrodinger Suite 2021-1.
 49 51  0  0  1  0            999 V2000
   17.9514  -12.6685   16.8313 C   0  0  0  0  0  0
   17.0797  -11.4222   16.8991 C   0  0  0  0  0  0
   15.8955  -11.4937   17.2343 O   0  0  0  0  0  0
   17.7748  -10.2990   16.5912 O   0  0  0  0  0  0
   17.1346   -9.0841   16.4837 C   0  0  0  0  0  0
   16.5602   -8.4902   17.6235 C   0  0  0  0  0  0
   15.9504   -7.2429   17.5470 C   0  0  0  0  0  0
   15.8215   -6.6341   16.3236 C   0  0  0  0  0  0
   16.3630   -7.2100   15.1911 C   0  0  0  0  0  0
   17.1015   -8.3971   15.2512 C   0  0  0  0  0  0
   17.8343   -8.8295   14.0116 C   0  0  0  0  0  0
   18.5354   -9.8361   13.9491 O   0  0  0  0  0  0
   17.6522   -7.9243   12.8811 C   0  0  0  0  0  0
   16.8305   -6.8638   12.9231 C   0  0  0  0  0  0
   16.1458   -6.5147   14.0281 O   0  0  0  0  0  0
   16.6405   -5.8750   11.8400 C   0  0  0  0  0  0
   15.3513   -5.4708   11.4742 C   0  0  0  0  0  0
   15.1702   -4.5158   10.4777 C   0  0  0  0  0  0
   16.2759   -3.9717    9.8312 C   0  0  0  0  0  0
   17.5643   -4.3700   10.1802 C   0  0  0  0  0  0
   17.7442   -5.3203   11.1818 C   0  0  0  0  0  0
   15.4425   -6.5756   18.6271 O   0  0  0  0  0  0
   16.3944   -6.1213   19.5878 C   0  0  0  0  0  0
   16.5643   -4.5899   19.4620 C   0  0  0  0  0  0
   16.4683   -3.7760   20.7723 C   0  0  0  0  0  0
   17.4616   -4.1847   21.8824 C   0  0  0  0  0  0
   16.9446   -5.2210   22.7334 O   0  0  0  0  0  0
   16.0687   -4.7716   23.7805 N   0  3  0  0  0  0
   15.7507   -3.6045   23.7804 O   0  5  0  0  0  0
   15.7690   -5.6572   24.5458 O   0  0  0  0  0  0
   17.9271  -13.0782   15.8211 H   0  0  0  0  0  0
   18.9862  -12.4364   17.0882 H   0  0  0  0  0  0
   17.5844  -13.4268   17.5245 H   0  0  0  0  0  0
   16.5945   -8.9824   18.5810 H   0  0  0  0  0  0
   15.3440   -5.6830   16.2807 H   0  0  0  0  0  0
   18.1452   -8.1155   11.9516 H   0  0  0  0  0  0
   14.4865   -5.8787   11.9780 H   0  0  0  0  0  0
   14.1734   -4.1989   10.2093 H   0  0  0  0  0  0
   16.1285   -3.2335    9.0567 H   0  0  0  0  0  0
   18.4178   -3.9426    9.6765 H   0  0  0  0  0  0
   18.7453   -5.6201   11.4558 H   0  0  0  0  0  0
   17.3657   -6.6123   19.4892 H   0  0  0  0  0  0
   16.0141   -6.3954   20.5730 H   0  0  0  0  0  0
   15.8213   -4.1931   18.7687 H   0  0  0  0  0  0
   17.5226   -4.3834   18.9819 H   0  0  0  0  0  0
   15.4472   -3.7940   21.1555 H   0  0  0  0  0  0
   16.6502   -2.7297   20.5227 H   0  0  0  0  0  0
   17.7662   -3.3170   22.4675 H   0  0  0  0  0  0
   18.3897   -4.5414   21.4333 H   0  0  0  0  0  0
  1  2  1  0  0  0
  1 31  1  0  0  0
  1 32  1  0  0  0
  1 33  1  0  0  0
  2  3  2  0  0  0
  2  4  1  0  0  0
  4  5  1  0  0  0
  5 10  1  0  0  0
  5  6  2  0  0  0
  6  7  1  0  0  0
  6 34  1  0  0  0
  7  8  2  0  0  0
  7 22  1  0  0  0
  8  9  1  0  0  0
  8 35  1  0  0  0
  9 15  1  0  0  0
  9 10  2  0  0  0
 10 11  1  0  0  0
 11 12  2  0  0  0
 11 13  1  0  0  0
 13 14  2  0  0  0
 13 36  1  0  0  0
 14 15  1  0  0  0
 14 16  1  0  0  0
 16 21  1  0  0  0
 16 17  2  0  0  0
 17 18  1  0  0  0
 17 37  1  0  0  0
 18 19  2  0  0  0
 18 38  1  0  0  0
 19 20  1  0  0  0
 19 39  1  0  0  0
 20 21  2  0  0  0
 20 40  1  0  0  0
 21 41  1  0  0  0
 22 23  1  0  0  0
 23 24  1  0  0  0
 23 42  1  0  0  0
 23 43  1  0  0  0
 24 25  1  0  0  0
 24 44  1  0  0  0
 24 45  1  0  0  0
 25 26  1  0  0  0
 25 46  1  0  0  0
 25 47  1  0  0  0
 26 27  1  0  0  0
 26 48  1  0  0  0
 26 49  1  0  0  0
 27 28  1  0  0  0
 28 29  1  0  0  0
 28 30  2  0  0  0
M  CHG  2  28   1  29  -1
M  END
> <s_m_entry_id>
7336

> <s_m_entry_name>
ligand_docking-pose.478

> <s_m_Source_Path>
/home/csk/Desktop/cluster/DUD-E-result/aldr

> <s_m_Source_File>
ligand_docking-pose.sdf

> <i_m_Source_File_Index>
478

> <i_lp_mmshare_version>
53161

> <r_lp_tautomer_probability>
1

> <s_lp_Force_Field>
OPLS_2005

> <r_lp_Energy>
23.522716

> <b_lp_Chiralities_Consistent>
1

> <s_lp_Variant>
626067-1

> <s_i_glide_gridfile>
glide-grid_2hv5

> <i_i_glide_lignum>
629

> <i_i_glide_rotatable_bonds>
10

> <r_i_docking_score>
-6.99974464013141

> <r_i_glide_ligand_efficiency>
-0.233324821337714

> <r_i_glide_ligand_efficiency_sa>
-0.724994468484471

> <r_i_glide_ligand_efficiency_ln>
-1.59041825056432

> <r_i_glide_gscore>
-6.99974464013141

> <r_i_glide_lipo>
-5.38173953761248

> <r_i_glide_hbond>
0

> <r_i_glide_metal>
0

> <r_i_glide_rewards>
-0.0495859559733498

> <r_i_glide_evdw>
-51.6733894348145

> <r_i_glide_ecoul>
0.611164391040802

> <r_i_glide_erotb>
0.923575666539015

> <r_i_glide_esite>
0

> <r_i_glide_emodel>
-51.2732215594045

> <r_i_glide_energy>
-51.0622250437737

> <r_i_glide_einternal>
27.1133346557617

> <i_i_glide_confnum>
34

> <i_i_glide_posenum>
13

> <r_i_glide_eff_state_penalty>
0

> <i_f3d_flags>
0

> <s_user_duplicate_titles>
626067

> <s_m_subgroup_title>
dock_pv

> <s_m_subgroupid>
dock_pv1

> <b_m_subgroup_collapsed>
0

$$$$
490585
                    3D
 Schrodinger Suite 2021-1.
 45 47  0  0  1  0            999 V2000
   18.2447  -12.1273   13.9865 C   0  0  0  0  0  0
   17.9857  -11.1582   14.9972 O   0  0  0  0  0  0
   17.9351   -9.8092   14.6841 C   0  0  0  0  0  0
   18.1366   -9.3487   13.3838 C   0  0  0  0  0  0
   17.8978   -8.0204   13.0674 C   0  0  0  0  0  0
   17.8068   -7.0774   14.0821 C   0  0  0  0  0  0
   17.6261   -7.4968   15.3883 C   0  0  0  0  0  0
   17.5845   -8.8710   15.6751 C   0  0  0  0  0  0
   17.0974   -9.2864   17.0069 C   0  0  0  0  0  0
   17.1049  -10.4599   17.3835 O   0  0  0  0  0  0
   16.5276   -8.1688   17.7890 C   0  0  0  0  0  0
   16.7676   -6.8720   17.4897 C   0  0  0  0  0  0
   17.4259   -6.5197   16.3569 O   0  0  0  0  0  0
   16.5407   -5.7265   18.4327 C   0  0  0  0  0  0
   16.7036   -5.9337   19.8097 C   0  0  0  0  0  0
   16.5424   -4.9184   20.7463 C   0  0  0  0  0  0
   16.1356   -3.6626   20.3244 C   0  0  0  0  0  0
   15.9651   -3.4095   18.9628 C   0  0  0  0  0  0
   16.1579   -4.4362   18.0249 C   0  0  0  0  0  0
   15.5095   -2.1794   18.5810 O   0  0  0  0  0  0
   15.8257   -2.7041   21.2528 O   0  0  0  0  0  0
   15.7926   -8.5169   18.8632 O   0  0  0  0  0  0
   14.6273   -9.2750   18.5785 C   0  0  0  0  0  0
   17.8712   -5.7554   13.7808 O   0  0  0  0  0  0
   19.1482   -5.3101   13.3892 C   0  0  0  0  0  0
   17.7440   -7.7057   11.7484 O   0  0  0  0  0  0
   16.8573   -6.6611   11.3483 C   0  0  0  0  0  0
   18.2335  -13.1224   14.4288 H   0  0  0  0  0  0
   19.2291  -11.9840   13.5360 H   0  0  0  0  0  0
   17.4778  -12.1106   13.2080 H   0  0  0  0  0  0
   18.3138  -10.0444   12.5849 H   0  0  0  0  0  0
   16.9480   -6.9129   20.1784 H   0  0  0  0  0  0
   16.6665   -5.1338   21.7975 H   0  0  0  0  0  0
   15.9502   -4.2357   16.9843 H   0  0  0  0  0  0
   15.3987   -1.6250   19.3620 H   0  0  0  0  0  0
   15.8558   -3.0043   22.1652 H   0  0  0  0  0  0
   14.5864   -9.7891   17.6168 H   0  0  0  0  0  0
   14.5457  -10.0440   19.3424 H   0  0  0  0  0  0
   13.8151   -8.5485   18.5714 H   0  0  0  0  0  0
   18.9447   -4.5245   12.6651 H   0  0  0  0  0  0
   19.7410   -4.9276   14.2238 H   0  0  0  0  0  0
   19.7426   -6.0895   12.9139 H   0  0  0  0  0  0
   17.3810   -5.7064   11.2641 H   0  0  0  0  0  0
   16.4731   -6.8971   10.3554 H   0  0  0  0  0  0
   16.0029   -6.5450   12.0178 H   0  0  0  0  0  0
  1  2  1  0  0  0
  1 28  1  0  0  0
  1 29  1  0  0  0
  1 30  1  0  0  0
  2  3  1  0  0  0
  3  8  1  0  0  0
  3  4  2  0  0  0
  4  5  1  0  0  0
  4 31  1  0  0  0
  5  6  2  0  0  0
  5 26  1  0  0  0
  6  7  1  0  0  0
  6 24  1  0  0  0
  7 13  1  0  0  0
  7  8  2  0  0  0
  8  9  1  0  0  0
  9 10  2  0  0  0
  9 11  1  0  0  0
 11 12  2  0  0  0
 11 22  1  0  0  0
 12 13  1  0  0  0
 12 14  1  0  0  0
 14 19  1  0  0  0
 14 15  2  0  0  0
 15 16  1  0  0  0
 15 32  1  0  0  0
 16 17  2  0  0  0
 16 33  1  0  0  0
 17 18  1  0  0  0
 17 21  1  0  0  0
 18 19  2  0  0  0
 18 20  1  0  0  0
 19 34  1  0  0  0
 20 35  1  0  0  0
 21 36  1  0  0  0
 22 23  1  0  0  0
 23 37  1  0  0  0
 23 38  1  0  0  0
 23 39  1  0  0  0
 24 25  1  0  0  0
 25 40  1  0  0  0
 25 41  1  0  0  0
 25 42  1  0  0  0
 26 27  1  0  0  0
 27 43  1  0  0  0
 27 44  1  0  0  0
 27 45  1  0  0  0
M  END
> <s_m_entry_id>
7337

> <s_m_entry_name>
ligand_docking-pose.479

> <s_m_Source_Path>
/home/csk/Desktop/cluster/DUD-E-result/aldr

> <s_m_Source_File>
ligand_docking-pose.sdf

> <i_m_Source_File_Index>
479

> <i_lp_mmshare_version>
53161

> <r_lp_tautomer_probability>
0.999999999999776

> <s_lp_Force_Field>
OPLS_2005

> <r_lp_Energy>
35.46144

> <b_lp_Chiralities_Consistent>
1

> <s_lp_Variant>
490585-1

> <s_i_glide_gridfile>
glide-grid_2hv5

> <i_i_glide_lignum>
750

> <i_i_glide_rotatable_bonds>
7

> <r_i_docking_score>
-6.99042815676452

> <r_i_glide_ligand_efficiency>
-0.258904746546834

> <r_i_glide_ligand_efficiency_sa>
-0.776714238787195

> <r_i_glide_ligand_efficiency_ln>
-1.62725642867964

> <r_i_glide_gscore>
-6.99042815676452

> <r_i_glide_lipo>
-4.01991214694487

> <r_i_glide_hbond>
-0.00492776391331695

> <r_i_glide_metal>
0

> <r_i_glide_rewards>
-1.63441518059138

> <r_i_glide_evdw>
-17.5618438720703

> <r_i_glide_ecoul>
-3.94038677215576

> <r_i_glide_erotb>
0.137977144111921

> <r_i_glide_esite>
0

> <r_i_glide_emodel>
-47.7522403233383

> <r_i_glide_energy>
-21.5022306442261

> <r_i_glide_einternal>
18.3999843597412

> <i_i_glide_confnum>
4

> <i_i_glide_posenum>
6

> <r_i_glide_eff_state_penalty>
0

> <i_f3d_flags>
0

> <s_user_duplicate_titles>
490585

> <s_m_subgroup_title>
dock_pv

> <s_m_subgroupid>
dock_pv1

> <b_m_subgroup_collapsed>
0

$$$$
517483
                    3D
 Schrodinger Suite 2021-1.
 50 52  0  0  1  0            999 V2000
   16.5067   -4.4209   10.2037 C   0  0  0  0  0  0
   15.3878   -4.9149   10.8681 C   0  0  0  0  0  0
   15.5563   -5.7530   11.9684 C   0  0  0  0  0  0
   16.8388   -6.1189   12.4031 C   0  0  0  0  0  0
   17.9489   -5.5910   11.7420 C   0  0  0  0  0  0
   17.7861   -4.7491   10.6407 C   0  0  0  0  0  0
   17.0250   -7.0460   13.5431 C   0  0  0  0  0  0
   16.3733   -6.9622   14.7178 C   0  0  0  0  0  0
   16.4703   -7.9834   15.7445 C   0  0  0  0  0  0
   15.9485   -7.8931   16.8565 O   0  0  0  0  0  0
   17.1763   -9.2180   15.2822 C   0  0  0  0  0  0
   17.1806  -10.4179   16.0097 C   0  0  0  0  0  0
   17.7438  -11.5695   15.4629 C   0  0  0  0  0  0
   18.3365  -11.5582   14.2023 C   0  0  0  0  0  0
   18.4218  -10.3411   13.5215 C   0  0  0  0  0  0
   17.8207   -9.2006   14.0371 C   0  0  0  0  0  0
   17.8205   -8.0940   13.2123 O   0  0  0  0  0  0
   18.8138  -12.7621   13.7202 O   0  0  0  0  0  0
   19.0681  -12.9198   12.3202 C   0  0  0  0  0  0
   20.5639  -13.1475   12.0162 C   0  0  0  0  0  0
   21.5390  -12.3609   12.9157 C   0  0  0  0  0  0
   22.8504  -11.9371   12.2364 C   0  0  0  0  0  0
   23.7627  -13.0844   11.7597 C   0  0  0  0  0  0
   25.0492  -12.5582   11.0973 C   0  0  0  0  0  0
   24.6760  -11.7776    9.9533 O   0  0  0  0  0  0
   25.6874  -10.8823    9.4763 N   0  3  0  0  0  0
   25.2885  -10.1778    8.5823 O   0  5  0  0  0  0
   26.7778  -10.9220   10.0064 O   0  0  0  0  0  0
   16.5916  -10.5083   17.2428 O   0  0  0  0  0  0
   16.3756   -3.7732    9.3488 H   0  0  0  0  0  0
   14.3950   -4.6419   10.5384 H   0  0  0  0  0  0
   14.6802   -6.1156   12.4827 H   0  0  0  0  0  0
   18.9433   -5.8450   12.0729 H   0  0  0  0  0  0
   18.6485   -4.3520   10.1254 H   0  0  0  0  0  0
   15.7436   -6.1147   14.8867 H   0  0  0  0  0  0
   17.6947  -12.4968   16.0149 H   0  0  0  0  0  0
   18.9345  -10.2587   12.5816 H   0  0  0  0  0  0
   18.6671  -12.1238   11.6958 H   0  0  0  0  0  0
   18.5105  -13.7972   11.9966 H   0  0  0  0  0  0
   20.7361  -12.9161   10.9631 H   0  0  0  0  0  0
   20.7910  -14.2056   12.1172 H   0  0  0  0  0  0
   21.7615  -12.9760   13.7813 H   0  0  0  0  0  0
   21.0637  -11.4617   13.3111 H   0  0  0  0  0  0
   23.4034  -11.2944   12.9216 H   0  0  0  0  0  0
   22.6019  -11.3145   11.3817 H   0  0  0  0  0  0
   23.2312  -13.7206   11.0509 H   0  0  0  0  0  0
   24.0253  -13.7233   12.6042 H   0  0  0  0  0  0
   25.6839  -13.3861   10.7826 H   0  0  0  0  0  0
   25.6091  -11.9779   11.8331 H   0  0  0  0  0  0
   16.2112   -9.6518   17.4830 H   0  0  0  0  0  0
  1  6  1  0  0  0
  1  2  2  0  0  0
  1 30  1  0  0  0
  2  3  1  0  0  0
  2 31  1  0  0  0
  3  4  2  0  0  0
  3 32  1  0  0  0
  4  5  1  0  0  0
  4  7  1  0  0  0
  5  6  2  0  0  0
  5 33  1  0  0  0
  6 34  1  0  0  0
  7 17  1  0  0  0
  7  8  2  0  0  0
  8  9  1  0  0  0
  8 35  1  0  0  0
  9 10  2  0  0  0
  9 11  1  0  0  0
 11 16  2  0  0  0
 11 12  1  0  0  0
 12 13  2  0  0  0
 12 29  1  0  0  0
 13 14  1  0  0  0
 13 36  1  0  0  0
 14 15  2  0  0  0
 14 18  1  0  0  0
 15 16  1  0  0  0
 15 37  1  0  0  0
 16 17  1  0  0  0
 18 19  1  0  0  0
 19 20  1  0  0  0
 19 38  1  0  0  0
 19 39  1  0  0  0
 20 21  1  0  0  0
 20 40  1  0  0  0
 20 41  1  0  0  0
 21 22  1  0  0  0
 21 42  1  0  0  0
 21 43  1  0  0  0
 22 23  1  0  0  0
 22 44  1  0  0  0
 22 45  1  0  0  0
 23 24  1  0  0  0
 23 46  1  0  0  0
 23 47  1  0  0  0
 24 25  1  0  0  0
 24 48  1  0  0  0
 24 49  1  0  0  0
 25 26  1  0  0  0
 26 27  1  0  0  0
 26 28  2  0  0  0
 29 50  1  0  0  0
M  CHG  2  26   1  27  -1
M  END
> <s_m_entry_id>
7339

> <s_m_entry_name>
ligand_docking-pose.481

> <s_m_Source_Path>
/home/csk/Desktop/cluster/DUD-E-result/aldr

> <s_m_Source_File>
ligand_docking-pose.sdf

> <i_m_Source_File_Index>
481

> <i_lp_mmshare_version>
53161

> <r_lp_tautomer_probability>
1

> <s_lp_Force_Field>
OPLS_2005

> <r_lp_Energy>
23.535924

> <b_lp_Chiralities_Consistent>
1

> <s_lp_Variant>
517483-1

> <s_i_glide_gridfile>
glide-grid_2hv5

> <i_i_glide_lignum>
328

> <i_i_glide_rotatable_bonds>
11

> <r_i_docking_score>
-6.97604925551457

> <r_i_glide_ligand_efficiency>
-0.240553422603951

> <r_i_glide_ligand_efficiency_sa>
-0.739056326912895

> <r_i_glide_ligand_efficiency_ln>
-1.59733838216684

> <r_i_glide_gscore>
-6.97604925551457

> <r_i_glide_lipo>
-4.32991149444055

> <r_i_glide_hbond>
0

> <r_i_glide_metal>
0

> <r_i_glide_rewards>
-1.56372106139135

> <r_i_glide_evdw>
-37.3530769348145

> <r_i_glide_ecoul>
-2.13517236709595

> <r_i_glide_erotb>
1.10551300212245

> <r_i_glide_esite>
0

> <r_i_glide_emodel>
-38.0116631500069

> <r_i_glide_energy>
-39.4882493019104

> <r_i_glide_einternal>
12.2716083526611

> <i_i_glide_confnum>
58

> <i_i_glide_posenum>
60

> <r_i_glide_eff_state_penalty>
0

> <i_f3d_flags>
0

> <s_user_duplicate_titles>
517483

> <s_m_subgroup_title>
dock_pv

> <s_m_subgroupid>
dock_pv1

> <b_m_subgroup_collapsed>
0

$$$$
12855
                    3D
 Schrodinger Suite 2021-1.
 33 35  0  0  1  0            999 V2000
   14.6811  -12.4344   17.3838 C   0  0  0  0  0  0
   15.3569  -12.9974   16.3016 C   0  0  0  0  0  0
   16.3101  -12.2369   15.5808 C   0  0  0  0  0  0
   17.0196  -12.7446   14.4708 C   0  0  0  0  0  0
   17.9380  -11.9438   13.7818 C   0  0  0  0  0  0
   18.1430  -10.6115   14.1738 C   0  0  0  0  0  0
   17.4503  -10.0634   15.2648 C   0  0  0  0  0  0
   16.5457  -10.8958   15.9752 C   0  0  0  0  0  0
   15.8766  -10.3414   17.0926 C   0  0  0  0  0  0
   14.9431  -11.1252   17.7805 C   0  0  0  0  0  0
   16.1822   -8.9496   17.5901 C   0  0  0  0  0  0
   15.7443   -8.5154   18.6583 O   0  0  0  0  0  0
   17.0170   -8.2020   16.7899 N   0  0  0  0  0  0
   17.6565   -8.6026   15.6366 C   0  0  0  0  0  0
   18.3642   -7.8467   14.9626 O   0  0  0  0  0  0
   17.3651   -6.8406   17.3227 C   0  0  0  0  0  0
   16.1461   -5.8918   17.4178 C   0  0  0  0  0  0
   15.0601   -6.1150   16.9268 O   0  0  0  0  0  0
   16.4776   -4.7974   18.1599 O   0  0  0  0  0  0
   18.5936  -12.5045   12.5673 C   0  0  0  0  0  0
   18.0210  -13.2534   11.7772 O   0  0  0  0  0  0
   20.1024  -12.3222   12.4326 C   0  0  0  0  0  0
   20.9451  -13.4810   13.4942 Cl  0  0  0  0  0  0
   13.9450  -13.0172   17.9218 H   0  0  0  0  0  0
   15.1494  -14.0122   15.9980 H   0  0  0  0  0  0
   16.8332  -13.7626   14.1548 H   0  0  0  0  0  0
   18.8193   -9.9808   13.6112 H   0  0  0  0  0  0
   14.4110  -10.7276   18.6326 H   0  0  0  0  0  0
   17.7856   -6.9650   18.3231 H   0  0  0  0  0  0
   18.1339   -6.3450   16.7320 H   0  0  0  0  0  0
   17.3885   -4.8103   18.4561 H   0  0  0  0  0  0
   20.4079  -12.5159   11.4025 H   0  0  0  0  0  0
   20.4154  -11.3155   12.6993 H   0  0  0  0  0  0
  1 10  1  0  0  0
  1  2  2  0  0  0
  1 24  1  0  0  0
  2  3  1  0  0  0
  2 25  1  0  0  0
  3  8  2  0  0  0
  3  4  1  0  0  0
  4  5  2  0  0  0
  4 26  1  0  0  0
  5  6  1  0  0  0
  5 20  1  0  0  0
  6  7  2  0  0  0
  6 27  1  0  0  0
  7 14  1  0  0  0
  7  8  1  0  0  0
  8  9  1  0  0  0
  9 10  2  0  0  0
  9 11  1  0  0  0
 10 28  1  0  0  0
 11 12  2  0  0  0
 11 13  1  0  0  0
 13 14  1  0  0  0
 13 16  1  0  0  0
 14 15  2  0  0  0
 16 17  1  0  0  0
 16 29  1  0  0  0
 16 30  1  0  0  0
 17 18  2  0  0  0
 17 19  1  0  0  0
 19 31  1  0  0  0
 20 21  2  0  0  0
 20 22  1  0  0  0
 22 23  1  0  0  0
 22 32  1  0  0  0
 22 33  1  0  0  0
M  END
> <s_m_entry_id>
7344

> <s_m_entry_name>
ligand_docking-pose.486

> <s_m_Source_Path>
/home/csk/Desktop/cluster/DUD-E-result/aldr

> <s_m_Source_File>
ligand_docking-pose.sdf

> <i_m_Source_File_Index>
486

> <i_lp_mmshare_version>
53161

> <r_lp_tautomer_probability>
0.99990000499975

> <s_lp_Force_Field>
OPLS_2005

> <r_lp_Energy>
37.258424

> <b_lp_Chiralities_Consistent>
1

> <s_lp_Variant>
12855-1

> <s_i_glide_gridfile>
glide-grid_2hv5

> <i_i_glide_lignum>
76

> <i_i_glide_rotatable_bonds>
5

> <r_i_docking_score>
-6.94956582684517

> <r_i_glide_ligand_efficiency>
-0.30215503594979

> <r_i_glide_ligand_efficiency_sa>
-0.859288728635373

> <r_i_glide_ligand_efficiency_ln>
-1.6804680321101

> <r_i_glide_gscore>
-6.94956582684517

> <r_i_glide_lipo>
-1.70414695993221

> <r_i_glide_hbond>
-0.32

> <r_i_glide_metal>
0

> <r_i_glide_rewards>
-3.23674335984244

> <r_i_glide_evdw>
-29.395580291748

> <r_i_glide_ecoul>
-4.8810920715332

> <r_i_glide_erotb>
0.513267318246864

> <r_i_glide_esite>
0

> <r_i_glide_emodel>
-41.8289393650894

> <r_i_glide_energy>
-34.2766723632812

> <r_i_glide_einternal>
8.24184131622314

> <i_i_glide_confnum>
6

> <i_i_glide_posenum>
190

> <r_i_glide_eff_state_penalty>
0

> <i_f3d_flags>
0

> <s_user_duplicate_titles>
12855

> <s_m_subgroup_title>
dock_pv

> <s_m_subgroupid>
dock_pv1

> <b_m_subgroup_collapsed>
0

$$$$
10607
                    3D
 Schrodinger Suite 2021-1.
 29 30  0  0  1  0            999 V2000
   17.7768  -12.5465   11.7008 C   0  0  0  0  0  0
   18.8251  -12.0652   12.7182 C   0  0  0  0  0  0
   18.2553  -11.1023   13.7504 C   0  0  0  0  0  0
   18.6151   -9.7513   13.7374 C   0  0  0  0  0  0
   18.0893   -8.8673   14.6806 C   0  0  0  0  0  0
   17.1893   -9.3239   15.6557 C   0  0  0  0  0  0
   16.5498   -8.4518   16.6768 C   0  0  0  0  0  0
   15.5933   -8.9834   17.4760 C   0  0  0  0  0  0
   15.2361  -10.4039   17.4489 C   0  0  0  0  0  0
   14.4298  -10.9684   18.1810 O   0  0  0  0  0  0
   15.9109  -11.2031   16.5512 O   0  0  0  0  0  0
   16.8238  -10.6792   15.6499 C   0  0  0  0  0  0
   17.3623  -11.5654   14.7188 C   0  0  0  0  0  0
   16.9944   -6.9756   16.7067 C   0  0  0  0  0  0
   16.5618   -6.1144   17.9051 C   0  0  0  0  0  0
   16.1451   -4.9684   17.7811 O   0  0  0  0  0  0
   16.7762   -6.7248   19.1013 O   0  0  0  0  0  0
   18.2257  -13.2219   10.9725 H   0  0  0  0  0  0
   16.9614  -13.0825   12.1877 H   0  0  0  0  0  0
   17.3419  -11.7147   11.1475 H   0  0  0  0  0  0
   19.6618  -11.6026   12.1904 H   0  0  0  0  0  0
   19.2517  -12.9226   13.2424 H   0  0  0  0  0  0
   19.3051   -9.3794   12.9941 H   0  0  0  0  0  0
   18.3878   -7.8311   14.6281 H   0  0  0  0  0  0
   15.0704   -8.3626   18.1850 H   0  0  0  0  0  0
   17.0689  -12.6047   14.7334 H   0  0  0  0  0  0
   16.6624   -6.5007   15.7833 H   0  0  0  0  0  0
   18.0853   -6.9378   16.7069 H   0  0  0  0  0  0
   17.1762   -7.5937   19.0063 H   0  0  0  0  0  0
  1  2  1  0  0  0
  1 18  1  0  0  0
  1 19  1  0  0  0
  1 20  1  0  0  0
  2  3  1  0  0  0
  2 21  1  0  0  0
  2 22  1  0  0  0
  3 13  1  0  0  0
  3  4  2  0  0  0
  4  5  1  0  0  0
  4 23  1  0  0  0
  5  6  2  0  0  0
  5 24  1  0  0  0
  6 12  1  0  0  0
  6  7  1  0  0  0
  7  8  2  0  0  0
  7 14  1  0  0  0
  8  9  1  0  0  0
  8 25  1  0  0  0
  9 10  2  0  0  0
  9 11  1  0  0  0
 11 12  1  0  0  0
 12 13  2  0  0  0
 13 26  1  0  0  0
 14 15  1  0  0  0
 14 27  1  0  0  0
 14 28  1  0  0  0
 15 16  2  0  0  0
 15 17  1  0  0  0
 17 29  1  0  0  0
M  END
> <s_m_entry_id>
7345

> <s_m_entry_name>
ligand_docking-pose.487

> <s_m_Source_Path>
/home/csk/Desktop/cluster/DUD-E-result/aldr

> <s_m_Source_File>
ligand_docking-pose.sdf

> <i_m_Source_File_Index>
487

> <i_lp_mmshare_version>
53161

> <r_lp_tautomer_probability>
1

> <s_lp_Force_Field>
OPLS_2005

> <r_lp_Energy>
10.203488

> <b_lp_Chiralities_Consistent>
1

> <s_lp_Variant>
10607-1

> <s_i_glide_gridfile>
glide-grid_2hv5

> <i_i_glide_lignum>
537

> <i_i_glide_rotatable_bonds>
4

> <r_i_docking_score>
-6.94208014551373

> <r_i_glide_ligand_efficiency>
-0.408357655618455

> <r_i_glide_ligand_efficiency_sa>
-1.05000252130446

> <r_i_glide_ligand_efficiency_ln>
-1.81103411744043

> <r_i_glide_gscore>
-6.94208014551373

> <r_i_glide_lipo>
-2.6590407351247

> <r_i_glide_hbond>
0

> <r_i_glide_metal>
0

> <r_i_glide_rewards>
-3.08488060972143

> <r_i_glide_evdw>
-28.2093124389648

> <r_i_glide_ecoul>
-2.81852865219116

> <r_i_glide_erotb>
0.63508611910932

> <r_i_glide_esite>
0

> <r_i_glide_emodel>
-42.2382175062913

> <r_i_glide_energy>
-31.027841091156

> <r_i_glide_einternal>
3.43599581718445

> <i_i_glide_confnum>
8

> <i_i_glide_posenum>
332

> <r_i_glide_eff_state_penalty>
0

> <i_f3d_flags>
0

> <s_user_duplicate_titles>
10607

> <s_m_subgroup_title>
dock_pv

> <s_m_subgroupid>
dock_pv1

> <b_m_subgroup_collapsed>
0

$$$$
489717
                    3D
 Schrodinger Suite 2021-1.
 38 40  0  0  1  0            999 V2000
   19.2202  -13.3200   14.9804 C   0  0  0  0  0  0
   18.0869  -13.0554   15.7998 O   0  0  0  0  0  0
   17.5343  -11.7839   15.8633 C   0  0  0  0  0  0
   16.7311  -11.5411   16.9821 C   0  0  0  0  0  0
   16.0853  -10.3118   17.1441 C   0  0  0  0  0  0
   16.3112   -9.2639   16.2397 C   0  0  0  0  0  0
   15.6574   -7.9262   16.4049 C   0  0  0  0  0  0
   14.9553   -7.6275   17.3716 O   0  0  0  0  0  0
   15.8721   -7.0429   15.2921 C   0  0  0  0  0  0
   16.6693   -7.3458   14.2554 C   0  0  0  0  0  0
   17.3446   -8.5208   14.1613 O   0  0  0  0  0  0
   17.1353   -9.5015   15.1229 C   0  0  0  0  0  0
   17.7017  -10.7707   14.8955 C   0  0  0  0  0  0
   18.3034  -11.0975   13.6986 O   0  0  0  0  0  0
   19.3457  -10.2736   13.2077 C   0  0  0  0  0  0
   16.7827   -6.5148   13.0339 C   0  0  0  0  0  0
   15.6436   -6.0079   12.3862 C   0  0  0  0  0  0
   15.7518   -5.2097   11.2541 C   0  0  0  0  0  0
   17.0079   -4.8528   10.7921 C   0  0  0  0  0  0
   18.1451   -5.3124   11.4425 C   0  0  0  0  0  0
   18.0408   -6.1550   12.5488 C   0  0  0  0  0  0
   17.1229   -4.0124    9.7195 O   0  0  0  0  0  0
   15.1991  -10.1516   18.1806 O   0  0  0  0  0  0
   16.5746  -12.5365   17.9215 O   0  0  0  0  0  0
   19.7311  -14.2009   15.3595 H   0  0  0  0  0  0
   18.9197  -13.5276   13.9526 H   0  0  0  0  0  0
   19.9543  -12.5151   14.9832 H   0  0  0  0  0  0
   15.3514   -6.1150   15.2723 H   0  0  0  0  0  0
   19.9831  -10.9157   12.5952 H   0  0  0  0  0  0
   18.9598   -9.4702   12.5829 H   0  0  0  0  0  0
   19.9534   -9.8303   13.9942 H   0  0  0  0  0  0
   14.6509   -6.1151   12.7904 H   0  0  0  0  0  0
   14.8651   -4.8143   10.7793 H   0  0  0  0  0  0
   19.1102   -5.0014   11.0929 H   0  0  0  0  0  0
   18.9371   -6.5039   13.0421 H   0  0  0  0  0  0
   18.0319   -3.8011    9.5067 H   0  0  0  0  0  0
   14.8632   -9.2444   18.1885 H   0  0  0  0  0  0
   17.0005  -13.3502   17.6348 H   0  0  0  0  0  0
  1  2  1  0  0  0
  1 25  1  0  0  0
  1 26  1  0  0  0
  1 27  1  0  0  0
  2  3  1  0  0  0
  3 13  1  0  0  0
  3  4  2  0  0  0
  4  5  1  0  0  0
  4 24  1  0  0  0
  5  6  2  0  0  0
  5 23  1  0  0  0
  6 12  1  0  0  0
  6  7  1  0  0  0
  7  8  2  0  0  0
  7  9  1  0  0  0
  9 10  2  0  0  0
  9 28  1  0  0  0
 10 11  1  0  0  0
 10 16  1  0  0  0
 11 12  1  0  0  0
 12 13  2  0  0  0
 13 14  1  0  0  0
 14 15  1  0  0  0
 15 29  1  0  0  0
 15 30  1  0  0  0
 15 31  1  0  0  0
 16 21  1  0  0  0
 16 17  2  0  0  0
 17 18  1  0  0  0
 17 32  1  0  0  0
 18 19  2  0  0  0
 18 33  1  0  0  0
 19 20  1  0  0  0
 19 22  1  0  0  0
 20 21  2  0  0  0
 20 34  1  0  0  0
 21 35  1  0  0  0
 22 36  1  0  0  0
 23 37  1  0  0  0
 24 38  1  0  0  0
M  END
> <s_m_entry_id>
7350

> <s_m_entry_name>
ligand_docking-pose.492

> <s_m_Source_Path>
/home/csk/Desktop/cluster/DUD-E-result/aldr

> <s_m_Source_File>
ligand_docking-pose.sdf

> <i_m_Source_File_Index>
492

> <i_lp_mmshare_version>
53161

> <r_lp_tautomer_probability>
0.999999999997365

> <s_lp_Force_Field>
OPLS_2005

> <r_lp_Energy>
28.33707

> <b_lp_Chiralities_Consistent>
1

> <s_lp_Variant>
489717-1

> <s_i_glide_gridfile>
glide-grid_2hv5

> <i_i_glide_lignum>
740

> <i_i_glide_rotatable_bonds>
6

> <r_i_docking_score>
-6.90919068480509

> <r_i_glide_ligand_efficiency>
-0.287882945200212

> <r_i_glide_ligand_efficiency_sa>
-0.830398107147991

> <r_i_glide_ligand_efficiency_ln>
-1.65368637297564

> <r_i_glide_gscore>
-6.90919068480509

> <r_i_glide_lipo>
-3.42428847012516

> <r_i_glide_hbond>
0

> <r_i_glide_metal>
0

> <r_i_glide_rewards>
-2.05712140909091

> <r_i_glide_evdw>
-31.6927680969238

> <r_i_glide_ecoul>
-0.103549301624298

> <r_i_glide_erotb>
0.17238999450081

> <r_i_glide_esite>
0

> <r_i_glide_emodel>
-30.7284139410793

> <r_i_glide_energy>
-31.7963173985481

> <r_i_glide_einternal>
7.30555486679077

> <i_i_glide_confnum>
3

> <i_i_glide_posenum>
11

> <r_i_glide_eff_state_penalty>
0

> <i_f3d_flags>
0

> <s_user_duplicate_titles>
489717

> <s_m_subgroup_title>
dock_pv

> <s_m_subgroupid>
dock_pv1

> <b_m_subgroup_collapsed>
0

$$$$
128863
                    3D
 Schrodinger Suite 2021-1.
 25 27  0  0  1  0            999 V2000
   18.0331  -11.9024   14.5971 C   0  0  0  0  0  0
   17.3943  -11.2807   15.6669 C   0  0  0  0  0  0
   17.2527   -9.8933   15.6854 C   0  0  0  0  0  0
   17.7510   -9.0899   14.6368 C   0  0  0  0  0  0
   18.4052   -9.7458   13.5793 C   0  0  0  0  0  0
   18.5445  -11.1337   13.5552 C   0  0  0  0  0  0
   19.3453  -11.9003   12.2329 Cl  0  0  0  0  0  0
   17.4829   -7.5702   14.6578 C   0  0  1  0  0  0
   17.0434   -7.1014   16.0680 C   0  0  0  0  0  0
   16.0526   -8.1018   16.6868 C   0  0  0  0  0  0
   16.6639   -9.3830   16.8261 O   0  0  0  0  0  0
   18.6313   -6.7267   14.1047 C   0  0  0  0  0  0
   19.7541   -6.5913   14.5810 O   0  0  0  0  0  0
   18.1551   -6.1774   12.9817 N   0  0  0  0  0  0
   16.8803   -6.5147   12.7464 C   0  0  0  0  0  0
   16.1692   -6.1779   11.8052 O   0  0  0  0  0  0
   16.4364   -7.3151   13.7570 O   0  0  0  0  0  0
   18.1386  -12.9776   14.5803 H   0  0  0  0  0  0
   17.0118  -11.8732   16.4845 H   0  0  0  0  0  0
   18.7987   -9.1734   12.7523 H   0  0  0  0  0  0
   17.9076   -7.0115   16.7298 H   0  0  0  0  0  0
   16.5829   -6.1151   16.0266 H   0  0  0  0  0  0
   15.1630   -8.1836   16.0582 H   0  0  0  0  0  0
   15.7256   -7.7592   17.6691 H   0  0  0  0  0  0
   18.6882   -5.5704   12.3822 H   0  0  0  0  0  0
  1  6  1  0  0  0
  1  2  2  0  0  0
  1 18  1  0  0  0
  2  3  1  0  0  0
  2 19  1  0  0  0
  3 11  1  0  0  0
  3  4  2  0  0  0
  4  5  1  0  0  0
  4  8  1  0  0  0
  5  6  2  0  0  0
  5 20  1  0  0  0
  6  7  1  0  0  0
  8 17  1  0  0  0
  8  9  1  0  0  0
  8 12  1  0  0  0
  9 10  1  0  0  0
  9 21  1  0  0  0
  9 22  1  0  0  0
 10 11  1  0  0  0
 10 23  1  0  0  0
 10 24  1  0  0  0
 12 13  2  0  0  0
 12 14  1  0  0  0
 14 15  1  0  0  0
 14 25  1  0  0  0
 15 16  2  0  0  0
 15 17  1  0  0  0
M  END
> <s_m_entry_id>
7353

> <s_m_entry_name>
ligand_docking-pose.495

> <s_m_Source_Path>
/home/csk/Desktop/cluster/DUD-E-result/aldr

> <s_m_Source_File>
ligand_docking-pose.sdf

> <i_m_Source_File_Index>
495

> <i_lp_mmshare_version>
53161

> <r_lp_tautomer_probability>
0.999976750538843

> <s_lp_Force_Field>
OPLS_2005

> <r_lp_Energy>
8.311473

> <b_lp_Chiralities_Consistent>
1

> <s_lp_Variant>
128863-1

> <s_i_glide_gridfile>
glide-grid_2hv5

> <i_i_glide_lignum>
24

> <i_i_glide_rotatable_bonds>
0

> <r_i_docking_score>
-6.88377912949828

> <r_i_glide_ligand_efficiency>
-0.404928184088134

> <r_i_glide_ligand_efficiency_sa>
-1.04118438430119

> <r_i_glide_ligand_efficiency_ln>
-1.79582468066179

> <r_i_glide_gscore>
-6.88377912949828

> <r_i_glide_lipo>
-2.09192329417789

> <r_i_glide_hbond>
0

> <r_i_glide_metal>
0

> <r_i_glide_rewards>
-3.47973940909091

> <r_i_glide_evdw>
-30.2721290588379

> <r_i_glide_ecoul>
1.34326684474945

> <r_i_glide_erotb>
0

> <r_i_glide_esite>
0

> <r_i_glide_emodel>
-40.998119548976

> <r_i_glide_energy>
-28.9288622140884

> <r_i_glide_einternal>
0

> <i_i_glide_confnum>
1

> <i_i_glide_posenum>
314

> <r_i_glide_eff_state_penalty>
0

> <i_f3d_flags>
0

> <s_user_duplicate_titles>
128863

> <s_m_subgroup_title>
dock_pv

> <s_m_subgroupid>
dock_pv1

> <b_m_subgroup_collapsed>
0

$$$$
219886
                    3D
 Schrodinger Suite 2021-1.
 27 29  0  0  1  0            999 V2000
   17.9147  -12.3601   16.0096 C   0  0  0  0  0  0
   17.6104  -10.9218   15.7738 N   0  0  0  0  0  0
   18.0745  -10.4172   14.5778 C   0  0  0  0  0  0
   18.7193  -11.0849   13.7651 O   0  0  0  0  0  0
   17.7375   -9.0294   14.3760 C   0  0  0  0  0  0
   18.0133   -8.1947   13.3112 C   0  0  0  0  0  0
   17.4287   -6.9522   13.5099 C   0  0  0  0  0  0
   16.7761   -7.0491   14.7157 C   0  0  0  0  0  0
   16.9643   -8.3077   15.2557 N   0  0  0  0  0  0
   16.4725   -8.8209   16.5358 C   0  0  1  0  0  0
   16.8257  -10.3371   16.7430 C   0  0  0  0  0  0
   16.3858  -10.9586   17.7189 O   0  0  0  0  0  0
   16.9421   -7.9404   17.6877 C   0  0  0  0  0  0
   15.7383   -7.0949   18.0452 C   0  0  0  0  0  0
   15.7449   -6.1322   18.8086 O   0  0  0  0  0  0
   14.6789   -7.6016   17.3820 N   0  0  0  0  0  0
   14.9535   -8.6467   16.5776 C   0  0  0  0  0  0
   14.1460   -9.3144   15.9409 O   0  0  0  0  0  0
   18.1003  -12.9246   15.0937 H   0  0  0  0  0  0
   18.7919  -12.4621   16.6487 H   0  0  0  0  0  0
   17.0880  -12.8878   16.4888 H   0  0  0  0  0  0
   18.5605   -8.5105   12.4543 H   0  0  0  0  0  0
   17.4574   -6.0993   12.8460 H   0  0  0  0  0  0
   16.1683   -6.3298   15.2395 H   0  0  0  0  0  0
   17.1982   -8.4977   18.5810 H   0  0  0  0  0  0
   17.7953   -7.3044   17.4441 H   0  0  0  0  0  0
   13.7400   -7.2557   17.5133 H   0  0  0  0  0  0
  1  2  1  0  0  0
  1 19  1  0  0  0
  1 20  1  0  0  0
  1 21  1  0  0  0
  2 11  1  0  0  0
  2  3  1  0  0  0
  3  4  2  0  0  0
  3  5  1  0  0  0
  5  9  1  0  0  0
  5  6  2  0  0  0
  6  7  1  0  0  0
  6 22  1  0  0  0
  7  8  2  0  0  0
  7 23  1  0  0  0
  8  9  1  0  0  0
  8 24  1  0  0  0
  9 10  1  0  0  0
 10 17  1  0  0  0
 10 11  1  0  0  0
 10 13  1  0  0  0
 11 12  2  0  0  0
 13 14  1  0  0  0
 13 25  1  0  0  0
 13 26  1  0  0  0
 14 15  2  0  0  0
 14 16  1  0  0  0
 16 17  1  0  0  0
 16 27  1  0  0  0
 17 18  2  0  0  0
M  END
> <s_m_entry_id>
7357

> <s_m_entry_name>
ligand_docking-pose.499

> <s_m_Source_Path>
/home/csk/Desktop/cluster/DUD-E-result/aldr

> <s_m_Source_File>
ligand_docking-pose.sdf

> <i_m_Source_File_Index>
499

> <i_lp_mmshare_version>
53161

> <r_lp_tautomer_probability>
0.99995

> <s_lp_Force_Field>
OPLS_2005

> <r_lp_Energy>
30.414712

> <b_lp_Chiralities_Consistent>
1

> <s_lp_Variant>
219886-1

> <s_i_glide_gridfile>
glide-grid_2hv5

> <i_i_glide_lignum>
644

> <i_i_glide_rotatable_bonds>
0

> <r_i_docking_score>
-6.85254295611261

> <r_i_glide_ligand_efficiency>
-0.380696830895145

> <r_i_glide_ligand_efficiency_sa>
-0.997707942409802

> <r_i_glide_ligand_efficiency_ln>
-1.76141083232064

> <r_i_glide_gscore>
-6.85254295611261

> <r_i_glide_lipo>
-1.60605607671488

> <r_i_glide_hbond>
-0.118247971621827

> <r_i_glide_metal>
0

> <r_i_glide_rewards>
-3.40275212856295

> <r_i_glide_evdw>
-26.8251209259033

> <r_i_glide_ecoul>
-2.5615382194519

> <r_i_glide_erotb>
0

> <r_i_glide_esite>
0

> <r_i_glide_emodel>
-38.1917335031681

> <r_i_glide_energy>
-29.3866591453552

> <r_i_glide_einternal>
0

> <i_i_glide_confnum>
1

> <i_i_glide_posenum>
54

> <r_i_glide_eff_state_penalty>
0

> <i_f3d_flags>
0

> <s_user_duplicate_titles>
219886

> <s_m_subgroup_title>
dock_pv

> <s_m_subgroupid>
dock_pv1

> <b_m_subgroup_collapsed>
0

$$$$
