CHEMBL4040_lig15
                    3D
 Schrodinger Suite 2021-1.
 22 23  0  0  1  0            999 V2000
  -14.7691   14.9915   43.8823 C   0  0  0  0  0  0
  -16.0921   14.7791   44.2403 C   0  0  0  0  0  0
  -16.8813   13.8768   43.5325 C   0  0  0  0  0  0
  -14.2204   14.2882   42.8198 C   0  0  0  0  0  0
  -14.9793   13.3556   42.0951 C   0  0  0  0  0  0
  -16.3465   13.1500   42.4416 C   0  0  0  0  0  0
  -17.2031   12.1767   41.6603 C   0  0  0  0  0  0
  -16.4864   11.4955   40.5904 C   0  0  0  0  0  0
  -15.1873   11.6781   40.2611 C   0  0  0  0  0  0
  -14.2880   12.5999   40.9834 C   0  0  0  0  0  0
  -18.1760   13.7456   43.9701 O   0  0  0  0  0  0
  -13.0924   12.7599   40.7201 O   0  0  0  0  0  0
  -18.3968   11.9796   41.8807 O   0  0  0  0  0  0
  -14.5707   11.0022   39.0442 C   0  0  0  0  0  0
  -14.1616   15.6822   44.4506 H   0  0  0  0  0  0
  -16.4975   15.3048   45.0914 H   0  0  0  0  0  0
  -13.1793   14.4644   42.5835 H   0  0  0  0  0  0
  -17.0493   10.7955   39.9910 H   0  0  0  0  0  0
  -18.7001   13.0978   43.4823 H   0  0  0  0  0  0
  -14.0125   11.7097   38.4286 H   0  0  0  0  0  0
  -13.8915   10.2053   39.3475 H   0  0  0  0  0  0
  -15.3379   10.5747   38.4004 H   0  0  0  0  0  0
  1  2  2  0  0  0
  1  4  1  0  0  0
  1 15  1  0  0  0
  2  3  1  0  0  0
  2 16  1  0  0  0
  3 11  1  0  0  0
  3  6  2  0  0  0
  4  5  2  0  0  0
  4 17  1  0  0  0
  5 10  1  0  0  0
  5  6  1  0  0  0
  6  7  1  0  0  0
  7  8  1  0  0  0
  7 13  2  0  0  0
  8  9  2  0  0  0
  8 18  1  0  0  0
  9 10  1  0  0  0
  9 14  1  0  0  0
 10 12  2  0  0  0
 11 19  1  0  0  0
 14 20  1  0  0  0
 14 21  1  0  0  0
 14 22  1  0  0  0
M  END
> <s_m_entry_id>
12580

> <s_m_entry_name>
dock_pv.2

> <s_m_Source_Path>
/home/csk/Desktop/cluster/DUD-E-result/mk01

> <s_m_Source_File>
dock_pv.maegz

> <i_m_Source_File_Index>
2

> <chembl_id>
CHEMBL295316

> <chembl_pref_name>
PLUMBAGIN

> <i_lp_mmshare_version>
53161

> <i_f3d_flags>
0

> <r_lp_tautomer_probability>
1

> <s_lp_Force_Field>
OPLS_2005

> <r_lp_Energy>
7.475178

> <b_lp_Chiralities_Consistent>
1

> <s_lp_Variant>
CHEMBL4040_lig15-1

> <s_i_glide_gridfile>
glide-grid_2ojg

> <i_i_glide_lignum>
15

> <i_i_glide_rotatable_bonds>
1

> <r_i_docking_score>
-7.51375091710419

> <r_i_glide_ligand_efficiency>
-0.536696494078871

> <r_i_glide_ligand_efficiency_sa>
-1.29351490227627

> <r_i_glide_ligand_efficiency_ln>
-2.06475200485467

> <r_i_glide_gscore>
-7.51375091710419

> <r_i_glide_lipo>
-1.70639321139526

> <r_i_glide_hbond>
-0.31126739990863

> <r_i_glide_metal>
0

> <r_i_glide_rewards>
-3.59112223481642

> <r_i_glide_evdw>
-28.1092014312744

> <r_i_glide_ecoul>
-3.33005332946777

> <r_i_glide_erotb>
0

> <r_i_glide_esite>
0

> <r_i_glide_emodel>
-46.8124353753111

> <r_i_glide_energy>
-31.4392547607422

> <r_i_glide_einternal>
4.71682542411145e-05

> <i_i_glide_confnum>
1

> <i_i_glide_posenum>
219

> <r_i_glide_eff_state_penalty>
0

> <s_user_duplicate_titles>
CHEMBL4040_lig15

> <s_m_subgroup_title>
dock_pv

> <s_m_subgroupid>
dock_pv

> <b_m_subgroup_collapsed>
0

$$$$
CHEMBL4040_lig8
                    3D
 Schrodinger Suite 2021-1.
 28 30  0  0  1  0            999 V2000
  -14.5929   15.2807   43.1095 O   0  0  0  0  0  0
  -13.6066   14.6778   42.6714 C   0  0  0  0  0  0
  -13.7441   13.5043   41.7329 C   0  0  0  0  0  0
  -15.0188   12.9434   41.4774 C   0  0  0  0  0  0
  -16.1699   13.3965   42.0725 O   0  0  0  0  0  0
  -15.1664   11.8913   40.5840 C   0  0  0  0  0  0
  -14.0636   11.3770   39.9256 C   0  0  0  0  0  0
  -12.7927   11.8814   40.1770 C   0  0  0  0  0  0
  -11.7761   11.2785   39.4801 O   0  0  0  0  0  0
  -12.5985   12.9504   41.0892 C   0  0  0  0  0  0
  -11.2106   13.5030   41.3723 C   0  0  0  0  0  0
  -10.2320   13.1539   40.7064 O   0  0  0  0  0  0
  -12.2229   15.0129   43.1416 C   0  0  0  0  0  0
  -11.0649   14.4336   42.5615 C   0  0  0  0  0  0
  -12.0882   15.9271   44.1973 C   0  0  0  0  0  0
  -10.8392   16.2848   44.6792 C   0  0  0  0  0  0
   -9.6975   15.6938   44.1607 C   0  0  0  0  0  0
   -8.4797   16.0673   44.6780 O   0  0  0  0  0  0
   -9.7998   14.7560   43.1216 C   0  0  0  0  0  0
   -8.6330   14.1744   42.6797 O   0  0  0  0  0  0
  -15.9841   14.1324   42.6666 H   0  0  0  0  0  0
  -16.1456   11.4765   40.3909 H   0  0  0  0  0  0
  -14.2035   10.5711   39.2203 H   0  0  0  0  0  0
  -12.1181   10.6291   38.8499 H   0  0  0  0  0  0
  -12.9548   16.3800   44.6618 H   0  0  0  0  0  0
  -10.7633   17.0054   45.4789 H   0  0  0  0  0  0
   -7.7579   15.5617   44.2973 H   0  0  0  0  0  0
   -8.0980   13.7990   43.3908 H   0  0  0  0  0  0
  1  2  2  0  0  0
  2  3  1  0  0  0
  2 13  1  0  0  0
  3  4  2  0  0  0
  3 10  1  0  0  0
  4  5  1  0  0  0
  4  6  1  0  0  0
  5 21  1  0  0  0
  6  7  2  0  0  0
  6 22  1  0  0  0
  7  8  1  0  0  0
  7 23  1  0  0  0
  8  9  1  0  0  0
  8 10  2  0  0  0
  9 24  1  0  0  0
 10 11  1  0  0  0
 11 12  2  0  0  0
 11 14  1  0  0  0
 13 14  2  0  0  0
 13 15  1  0  0  0
 14 19  1  0  0  0
 15 16  2  0  0  0
 15 25  1  0  0  0
 16 17  1  0  0  0
 16 26  1  0  0  0
 17 18  1  0  0  0
 17 19  2  0  0  0
 18 27  1  0  0  0
 19 20  1  0  0  0
 20 28  1  0  0  0
M  END
> <s_m_entry_id>
12581

> <s_m_entry_name>
dock_pv.3

> <s_m_Source_Path>
/home/csk/Desktop/cluster/DUD-E-result/mk01

> <s_m_Source_File>
dock_pv.maegz

> <i_m_Source_File_Index>
3

> <chembl_id>
CHEMBL29898

> <chembl_pref_name>
QUINALIZARIN

> <i_lp_mmshare_version>
53161

> <i_f3d_flags>
0

> <r_lp_tautomer_probability>
1

> <s_lp_Force_Field>
OPLS_2005

> <r_lp_Energy>
28.06815

> <b_lp_Chiralities_Consistent>
1

> <s_lp_Variant>
CHEMBL4040_lig8-1

> <s_i_glide_gridfile>
glide-grid_2ojg

> <i_i_glide_lignum>
8

> <i_i_glide_rotatable_bonds>
4

> <r_i_docking_score>
-7.45257679928516

> <r_i_glide_ligand_efficiency>
-0.372628839964258

> <r_i_glide_ligand_efficiency_sa>
-1.01147028664027

> <r_i_glide_ligand_efficiency_ln>
-1.86513417042741

> <r_i_glide_gscore>
-7.45257679928516

> <r_i_glide_lipo>
-2.00988780555423

> <r_i_glide_hbond>
0

> <r_i_glide_metal>
0

> <r_i_glide_rewards>
-1.95678286961593

> <r_i_glide_evdw>
-36.2222213745117

> <r_i_glide_ecoul>
-11.1653003692627

> <r_i_glide_erotb>
0

> <r_i_glide_esite>
0

> <r_i_glide_emodel>
-66.1792003164452

> <r_i_glide_energy>
-47.3875217437744

> <r_i_glide_einternal>
4.45771503448486

> <i_i_glide_confnum>
1

> <i_i_glide_posenum>
264

> <r_i_glide_eff_state_penalty>
0

> <s_user_duplicate_titles>
CHEMBL4040_lig8

> <s_m_subgroup_title>
dock_pv

> <s_m_subgroupid>
dock_pv

> <b_m_subgroup_collapsed>
0

$$$$
CHEMBL4040_lig14
                    3D
 Schrodinger Suite 2021-1.
 29 31  0  0  1  0            999 V2000
  -14.3882   15.1595   43.3321 O   0  0  0  0  0  0
  -13.5493   11.4337   39.4815 O   0  0  0  0  0  0
  -16.9198   14.2056   43.7808 N   0  0  0  0  0  0
  -15.3309   13.2921   42.1179 C   0  0  0  0  0  0
  -15.0805   12.3370   41.0909 C   0  0  0  0  0  0
  -14.2049   14.2129   42.5616 C   0  0  0  0  0  0
  -12.8146   13.8580   42.1122 C   0  0  0  0  0  0
  -12.5886   12.8929   41.1047 C   0  0  0  0  0  0
  -13.7290   12.1773   40.4477 C   0  0  0  0  0  0
  -16.6244   13.3304   42.7130 C   0  0  0  0  0  0
  -16.1113   11.4831   40.6729 C   0  0  0  0  0  0
  -11.7097   14.4841   42.7147 C   0  0  0  0  0  0
  -11.2694   12.5919   40.7276 C   0  0  0  0  0  0
  -17.6265   12.4743   42.2387 C   0  0  0  0  0  0
  -17.3760   11.5589   41.2308 C   0  0  0  0  0  0
  -10.4082   14.1725   42.3292 C   0  0  0  0  0  0
  -10.1876   13.2283   41.3329 C   0  0  0  0  0  0
  -18.0714   14.0143   44.6566 C   0  0  0  0  0  0
  -16.1138   14.6826   44.1708 H   0  0  0  0  0  0
  -15.9444   10.7414   39.9023 H   0  0  0  0  0  0
  -11.8485   15.2166   43.4986 H   0  0  0  0  0  0
  -11.0735   11.8490   39.9677 H   0  0  0  0  0  0
  -18.6186   12.5008   42.6550 H   0  0  0  0  0  0
  -18.1557   10.8951   40.8896 H   0  0  0  0  0  0
   -9.5695   14.6560   42.8096 H   0  0  0  0  0  0
   -9.1762   12.9815   41.0456 H   0  0  0  0  0  0
  -18.0340   14.7291   45.4779 H   0  0  0  0  0  0
  -18.0781   13.0087   45.0802 H   0  0  0  0  0  0
  -19.0083   14.1728   44.1198 H   0  0  0  0  0  0
  1  6  2  0  0  0
  2  9  2  0  0  0
  3 10  1  0  0  0
  3 18  1  0  0  0
  3 19  1  0  0  0
  4  5  2  0  0  0
  4  6  1  0  0  0
  4 10  1  0  0  0
  5  9  1  0  0  0
  5 11  1  0  0  0
  6  7  1  0  0  0
  7  8  1  0  0  0
  7 12  2  0  0  0
  8  9  1  0  0  0
  8 13  2  0  0  0
 10 14  2  0  0  0
 11 15  2  0  0  0
 11 20  1  0  0  0
 12 16  1  0  0  0
 12 21  1  0  0  0
 13 17  1  0  0  0
 13 22  1  0  0  0
 14 15  1  0  0  0
 14 23  1  0  0  0
 15 24  1  0  0  0
 16 17  2  0  0  0
 16 25  1  0  0  0
 17 26  1  0  0  0
 18 27  1  0  0  0
 18 28  1  0  0  0
 18 29  1  0  0  0
M  END
> <s_m_entry_id>
12582

> <s_m_entry_name>
dock_pv.4

> <s_m_Source_Path>
/home/csk/Desktop/cluster/DUD-E-result/mk01

> <s_m_Source_File>
dock_pv.maegz

> <i_m_Source_File_Index>
4

> <chembl_id>
CHEMBL1370390

> <chembl_pref_name>
None

> <i_lp_mmshare_version>
53161

> <i_f3d_flags>
0

> <r_lp_tautomer_probability>
1

> <s_lp_Force_Field>
OPLS_2005

> <r_lp_Energy>
27.040742

> <b_lp_Chiralities_Consistent>
1

> <s_lp_Variant>
CHEMBL4040_lig14-1

> <s_i_glide_gridfile>
glide-grid_2ojg

> <i_i_glide_lignum>
14

> <i_i_glide_rotatable_bonds>
1

> <r_i_docking_score>
-7.20745516830892

> <r_i_glide_ligand_efficiency>
-0.400414176017162

> <r_i_glide_ligand_efficiency_sa>
-1.04938200490519

> <r_i_glide_ligand_efficiency_ln>
-1.85263918639142

> <r_i_glide_gscore>
-7.20745516830892

> <r_i_glide_lipo>
-2.89700469071172

> <r_i_glide_hbond>
0

> <r_i_glide_metal>
0

> <r_i_glide_rewards>
-2.51302735179373

> <r_i_glide_evdw>
-37.2635192871094

> <r_i_glide_ecoul>
0.438352257013321

> <r_i_glide_erotb>
0

> <r_i_glide_esite>
0

> <r_i_glide_emodel>
-52.692302325944

> <r_i_glide_energy>
-36.8251670300961

> <r_i_glide_einternal>
0.235859721899033

> <i_i_glide_confnum>
1

> <i_i_glide_posenum>
112

> <r_i_glide_eff_state_penalty>
0

> <s_user_duplicate_titles>
CHEMBL4040_lig14

> <s_m_subgroup_title>
dock_pv

> <s_m_subgroupid>
dock_pv

> <b_m_subgroup_collapsed>
0

$$$$
CHEMBL4040_lig12
                    3D
 Schrodinger Suite 2021-1.
 36 39  0  0  1  0            999 V2000
  -13.5540   14.5835   43.6097 O   0  0  0  0  0  0
  -10.9751   11.6032   39.8801 O   0  0  0  0  0  0
  -16.0454   13.4570   42.7938 N   0  0  0  0  0  0
  -13.8087   13.0858   41.7182 C   0  0  0  0  0  0
  -13.0874   12.3444   40.7390 C   0  0  0  0  0  0
  -13.0271   13.9759   42.6793 C   0  0  0  0  0  0
  -11.5375   14.0695   42.5048 C   0  0  0  0  0  0
  -10.8574   13.3145   41.5269 C   0  0  0  0  0  0
  -11.5857   12.3512   40.6499 C   0  0  0  0  0  0
  -15.2229   12.8877   41.8054 C   0  0  0  0  0  0
  -13.7786   11.5244   39.8381 C   0  0  0  0  0  0
  -15.8600   12.0487   40.8802 C   0  0  0  0  0  0
  -10.7897   14.8909   43.3682 C   0  0  0  0  0  0
   -9.4632   13.4318   41.4164 C   0  0  0  0  0  0
  -15.1518   11.3786   39.8991 C   0  0  0  0  0  0
  -17.2117   12.8149   43.3991 C   0  0  0  0  0  0
  -16.3937   14.8660   42.9308 C   0  0  0  0  0  0
   -9.4046   14.9733   43.2639 C   0  0  0  0  0  0
   -8.7413   14.2458   42.2831 C   0  0  0  0  0  0
  -17.6701   13.6658   44.5728 C   0  0  0  0  0  0
  -17.0953   15.0354   44.2802 C   0  0  0  0  0  0
  -13.2493   10.9680   39.0803 H   0  0  0  0  0  0
  -16.9283   11.8969   40.9137 H   0  0  0  0  0  0
  -11.2738   15.4614   44.1496 H   0  0  0  0  0  0
   -8.9131   12.8613   40.6824 H   0  0  0  0  0  0
  -15.6635   10.7305   39.2020 H   0  0  0  0  0  0
  -16.9055   11.8240   43.7354 H   0  0  0  0  0  0
  -17.9986   12.5928   42.6770 H   0  0  0  0  0  0
  -16.9698   15.1835   42.0631 H   0  0  0  0  0  0
  -15.5211   15.5076   42.8525 H   0  0  0  0  0  0
   -8.8448   15.5887   43.9521 H   0  0  0  0  0  0
   -7.6638   14.2957   42.2101 H   0  0  0  0  0  0
  -17.2371   13.2651   45.4799 H   0  0  0  0  0  0
  -18.7562   13.6722   44.6782 H   0  0  0  0  0  0
  -17.8867   15.7803   44.2453 H   0  0  0  0  0  0
  -16.3801   15.3394   45.0472 H   0  0  0  0  0  0
  1  6  2  0  0  0
  2  9  2  0  0  0
  3 10  1  0  0  0
  3 16  1  0  0  0
  3 17  1  0  0  0
  4  5  1  0  0  0
  4  6  1  0  0  0
  4 10  2  0  0  0
  5  9  1  0  0  0
  5 11  2  0  0  0
  6  7  1  0  0  0
  7  8  1  0  0  0
  7 13  2  0  0  0
  8  9  1  0  0  0
  8 14  2  0  0  0
 10 12  1  0  0  0
 11 15  1  0  0  0
 11 22  1  0  0  0
 12 15  2  0  0  0
 12 23  1  0  0  0
 13 18  1  0  0  0
 13 24  1  0  0  0
 14 19  1  0  0  0
 14 25  1  0  0  0
 15 26  1  0  0  0
 16 20  1  0  0  0
 16 27  1  0  0  0
 16 28  1  0  0  0
 17 21  1  0  0  0
 17 29  1  0  0  0
 17 30  1  0  0  0
 18 19  2  0  0  0
 18 31  1  0  0  0
 19 32  1  0  0  0
 20 21  1  0  0  0
 20 33  1  0  0  0
 20 34  1  0  0  0
 21 35  1  0  0  0
 21 36  1  0  0  0
M  END
> <s_m_entry_id>
12583

> <s_m_entry_name>
dock_pv.5

> <s_m_Source_Path>
/home/csk/Desktop/cluster/DUD-E-result/mk01

> <s_m_Source_File>
dock_pv.maegz

> <i_m_Source_File_Index>
5

> <chembl_id>
CHEMBL1400950

> <chembl_pref_name>
None

> <i_lp_mmshare_version>
53161

> <i_f3d_flags>
0

> <r_lp_tautomer_probability>
1

> <s_lp_Force_Field>
OPLS_2005

> <r_lp_Energy>
52.74002

> <b_lp_Chiralities_Consistent>
1

> <s_lp_Variant>
CHEMBL4040_lig12-1

> <s_i_glide_gridfile>
glide-grid_2ojg

> <i_i_glide_lignum>
12

> <i_i_glide_rotatable_bonds>
1

> <r_i_docking_score>
-6.98183113143902

> <r_i_glide_ligand_efficiency>
-0.332468149116144

> <r_i_glide_ligand_efficiency_sa>
-0.917254413542346

> <r_i_glide_ligand_efficiency_ln>
-1.7262436391301

> <r_i_glide_gscore>
-6.98183113143902

> <r_i_glide_lipo>
-2.90077271908081

> <r_i_glide_hbond>
-0.0248914314851887

> <r_i_glide_metal>
0

> <r_i_glide_rewards>
-2.17724356592979

> <r_i_glide_evdw>
-37.033504486084

> <r_i_glide_ecoul>
-1.74261331558228

> <r_i_glide_erotb>
0.234143806698304

> <r_i_glide_esite>
0

> <r_i_glide_emodel>
-50.6982000390414

> <r_i_glide_energy>
-38.7761178016663

> <r_i_glide_einternal>
1.97774314880371

> <i_i_glide_confnum>
7

> <i_i_glide_posenum>
232

> <r_i_glide_eff_state_penalty>
0

> <s_user_duplicate_titles>
CHEMBL4040_lig12

> <s_m_subgroup_title>
dock_pv

> <s_m_subgroupid>
dock_pv

> <b_m_subgroup_collapsed>
0

$$$$
CHEMBL4040_lig41
                    3D
 Schrodinger Suite 2021-1.
 37 40  0  0  1  0            999 V2000
   -8.3966   14.7408   42.6864 F   0  0  0  0  0  0
  -16.7620   11.7545   40.5603 O   0  0  0  0  0  0
  -14.5760   11.3670   39.6298 N   0  0  0  0  0  0
  -13.3017   11.6973   39.8598 N   0  0  0  0  0  0
  -18.7207   12.1750   41.4800 N   0  0  0  0  0  0
  -14.5760   16.9750   41.5723 N   0  0  0  0  0  0
  -18.1760   14.3175   44.4028 N   0  0  0  0  0  0
  -14.6190   12.6408   41.4315 C   0  0  0  0  0  0
  -15.2966   13.4042   42.5689 C   0  0  2  0  0  0
  -15.3985   11.9140   40.5597 C   0  0  0  0  0  0
  -13.2954   12.4790   40.9338 C   0  0  0  0  0  0
  -16.8028   13.1558   42.5449 C   0  0  0  0  0  0
  -17.3856   12.3950   41.5927 C   0  0  0  0  0  0
  -14.9546   14.8695   42.6686 C   0  0  0  0  0  0
  -11.9894   13.0546   41.4425 C   0  0  0  0  0  0
  -17.5828   13.7731   43.5721 C   0  0  0  0  0  0
  -14.9502   15.6795   41.5381 C   0  0  0  0  0  0
  -14.6127   15.4359   43.8990 C   0  0  0  0  0  0
  -10.8270   12.9412   40.6665 C   0  0  0  0  0  0
  -11.8875   13.7050   42.6800 C   0  0  0  0  0  0
   -9.6231   13.5042   41.0800 C   0  0  0  0  0  0
  -10.6851   14.2645   43.1050 C   0  0  0  0  0  0
  -14.1971   16.7602   43.9529 C   0  0  0  0  0  0
   -9.5593   14.1750   42.2950 C   0  0  0  0  0  0
  -14.1760   17.4826   42.7691 C   0  0  0  0  0  0
  -14.8594   10.7705   38.8661 H   0  0  0  0  0  0
  -19.3507   12.5599   42.1751 H   0  0  0  0  0  0
  -19.1082   11.9592   40.5745 H   0  0  0  0  0  0
  -14.9399   12.9750   43.4800 H   0  0  0  0  0  0
  -15.2333   15.2764   40.5828 H   0  0  0  0  0  0
  -14.6174   14.8463   44.8055 H   0  0  0  0  0  0
  -10.8547   12.4159   39.7269 H   0  0  0  0  0  0
  -12.7265   13.7750   43.3449 H   0  0  0  0  0  0
   -8.7372   13.4261   40.4684 H   0  0  0  0  0  0
  -10.6246   14.7611   44.0627 H   0  0  0  0  0  0
  -13.8758   17.1979   44.8877 H   0  0  0  0  0  0
  -13.8049   18.4978   42.7662 H   0  0  0  0  0  0
  1 24  1  0  0  0
  2 10  1  0  0  0
  2 13  1  0  0  0
  3  4  1  0  0  0
  3 10  1  0  0  0
  3 26  1  0  0  0
  4 11  2  0  0  0
  5 13  1  0  0  0
  5 27  1  0  0  0
  5 28  1  0  0  0
  6 17  2  0  0  0
  6 25  1  0  0  0
  7 16  3  0  0  0
  8  9  1  0  0  0
  8 10  2  0  0  0
  8 11  1  0  0  0
  9 12  1  0  0  0
  9 14  1  0  0  0
  9 29  1  0  0  0
 11 15  1  0  0  0
 12 13  2  0  0  0
 12 16  1  0  0  0
 14 17  1  0  0  0
 14 18  2  0  0  0
 15 19  2  0  0  0
 15 20  1  0  0  0
 17 30  1  0  0  0
 18 23  1  0  0  0
 18 31  1  0  0  0
 19 21  1  0  0  0
 19 32  1  0  0  0
 20 22  2  0  0  0
 20 33  1  0  0  0
 21 24  2  0  0  0
 21 34  1  0  0  0
 22 24  1  0  0  0
 22 35  1  0  0  0
 23 25  2  0  0  0
 23 36  1  0  0  0
 25 37  1  0  0  0
M  END
> <s_m_entry_id>
12584

> <s_m_entry_name>
dock_pv.6

> <s_m_Source_Path>
/home/csk/Desktop/cluster/DUD-E-result/mk01

> <s_m_Source_File>
dock_pv.maegz

> <i_m_Source_File_Index>
6

> <chembl_id>
CHEMBL1566496

> <chembl_pref_name>
None

> <i_lp_mmshare_version>
53161

> <i_f3d_flags>
0

> <r_lp_tautomer_probability>
1

> <s_lp_Force_Field>
OPLS_2005

> <r_lp_Energy>
27.566993

> <b_lp_Chiralities_Consistent>
1

> <s_lp_Variant>
CHEMBL4040_lig41-1

> <s_i_glide_gridfile>
glide-grid_2ojg

> <i_i_glide_lignum>
46

> <i_i_glide_rotatable_bonds>
2

> <r_i_docking_score>
-6.84275707229236

> <r_i_glide_ligand_efficiency>
-0.273710282891694

> <r_i_glide_ligand_efficiency_sa>
-0.800333721447851

> <r_i_glide_ligand_efficiency_ln>
-1.62193848701535

> <r_i_glide_gscore>
-6.84275707229236

> <r_i_glide_lipo>
-2.80301862617601

> <r_i_glide_hbond>
-0.337240858525542

> <r_i_glide_metal>
0

> <r_i_glide_rewards>
-1.67087684038513

> <r_i_glide_evdw>
-40.6217041015625

> <r_i_glide_ecoul>
-1.91202855110168

> <r_i_glide_erotb>
0.339256248809825

> <r_i_glide_esite>
-0.0529875082721227

> <r_i_glide_emodel>
-58.7215821381705

> <r_i_glide_energy>
-42.5337326526642

> <r_i_glide_einternal>
1.07961642742157

> <i_i_glide_confnum>
3

> <i_i_glide_posenum>
37

> <r_i_glide_eff_state_penalty>
0

> <s_user_duplicate_titles>
CHEMBL4040_lig41

> <s_m_subgroup_title>
dock_pv

> <s_m_subgroupid>
dock_pv

> <b_m_subgroup_collapsed>
0

$$$$
425061
                    3D
 Schrodinger Suite 2021-1.
 29 31  0  0  1  0            999 V2000
  -15.0584   14.4818   43.0503 C   0  0  0  0  0  0
  -16.2725   14.5836   43.7001 C   0  0  0  0  0  0
  -17.1079   13.6738   43.1249 N   0  0  0  0  0  0
  -16.4401   12.9719   42.1504 C   0  0  0  0  0  0
  -15.0968   13.4155   42.1174 C   0  0  0  0  0  0
  -13.9566   12.9750   41.2762 C   0  0  0  0  0  0
  -12.6545   13.1940   41.6599 C   0  0  0  0  0  0
  -11.4065   12.8469   40.9726 C   0  0  0  0  0  0
  -11.2673   12.2684   39.8924 O   0  0  0  0  0  0
  -10.3133   13.2649   41.7087 N   0  0  0  0  0  0
  -10.7693   13.7764   42.7632 C   0  0  0  0  0  0
  -12.1611   13.7855   42.8063 N   0  0  0  0  0  0
  -10.0747   14.2948   43.8784 N   0  0  0  0  0  0
  -14.3004   12.1782   40.0136 C   0  0  0  0  0  0
  -15.1883   10.9720   40.2800 C   0  0  0  0  0  0
  -16.5971   11.2091   40.5445 N   0  0  0  0  0  0
  -17.2407   12.0322   41.3835 C   0  0  0  0  0  0
  -18.4681   12.0050   41.4873 O   0  0  0  0  0  0
  -18.0819   13.5335   43.3583 H   0  0  0  0  0  0
  -14.2186   15.1280   43.2612 H   0  0  0  0  0  0
  -16.6197   15.2297   44.4911 H   0  0  0  0  0  0
  -12.7094   14.0943   43.5956 H   0  0  0  0  0  0
   -9.0832   14.0936   43.9070 H   0  0  0  0  0  0
  -10.4661   14.1142   44.7957 H   0  0  0  0  0  0
  -13.4409   11.7868   39.4815 H   0  0  0  0  0  0
  -14.7739   12.8333   39.2912 H   0  0  0  0  0  0
  -14.7805   10.3527   41.0790 H   0  0  0  0  0  0
  -15.1666   10.3325   39.3959 H   0  0  0  0  0  0
  -17.2380   10.6335   40.0183 H   0  0  0  0  0  0
  1  5  1  0  0  0
  1  2  2  0  0  0
  1 20  1  0  0  0
  2  3  1  0  0  0
  2 21  1  0  0  0
  3 19  1  0  0  0
  3  4  1  0  0  0
  4 17  1  0  0  0
  4  5  2  0  0  0
  5  6  1  0  0  0
  6  7  2  0  0  0
  6 14  1  0  0  0
  7 12  1  0  0  0
  7  8  1  0  0  0
  8  9  2  0  0  0
  8 10  1  0  0  0
 10 11  2  0  0  0
 11 12  1  0  0  0
 11 13  1  0  0  0
 12 22  1  0  0  0
 13 23  1  0  0  0
 13 24  1  0  0  0
 14 15  1  0  0  0
 14 25  1  0  0  0
 14 26  1  0  0  0
 15 16  1  0  0  0
 15 27  1  0  0  0
 15 28  1  0  0  0
 16 17  1  0  0  0
 16 29  1  0  0  0
 17 18  2  0  0  0
M  END
> <s_m_entry_id>
12615

> <s_m_entry_name>
ligand_docking-pose.1

> <s_m_Source_Path>
/home/csk/Desktop/cluster/DUD-E-result/mk01

> <s_m_Source_File>
ligand_docking-pose.sdf

> <i_m_Source_File_Index>
1

> <i_lp_mmshare_version>
53161

> <r_lp_tautomer_probability>
0.975990921903814

> <s_lp_Force_Field>
OPLS_2005

> <r_lp_Energy>
28.044188

> <b_lp_Chiralities_Consistent>
1

> <s_lp_Variant>
425061-1

> <s_i_glide_gridfile>
glide-grid_2ojg

> <i_i_glide_lignum>
129

> <i_i_glide_rotatable_bonds>
0

> <r_i_docking_score>
-9.98934191191662

> <r_i_glide_ligand_efficiency>
-0.554963439550923

> <r_i_glide_ligand_efficiency_sa>
-1.45441565690238

> <r_i_glide_ligand_efficiency_ln>
-2.56770882927617

> <r_i_glide_gscore>
-9.98934191191662

> <r_i_glide_lipo>
-1.82036792308605

> <r_i_glide_hbond>
-0.779044460234995

> <r_i_glide_metal>
0

> <r_i_glide_rewards>
-4.08401620608693

> <r_i_glide_evdw>
-35.1137390136719

> <r_i_glide_ecoul>
-9.96279048919678

> <r_i_glide_erotb>
0

> <r_i_glide_esite>
-0.0558077984455377

> <r_i_glide_emodel>
-71.6905311094918

> <r_i_glide_energy>
-45.0765295028687

> <r_i_glide_einternal>
0

> <i_i_glide_confnum>
2

> <i_i_glide_posenum>
162

> <r_i_glide_eff_state_penalty>
0

> <i_f3d_flags>
0

> <s_user_duplicate_titles>
425061

> <s_m_subgroup_title>
dock_pv

> <s_m_subgroupid>
dock_pv1

> <b_m_subgroup_collapsed>
0

$$$$
307979
                    3D
 Schrodinger Suite 2021-1.
 29 31  0  0  1  0            999 V2000
  -13.4931   14.5041   42.4467 C   0  0  0  0  0  0
  -13.7848   13.3491   41.6759 C   0  0  0  0  0  0
  -12.5220   12.9568   41.1781 C   0  0  0  0  0  0
  -11.5509   13.7087   41.7949 N   0  0  0  0  0  0
  -12.1277   14.6733   42.5617 C   0  0  0  0  0  0
  -11.0882   15.9236   43.5480 Br  0  0  0  0  0  0
  -12.0567   11.9073   40.2986 C   0  0  0  0  0  0
  -10.8776   11.5503   40.2826 O   0  0  0  0  0  0
  -12.9693   11.3748   39.4813 N   0  0  0  0  0  0
  -14.3450   11.7435   39.1863 C   0  0  0  0  0  0
  -15.3277   11.7089   40.3561 C   0  0  0  0  0  0
  -15.1354   12.7476   41.4739 C   0  0  0  0  0  0
  -16.1802   13.0512   42.3195 C   0  0  0  0  0  0
  -17.5141   12.4480   42.2376 C   0  0  0  0  0  0
  -18.0039   11.6099   41.4800 O   0  0  0  0  0  0
  -18.1751   13.0161   43.2426 N   0  0  0  0  0  0
  -17.3529   13.8268   43.8926 C   0  0  0  0  0  0
  -16.2150   13.8877   43.3830 N   0  0  0  0  0  0
  -17.7770   14.5181   45.0387 N   0  0  0  0  0  0
  -10.5562   13.5738   41.6784 H   0  0  0  0  0  0
  -14.1971   15.1434   42.9531 H   0  0  0  0  0  0
  -12.6090   10.6146   38.9123 H   0  0  0  0  0  0
  -14.3757   12.6886   38.6534 H   0  0  0  0  0  0
  -14.6853   11.0149   38.4464 H   0  0  0  0  0  0
  -16.2968   11.8499   39.8823 H   0  0  0  0  0  0
  -15.3346   10.7118   40.8013 H   0  0  0  0  0  0
  -17.0327   14.9534   45.5630 H   0  0  0  0  0  0
  -18.3327   13.9692   45.6789 H   0  0  0  0  0  0
  -19.1428   12.8073   43.4786 H   0  0  0  0  0  0
  1  5  2  0  0  0
  1  2  1  0  0  0
  1 21  1  0  0  0
  2  3  2  0  0  0
  2 12  1  0  0  0
  3  4  1  0  0  0
  3  7  1  0  0  0
  4 20  1  0  0  0
  4  5  1  0  0  0
  5  6  1  0  0  0
  7  8  2  0  0  0
  7  9  1  0  0  0
  9 10  1  0  0  0
  9 22  1  0  0  0
 10 11  1  0  0  0
 10 23  1  0  0  0
 10 24  1  0  0  0
 11 25  1  0  0  0
 11 26  1  0  0  0
 11 12  1  0  0  0
 12 13  2  0  0  0
 13 14  1  0  0  0
 13 18  1  0  0  0
 14 15  2  0  0  0
 14 16  1  0  0  0
 16 17  1  0  0  0
 16 29  1  0  0  0
 17 18  2  0  0  0
 17 19  1  0  0  0
 19 28  1  0  0  0
 19 27  1  0  0  0
M  END
> <s_m_entry_id>
12616

> <s_m_entry_name>
ligand_docking-pose.2

> <s_m_Source_Path>
/home/csk/Desktop/cluster/DUD-E-result/mk01

> <s_m_Source_File>
ligand_docking-pose.sdf

> <i_m_Source_File_Index>
2

> <i_lp_mmshare_version>
53161

> <r_lp_tautomer_probability>
0.0148016165310655

> <s_lp_Force_Field>
OPLS_2005

> <r_lp_Energy>
30.8242

> <b_lp_Chiralities_Consistent>
1

> <s_lp_Variant>
307979-2

> <s_i_glide_gridfile>
glide-grid_2ojg

> <i_i_glide_lignum>
29

> <i_i_glide_rotatable_bonds>
0

> <r_i_docking_score>
-9.52406593439038

> <r_i_glide_ligand_efficiency>
-0.501266628125809

> <r_i_glide_ligand_efficiency_sa>
-1.33758069562739

> <r_i_glide_ligand_efficiency_ln>
-2.41455527254805

> <r_i_glide_gscore>
-9.52406593439038

> <r_i_glide_lipo>
-2.1599092590377

> <r_i_glide_hbond>
-0.758913659221989

> <r_i_glide_metal>
0

> <r_i_glide_rewards>
-3.17936854446626

> <r_i_glide_evdw>
-38.0511856079102

> <r_i_glide_ecoul>
-10.1554346084595

> <r_i_glide_erotb>
0

> <r_i_glide_esite>
0

> <r_i_glide_emodel>
-74.1875050562728

> <r_i_glide_energy>
-48.2066202163696

> <r_i_glide_einternal>
0

> <i_i_glide_confnum>
2

> <i_i_glide_posenum>
337

> <r_i_glide_eff_state_penalty>
0

> <i_f3d_flags>
0

> <s_user_duplicate_titles>
307979,250364

> <s_m_subgroup_title>
dock_pv

> <s_m_subgroupid>
dock_pv1

> <b_m_subgroup_collapsed>
0

$$$$
370083
                    3D
 Schrodinger Suite 2021-1.
 42 45  0  0  1  0            999 V2000
  -16.3655   14.9761   44.8501 C   0  0  0  0  0  0
  -16.8895   13.9695   44.0542 C   0  0  0  0  0  0
  -16.5430   13.9234   42.7033 C   0  0  0  0  0  0
  -15.7340   14.8935   42.1285 C   0  0  0  0  0  0
  -15.2234   15.8920   42.9334 C   0  0  0  0  0  0
  -15.5280   15.9356   44.2802 C   0  0  0  0  0  0
  -14.1760   17.0523   42.2800 Cl  0  0  0  0  0  0
  -17.0155   12.8231   41.8906 C   0  0  0  0  0  0
  -18.3413   12.4404   41.8012 C   0  0  0  0  0  0
  -18.4808   11.3750   41.0800 N   0  0  0  0  0  0
  -17.2504   11.0644   40.6801 N   0  0  0  0  0  0
  -16.3012   11.9606   41.0707 C   0  0  0  0  0  0
  -14.9226   11.8752   40.6478 C   0  0  0  0  0  0
  -13.7930   12.4072   41.2855 C   0  0  0  0  0  0
  -12.6509   12.1560   40.5202 C   0  0  0  0  0  0
  -13.0900   11.3750   39.4800 N   0  0  0  0  0  0
  -14.4502   11.2428   39.5120 C   0  0  0  0  0  0
  -11.2522   12.4796   40.7156 C   0  0  0  0  0  0
  -10.4019   11.6982   40.2800 O   0  0  0  0  0  0
  -10.9180   13.6433   41.3412 N   0  0  0  0  0  0
  -11.8506   14.6446   41.8850 C   0  0  0  0  0  0
  -11.6077   14.7211   43.4052 C   0  0  0  0  0  0
  -10.2510   15.0979   43.6272 O   0  0  0  0  0  0
   -9.3192   14.1646   43.0798 C   0  0  0  0  0  0
   -9.5029   14.0016   41.5552 C   0  0  0  0  0  0
  -17.0719   10.2392   40.1220 H   0  0  0  0  0  0
  -12.4991   10.9586   38.7695 H   0  0  0  0  0  0
  -16.5766   14.9936   45.9099 H   0  0  0  0  0  0
  -17.5170   13.2067   44.4948 H   0  0  0  0  0  0
  -15.4779   14.8524   41.0799 H   0  0  0  0  0  0
  -15.0860   16.6990   44.9043 H   0  0  0  0  0  0
  -19.1772   12.9304   42.2799 H   0  0  0  0  0  0
  -13.8216   12.9180   42.2364 H   0  0  0  0  0  0
  -14.9531   10.6839   38.7361 H   0  0  0  0  0  0
  -12.8710   14.6754   41.5136 H   0  0  0  0  0  0
  -11.4790   15.5832   41.4788 H   0  0  0  0  0  0
  -12.2784   15.4474   43.8632 H   0  0  0  0  0  0
  -11.8395   13.7720   43.8925 H   0  0  0  0  0  0
   -8.3078   14.5126   43.2923 H   0  0  0  0  0  0
   -9.4178   13.2002   43.5826 H   0  0  0  0  0  0
   -9.3804   14.9747   41.0798 H   0  0  0  0  0  0
   -8.7805   13.3214   41.1024 H   0  0  0  0  0  0
  1  6  1  0  0  0
  1  2  2  0  0  0
  1 28  1  0  0  0
  2  3  1  0  0  0
  2 29  1  0  0  0
  3  4  2  0  0  0
  3  8  1  0  0  0
  4  5  1  0  0  0
  4 30  1  0  0  0
  5  6  2  0  0  0
  5  7  1  0  0  0
  6 31  1  0  0  0
  8 12  2  0  0  0
  8  9  1  0  0  0
  9 10  2  0  0  0
  9 32  1  0  0  0
 10 11  1  0  0  0
 11 26  1  0  0  0
 11 12  1  0  0  0
 12 13  1  0  0  0
 13 17  2  0  0  0
 13 14  1  0  0  0
 14 15  2  0  0  0
 14 33  1  0  0  0
 15 16  1  0  0  0
 15 18  1  0  0  0
 16 27  1  0  0  0
 16 17  1  0  0  0
 17 34  1  0  0  0
 18 19  2  0  0  0
 18 20  1  0  0  0
 20 25  1  0  0  0
 20 21  1  0  0  0
 21 22  1  0  0  0
 21 35  1  0  0  0
 21 36  1  0  0  0
 22 23  1  0  0  0
 22 37  1  0  0  0
 22 38  1  0  0  0
 23 24  1  0  0  0
 24 25  1  0  0  0
 24 39  1  0  0  0
 24 40  1  0  0  0
 25 41  1  0  0  0
 25 42  1  0  0  0
M  END
> <s_m_entry_id>
12617

> <s_m_entry_name>
ligand_docking-pose.3

> <s_m_Source_Path>
/home/csk/Desktop/cluster/DUD-E-result/mk01

> <s_m_Source_File>
ligand_docking-pose.sdf

> <i_m_Source_File_Index>
3

> <i_lp_mmshare_version>
53161

> <r_lp_tautomer_probability>
0.5

> <s_lp_Force_Field>
OPLS_2005

> <r_lp_Energy>
35.263604

> <b_lp_Chiralities_Consistent>
1

> <s_lp_Variant>
370083-1

> <s_i_glide_gridfile>
glide-grid_2ojg

> <i_i_glide_lignum>
132

> <i_i_glide_rotatable_bonds>
4

> <r_i_docking_score>
-9.49602784298716

> <r_i_glide_ligand_efficiency>
-0.379841113719486

> <r_i_glide_ligand_efficiency_sa>
-1.11066215302661

> <r_i_glide_ligand_efficiency_ln>
-2.25084317177878

> <r_i_glide_gscore>
-9.49602784298716

> <r_i_glide_lipo>
-3.20034306561437

> <r_i_glide_hbond>
-0.767405934555717

> <r_i_glide_metal>
0

> <r_i_glide_rewards>
-2.50243540388212

> <r_i_glide_evdw>
-35.6523132324219

> <r_i_glide_ecoul>
-11.0940656661987

> <r_i_glide_erotb>
0.420882072615952

> <r_i_glide_esite>
0

> <r_i_glide_emodel>
-65.5591005663596

> <r_i_glide_energy>
-46.7463788986206

> <r_i_glide_einternal>
3.94740796089172

> <i_i_glide_confnum>
69

> <i_i_glide_posenum>
184

> <r_i_glide_eff_state_penalty>
0

> <i_f3d_flags>
0

> <s_user_duplicate_titles>
370083

> <s_m_subgroup_title>
dock_pv

> <s_m_subgroupid>
dock_pv1

> <b_m_subgroup_collapsed>
0

$$$$
370069
                    3D
 Schrodinger Suite 2021-1.
 48 51  0  0  1  0            999 V2000
  -16.0973   15.3147   44.5953 C   0  0  0  0  0  0
  -16.5760   14.1750   43.9585 C   0  0  0  0  0  0
  -16.3901   14.0293   42.5840 C   0  0  0  0  0  0
  -15.7635   15.0242   41.8450 C   0  0  0  0  0  0
  -15.3098   16.1678   42.4753 C   0  0  0  0  0  0
  -15.4597   16.3133   43.8548 C   0  0  0  0  0  0
  -14.5760   17.3750   41.5073 Cl  0  0  0  0  0  0
  -16.8336   12.8210   41.8937 C   0  0  0  0  0  0
  -18.1125   12.2790   41.9213 C   0  0  0  0  0  0
  -18.1760   11.1544   41.2714 N   0  0  0  0  0  0
  -16.9670   10.9750   40.7661 N   0  0  0  0  0  0
  -16.0953   11.9743   41.0800 C   0  0  0  0  0  0
  -14.7375   11.9569   40.6392 C   0  0  0  0  0  0
  -13.6232   12.4794   41.3069 C   0  0  0  0  0  0
  -12.4779   12.1488   40.5858 C   0  0  0  0  0  0
  -12.9069   11.4613   39.4800 N   0  0  0  0  0  0
  -14.2683   11.3750   39.4767 C   0  0  0  0  0  0
  -11.0964   12.3345   40.8899 C   0  0  0  0  0  0
  -10.2335   11.6989   40.2800 O   0  0  0  0  0  0
  -10.8637   13.2554   41.8477 N   0  0  0  0  0  0
   -9.5646   13.7378   42.3515 C   0  0  1  0  0  0
   -8.5801   13.9719   41.1593 C   0  0  0  0  0  0
   -7.3561   14.5750   41.4800 O   0  0  0  0  0  0
   -9.7083   14.9818   43.2699 C   0  0  0  0  0  0
  -10.9317   15.6489   43.4800 C   0  0  0  0  0  0
  -10.9895   16.8048   44.2673 C   0  0  0  0  0  0
   -9.8348   17.3217   44.8424 C   0  0  0  0  0  0
   -8.6255   16.6584   44.6800 C   0  0  0  0  0  0
   -8.5760   15.4856   43.9307 C   0  0  0  0  0  0
   -7.1922   17.2970   45.4018 Cl  0  0  0  0  0  0
  -12.4720   17.6491   44.4902 Cl  0  0  0  0  0  0
  -16.7377   10.1395   40.2420 H   0  0  0  0  0  0
  -12.3069   11.0447   38.7786 H   0  0  0  0  0  0
  -16.1939   15.4040   45.6672 H   0  0  0  0  0  0
  -17.0551   13.3954   44.5348 H   0  0  0  0  0  0
  -15.6246   14.9158   40.7799 H   0  0  0  0  0  0
  -15.0905   17.1946   44.3548 H   0  0  0  0  0  0
  -18.9687   12.6950   42.4321 H   0  0  0  0  0  0
  -13.6564   12.9916   42.2580 H   0  0  0  0  0  0
  -14.7722   10.8495   38.6785 H   0  0  0  0  0  0
  -11.6472   13.4712   42.4429 H   0  0  0  0  0  0
   -9.1608   12.9487   42.9900 H   0  0  0  0  0  0
   -8.3063   13.0384   40.6744 H   0  0  0  0  0  0
   -9.0683   14.5750   40.3957 H   0  0  0  0  0  0
   -6.7800   13.9597   41.9581 H   0  0  0  0  0  0
  -11.8427   15.3083   43.0121 H   0  0  0  0  0  0
   -9.8820   18.2306   45.4238 H   0  0  0  0  0  0
   -7.6278   14.9750   43.8582 H   0  0  0  0  0  0
  1  6  1  0  0  0
  1  2  2  0  0  0
  1 34  1  0  0  0
  2  3  1  0  0  0
  2 35  1  0  0  0
  3  4  2  0  0  0
  3  8  1  0  0  0
  4  5  1  0  0  0
  4 36  1  0  0  0
  5  6  2  0  0  0
  5  7  1  0  0  0
  6 37  1  0  0  0
  8 12  2  0  0  0
  8  9  1  0  0  0
  9 10  2  0  0  0
  9 38  1  0  0  0
 10 11  1  0  0  0
 11 32  1  0  0  0
 11 12  1  0  0  0
 12 13  1  0  0  0
 13 17  2  0  0  0
 13 14  1  0  0  0
 14 15  2  0  0  0
 14 39  1  0  0  0
 15 16  1  0  0  0
 15 18  1  0  0  0
 16 33  1  0  0  0
 16 17  1  0  0  0
 17 40  1  0  0  0
 18 19  2  0  0  0
 18 20  1  0  0  0
 20 21  1  0  0  0
 20 41  1  0  0  0
 21 22  1  0  0  0
 21 24  1  0  0  0
 21 42  1  0  0  0
 22 23  1  0  0  0
 22 43  1  0  0  0
 22 44  1  0  0  0
 23 45  1  0  0  0
 24 29  1  0  0  0
 24 25  2  0  0  0
 25 26  1  0  0  0
 25 46  1  0  0  0
 26 27  2  0  0  0
 26 31  1  0  0  0
 27 28  1  0  0  0
 27 47  1  0  0  0
 28 29  2  0  0  0
 28 30  1  0  0  0
 29 48  1  0  0  0
M  END
> <s_m_entry_id>
12618

> <s_m_entry_name>
ligand_docking-pose.4

> <s_m_Source_Path>
/home/csk/Desktop/cluster/DUD-E-result/mk01

> <s_m_Source_File>
ligand_docking-pose.sdf

> <i_m_Source_File_Index>
4

> <i_lp_mmshare_version>
53161

> <r_lp_tautomer_probability>
0.5

> <s_lp_Force_Field>
OPLS_2005

> <r_lp_Energy>
13.717778

> <b_lp_Chiralities_Consistent>
1

> <s_lp_Variant>
370069-2

> <s_i_glide_gridfile>
glide-grid_2ojg

> <i_i_glide_lignum>
35

> <i_i_glide_rotatable_bonds>
8

> <r_i_docking_score>
-9.37718362883155

> <r_i_glide_ligand_efficiency>
-0.302489794478437

> <r_i_glide_ligand_efficiency_sa>
-0.950235586832712

> <r_i_glide_ligand_efficiency_ln>
-2.11484228446717

> <r_i_glide_gscore>
-9.37718362883155

> <r_i_glide_lipo>
-3.4863174579744

> <r_i_glide_hbond>
-0.8149666603173

> <r_i_glide_metal>
0

> <r_i_glide_rewards>
-1.09069429229924

> <r_i_glide_evdw>
-44.0085144042969

> <r_i_glide_ecoul>
-14.3786087036133

> <r_i_glide_erotb>
0.375660756828713

> <r_i_glide_esite>
-0.00364894931248883

> <r_i_glide_emodel>
-86.7294089202133

> <r_i_glide_energy>
-58.3871231079102

> <r_i_glide_einternal>
7.3025336265564

> <i_i_glide_confnum>
9

> <i_i_glide_posenum>
262

> <r_i_glide_eff_state_penalty>
0

> <i_f3d_flags>
0

> <s_user_duplicate_titles>
370069

> <s_m_subgroup_title>
dock_pv

> <s_m_subgroupid>
dock_pv1

> <b_m_subgroup_collapsed>
0

$$$$
370089
                    3D
 Schrodinger Suite 2021-1.
 45 48  0  0  1  0            999 V2000
  -16.6243   14.9749   44.9077 C   0  0  0  0  0  0
  -17.1319   13.9987   44.0639 C   0  0  0  0  0  0
  -16.6375   13.8948   42.7603 C   0  0  0  0  0  0
  -15.6677   14.7679   42.2863 C   0  0  0  0  0  0
  -15.1317   15.6982   43.1521 C   0  0  0  0  0  0
  -15.6328   15.8297   44.4338 C   0  0  0  0  0  0
  -13.7760   16.6101   42.6801 Cl  0  0  0  0  0  0
  -17.1112   12.8185   41.9086 C   0  0  0  0  0  0
  -18.4397   12.4465   41.7932 C   0  0  0  0  0  0
  -18.5760   11.3750   41.0801 N   0  0  0  0  0  0
  -17.3448   11.0700   40.6802 N   0  0  0  0  0  0
  -16.3951   11.9612   41.0816 C   0  0  0  0  0  0
  -15.0123   11.8630   40.6741 C   0  0  0  0  0  0
  -13.8719   12.3605   41.3273 C   0  0  0  0  0  0
  -12.7478   12.1087   40.5465 C   0  0  0  0  0  0
  -13.1911   11.3749   39.4844 N   0  0  0  0  0  0
  -14.5514   11.2514   39.5206 C   0  0  0  0  0  0
  -11.3721   12.4287   40.7481 C   0  0  0  0  0  0
  -10.4623   11.7423   40.2800 O   0  0  0  0  0  0
  -11.2010   13.5990   41.3741 N   0  0  0  0  0  0
   -9.9459   14.3341   41.4148 C   0  0  0  0  0  0
   -9.1011   14.1208   42.6802 C   0  0  2  0  0  0
   -9.4099   15.0334   43.8824 C   0  0  0  0  0  0
   -8.2440   15.9980   43.9822 C   0  0  0  0  0  0
   -7.1256   15.2748   43.2567 C   0  0  0  0  0  0
   -7.8167   14.5751   42.2354 O   0  0  0  0  0  0
  -17.1628   10.2431   40.1253 H   0  0  0  0  0  0
  -12.6009   10.9868   38.7566 H   0  0  0  0  0  0
  -16.9636   15.0409   45.9307 H   0  0  0  0  0  0
  -17.8774   13.3077   44.4335 H   0  0  0  0  0  0
  -15.2835   14.6796   41.2804 H   0  0  0  0  0  0
  -15.1918   16.5704   45.0800 H   0  0  0  0  0  0
  -19.2777   12.9338   42.2712 H   0  0  0  0  0  0
  -13.8671   12.8680   42.2801 H   0  0  0  0  0  0
  -15.0658   10.7248   38.7299 H   0  0  0  0  0  0
  -11.9984   14.0298   41.8170 H   0  0  0  0  0  0
  -10.2240   15.3750   41.3431 H   0  0  0  0  0  0
   -9.3575   14.1332   40.5154 H   0  0  0  0  0  0
   -8.9679   13.0676   42.9301 H   0  0  0  0  0  0
   -9.4078   14.4387   44.7954 H   0  0  0  0  0  0
  -10.3498   15.5794   43.7877 H   0  0  0  0  0  0
   -7.9817   16.2293   45.0154 H   0  0  0  0  0  0
   -8.4687   16.9361   43.4800 H   0  0  0  0  0  0
   -6.5760   14.5750   43.8798 H   0  0  0  0  0  0
   -6.3849   15.9494   42.8273 H   0  0  0  0  0  0
  1  6  1  0  0  0
  1  2  2  0  0  0
  1 29  1  0  0  0
  2  3  1  0  0  0
  2 30  1  0  0  0
  3  4  2  0  0  0
  3  8  1  0  0  0
  4  5  1  0  0  0
  4 31  1  0  0  0
  5  6  2  0  0  0
  5  7  1  0  0  0
  6 32  1  0  0  0
  8 12  2  0  0  0
  8  9  1  0  0  0
  9 10  2  0  0  0
  9 33  1  0  0  0
 10 11  1  0  0  0
 11 27  1  0  0  0
 11 12  1  0  0  0
 12 13  1  0  0  0
 13 17  2  0  0  0
 13 14  1  0  0  0
 14 15  2  0  0  0
 14 34  1  0  0  0
 15 16  1  0  0  0
 15 18  1  0  0  0
 16 28  1  0  0  0
 16 17  1  0  0  0
 17 35  1  0  0  0
 18 19  2  0  0  0
 18 20  1  0  0  0
 20 21  1  0  0  0
 20 36  1  0  0  0
 21 22  1  0  0  0
 21 37  1  0  0  0
 21 38  1  0  0  0
 22 26  1  0  0  0
 22 23  1  0  0  0
 22 39  1  0  0  0
 23 24  1  0  0  0
 23 40  1  0  0  0
 23 41  1  0  0  0
 24 25  1  0  0  0
 24 42  1  0  0  0
 24 43  1  0  0  0
 25 26  1  0  0  0
 25 44  1  0  0  0
 25 45  1  0  0  0
M  END
> <s_m_entry_id>
12619

> <s_m_entry_name>
ligand_docking-pose.5

> <s_m_Source_Path>
/home/csk/Desktop/cluster/DUD-E-result/mk01

> <s_m_Source_File>
ligand_docking-pose.sdf

> <i_m_Source_File_Index>
5

> <i_lp_mmshare_version>
53161

> <r_lp_tautomer_probability>
0.5

> <s_lp_Force_Field>
OPLS_2005

> <r_lp_Energy>
26.419109

> <b_lp_Chiralities_Consistent>
1

> <s_lp_Variant>
370089-1

> <s_i_glide_gridfile>
glide-grid_2ojg

> <i_i_glide_lignum>
102

> <i_i_glide_rotatable_bonds>
6

> <r_i_docking_score>
-8.78628095933936

> <r_i_glide_ligand_efficiency>
-0.337933883051514

> <r_i_glide_ligand_efficiency_sa>
-1.00112779883449

> <r_i_glide_ligand_efficiency_ln>
-2.06342925316153

> <r_i_glide_gscore>
-8.78628095933936

> <r_i_glide_lipo>
-2.92273936155682

> <r_i_glide_hbond>
-0.775908149435078

> <r_i_glide_metal>
0

> <r_i_glide_rewards>
-2.2501271592504

> <r_i_glide_evdw>
-32.9257278442383

> <r_i_glide_ecoul>
-11.2156171798706

> <r_i_glide_erotb>
0.491122680095436

> <r_i_glide_esite>
0

> <r_i_glide_emodel>
-65.730651620093

> <r_i_glide_energy>
-44.1413450241089

> <r_i_glide_einternal>
7.06981945037842

> <i_i_glide_confnum>
112

> <i_i_glide_posenum>
191

> <r_i_glide_eff_state_penalty>
0

> <i_f3d_flags>
0

> <s_user_duplicate_titles>
370089

> <s_m_subgroup_title>
dock_pv

> <s_m_subgroupid>
dock_pv1

> <b_m_subgroup_collapsed>
0

$$$$
201833
                    3D
 Schrodinger Suite 2021-1.
 35 38  0  0  1  0            999 V2000
  -16.8906   14.5691   44.6894 C   0  0  0  0  0  0
  -17.9473   13.7840   44.2293 C   0  0  0  0  0  0
  -17.7757   12.9871   43.0972 C   0  0  0  0  0  0
  -16.5532   12.9950   42.4369 C   0  0  0  0  0  0
  -15.5042   13.7746   42.8631 C   0  0  0  0  0  0
  -15.6696   14.5699   44.0119 C   0  0  0  0  0  0
  -14.4027   13.4631   41.9220 C   0  0  0  0  0  0
  -13.1330   13.9644   41.8803 C   0  0  0  0  0  0
  -12.0498   13.4317   40.9394 C   0  0  0  0  0  0
  -12.0682   11.9124   40.7353 C   0  0  0  0  0  0
  -13.1307   11.4639   39.8497 N   0  0  0  0  0  0
  -14.4458   11.7373   39.8784 C   0  0  0  0  0  0
  -15.1799   11.3732   38.9598 O   0  0  0  0  0  0
  -15.0142   12.4587   41.0377 C   0  0  0  0  0  0
  -16.2337   12.2338   41.3433 N   0  0  0  0  0  0
  -12.6937   15.0069   42.8037 C   0  0  0  0  0  0
  -11.5809   14.9753   43.6363 C   0  0  0  0  0  0
  -11.6033   16.1383   44.3457 N   0  0  0  0  0  0
  -12.6906   16.8216   43.8803 C   0  0  0  0  0  0
  -13.3161   16.1751   42.9217 N   0  0  0  0  0  0
  -13.0341   18.0433   44.3792 N   0  0  0  0  0  0
  -10.6037   14.0501   43.8800 O   0  0  0  0  0  0
  -10.9624   16.4256   45.0674 H   0  0  0  0  0  0
  -17.0011   15.1416   45.5976 H   0  0  0  0  0  0
  -18.8898   13.7718   44.7582 H   0  0  0  0  0  0
  -18.5764   12.3564   42.7484 H   0  0  0  0  0  0
  -14.8698   15.1343   44.4596 H   0  0  0  0  0  0
  -12.1078   13.9584   39.9873 H   0  0  0  0  0  0
  -11.0683   13.6828   41.3411 H   0  0  0  0  0  0
  -11.1251   11.5986   40.2864 H   0  0  0  0  0  0
  -12.1246   11.3763   41.6843 H   0  0  0  0  0  0
  -12.8658   10.9539   39.0140 H   0  0  0  0  0  0
  -13.7097   18.6082   43.8875 H   0  0  0  0  0  0
  -12.9824   18.2097   45.3742 H   0  0  0  0  0  0
  -10.6284   13.7745   44.8078 H   0  0  0  0  0  0
  1  6  1  0  0  0
  1  2  2  0  0  0
  1 24  1  0  0  0
  2  3  1  0  0  0
  2 25  1  0  0  0
  3  4  2  0  0  0
  3 26  1  0  0  0
  4 15  1  0  0  0
  4  5  1  0  0  0
  5  6  2  0  0  0
  5  7  1  0  0  0
  6 27  1  0  0  0
  7 14  1  0  0  0
  7  8  2  0  0  0
  8  9  1  0  0  0
  8 16  1  0  0  0
  9 10  1  0  0  0
  9 28  1  0  0  0
  9 29  1  0  0  0
 10 11  1  0  0  0
 10 30  1  0  0  0
 10 31  1  0  0  0
 11 12  1  0  0  0
 11 32  1  0  0  0
 12 13  2  0  0  0
 12 14  1  0  0  0
 14 15  2  0  0  0
 16 20  1  0  0  0
 16 17  2  0  0  0
 17 18  1  0  0  0
 17 22  1  0  0  0
 18 23  1  0  0  0
 18 19  1  0  0  0
 19 20  2  0  0  0
 19 21  1  0  0  0
 21 33  1  0  0  0
 21 34  1  0  0  0
 22 35  1  0  0  0
M  END
> <s_m_entry_id>
12620

> <s_m_entry_name>
ligand_docking-pose.6

> <s_m_Source_Path>
/home/csk/Desktop/cluster/DUD-E-result/mk01

> <s_m_Source_File>
ligand_docking-pose.sdf

> <i_m_Source_File_Index>
6

> <i_lp_mmshare_version>
53161

> <r_lp_tautomer_probability>
1

> <s_lp_Force_Field>
OPLS_2005

> <r_lp_Energy>
51.424931

> <b_lp_Chiralities_Consistent>
1

> <s_lp_Variant>
201833-1

> <s_i_glide_gridfile>
glide-grid_2ojg

> <i_i_glide_lignum>
68

> <i_i_glide_rotatable_bonds>
2

> <r_i_docking_score>
-8.52614699964603

> <r_i_glide_ligand_efficiency>
-0.387552136347547

> <r_i_glide_ligand_efficiency_sa>
-1.08593632760645

> <r_i_glide_ligand_efficiency_ln>
-2.08410132548171

> <r_i_glide_gscore>
-8.52614699964603

> <r_i_glide_lipo>
-2.42475732655275

> <r_i_glide_hbond>
-0.605465571142883

> <r_i_glide_metal>
0

> <r_i_glide_rewards>
-2.868719876107

> <r_i_glide_evdw>
-42.056022644043

> <r_i_glide_ecoul>
-4.76332139968872

> <r_i_glide_erotb>
0.209887246002714

> <r_i_glide_esite>
-0.0197921296906582

> <r_i_glide_emodel>
-69.856293160942

> <r_i_glide_energy>
-46.8193440437317

> <r_i_glide_einternal>
1.17535936832428

> <i_i_glide_confnum>
2

> <i_i_glide_posenum>
292

> <r_i_glide_eff_state_penalty>
0

> <i_f3d_flags>
0

> <s_user_duplicate_titles>
201833

> <s_m_subgroup_title>
dock_pv

> <s_m_subgroupid>
dock_pv1

> <b_m_subgroup_collapsed>
0

$$$$
370035
                    3D
 Schrodinger Suite 2021-1.
 48 51  0  0  1  0            999 V2000
  -16.5764   14.9680   44.9003 C   0  0  0  0  0  0
  -16.9704   13.9323   44.0638 C   0  0  0  0  0  0
  -16.4843   13.8835   42.7527 C   0  0  0  0  0  0
  -15.6491   14.8840   42.2617 C   0  0  0  0  0  0
  -15.2656   15.9133   43.1042 C   0  0  0  0  0  0
  -15.7190   15.9487   44.4123 C   0  0  0  0  0  0
  -14.2061   17.1304   42.5521 Cl  0  0  0  0  0  0
  -16.8443   12.7445   41.9115 C   0  0  0  0  0  0
  -18.1204   12.2169   41.8200 C   0  0  0  0  0  0
  -18.1721   11.1513   41.0801 N   0  0  0  0  0  0
  -16.9180   10.9755   40.6789 N   0  0  0  0  0  0
  -16.0580   11.9557   41.0799 C   0  0  0  0  0  0
  -14.6729   11.9654   40.6810 C   0  0  0  0  0  0
  -13.5885   12.4988   41.3956 C   0  0  0  0  0  0
  -12.4054   12.2333   40.7036 C   0  0  0  0  0  0
  -12.7822   11.5525   39.5716 N   0  0  0  0  0  0
  -14.1410   11.4095   39.5279 C   0  0  0  0  0  0
  -11.0368   12.4782   41.0595 C   0  0  0  0  0  0
  -10.1262   11.9089   40.4543 O   0  0  0  0  0  0
  -10.8763   13.3750   42.0547 N   0  0  0  0  0  0
   -9.6316   13.9348   42.6242 C   0  0  1  0  0  0
   -8.5912   14.2529   41.5011 C   0  0  0  0  0  0
   -7.3760   14.8270   41.9266 O   0  0  0  0  0  0
   -9.9147   15.1663   43.5360 C   0  0  0  0  0  0
   -8.8663   15.7749   44.2463 C   0  0  0  0  0  0
   -9.0701   16.9435   44.9729 C   0  0  0  0  0  0
  -10.3467   17.4771   45.0757 C   0  0  0  0  0  0
  -11.4166   16.8472   44.4554 C   0  0  0  0  0  0
  -11.2033   15.7094   43.6786 C   0  0  0  0  0  0
  -10.5514   18.5975   45.8029 F   0  0  0  0  0  0
  -16.6624   10.1893   40.1021 H   0  0  0  0  0  0
  -12.1530   11.1734   38.8770 H   0  0  0  0  0  0
  -16.8962   14.9829   45.9293 H   0  0  0  0  0  0
  -17.6102   13.1504   44.4485 H   0  0  0  0  0  0
  -15.2805   14.8500   41.2446 H   0  0  0  0  0  0
  -15.3724   16.7236   45.0782 H   0  0  0  0  0  0
  -18.9767   12.6162   42.3286 H   0  0  0  0  0  0
  -13.6657   12.9911   42.3544 H   0  0  0  0  0  0
  -14.6001   10.8817   38.7047 H   0  0  0  0  0  0
  -11.6873   13.5191   42.6324 H   0  0  0  0  0  0
   -9.2100   13.1617   43.2714 H   0  0  0  0  0  0
   -8.3083   13.3750   40.9263 H   0  0  0  0  0  0
   -9.0636   14.9327   40.7944 H   0  0  0  0  0  0
   -6.7791   14.1490   42.2792 H   0  0  0  0  0  0
   -7.8696   15.3629   44.2292 H   0  0  0  0  0  0
   -8.2454   17.4208   45.4786 H   0  0  0  0  0  0
  -12.4066   17.2555   44.5728 H   0  0  0  0  0  0
  -12.0597   15.2775   43.1849 H   0  0  0  0  0  0
  1  6  1  0  0  0
  1  2  2  0  0  0
  1 33  1  0  0  0
  2  3  1  0  0  0
  2 34  1  0  0  0
  3  4  2  0  0  0
  3  8  1  0  0  0
  4  5  1  0  0  0
  4 35  1  0  0  0
  5  6  2  0  0  0
  5  7  1  0  0  0
  6 36  1  0  0  0
  8 12  2  0  0  0
  8  9  1  0  0  0
  9 10  2  0  0  0
  9 37  1  0  0  0
 10 11  1  0  0  0
 11 31  1  0  0  0
 11 12  1  0  0  0
 12 13  1  0  0  0
 13 17  2  0  0  0
 13 14  1  0  0  0
 14 15  2  0  0  0
 14 38  1  0  0  0
 15 16  1  0  0  0
 15 18  1  0  0  0
 16 32  1  0  0  0
 16 17  1  0  0  0
 17 39  1  0  0  0
 18 19  2  0  0  0
 18 20  1  0  0  0
 20 21  1  0  0  0
 20 40  1  0  0  0
 21 22  1  0  0  0
 21 24  1  0  0  0
 21 41  1  0  0  0
 22 23  1  0  0  0
 22 42  1  0  0  0
 22 43  1  0  0  0
 23 44  1  0  0  0
 24 29  1  0  0  0
 24 25  2  0  0  0
 25 26  1  0  0  0
 25 45  1  0  0  0
 26 27  2  0  0  0
 26 46  1  0  0  0
 27 28  1  0  0  0
 27 30  1  0  0  0
 28 29  2  0  0  0
 28 47  1  0  0  0
 29 48  1  0  0  0
M  END
> <s_m_entry_id>
12621

> <s_m_entry_name>
ligand_docking-pose.7

> <s_m_Source_Path>
/home/csk/Desktop/cluster/DUD-E-result/mk01

> <s_m_Source_File>
ligand_docking-pose.sdf

> <i_m_Source_File_Index>
7

> <i_lp_mmshare_version>
53161

> <r_lp_tautomer_probability>
0.5

> <s_lp_Force_Field>
OPLS_2005

> <r_lp_Energy>
15.444908

> <b_lp_Chiralities_Consistent>
1

> <s_lp_Variant>
370035-2

> <s_i_glide_gridfile>
glide-grid_2ojg

> <i_i_glide_lignum>
63

> <i_i_glide_rotatable_bonds>
8

> <r_i_docking_score>
-8.31538696868809

> <r_i_glide_ligand_efficiency>
-0.277179565622936

> <r_i_glide_ligand_efficiency_sa>
-0.861261355313319

> <r_i_glide_ligand_efficiency_ln>
-1.88934652268372

> <r_i_glide_gscore>
-8.31538696868809

> <r_i_glide_lipo>
-3.2916560135206

> <r_i_glide_hbond>
-0.666366872580148

> <r_i_glide_metal>
0

> <r_i_glide_rewards>
-1.12031359910423

> <r_i_glide_evdw>
-38.2965354919434

> <r_i_glide_ecoul>
-11.8447771072388

> <r_i_glide_erotb>
0.461461272866164

> <r_i_glide_esite>
-0.00696841566629238

> <r_i_glide_emodel>
-69.8845796399764

> <r_i_glide_energy>
-50.1413125991821

> <r_i_glide_einternal>
7.11067771911621

> <i_i_glide_confnum>
2

> <i_i_glide_posenum>
17

> <r_i_glide_eff_state_penalty>
0

> <i_f3d_flags>
0

> <s_user_duplicate_titles>
370035

> <s_m_subgroup_title>
dock_pv

> <s_m_subgroupid>
dock_pv1

> <b_m_subgroup_collapsed>
0

$$$$
370046
                    3D
 Schrodinger Suite 2021-1.
 51 54  0  0  1  0            999 V2000
  -15.0871   16.2898   42.4624 C   0  0  0  0  0  0
  -15.4868   15.2197   41.6593 C   0  0  0  0  0  0
  -16.3080   14.2252   42.1939 C   0  0  0  0  0  0
  -16.7241   14.2927   43.5135 C   0  0  0  0  0  0
  -16.3390   15.3484   44.2991 C   0  0  0  0  0  0
  -15.5075   16.3494   43.7930 C   0  0  0  0  0  0
  -16.9757   15.3722   45.8793 Cl  0  0  0  0  0  0
  -16.7821   13.0157   41.5236 C   0  0  0  0  0  0
  -18.1075   12.5833   41.5211 C   0  0  0  0  0  0
  -18.2090   11.3736   41.0803 N   0  0  0  0  0  0
  -16.9755   11.0203   40.7171 N   0  0  0  0  0  0
  -16.0480   11.9982   40.9380 C   0  0  0  0  0  0
  -14.6446   11.8593   40.6879 C   0  0  0  0  0  0
  -13.6324   12.5711   41.3477 C   0  0  0  0  0  0
  -12.4044   12.2346   40.7993 C   0  0  0  0  0  0
  -12.6647   11.2621   39.8700 N   0  0  0  0  0  0
  -14.0101   11.0218   39.7888 C   0  0  0  0  0  0
  -11.1098   12.7963   41.0149 C   0  0  0  0  0  0
  -10.1775   12.5028   40.2707 O   0  0  0  0  0  0
  -11.0589   13.7042   42.0076 N   0  0  0  0  0  0
   -9.9960   14.6842   42.2885 C   0  0  2  0  0  0
   -8.5806   14.0600   42.3452 C   0  0  0  0  0  0
   -7.4748   14.9539   42.3493 O   0  0  0  0  0  0
  -10.3847   15.6725   43.4146 C   0  0  0  0  0  0
  -11.7075   16.1272   43.4836 C   0  0  0  0  0  0
  -12.0535   17.1796   44.3238 C   0  0  0  0  0  0
  -11.0826   17.8050   45.1031 C   0  0  0  0  0  0
   -9.7714   17.3236   45.0794 C   0  0  0  0  0  0
   -9.4367   16.2345   44.2820 C   0  0  0  0  0  0
  -11.4581   18.9968   45.9868 C   0  0  0  0  0  0
  -11.8861   18.5542   47.1678 F   0  0  0  0  0  0
  -10.4114   19.7978   46.1924 F   0  0  0  0  0  0
  -12.4270   19.7265   45.4291 F   0  0  0  0  0  0
  -16.7811   10.0968   40.3457 H   0  0  0  0  0  0
  -11.9696   10.8130   39.2892 H   0  0  0  0  0  0
  -14.4462   17.0603   42.0624 H   0  0  0  0  0  0
  -15.1401   15.1465   40.6437 H   0  0  0  0  0  0
  -17.3538   13.5243   43.9437 H   0  0  0  0  0  0
  -15.2050   17.1666   44.4297 H   0  0  0  0  0  0
  -18.9631   13.1094   41.9230 H   0  0  0  0  0  0
  -13.7861   13.2970   42.1315 H   0  0  0  0  0  0
  -14.3867   10.2895   39.0854 H   0  0  0  0  0  0
  -11.8259   13.7073   42.6619 H   0  0  0  0  0  0
   -9.9884   15.3169   41.4012 H   0  0  0  0  0  0
   -8.5688   13.3872   43.1921 H   0  0  0  0  0  0
   -8.4284   13.4061   41.4886 H   0  0  0  0  0  0
   -6.6721   14.4277   42.4822 H   0  0  0  0  0  0
  -12.4628   15.7138   42.8344 H   0  0  0  0  0  0
  -13.0692   17.5384   44.3439 H   0  0  0  0  0  0
   -9.0100   17.7773   45.6960 H   0  0  0  0  0  0
   -8.4159   15.8933   44.3132 H   0  0  0  0  0  0
  1  6  1  0  0  0
  1  2  2  0  0  0
  1 36  1  0  0  0
  2  3  1  0  0  0
  2 37  1  0  0  0
  3  4  2  0  0  0
  3  8  1  0  0  0
  4  5  1  0  0  0
  4 38  1  0  0  0
  5  6  2  0  0  0
  5  7  1  0  0  0
  6 39  1  0  0  0
  8 12  2  0  0  0
  8  9  1  0  0  0
  9 10  2  0  0  0
  9 40  1  0  0  0
 10 11  1  0  0  0
 11 34  1  0  0  0
 11 12  1  0  0  0
 12 13  1  0  0  0
 13 17  2  0  0  0
 13 14  1  0  0  0
 14 15  2  0  0  0
 14 41  1  0  0  0
 15 16  1  0  0  0
 15 18  1  0  0  0
 16 35  1  0  0  0
 16 17  1  0  0  0
 17 42  1  0  0  0
 18 19  2  0  0  0
 18 20  1  0  0  0
 20 21  1  0  0  0
 20 43  1  0  0  0
 21 22  1  0  0  0
 21 24  1  0  0  0
 21 44  1  0  0  0
 22 23  1  0  0  0
 22 45  1  0  0  0
 22 46  1  0  0  0
 23 47  1  0  0  0
 24 29  1  0  0  0
 24 25  2  0  0  0
 25 26  1  0  0  0
 25 48  1  0  0  0
 26 27  2  0  0  0
 26 49  1  0  0  0
 27 28  1  0  0  0
 27 30  1  0  0  0
 28 29  2  0  0  0
 28 50  1  0  0  0
 29 51  1  0  0  0
 30 31  1  0  0  0
 30 32  1  0  0  0
 30 33  1  0  0  0
M  END
> <s_m_entry_id>
12622

> <s_m_entry_name>
ligand_docking-pose.8

> <s_m_Source_Path>
/home/csk/Desktop/cluster/DUD-E-result/mk01

> <s_m_Source_File>
ligand_docking-pose.sdf

> <i_m_Source_File_Index>
8

> <i_lp_mmshare_version>
53161

> <r_lp_tautomer_probability>
0.5

> <s_lp_Force_Field>
OPLS_2005

> <r_lp_Energy>
15.401454

> <b_lp_Chiralities_Consistent>
1

> <s_lp_Variant>
370046-1

> <s_i_glide_gridfile>
glide-grid_2ojg

> <i_i_glide_lignum>
57

> <i_i_glide_rotatable_bonds>
9

> <r_i_docking_score>
-8.29778313066291

> <r_i_glide_ligand_efficiency>
-0.251447973656452

> <r_i_glide_ligand_efficiency_sa>
-0.806528006770945

> <r_i_glide_ligand_efficiency_ln>
-1.84538400463774

> <r_i_glide_gscore>
-8.29778313066291

> <r_i_glide_lipo>
-3.35331673077419

> <r_i_glide_hbond>
-0.651613748989922

> <r_i_glide_metal>
0

> <r_i_glide_rewards>
-1.51995945552463

> <r_i_glide_evdw>
-31.4984798431396

> <r_i_glide_ecoul>
-10.8003158569336

> <r_i_glide_erotb>
0.439774721366675

> <r_i_glide_esite>
-0.0176965460438315

> <r_i_glide_emodel>
-78.0316279886997

> <r_i_glide_energy>
-42.2987957000732

> <r_i_glide_einternal>
21.1672477722168

> <i_i_glide_confnum>
3

> <i_i_glide_posenum>
173

> <r_i_glide_eff_state_penalty>
0

> <i_f3d_flags>
0

> <s_user_duplicate_titles>
370046

> <s_m_subgroup_title>
dock_pv

> <s_m_subgroupid>
dock_pv1

> <b_m_subgroup_collapsed>
0

$$$$
370082
                    3D
 Schrodinger Suite 2021-1.
 41 44  0  0  1  0            999 V2000
  -16.6169   14.9372   44.8913 C   0  0  0  0  0  0
  -17.0136   13.9261   44.0275 C   0  0  0  0  0  0
  -16.5277   13.9013   42.7157 C   0  0  0  0  0  0
  -15.6783   14.9064   42.2504 C   0  0  0  0  0  0
  -15.2797   15.9044   43.1274 C   0  0  0  0  0  0
  -15.7452   15.9118   44.4264 C   0  0  0  0  0  0
  -14.1761   17.1242   42.6675 Cl  0  0  0  0  0  0
  -16.8881   12.7589   41.8763 C   0  0  0  0  0  0
  -18.1610   12.2044   41.7906 C   0  0  0  0  0  0
  -18.1759   11.1201   41.0801 N   0  0  0  0  0  0
  -16.9220   10.9751   40.6650 N   0  0  0  0  0  0
  -16.0857   11.9821   41.0488 C   0  0  0  0  0  0
  -14.6991   12.0359   40.6420 C   0  0  0  0  0  0
  -13.6307   12.5749   41.3668 C   0  0  0  0  0  0
  -12.4339   12.4215   40.6578 C   0  0  0  0  0  0
  -12.8005   11.7748   39.4982 N   0  0  0  0  0  0
  -14.1504   11.5509   39.4689 C   0  0  0  0  0  0
  -11.0494   12.7355   40.9741 C   0  0  0  0  0  0
  -10.1658   12.2226   40.2801 O   0  0  0  0  0  0
  -10.7588   13.5189   42.0505 N   0  0  0  0  0  0
  -11.6818   14.4242   42.7484 C   0  0  0  0  0  0
  -10.7998   15.2818   43.6506 C   0  0  0  0  0  0
   -9.3629   14.9934   43.2694 C   0  0  0  0  0  0
   -9.3793   13.6589   42.5336 C   0  0  0  0  0  0
  -16.6493   10.1843   40.0981 H   0  0  0  0  0  0
  -12.1593   11.4709   38.7795 H   0  0  0  0  0  0
  -16.9470   14.9407   45.9199 H   0  0  0  0  0  0
  -17.6617   13.1423   44.3944 H   0  0  0  0  0  0
  -15.3027   14.8891   41.2377 H   0  0  0  0  0  0
  -15.3761   16.6809   45.0804 H   0  0  0  0  0  0
  -19.0440   12.5789   42.2800 H   0  0  0  0  0  0
  -13.7607   12.9868   42.3518 H   0  0  0  0  0  0
  -14.5923   11.0432   38.6238 H   0  0  0  0  0  0
  -12.3577   13.8935   43.4172 H   0  0  0  0  0  0
  -12.2280   15.0705   42.0586 H   0  0  0  0  0  0
  -10.9608   14.9766   44.6804 H   0  0  0  0  0  0
  -11.0478   16.3414   43.5823 H   0  0  0  0  0  0
   -8.9940   15.7748   42.6141 H   0  0  0  0  0  0
   -8.6922   14.9764   44.1292 H   0  0  0  0  0  0
   -8.6403   13.6851   41.7306 H   0  0  0  0  0  0
   -9.1506   12.8697   43.2526 H   0  0  0  0  0  0
  1  6  1  0  0  0
  1  2  2  0  0  0
  1 27  1  0  0  0
  2  3  1  0  0  0
  2 28  1  0  0  0
  3  4  2  0  0  0
  3  8  1  0  0  0
  4  5  1  0  0  0
  4 29  1  0  0  0
  5  6  2  0  0  0
  5  7  1  0  0  0
  6 30  1  0  0  0
  8 12  2  0  0  0
  8  9  1  0  0  0
  9 10  2  0  0  0
  9 31  1  0  0  0
 10 11  1  0  0  0
 11 25  1  0  0  0
 11 12  1  0  0  0
 12 13  1  0  0  0
 13 17  2  0  0  0
 13 14  1  0  0  0
 14 15  2  0  0  0
 14 32  1  0  0  0
 15 16  1  0  0  0
 15 18  1  0  0  0
 16 26  1  0  0  0
 16 17  1  0  0  0
 17 33  1  0  0  0
 18 19  2  0  0  0
 18 20  1  0  0  0
 20 24  1  0  0  0
 20 21  1  0  0  0
 21 22  1  0  0  0
 21 34  1  0  0  0
 21 35  1  0  0  0
 22 23  1  0  0  0
 22 36  1  0  0  0
 22 37  1  0  0  0
 23 24  1  0  0  0
 23 38  1  0  0  0
 23 39  1  0  0  0
 24 40  1  0  0  0
 24 41  1  0  0  0
M  END
> <s_m_entry_id>
12623

> <s_m_entry_name>
ligand_docking-pose.9

> <s_m_Source_Path>
/home/csk/Desktop/cluster/DUD-E-result/mk01

> <s_m_Source_File>
ligand_docking-pose.sdf

> <i_m_Source_File_Index>
9

> <i_lp_mmshare_version>
53161

> <r_lp_tautomer_probability>
0.5

> <s_lp_Force_Field>
OPLS_2005

> <r_lp_Energy>
39.619133

> <b_lp_Chiralities_Consistent>
1

> <s_lp_Variant>
370082-1

> <s_i_glide_gridfile>
glide-grid_2ojg

> <i_i_glide_lignum>
79

> <i_i_glide_rotatable_bonds>
4

> <r_i_docking_score>
-8.20037732656639

> <r_i_glide_ligand_efficiency>
-0.341682388606933

> <r_i_glide_ligand_efficiency_sa>
-0.985582555255838

> <r_i_glide_ligand_efficiency_ln>
-1.96272658504342

> <r_i_glide_gscore>
-8.20037732656639

> <r_i_glide_lipo>
-3.01122226525959

> <r_i_glide_hbond>
-0.487100806482168

> <r_i_glide_metal>
0

> <r_i_glide_rewards>
-2.1388158344581

> <r_i_glide_evdw>
-38.5081596374512

> <r_i_glide_ecoul>
-8.55053901672363

> <r_i_glide_erotb>
0.652334371048321

> <r_i_glide_esite>
-0.0075839570337592

> <r_i_glide_emodel>
-66.0795557919357

> <r_i_glide_energy>
-47.0586986541748

> <r_i_glide_einternal>
2.97527384757996

> <i_i_glide_confnum>
96

> <i_i_glide_posenum>
164

> <r_i_glide_eff_state_penalty>
0

> <i_f3d_flags>
0

> <s_user_duplicate_titles>
370082

> <s_m_subgroup_title>
dock_pv

> <s_m_subgroupid>
dock_pv1

> <b_m_subgroup_collapsed>
0

$$$$
370099
                    3D
 Schrodinger Suite 2021-1.
 48 51  0  0  1  0            999 V2000
  -11.3585   17.6392   45.3477 C   0  0  0  0  0  0
  -10.0141   17.4268   45.0659 C   0  0  0  0  0  0
   -9.6482   16.4429   44.1528 C   0  0  0  0  0  0
  -10.6227   15.7147   43.4479 C   0  0  0  0  0  0
  -11.9699   15.9079   43.7877 C   0  0  0  0  0  0
  -12.3298   16.8635   44.7311 C   0  0  0  0  0  0
  -10.2116   14.7836   42.2689 C   0  0  1  0  0  0
   -8.9667   13.9465   42.5779 C   0  0  0  0  0  0
   -9.3764   12.9758   43.4800 O   0  0  0  0  0  0
  -11.3280   14.0029   41.7202 N   0  0  0  0  0  0
  -11.2817   13.0137   40.8125 C   0  0  0  0  0  0
  -10.2674   12.5651   40.2803 O   0  0  0  0  0  0
  -12.5677   12.5010   40.5054 C   0  0  0  0  0  0
  -13.7405   12.5729   41.2349 C   0  0  0  0  0  0
  -14.7624   11.9880   40.4940 C   0  0  0  0  0  0
  -14.1789   11.4166   39.3802 C   0  0  0  0  0  0
  -12.8473   11.7320   39.4096 N   0  0  0  0  0  0
  -16.1191   12.0075   40.8782 C   0  0  0  0  0  0
  -16.8679   12.9253   41.5816 C   0  0  0  0  0  0
  -18.1342   12.3552   41.6983 C   0  0  0  0  0  0
  -18.1759   11.1582   41.1991 N   0  0  0  0  0  0
  -16.9736   10.9746   40.6798 N   0  0  0  0  0  0
  -16.4228   14.1634   42.2144 C   0  0  0  0  0  0
  -15.6329   15.1551   41.6282 C   0  0  0  0  0  0
  -15.2481   16.2671   42.3771 C   0  0  0  0  0  0
  -15.6476   16.3677   43.7101 C   0  0  0  0  0  0
  -16.4208   15.3528   44.2757 C   0  0  0  0  0  0
  -16.8034   14.2626   43.5388 C   0  0  0  0  0  0
  -16.9760   15.3750   45.8784 Cl  0  0  0  0  0  0
   -9.9190   15.3752   41.4178 H   0  0  0  0  0  0
  -12.1767   11.4423   38.7126 H   0  0  0  0  0  0
  -16.7267   10.0936   40.2457 H   0  0  0  0  0  0
  -11.6481   18.3870   46.0716 H   0  0  0  0  0  0
   -9.2581   18.0196   45.5582 H   0  0  0  0  0  0
   -8.5979   16.3322   43.9365 H   0  0  0  0  0  0
  -12.7580   15.3461   43.3137 H   0  0  0  0  0  0
  -13.3622   17.0030   44.9990 H   0  0  0  0  0  0
   -8.5729   13.4724   41.6852 H   0  0  0  0  0  0
   -8.1378   14.5136   42.9956 H   0  0  0  0  0  0
   -8.7153   12.9748   44.1960 H   0  0  0  0  0  0
  -12.2436   14.3333   41.9731 H   0  0  0  0  0  0
  -13.8637   13.0547   42.1941 H   0  0  0  0  0  0
  -14.5846   10.8395   38.5611 H   0  0  0  0  0  0
  -18.9768   12.7884   42.2163 H   0  0  0  0  0  0
  -15.3039   15.0498   40.6104 H   0  0  0  0  0  0
  -14.6353   17.0368   41.9326 H   0  0  0  0  0  0
  -15.3621   17.2256   44.2970 H   0  0  0  0  0  0
  -17.3934   13.4892   44.0136 H   0  0  0  0  0  0
  1  6  1  0  0  0
  1  2  2  0  0  0
  1 33  1  0  0  0
  2  3  1  0  0  0
  2 34  1  0  0  0
  3  4  2  0  0  0
  3 35  1  0  0  0
  4  5  1  0  0  0
  4  7  1  0  0  0
  5  6  2  0  0  0
  5 36  1  0  0  0
  6 37  1  0  0  0
  7 30  1  0  0  0
  7  8  1  0  0  0
  7 10  1  0  0  0
  8  9  1  0  0  0
  8 38  1  0  0  0
  8 39  1  0  0  0
  9 40  1  0  0  0
 10 11  1  0  0  0
 10 41  1  0  0  0
 11 12  2  0  0  0
 11 13  1  0  0  0
 13 17  1  0  0  0
 13 14  2  0  0  0
 14 15  1  0  0  0
 14 42  1  0  0  0
 15 16  2  0  0  0
 15 18  1  0  0  0
 16 17  1  0  0  0
 16 43  1  0  0  0
 17 31  1  0  0  0
 18 22  1  0  0  0
 18 19  2  0  0  0
 19 20  1  0  0  0
 19 23  1  0  0  0
 20 21  2  0  0  0
 20 44  1  0  0  0
 21 22  1  0  0  0
 22 32  1  0  0  0
 23 28  1  0  0  0
 23 24  2  0  0  0
 24 25  1  0  0  0
 24 45  1  0  0  0
 25 26  2  0  0  0
 25 46  1  0  0  0
 26 27  1  0  0  0
 26 47  1  0  0  0
 27 28  2  0  0  0
 27 29  1  0  0  0
 28 48  1  0  0  0
M  END
> <s_m_entry_id>
12624

> <s_m_entry_name>
ligand_docking-pose.10

> <s_m_Source_Path>
/home/csk/Desktop/cluster/DUD-E-result/mk01

> <s_m_Source_File>
ligand_docking-pose.sdf

> <i_m_Source_File_Index>
10

> <i_lp_mmshare_version>
53161

> <r_lp_tautomer_probability>
0.5

> <s_lp_Force_Field>
OPLS_2005

> <r_lp_Energy>
19.000104

> <b_lp_Chiralities_Consistent>
1

> <s_lp_Variant>
370099-1

> <s_i_glide_gridfile>
glide-grid_2ojg

> <i_i_glide_lignum>
53

> <i_i_glide_rotatable_bonds>
8

> <r_i_docking_score>
-8.0364360321992

> <r_i_glide_ligand_efficiency>
-0.277118483868938

> <r_i_glide_ligand_efficiency_sa>
-0.851395779743456

> <r_i_glide_ligand_efficiency_ln>
-1.84014006493901

> <r_i_glide_gscore>
-8.0364360321992

> <r_i_glide_lipo>
-3.30023855377796

> <r_i_glide_hbond>
-0.513872666396916

> <r_i_glide_metal>
0

> <r_i_glide_rewards>
-1.67080307269951

> <r_i_glide_evdw>
-21.911922454834

> <r_i_glide_ecoul>
-12.9864463806152

> <r_i_glide_erotb>
0.498969024808793

> <r_i_glide_esite>
-0.0069276842996269

> <r_i_glide_emodel>
-40.6228222981868

> <r_i_glide_energy>
-34.8983688354492

> <r_i_glide_einternal>
14.2378444671631

> <i_i_glide_confnum>
17

> <i_i_glide_posenum>
224

> <r_i_glide_eff_state_penalty>
0

> <i_f3d_flags>
0

> <s_user_duplicate_titles>
370099

> <s_m_subgroup_title>
dock_pv

> <s_m_subgroupid>
dock_pv1

> <b_m_subgroup_collapsed>
0

$$$$
350635
                    3D
 Schrodinger Suite 2021-1.
 49 52  0  0  1  0            999 V2000
  -17.0387   14.3117   44.4487 C   0  0  0  0  0  0
  -17.0393   13.4783   43.1871 C   0  0  0  0  0  0
  -16.0087   13.0748   42.2954 C   0  0  0  0  0  0
  -14.6217   13.2766   42.2044 C   0  0  0  0  0  0
  -13.8912   12.6795   41.1632 C   0  0  0  0  0  0
  -14.5828   11.9097   40.2137 C   0  0  0  0  0  0
  -15.9538   11.6803   40.2851 C   0  0  0  0  0  0
  -16.6774   12.2667   41.3269 C   0  0  0  0  0  0
  -18.0183   12.1641   41.5642 N   0  0  0  0  0  0
  -18.1759   12.8956   42.6790 N   0  0  0  0  0  0
  -12.3979   12.8279   41.0875 C   0  0  0  0  0  0
  -11.6982   13.8835   41.7083 C   0  0  0  0  0  0
  -10.2981   13.9478   41.6736 C   0  0  0  0  0  0
   -9.6380   12.9718   40.9174 C   0  0  0  0  0  0
  -10.2669   11.9446   40.3046 N   0  0  0  0  0  0
  -11.6149   11.8789   40.4108 C   0  0  0  0  0  0
   -9.6518   14.9483   42.3849 O   0  0  0  0  0  0
   -8.2556   14.7949   42.6808 C   0  0  0  0  0  0
   -7.7166   15.6520   43.8629 C   0  0  2  0  0  0
   -8.6898   15.9225   45.0247 C   0  0  0  0  0  0
   -9.9224   16.7880   44.7495 C   0  0  0  0  0  0
   -9.8181   18.1835   44.7471 C   0  0  0  0  0  0
  -10.9623   18.9687   44.6349 C   0  0  0  0  0  0
  -12.2109   18.3560   44.5308 C   0  0  0  0  0  0
  -12.3241   16.9675   44.5325 C   0  0  0  0  0  0
  -11.1791   16.1848   44.6452 C   0  0  0  0  0  0
   -7.0759   16.8986   43.4796 N   0  0  0  0  0  0
  -19.0897   12.9751   43.1152 H   0  0  0  0  0  0
   -6.8978   15.0621   44.2820 H   0  0  0  0  0  0
  -16.5769   13.7810   45.2817 H   0  0  0  0  0  0
  -16.4743   15.2334   44.3133 H   0  0  0  0  0  0
  -18.0444   14.5895   44.7687 H   0  0  0  0  0  0
  -14.1272   13.8630   42.9643 H   0  0  0  0  0  0
  -14.0586   11.4539   39.3886 H   0  0  0  0  0  0
  -16.4426   11.0564   39.5518 H   0  0  0  0  0  0
  -12.2247   14.6474   42.2577 H   0  0  0  0  0  0
   -8.5689   12.9819   40.8014 H   0  0  0  0  0  0
  -12.0568   11.0159   39.9363 H   0  0  0  0  0  0
   -7.6675   14.9709   41.7799 H   0  0  0  0  0  0
   -8.0816   13.7604   42.9660 H   0  0  0  0  0  0
   -8.1115   16.4426   45.7860 H   0  0  0  0  0  0
   -8.9898   14.9755   45.4784 H   0  0  0  0  0  0
   -8.8545   18.6610   44.8541 H   0  0  0  0  0  0
  -10.8860   20.0454   44.6303 H   0  0  0  0  0  0
  -13.0993   18.9632   44.4498 H   0  0  0  0  0  0
  -13.2948   16.4986   44.4708 H   0  0  0  0  0  0
  -11.2714   15.1085   44.6795 H   0  0  0  0  0  0
   -6.4200   16.7060   42.7354 H   0  0  0  0  0  0
   -7.7849   17.5015   43.0862 H   0  0  0  0  0  0
  1 30  1  0  0  0
  1 31  1  0  0  0
  1 32  1  0  0  0
  1  2  1  0  0  0
  2  3  2  0  0  0
  2 10  1  0  0  0
  3  4  1  0  0  0
  3  8  1  0  0  0
  4  5  2  0  0  0
  4 33  1  0  0  0
  5  6  1  0  0  0
  5 11  1  0  0  0
  6  7  2  0  0  0
  6 34  1  0  0  0
  7  8  1  0  0  0
  7 35  1  0  0  0
  8  9  2  0  0  0
  9 10  1  0  0  0
 10 28  1  0  0  0
 11 16  1  0  0  0
 11 12  2  0  0  0
 12 13  1  0  0  0
 12 36  1  0  0  0
 13 14  2  0  0  0
 13 17  1  0  0  0
 14 15  1  0  0  0
 14 37  1  0  0  0
 15 16  2  0  0  0
 16 38  1  0  0  0
 17 18  1  0  0  0
 18 19  1  0  0  0
 18 39  1  0  0  0
 18 40  1  0  0  0
 19 29  1  0  0  0
 19 20  1  0  0  0
 19 27  1  0  0  0
 20 21  1  0  0  0
 20 41  1  0  0  0
 20 42  1  0  0  0
 21 26  1  0  0  0
 21 22  2  0  0  0
 22 23  1  0  0  0
 22 43  1  0  0  0
 23 24  2  0  0  0
 23 44  1  0  0  0
 24 25  1  0  0  0
 24 45  1  0  0  0
 25 26  2  0  0  0
 25 46  1  0  0  0
 26 47  1  0  0  0
 27 48  1  0  0  0
 27 49  1  0  0  0
M  END
> <s_m_entry_id>
12626

> <s_m_entry_name>
ligand_docking-pose.12

> <s_m_Source_Path>
/home/csk/Desktop/cluster/DUD-E-result/mk01

> <s_m_Source_File>
ligand_docking-pose.sdf

> <i_m_Source_File_Index>
12

> <i_lp_mmshare_version>
53161

> <r_lp_tautomer_probability>
0.0196078431372549

> <s_lp_Force_Field>
OPLS_2005

> <r_lp_Energy>
37.562217

> <b_lp_Chiralities_Consistent>
1

> <s_lp_Variant>
350635-2

> <s_i_glide_gridfile>
glide-grid_2ojg

> <i_i_glide_lignum>
93

> <i_i_glide_rotatable_bonds>
6

> <r_i_docking_score>
-7.64473233219313

> <r_i_glide_ligand_efficiency>
-0.283138234525672

> <r_i_glide_ligand_efficiency_sa>
-0.849414702643838

> <r_i_glide_ligand_efficiency_ln>
-1.77956765367203

> <r_i_glide_gscore>
-7.64473233219313

> <r_i_glide_lipo>
-3.09121606283279

> <r_i_glide_hbond>
-0.348952313337523

> <r_i_glide_metal>
0

> <r_i_glide_rewards>
-1.92103203526897

> <r_i_glide_evdw>
-42.0430107116699

> <r_i_glide_ecoul>
-6.17918062210083

> <r_i_glide_erotb>
0.745495708144768

> <r_i_glide_esite>
0

> <r_i_glide_emodel>
-63.2843480975725

> <r_i_glide_energy>
-48.2221913337708

> <r_i_glide_einternal>
9.17906856536865

> <i_i_glide_confnum>
23

> <i_i_glide_posenum>
142

> <r_i_glide_eff_state_penalty>
0

> <i_f3d_flags>
0

> <s_user_duplicate_titles>
350635

> <s_m_subgroup_title>
dock_pv

> <s_m_subgroupid>
dock_pv1

> <b_m_subgroup_collapsed>
0

$$$$
370044
                    3D
 Schrodinger Suite 2021-1.
 48 52  0  0  1  0            999 V2000
  -17.2386   11.7423   41.1461 C   0  0  0  0  0  0
  -17.1503   12.9168   41.8865 C   0  0  0  0  0  0
  -15.9215   13.5618   42.0137 C   0  0  0  0  0  0
  -14.7651   13.0472   41.4150 C   0  0  0  0  0  0
  -14.8558   11.8517   40.6796 C   0  0  0  0  0  0
  -16.0971   11.2183   40.5468 C   0  0  0  0  0  0
  -13.5980   11.2671   40.0637 C   0  0  0  0  0  0
  -12.5857   12.3528   39.6686 C   0  0  0  0  0  0
  -12.2847   13.1482   40.8792 N   0  0  0  0  0  0
  -13.4388   13.7956   41.5465 C   0  0  0  0  0  0
  -10.9831   13.2777   41.2840 C   0  0  0  0  0  0
  -10.0633   12.6551   40.7397 O   0  0  0  0  0  0
  -10.6411   14.1863   42.3699 C   0  0  0  0  0  0
  -11.2488   15.3410   42.8890 C   0  0  0  0  0  0
  -10.4706   15.8826   43.9234 C   0  0  0  0  0  0
   -9.3825   15.0356   44.0373 C   0  0  0  0  0  0
   -9.4704   14.0629   43.0795 N   0  0  0  0  0  0
  -10.7935   17.0626   44.7167 C   0  0  0  0  0  0
  -10.1769   18.2906   45.0143 C   0  0  0  0  0  0
  -11.0996   18.9344   45.8602 C   0  0  0  0  0  0
  -12.1753   18.2295   46.1003 N   0  0  0  0  0  0
  -11.9796   17.1085   45.4075 N   0  0  0  0  0  0
   -8.8814   18.8813   44.5516 C   0  0  0  0  0  0
   -8.8001   20.2620   44.3247 C   0  0  0  0  0  0
   -7.6210   20.8386   43.8521 C   0  0  0  0  0  0
   -6.5109   20.0383   43.5870 C   0  0  0  0  0  0
   -6.5796   18.6623   43.8058 C   0  0  0  0  0  0
   -7.7540   18.0911   44.2974 C   0  0  0  0  0  0
   -5.2152   17.6642   43.4579 Cl  0  0  0  0  0  0
   -8.8024   13.3141   42.9584 H   0  0  0  0  0  0
  -12.6532   16.3517   45.4395 H   0  0  0  0  0  0
  -18.1807   11.2277   41.0444 H   0  0  0  0  0  0
  -18.0289   13.3264   42.3625 H   0  0  0  0  0  0
  -15.8666   14.4770   42.5853 H   0  0  0  0  0  0
  -16.1772   10.2977   39.9857 H   0  0  0  0  0  0
  -13.1265   10.5754   40.7614 H   0  0  0  0  0  0
  -13.8523   10.6692   39.1872 H   0  0  0  0  0  0
  -12.9746   12.9721   38.8615 H   0  0  0  0  0  0
  -11.7120   11.8385   39.2689 H   0  0  0  0  0  0
  -13.5648   14.7940   41.1249 H   0  0  0  0  0  0
  -13.2567   13.9056   42.6154 H   0  0  0  0  0  0
  -12.1610   15.8019   42.5432 H   0  0  0  0  0  0
   -8.5580   15.0115   44.7330 H   0  0  0  0  0  0
  -10.9760   19.9133   46.2950 H   0  0  0  0  0  0
   -9.6598   20.8933   44.4944 H   0  0  0  0  0  0
   -7.5754   21.9042   43.6808 H   0  0  0  0  0  0
   -5.6012   20.4856   43.2126 H   0  0  0  0  0  0
   -7.7843   17.0305   44.4649 H   0  0  0  0  0  0
  1  6  1  0  0  0
  1  2  2  0  0  0
  1 32  1  0  0  0
  2  3  1  0  0  0
  2 33  1  0  0  0
  3  4  2  0  0  0
  3 34  1  0  0  0
  4 10  1  0  0  0
  4  5  1  0  0  0
  5  6  2  0  0  0
  5  7  1  0  0  0
  6 35  1  0  0  0
  7  8  1  0  0  0
  7 36  1  0  0  0
  7 37  1  0  0  0
  8  9  1  0  0  0
  8 38  1  0  0  0
  8 39  1  0  0  0
  9 10  1  0  0  0
  9 11  1  0  0  0
 10 40  1  0  0  0
 10 41  1  0  0  0
 11 12  2  0  0  0
 11 13  1  0  0  0
 13 17  1  0  0  0
 13 14  2  0  0  0
 14 15  1  0  0  0
 14 42  1  0  0  0
 15 16  2  0  0  0
 15 18  1  0  0  0
 16 17  1  0  0  0
 16 43  1  0  0  0
 17 30  1  0  0  0
 18 22  1  0  0  0
 18 19  2  0  0  0
 19 20  1  0  0  0
 19 23  1  0  0  0
 20 21  2  0  0  0
 20 44  1  0  0  0
 21 22  1  0  0  0
 22 31  1  0  0  0
 23 28  1  0  0  0
 23 24  2  0  0  0
 24 25  1  0  0  0
 24 45  1  0  0  0
 25 26  2  0  0  0
 25 46  1  0  0  0
 26 27  1  0  0  0
 26 47  1  0  0  0
 27 28  2  0  0  0
 27 29  1  0  0  0
 28 48  1  0  0  0
M  END
> <s_m_entry_id>
12627

> <s_m_entry_name>
ligand_docking-pose.13

> <s_m_Source_Path>
/home/csk/Desktop/cluster/DUD-E-result/mk01

> <s_m_Source_File>
ligand_docking-pose.sdf

> <i_m_Source_File_Index>
13

> <i_lp_mmshare_version>
53161

> <r_lp_tautomer_probability>
0.5

> <s_lp_Force_Field>
OPLS_2005

> <r_lp_Energy>
34.248017

> <b_lp_Chiralities_Consistent>
1

> <s_lp_Variant>
370044-1

> <s_i_glide_gridfile>
glide-grid_2ojg

> <i_i_glide_lignum>
114

> <i_i_glide_rotatable_bonds>
4

> <r_i_docking_score>
-7.61972000684533

> <r_i_glide_ligand_efficiency>
-0.262748965753287

> <r_i_glide_ligand_efficiency_sa>
-0.807248067509298

> <r_i_glide_ligand_efficiency_ln>
-1.74472266213964

> <r_i_glide_gscore>
-7.61972000684533

> <r_i_glide_lipo>
-3.0409639937729

> <r_i_glide_hbond>
-0.0159129277276915

> <r_i_glide_metal>
0

> <r_i_glide_rewards>
-1.71665999655375

> <r_i_glide_evdw>
-45.8064994812012

> <r_i_glide_ecoul>
-6.67854261398315

> <r_i_glide_erotb>
0.483719997335798

> <r_i_glide_esite>
-0.0377967199692533

> <r_i_glide_emodel>
-75.6940701498785

> <r_i_glide_energy>
-52.4850420951843

> <r_i_glide_einternal>
2.50609564781189

> <i_i_glide_confnum>
72

> <i_i_glide_posenum>
252

> <r_i_glide_eff_state_penalty>
0

> <i_f3d_flags>
0

> <s_user_duplicate_titles>
370044

> <s_m_subgroup_title>
dock_pv

> <s_m_subgroupid>
dock_pv1

> <b_m_subgroup_collapsed>
0

$$$$
370074
                    3D
 Schrodinger Suite 2021-1.
 40 42  0  0  1  0            999 V2000
  -15.8059   14.6186   44.8831 C   0  0  0  0  0  0
  -16.4394   14.6387   43.4803 C   0  0  0  0  0  0
  -17.4403   13.5871   43.2806 N   0  0  0  0  0  0
  -18.5823   13.7756   44.1823 C   0  0  0  0  0  0
  -17.5176   12.7280   42.2198 C   0  0  0  0  0  0
  -18.5741   12.1850   41.8805 O   0  0  0  0  0  0
  -16.3165   12.3830   41.4775 C   0  0  0  0  0  0
  -14.9539   12.5537   41.7340 C   0  0  0  0  0  0
  -14.1872   12.0167   40.6849 C   0  0  0  0  0  0
  -15.1021   11.4636   39.8024 C   0  0  0  0  0  0
  -16.3603   11.6632   40.3065 N   0  0  0  0  0  0
  -12.7339   11.9699   40.5919 C   0  0  0  0  0  0
  -11.6873   12.7225   41.1387 C   0  0  0  0  0  0
  -10.5293   12.0684   40.6796 C   0  0  0  0  0  0
  -10.7763   11.0327   39.9156 N   0  0  0  0  0  0
  -12.1046   10.9807   39.8800 N   0  0  0  0  0  0
  -11.7270   13.9086   42.0510 C   0  0  0  0  0  0
  -10.6922   14.0868   42.9774 C   0  0  0  0  0  0
  -10.7258   15.1434   43.8831 C   0  0  0  0  0  0
  -11.8114   16.0161   43.9011 C   0  0  0  0  0  0
  -12.8441   15.8589   42.9792 C   0  0  0  0  0  0
  -12.7803   14.8332   42.0331 C   0  0  0  0  0  0
  -14.1760   16.9644   42.9898 Cl  0  0  0  0  0  0
  -17.2139   11.3246   39.8840 H   0  0  0  0  0  0
  -12.5868   10.2869   39.3226 H   0  0  0  0  0  0
  -14.7177   14.5760   44.8404 H   0  0  0  0  0  0
  -16.1467   13.7757   45.4830 H   0  0  0  0  0  0
  -16.0988   15.5082   45.4395 H   0  0  0  0  0  0
  -16.9576   15.5889   43.3499 H   0  0  0  0  0  0
  -15.6764   14.6618   42.7101 H   0  0  0  0  0  0
  -18.8519   12.8448   44.6803 H   0  0  0  0  0  0
  -18.3757   14.4836   44.9849 H   0  0  0  0  0  0
  -19.4448   14.1646   43.6378 H   0  0  0  0  0  0
  -14.5288   12.9758   42.6313 H   0  0  0  0  0  0
  -14.9649   10.9180   38.8789 H   0  0  0  0  0  0
   -9.5145   12.3538   40.9171 H   0  0  0  0  0  0
   -9.8658   13.3918   43.0255 H   0  0  0  0  0  0
   -9.9293   15.2533   44.6051 H   0  0  0  0  0  0
  -11.8510   16.8130   44.6285 H   0  0  0  0  0  0
  -13.5669   14.7464   41.3002 H   0  0  0  0  0  0
  1  2  1  0  0  0
  1 26  1  0  0  0
  1 27  1  0  0  0
  1 28  1  0  0  0
  2  3  1  0  0  0
  2 29  1  0  0  0
  2 30  1  0  0  0
  3  4  1  0  0  0
  3  5  1  0  0  0
  4 31  1  0  0  0
  4 32  1  0  0  0
  4 33  1  0  0  0
  5  6  2  0  0  0
  5  7  1  0  0  0
  7 11  1  0  0  0
  7  8  2  0  0  0
  8  9  1  0  0  0
  8 34  1  0  0  0
  9 10  2  0  0  0
  9 12  1  0  0  0
 10 11  1  0  0  0
 10 35  1  0  0  0
 11 24  1  0  0  0
 12 16  1  0  0  0
 12 13  2  0  0  0
 13 14  1  0  0  0
 13 17  1  0  0  0
 14 15  2  0  0  0
 14 36  1  0  0  0
 15 16  1  0  0  0
 16 25  1  0  0  0
 17 22  1  0  0  0
 17 18  2  0  0  0
 18 19  1  0  0  0
 18 37  1  0  0  0
 19 20  2  0  0  0
 19 38  1  0  0  0
 20 21  1  0  0  0
 20 39  1  0  0  0
 21 22  2  0  0  0
 21 23  1  0  0  0
 22 40  1  0  0  0
M  END
> <s_m_entry_id>
12628

> <s_m_entry_name>
ligand_docking-pose.14

> <s_m_Source_Path>
/home/csk/Desktop/cluster/DUD-E-result/mk01

> <s_m_Source_File>
ligand_docking-pose.sdf

> <i_m_Source_File_Index>
14

> <i_lp_mmshare_version>
53161

> <r_lp_tautomer_probability>
0.5

> <s_lp_Force_Field>
OPLS_2005

> <r_lp_Energy>
24.331002

> <b_lp_Chiralities_Consistent>
1

> <s_lp_Variant>
370074-1

> <s_i_glide_gridfile>
glide-grid_2ojg

> <i_i_glide_lignum>
121

> <i_i_glide_rotatable_bonds>
5

> <r_i_docking_score>
-7.28586416983584

> <r_i_glide_ligand_efficiency>
-0.316776703036341

> <r_i_glide_ligand_efficiency_sa>
-0.900870804809736

> <r_i_glide_ligand_efficiency_ln>
-1.76178802083003

> <r_i_glide_gscore>
-7.28586416983584

> <r_i_glide_lipo>
-2.50227902831383

> <r_i_glide_hbond>
-0.585324349059694

> <r_i_glide_metal>
0

> <r_i_glide_rewards>
-1.89904515871198

> <r_i_glide_evdw>
-42.4847183227539

> <r_i_glide_ecoul>
-5.80055332183838

> <r_i_glide_erotb>
0.695103280663126

> <r_i_glide_esite>
0

> <r_i_glide_emodel>
-67.7813795089526

> <r_i_glide_energy>
-48.2852716445923

> <r_i_glide_einternal>
3.05401873588562

> <i_i_glide_confnum>
39

> <i_i_glide_posenum>
107

> <r_i_glide_eff_state_penalty>
0

> <i_f3d_flags>
0

> <s_user_duplicate_titles>
370074

> <s_m_subgroup_title>
dock_pv

> <s_m_subgroupid>
dock_pv1

> <b_m_subgroup_collapsed>
0

$$$$
370076
                    3D
 Schrodinger Suite 2021-1.
 48 51  0  0  1  0            999 V2000
  -17.6594   12.0962   41.2121 C   0  0  0  0  0  0
  -16.3377   11.9484   40.7905 C   0  0  0  0  0  0
  -15.2897   12.5764   41.4809 C   0  0  0  0  0  0
  -15.6073   13.3331   42.6195 C   0  0  0  0  0  0
  -16.9272   13.4899   43.0379 C   0  0  0  0  0  0
  -17.9530   12.8773   42.3261 C   0  0  0  0  0  0
  -17.2880   14.4367   44.4372 Cl  0  0  0  0  0  0
  -13.8677   12.4010   41.0221 C   0  0  0  0  0  0
  -13.3973   11.5089   40.0345 C   0  0  0  0  0  0
  -12.0958   11.5196   39.8807 N   0  0  0  0  0  0
  -11.6846   12.4390   40.7467 N   0  0  0  0  0  0
  -12.6928   13.0231   41.4641 C   0  0  0  0  0  0
  -12.3709   14.0233   42.4527 C   0  0  0  0  0  0
  -12.9025   15.3137   42.6067 C   0  0  0  0  0  0
  -12.3368   15.9122   43.7321 C   0  0  0  0  0  0
  -11.4826   14.9752   44.2648 N   0  0  0  0  0  0
  -11.4578   13.8582   43.4793 C   0  0  0  0  0  0
  -12.6073   17.2059   44.2990 C   0  0  0  0  0  0
  -13.6314   17.8316   44.0167 O   0  0  0  0  0  0
  -11.6374   17.6539   45.1197 N   0  0  0  0  0  0
  -11.5604   18.9564   45.7971 C   0  0  2  0  0  0
  -11.7457   20.1709   44.8489 C   0  0  0  0  0  0
  -10.7172   20.1848   43.8800 O   0  0  0  0  0  0
  -10.2174   19.1033   46.5256 C   0  0  0  0  0  0
  -10.1749   19.6097   47.8262 C   0  0  0  0  0  0
   -8.9537   19.7791   48.4793 C   0  0  0  0  0  0
   -7.7601   19.4620   47.8322 C   0  0  0  0  0  0
   -7.7901   18.9726   46.5248 C   0  0  0  0  0  0
   -9.0124   18.7775   45.8847 C   0  0  0  0  0  0
   -6.3310   18.5961   45.6833 Cl  0  0  0  0  0  0
   -6.5819   19.6254   48.4778 F   0  0  0  0  0  0
  -10.7083   12.6644   40.8675 H   0  0  0  0  0  0
  -10.9756   15.0623   45.1362 H   0  0  0  0  0  0
  -12.3638   18.9633   46.5370 H   0  0  0  0  0  0
  -18.4583   11.6043   40.6806 H   0  0  0  0  0  0
  -16.1408   11.3389   39.9212 H   0  0  0  0  0  0
  -14.8378   13.7870   43.2180 H   0  0  0  0  0  0
  -18.9759   13.0004   42.6473 H   0  0  0  0  0  0
  -13.9997   10.8321   39.4467 H   0  0  0  0  0  0
  -13.6456   15.7643   41.9656 H   0  0  0  0  0  0
  -10.8414   13.0165   43.7622 H   0  0  0  0  0  0
  -10.9984   16.9625   45.4728 H   0  0  0  0  0  0
  -12.7108   20.1510   44.3438 H   0  0  0  0  0  0
  -11.7098   21.1078   45.4068 H   0  0  0  0  0  0
  -10.9773   20.7477   43.1352 H   0  0  0  0  0  0
  -11.0919   19.8833   48.3237 H   0  0  0  0  0  0
   -8.9331   20.1693   49.4859 H   0  0  0  0  0  0
   -9.0251   18.4030   44.8707 H   0  0  0  0  0  0
  1  6  1  0  0  0
  1  2  2  0  0  0
  1 35  1  0  0  0
  2  3  1  0  0  0
  2 36  1  0  0  0
  3  4  2  0  0  0
  3  8  1  0  0  0
  4  5  1  0  0  0
  4 37  1  0  0  0
  5  6  2  0  0  0
  5  7  1  0  0  0
  6 38  1  0  0  0
  8 12  2  0  0  0
  8  9  1  0  0  0
  9 10  2  0  0  0
  9 39  1  0  0  0
 10 11  1  0  0  0
 11 32  1  0  0  0
 11 12  1  0  0  0
 12 13  1  0  0  0
 13 17  2  0  0  0
 13 14  1  0  0  0
 14 15  2  0  0  0
 14 40  1  0  0  0
 15 16  1  0  0  0
 15 18  1  0  0  0
 16 33  1  0  0  0
 16 17  1  0  0  0
 17 41  1  0  0  0
 18 19  2  0  0  0
 18 20  1  0  0  0
 20 21  1  0  0  0
 20 42  1  0  0  0
 21 34  1  0  0  0
 21 22  1  0  0  0
 21 24  1  0  0  0
 22 23  1  0  0  0
 22 43  1  0  0  0
 22 44  1  0  0  0
 23 45  1  0  0  0
 24 29  1  0  0  0
 24 25  2  0  0  0
 25 26  1  0  0  0
 25 46  1  0  0  0
 26 27  2  0  0  0
 26 47  1  0  0  0
 27 28  1  0  0  0
 27 31  1  0  0  0
 28 29  2  0  0  0
 28 30  1  0  0  0
 29 48  1  0  0  0
M  END
> <s_m_entry_id>
12629

> <s_m_entry_name>
ligand_docking-pose.15

> <s_m_Source_Path>
/home/csk/Desktop/cluster/DUD-E-result/mk01

> <s_m_Source_File>
ligand_docking-pose.sdf

> <i_m_Source_File_Index>
15

> <i_lp_mmshare_version>
53161

> <r_lp_tautomer_probability>
0.5

> <s_lp_Force_Field>
OPLS_2005

> <r_lp_Energy>
14.063919

> <b_lp_Chiralities_Consistent>
1

> <s_lp_Variant>
370076-1

> <s_i_glide_gridfile>
glide-grid_2ojg

> <i_i_glide_lignum>
18

> <i_i_glide_rotatable_bonds>
8

> <r_i_docking_score>
-7.2618219432685

> <r_i_glide_ligand_efficiency>
-0.234252320750597

> <r_i_glide_ligand_efficiency_sa>
-0.735875707341379

> <r_i_glide_ligand_efficiency_ln>
-1.63776339632259

> <r_i_glide_gscore>
-7.2618219432685

> <r_i_glide_lipo>
-3.10664729831232

> <r_i_glide_hbond>
-0.489903351295581

> <r_i_glide_metal>
0

> <r_i_glide_rewards>
-0.436658528379636

> <r_i_glide_evdw>
-43.3451728820801

> <r_i_glide_ecoul>
-10.6902647018433

> <r_i_glide_erotb>
0.572237669973275

> <r_i_glide_esite>
-0.030052085873753

> <r_i_glide_emodel>
-75.9288346452495

> <r_i_glide_energy>
-54.0354375839233

> <r_i_glide_einternal>
5.68954086303711

> <i_i_glide_confnum>
7

> <i_i_glide_posenum>
199

> <r_i_glide_eff_state_penalty>
0

> <i_f3d_flags>
0

> <s_user_duplicate_titles>
370076,370070

> <s_m_subgroup_title>
dock_pv

> <s_m_subgroupid>
dock_pv1

> <b_m_subgroup_collapsed>
0

$$$$
370040
                    3D
 Schrodinger Suite 2021-1.
 48 51  0  0  1  0            999 V2000
  -17.3352   12.7658   42.8171 C   0  0  0  0  0  0
  -16.3959   12.3251   41.8806 C   0  0  0  0  0  0
  -15.2623   13.1002   41.6054 C   0  0  0  0  0  0
  -15.1446   14.3598   42.1790 C   0  0  0  0  0  0
  -16.0586   14.7842   43.1286 C   0  0  0  0  0  0
  -17.1518   13.9865   43.4682 C   0  0  0  0  0  0
  -15.7760   16.2942   43.8800 Cl  0  0  0  0  0  0
  -14.1799   12.6301   40.7103 C   0  0  0  0  0  0
  -14.3916   11.9144   39.5505 C   0  0  0  0  0  0
  -13.1611   11.7750   38.9972 N   0  0  0  0  0  0
  -12.1761   12.2480   39.7456 N   0  0  0  0  0  0
  -12.7632   12.7954   40.7845 C   0  0  0  0  0  0
  -11.9068   13.4543   41.7842 C   0  0  0  0  0  0
  -10.5501   13.8019   41.6255 C   0  0  0  0  0  0
  -10.0707   14.4044   42.7847 C   0  0  0  0  0  0
  -11.1093   14.3651   43.6816 N   0  0  0  0  0  0
  -12.2147   13.8409   43.0800 C   0  0  0  0  0  0
   -8.7588   14.9195   43.0528 C   0  0  0  0  0  0
   -7.8005   14.6139   42.3452 O   0  0  0  0  0  0
   -8.7214   15.7750   44.0873 N   0  0  0  0  0  0
   -7.6206   16.5673   44.6483 C   0  0  1  0  0  0
   -6.3845   16.8055   43.7279 C   0  0  0  0  0  0
   -5.4214   15.7750   43.8800 O   0  0  0  0  0  0
   -8.1309   17.8781   45.2847 C   0  0  0  0  0  0
   -9.4384   18.3513   45.0800 C   0  0  0  0  0  0
   -9.8960   19.4837   45.7474 C   0  0  0  0  0  0
   -9.0538   20.1530   46.6301 C   0  0  0  0  0  0
   -7.7511   19.7075   46.8352 C   0  0  0  0  0  0
   -7.2946   18.5763   46.1639 C   0  0  0  0  0  0
   -9.6300   21.5399   47.4799 Cl  0  0  0  0  0  0
  -12.9760   11.2211   38.1631 H   0  0  0  0  0  0
  -11.0664   14.6590   44.6484 H   0  0  0  0  0  0
  -18.1901   12.1536   43.0601 H   0  0  0  0  0  0
  -16.5221   11.3582   41.4148 H   0  0  0  0  0  0
  -14.3104   14.9978   41.9257 H   0  0  0  0  0  0
  -17.8638   14.3136   44.2119 H   0  0  0  0  0  0
  -15.2779   11.5266   39.0692 H   0  0  0  0  0  0
   -9.9663   13.6430   40.7308 H   0  0  0  0  0  0
  -13.1250   13.7750   43.6518 H   0  0  0  0  0  0
   -9.5343   15.7575   44.6800 H   0  0  0  0  0  0
   -7.2887   15.9493   45.4800 H   0  0  0  0  0  0
   -6.6646   16.8866   42.6800 H   0  0  0  0  0  0
   -5.8863   17.7458   43.9640 H   0  0  0  0  0  0
   -5.7191   14.9571   43.4411 H   0  0  0  0  0  0
  -10.1193   17.8501   44.4074 H   0  0  0  0  0  0
  -10.9048   19.8351   45.5850 H   0  0  0  0  0  0
   -7.1008   20.2352   47.5177 H   0  0  0  0  0  0
   -6.2860   18.2403   46.3376 H   0  0  0  0  0  0
  1  6  1  0  0  0
  1  2  2  0  0  0
  1 33  1  0  0  0
  2  3  1  0  0  0
  2 34  1  0  0  0
  3  4  2  0  0  0
  3  8  1  0  0  0
  4  5  1  0  0  0
  4 35  1  0  0  0
  5  6  2  0  0  0
  5  7  1  0  0  0
  6 36  1  0  0  0
  8  9  2  0  0  0
  8 12  1  0  0  0
  9 10  1  0  0  0
  9 37  1  0  0  0
 10 11  1  0  0  0
 10 31  1  0  0  0
 11 12  2  0  0  0
 12 13  1  0  0  0
 13 17  2  0  0  0
 13 14  1  0  0  0
 14 15  2  0  0  0
 14 38  1  0  0  0
 15 16  1  0  0  0
 15 18  1  0  0  0
 16 32  1  0  0  0
 16 17  1  0  0  0
 17 39  1  0  0  0
 18 19  2  0  0  0
 18 20  1  0  0  0
 20 21  1  0  0  0
 20 40  1  0  0  0
 21 22  1  0  0  0
 21 24  1  0  0  0
 21 41  1  0  0  0
 22 23  1  0  0  0
 22 42  1  0  0  0
 22 43  1  0  0  0
 23 44  1  0  0  0
 24 29  1  0  0  0
 24 25  2  0  0  0
 25 26  1  0  0  0
 25 45  1  0  0  0
 26 27  2  0  0  0
 26 46  1  0  0  0
 27 28  1  0  0  0
 27 30  1  0  0  0
 28 29  2  0  0  0
 28 47  1  0  0  0
 29 48  1  0  0  0
M  END
> <s_m_entry_id>
12630

> <s_m_entry_name>
ligand_docking-pose.16

> <s_m_Source_Path>
/home/csk/Desktop/cluster/DUD-E-result/mk01

> <s_m_Source_File>
ligand_docking-pose.sdf

> <i_m_Source_File_Index>
16

> <i_lp_mmshare_version>
53161

> <r_lp_tautomer_probability>
0.5

> <s_lp_Force_Field>
OPLS_2005

> <r_lp_Energy>
19.96765

> <b_lp_Chiralities_Consistent>
1

> <s_lp_Variant>
370040-4

> <s_i_glide_gridfile>
glide-grid_2ojg

> <i_i_glide_lignum>
42

> <i_i_glide_rotatable_bonds>
8

> <r_i_docking_score>
-7.22228945444765

> <r_i_glide_ligand_efficiency>
-0.240742981814922

> <r_i_glide_ligand_efficiency_sa>
-0.748044417827501

> <r_i_glide_ligand_efficiency_ln>
-1.64098285719694

> <r_i_glide_gscore>
-7.22228945444765

> <r_i_glide_lipo>
-2.75961250785828

> <r_i_glide_hbond>
-0.460721068170172

> <r_i_glide_metal>
0

> <r_i_glide_rewards>
-0.958496837464927

> <r_i_glide_evdw>
-40.8419876098633

> <r_i_glide_ecoul>
-9.58704280853271

> <r_i_glide_erotb>
0.61535924643462

> <r_i_glide_esite>
-0.178662485615821

> <r_i_glide_emodel>
-69.6666957051169

> <r_i_glide_energy>
-50.429030418396

> <r_i_glide_einternal>
10.5455379486084

> <i_i_glide_confnum>
4

> <i_i_glide_posenum>
318

> <r_i_glide_eff_state_penalty>
0

> <i_f3d_flags>
0

> <s_user_duplicate_titles>
370040

> <s_m_subgroup_title>
dock_pv

> <s_m_subgroupid>
dock_pv1

> <b_m_subgroup_collapsed>
0

$$$$
494338
                    3D
 Schrodinger Suite 2021-1.
 34 36  0  0  1  0            999 V2000
  -16.1797   11.7461   40.8695 C   0  0  0  0  0  0
  -17.5326   11.6634   41.1890 C   0  0  0  0  0  0
  -18.1071   12.4026   42.1688 N   0  0  0  0  0  0
  -17.2798   13.2310   42.8471 C   0  0  0  0  0  0
  -15.9577   13.3983   42.6163 N   0  0  0  0  0  0
  -15.4138   12.6356   41.6274 C   0  0  0  0  0  0
  -13.9475   12.7589   41.4276 C   0  0  0  0  0  0
  -13.0609   11.9688   40.6964 C   0  0  0  0  0  0
  -11.7567   12.4527   40.8678 C   0  0  0  0  0  0
  -11.8712   13.5515   41.7085 C   0  0  0  0  0  0
  -13.1845   13.7236   42.0402 N   0  0  0  0  0  0
  -10.7043   14.3975   42.1618 C   0  0  2  0  0  0
   -9.6001   14.1745   41.0817 C   0  0  0  0  0  0
   -9.4620   12.7534   40.6835 N   0  0  0  0  0  0
  -10.4953   11.9140   40.4138 C   0  0  0  0  0  0
  -10.2740   10.8251   39.8850 O   0  0  0  0  0  0
  -10.2514   14.1112   43.6132 C   0  0  0  0  0  0
   -9.3757   15.2281   44.2075 C   0  0  0  0  0  0
   -9.9833   16.4113   44.2815 F   0  0  0  0  0  0
  -17.8374   13.9527   43.8873 N   0  0  0  0  0  0
  -13.5414   14.4371   42.6600 H   0  0  0  0  0  0
  -11.0127   15.4418   42.1102 H   0  0  0  0  0  0
  -15.7509   11.1263   40.0956 H   0  0  0  0  0  0
  -18.1753   10.9716   40.6813 H   0  0  0  0  0  0
  -13.3277   11.0974   40.1154 H   0  0  0  0  0  0
   -9.8667   14.7286   40.1833 H   0  0  0  0  0  0
   -8.6362   14.5682   41.4094 H   0  0  0  0  0  0
   -8.5387   12.3463   40.6811 H   0  0  0  0  0  0
  -11.1137   13.9945   44.2768 H   0  0  0  0  0  0
   -9.7181   13.1605   43.6551 H   0  0  0  0  0  0
   -9.0650   14.9750   45.2215 H   0  0  0  0  0  0
   -8.4637   15.3741   43.6264 H   0  0  0  0  0  0
  -17.1999   14.3539   44.5586 H   0  0  0  0  0  0
  -18.7725   13.6830   44.1613 H   0  0  0  0  0  0
  1  6  1  0  0  0
  1  2  2  0  0  0
  1 23  1  0  0  0
  2  3  1  0  0  0
  2 24  1  0  0  0
  3  4  2  0  0  0
  4  5  1  0  0  0
  4 20  1  0  0  0
  5  6  2  0  0  0
  6  7  1  0  0  0
  7 11  1  0  0  0
  7  8  2  0  0  0
  8  9  1  0  0  0
  8 25  1  0  0  0
  9 15  1  0  0  0
  9 10  2  0  0  0
 10 11  1  0  0  0
 10 12  1  0  0  0
 11 21  1  0  0  0
 12 22  1  0  0  0
 12 13  1  0  0  0
 12 17  1  0  0  0
 13 14  1  0  0  0
 13 26  1  0  0  0
 13 27  1  0  0  0
 14 15  1  0  0  0
 14 28  1  0  0  0
 15 16  2  0  0  0
 17 18  1  0  0  0
 17 29  1  0  0  0
 17 30  1  0  0  0
 18 19  1  0  0  0
 18 31  1  0  0  0
 18 32  1  0  0  0
 20 33  1  0  0  0
 20 34  1  0  0  0
M  END
> <s_m_entry_id>
12632

> <s_m_entry_name>
ligand_docking-pose.18

> <s_m_Source_Path>
/home/csk/Desktop/cluster/DUD-E-result/mk01

> <s_m_Source_File>
ligand_docking-pose.sdf

> <i_m_Source_File_Index>
18

> <i_lp_mmshare_version>
53161

> <r_lp_tautomer_probability>
0.999999987636

> <s_lp_Force_Field>
OPLS_2005

> <r_lp_Energy>
7.168503

> <b_lp_Chiralities_Consistent>
1

> <s_lp_Variant>
494338-1

> <s_i_glide_gridfile>
glide-grid_2ojg

> <i_i_glide_lignum>
131

> <i_i_glide_rotatable_bonds>
3

> <r_i_docking_score>
-6.99011928000408

> <r_i_glide_ligand_efficiency>
-0.349505964000204

> <r_i_glide_ligand_efficiency_sa>
-0.948705144839784

> <r_i_glide_ligand_efficiency_ln>
-1.74939630622117

> <r_i_glide_gscore>
-6.99011928000408

> <r_i_glide_lipo>
-2.16222861722685

> <r_i_glide_hbond>
-0.187397664456147

> <r_i_glide_metal>
0

> <r_i_glide_rewards>
-2.04268629803332

> <r_i_glide_evdw>
-37.3756141662598

> <r_i_glide_ecoul>
-7.45423698425293

> <r_i_glide_erotb>
0.474309393586135

> <r_i_glide_esite>
-0.0851998379229658

> <r_i_glide_emodel>
-61.9254341227615

> <r_i_glide_energy>
-44.8298511505127

> <r_i_glide_einternal>
1.49935531616211

> <i_i_glide_confnum>
1

> <i_i_glide_posenum>
329

> <r_i_glide_eff_state_penalty>
0

> <i_f3d_flags>
0

> <s_user_duplicate_titles>
494338

> <s_m_subgroup_title>
dock_pv

> <s_m_subgroupid>
dock_pv1

> <b_m_subgroup_collapsed>
0

$$$$
370055
                    3D
 Schrodinger Suite 2021-1.
 46 49  0  0  1  0            999 V2000
  -16.4736   14.9743   44.8734 C   0  0  0  0  0  0
  -16.8757   13.8860   44.1076 C   0  0  0  0  0  0
  -16.5037   13.8269   42.7628 C   0  0  0  0  0  0
  -15.8177   14.8709   42.1614 C   0  0  0  0  0  0
  -15.4293   15.9466   42.9280 C   0  0  0  0  0  0
  -15.7289   15.9945   44.2801 C   0  0  0  0  0  0
  -14.5759   17.2034   42.1775 Cl  0  0  0  0  0  0
  -16.7871   12.6609   41.9466 C   0  0  0  0  0  0
  -18.0040   12.0236   41.8801 C   0  0  0  0  0  0
  -17.7758   10.9750   41.0578 N   0  0  0  0  0  0
  -16.5571   10.9637   40.5295 N   0  0  0  0  0  0
  -15.9198   11.9614   41.0796 C   0  0  0  0  0  0
  -14.5064   12.1752   40.7349 C   0  0  0  0  0  0
  -13.4743   12.8047   41.4651 C   0  0  0  0  0  0
  -12.2738   12.7184   40.7475 C   0  0  0  0  0  0
  -12.5748   12.0081   39.6124 N   0  0  0  0  0  0
  -13.9029   11.7012   39.5780 C   0  0  0  0  0  0
  -10.9335   13.1575   41.0441 C   0  0  0  0  0  0
   -9.9882   12.7973   40.3368 O   0  0  0  0  0  0
  -10.8000   13.9577   42.1177 N   0  0  0  0  0  0
   -9.5047   14.4717   42.5731 C   0  0  0  0  0  0
   -9.4420   14.8567   44.0621 C   0  0  0  0  0  0
  -10.1625   16.1417   44.4523 C   0  0  0  0  0  0
  -11.5463   16.1750   44.6552 C   0  0  0  0  0  0
  -12.1541   17.3652   45.0597 C   0  0  0  0  0  0
  -11.3560   18.4937   45.2497 C   0  0  0  0  0  0
  -10.0113   18.4833   45.0707 N   0  0  0  0  0  0
   -9.4373   17.3169   44.6801 C   0  0  0  0  0  0
  -18.4453   10.2636   40.7995 H   0  0  0  0  0  0
  -11.9041   11.7324   38.9103 H   0  0  0  0  0  0
  -16.6924   14.9999   45.9312 H   0  0  0  0  0  0
  -17.4148   13.0704   44.5693 H   0  0  0  0  0  0
  -15.5588   14.8350   41.1125 H   0  0  0  0  0  0
  -15.3749   16.8176   44.8812 H   0  0  0  0  0  0
  -18.9640   12.2036   42.3384 H   0  0  0  0  0  0
  -13.5939   13.2613   42.4371 H   0  0  0  0  0  0
  -14.3012   11.1318   38.7495 H   0  0  0  0  0  0
  -11.6244   14.3004   42.5850 H   0  0  0  0  0  0
   -9.3079   15.3661   41.9843 H   0  0  0  0  0  0
   -8.6707   13.8046   42.3406 H   0  0  0  0  0  0
   -8.3926   14.9753   44.3325 H   0  0  0  0  0  0
   -9.7771   14.0236   44.6798 H   0  0  0  0  0  0
  -12.1434   15.2832   44.5283 H   0  0  0  0  0  0
  -13.2166   17.4026   45.2410 H   0  0  0  0  0  0
  -11.7912   19.4309   45.5633 H   0  0  0  0  0  0
   -8.3655   17.3376   44.5512 H   0  0  0  0  0  0
  1  6  1  0  0  0
  1  2  2  0  0  0
  1 31  1  0  0  0
  2  3  1  0  0  0
  2 32  1  0  0  0
  3  4  2  0  0  0
  3  8  1  0  0  0
  4  5  1  0  0  0
  4 33  1  0  0  0
  5  6  2  0  0  0
  5  7  1  0  0  0
  6 34  1  0  0  0
  8  9  2  0  0  0
  8 12  1  0  0  0
  9 10  1  0  0  0
  9 35  1  0  0  0
 10 11  1  0  0  0
 10 29  1  0  0  0
 11 12  2  0  0  0
 12 13  1  0  0  0
 13 17  2  0  0  0
 13 14  1  0  0  0
 14 15  2  0  0  0
 14 36  1  0  0  0
 15 16  1  0  0  0
 15 18  1  0  0  0
 16 30  1  0  0  0
 16 17  1  0  0  0
 17 37  1  0  0  0
 18 19  2  0  0  0
 18 20  1  0  0  0
 20 21  1  0  0  0
 20 38  1  0  0  0
 21 22  1  0  0  0
 21 39  1  0  0  0
 21 40  1  0  0  0
 22 23  1  0  0  0
 22 41  1  0  0  0
 22 42  1  0  0  0
 23 28  1  0  0  0
 23 24  2  0  0  0
 24 25  1  0  0  0
 24 43  1  0  0  0
 25 26  2  0  0  0
 25 44  1  0  0  0
 26 27  1  0  0  0
 26 45  1  0  0  0
 27 28  2  0  0  0
 28 46  1  0  0  0
M  END
> <s_m_entry_id>
12633

> <s_m_entry_name>
ligand_docking-pose.19

> <s_m_Source_Path>
/home/csk/Desktop/cluster/DUD-E-result/mk01

> <s_m_Source_File>
ligand_docking-pose.sdf

> <i_m_Source_File_Index>
19

> <i_lp_mmshare_version>
53161

> <r_lp_tautomer_probability>
0.5

> <s_lp_Force_Field>
OPLS_2005

> <r_lp_Energy>
13.011729

> <b_lp_Chiralities_Consistent>
1

> <s_lp_Variant>
370055-2

> <s_i_glide_gridfile>
glide-grid_2ojg

> <i_i_glide_lignum>
98

> <i_i_glide_rotatable_bonds>
7

> <r_i_docking_score>
-6.91857711098072

> <r_i_glide_ligand_efficiency>
-0.247092039677883

> <r_i_glide_ligand_efficiency_sa>
-0.75031696189072

> <r_i_glide_ligand_efficiency_ln>
-1.59701073546524

> <r_i_glide_gscore>
-6.91857711098072

> <r_i_glide_lipo>
-3.05603789235045

> <r_i_glide_hbond>
-0.146029778157656

> <r_i_glide_metal>
0

> <r_i_glide_rewards>
-1.52317123931293

> <r_i_glide_evdw>
-43.719295501709

> <r_i_glide_ecoul>
-5.13387727737427

> <r_i_glide_erotb>
0.762708165531902

> <r_i_glide_esite>
0

> <r_i_glide_emodel>
-63.1625160628887

> <r_i_glide_energy>
-48.8531727790833

> <r_i_glide_einternal>
4.98409795761108

> <i_i_glide_confnum>
28

> <i_i_glide_posenum>
16

> <r_i_glide_eff_state_penalty>
0

> <i_f3d_flags>
0

> <s_user_duplicate_titles>
370055

> <s_m_subgroup_title>
dock_pv

> <s_m_subgroupid>
dock_pv1

> <b_m_subgroup_collapsed>
0

$$$$
370057
                    3D
 Schrodinger Suite 2021-1.
 48 51  0  0  1  0            999 V2000
  -17.3761   13.4763   44.2267 C   0  0  0  0  0  0
  -16.9767   12.6696   43.1615 C   0  0  0  0  0  0
  -16.0530   13.1402   42.2219 C   0  0  0  0  0  0
  -15.5930   14.4536   42.3154 C   0  0  0  0  0  0
  -15.9831   15.2603   43.3808 C   0  0  0  0  0  0
  -16.8621   14.7667   44.3476 C   0  0  0  0  0  0
  -15.3755   16.8686   43.4800 Cl  0  0  0  0  0  0
  -15.5888   12.2519   41.1262 C   0  0  0  0  0  0
  -16.4098   11.3736   40.4071 C   0  0  0  0  0  0
  -15.7756   10.7086   39.4799 N   0  0  0  0  0  0
  -14.5217   11.1347   39.5851 N   0  0  0  0  0  0
  -14.3087   12.0448   40.5931 C   0  0  0  0  0  0
  -12.9474   12.5017   40.9004 C   0  0  0  0  0  0
  -12.4865   13.4087   41.8803 C   0  0  0  0  0  0
  -11.0939   13.4882   41.8235 C   0  0  0  0  0  0
  -10.7068   12.5943   40.8608 N   0  0  0  0  0  0
  -11.8009   12.0165   40.2804 C   0  0  0  0  0  0
  -10.1303   14.1667   42.6431 C   0  0  0  0  0  0
   -8.9759   13.7590   42.6800 O   0  0  0  0  0  0
  -10.5564   15.2520   43.3135 N   0  0  0  0  0  0
   -9.7479   16.0704   44.2498 C   0  0  1  0  0  0
   -8.2641   16.3400   43.7891 C   0  0  0  0  0  0
   -7.3167   15.7751   44.6793 O   0  0  0  0  0  0
  -10.4498   17.3800   44.6804 C   0  0  0  0  0  0
   -9.7573   18.3035   45.4801 C   0  0  0  0  0  0
  -10.3496   19.4991   45.8836 C   0  0  0  0  0  0
  -11.6509   19.7968   45.4886 C   0  0  0  0  0  0
  -12.3588   18.8970   44.6964 C   0  0  0  0  0  0
  -11.7670   17.6959   44.3007 C   0  0  0  0  0  0
  -13.6187   19.1978   44.3080 F   0  0  0  0  0  0
  -13.7938   10.7676   38.9863 H   0  0  0  0  0  0
   -9.7413   12.3812   40.6525 H   0  0  0  0  0  0
  -18.0692   13.0937   44.9634 H   0  0  0  0  0  0
  -17.3701   11.6680   43.0797 H   0  0  0  0  0  0
  -14.9212   14.8453   41.5659 H   0  0  0  0  0  0
  -17.1512   15.3730   45.1904 H   0  0  0  0  0  0
  -17.4689   11.2294   40.5597 H   0  0  0  0  0  0
  -13.0976   13.9302   42.5989 H   0  0  0  0  0  0
  -11.6760   11.2731   39.5070 H   0  0  0  0  0  0
  -11.5532   15.3821   43.3712 H   0  0  0  0  0  0
   -9.7157   15.4643   45.1589 H   0  0  0  0  0  0
   -8.0464   15.9657   42.7913 H   0  0  0  0  0  0
   -8.0430   17.4040   43.7144 H   0  0  0  0  0  0
   -7.3781   14.8052   44.6339 H   0  0  0  0  0  0
   -8.7492   18.0931   45.8062 H   0  0  0  0  0  0
   -9.7999   20.1958   46.4989 H   0  0  0  0  0  0
  -12.1115   20.7252   45.7913 H   0  0  0  0  0  0
  -12.3482   17.0315   43.6812 H   0  0  0  0  0  0
  1  6  1  0  0  0
  1  2  2  0  0  0
  1 33  1  0  0  0
  2  3  1  0  0  0
  2 34  1  0  0  0
  3  4  2  0  0  0
  3  8  1  0  0  0
  4  5  1  0  0  0
  4 35  1  0  0  0
  5  6  2  0  0  0
  5  7  1  0  0  0
  6 36  1  0  0  0
  8 12  2  0  0  0
  8  9  1  0  0  0
  9 10  2  0  0  0
  9 37  1  0  0  0
 10 11  1  0  0  0
 11 31  1  0  0  0
 11 12  1  0  0  0
 12 13  1  0  0  0
 13 17  2  0  0  0
 13 14  1  0  0  0
 14 15  2  0  0  0
 14 38  1  0  0  0
 15 16  1  0  0  0
 15 18  1  0  0  0
 16 32  1  0  0  0
 16 17  1  0  0  0
 17 39  1  0  0  0
 18 19  2  0  0  0
 18 20  1  0  0  0
 20 21  1  0  0  0
 20 40  1  0  0  0
 21 22  1  0  0  0
 21 24  1  0  0  0
 21 41  1  0  0  0
 22 23  1  0  0  0
 22 42  1  0  0  0
 22 43  1  0  0  0
 23 44  1  0  0  0
 24 29  1  0  0  0
 24 25  2  0  0  0
 25 26  1  0  0  0
 25 45  1  0  0  0
 26 27  2  0  0  0
 26 46  1  0  0  0
 27 28  1  0  0  0
 27 47  1  0  0  0
 28 29  2  0  0  0
 28 30  1  0  0  0
 29 48  1  0  0  0
M  END
> <s_m_entry_id>
12634

> <s_m_entry_name>
ligand_docking-pose.20

> <s_m_Source_Path>
/home/csk/Desktop/cluster/DUD-E-result/mk01

> <s_m_Source_File>
ligand_docking-pose.sdf

> <i_m_Source_File_Index>
20

> <i_lp_mmshare_version>
53161

> <r_lp_tautomer_probability>
0.5

> <s_lp_Force_Field>
OPLS_2005

> <r_lp_Energy>
15.804492

> <b_lp_Chiralities_Consistent>
1

> <s_lp_Variant>
370057-2

> <s_i_glide_gridfile>
glide-grid_2ojg

> <i_i_glide_lignum>
49

> <i_i_glide_rotatable_bonds>
8

> <r_i_docking_score>
-6.90863446634158

> <r_i_glide_ligand_efficiency>
-0.230287815544719

> <r_i_glide_ligand_efficiency_sa>
-0.715557785374407

> <r_i_glide_ligand_efficiency_ln>
-1.56971702635442

> <r_i_glide_gscore>
-6.90863446634158

> <r_i_glide_lipo>
-3.00291304561102

> <r_i_glide_hbond>
-0.171481166822215

> <r_i_glide_metal>
0

> <r_i_glide_rewards>
-1.15624108347918

> <r_i_glide_evdw>
-50.836238861084

> <r_i_glide_ecoul>
-4.42660617828369

> <r_i_glide_erotb>
0.659230389808806

> <r_i_glide_esite>
-0.0314266904412123

> <r_i_glide_emodel>
-71.4482459442147

> <r_i_glide_energy>
-55.2628450393677

> <r_i_glide_einternal>
13.8826246261597

> <i_i_glide_confnum>
20

> <i_i_glide_posenum>
363

> <r_i_glide_eff_state_penalty>
0

> <i_f3d_flags>
0

> <s_user_duplicate_titles>
370057

> <s_m_subgroup_title>
dock_pv

> <s_m_subgroupid>
dock_pv1

> <b_m_subgroup_collapsed>
0

$$$$
370049
                    3D
 Schrodinger Suite 2021-1.
 48 51  0  0  1  0            999 V2000
   -9.6691   17.6662   45.0286 C   0  0  0  0  0  0
  -11.0322   17.7750   45.2834 C   0  0  0  0  0  0
  -11.8832   16.7420   44.9065 C   0  0  0  0  0  0
  -11.3917   15.6320   44.2213 C   0  0  0  0  0  0
  -10.0257   15.5321   43.8801 C   0  0  0  0  0  0
   -9.1722   16.5505   44.3530 C   0  0  0  0  0  0
   -9.5000   14.3782   42.9710 C   0  0  2  0  0  0
   -8.0819   14.6860   42.3628 C   0  0  0  0  0  0
   -7.7867   14.1750   41.0800 O   0  0  0  0  0  0
  -10.5427   13.9600   42.0074 N   0  0  0  0  0  0
  -10.5664   12.9280   41.1426 C   0  0  0  0  0  0
   -9.5917   12.2739   40.7704 O   0  0  0  0  0  0
  -11.8786   12.5749   40.6980 C   0  0  0  0  0  0
  -13.1240   12.7459   41.3068 C   0  0  0  0  0  0
  -14.1081   12.1089   40.5352 C   0  0  0  0  0  0
  -13.4387   11.5386   39.4801 C   0  0  0  0  0  0
  -12.1053   11.7750   39.6103 N   0  0  0  0  0  0
  -15.5226   11.9531   40.7712 C   0  0  0  0  0  0
  -16.3941   12.7940   41.4831 C   0  0  0  0  0  0
  -17.6101   12.1273   41.4805 C   0  0  0  0  0  0
  -17.3760   10.9750   40.7945 N   0  0  0  0  0  0
  -16.1409   10.8869   40.3201 N   0  0  0  0  0  0
  -16.0789   14.0506   42.1858 C   0  0  0  0  0  0
  -15.2575   15.0594   41.6706 C   0  0  0  0  0  0
  -14.9174   16.1608   42.4567 C   0  0  0  0  0  0
  -15.4167   16.2600   43.7543 C   0  0  0  0  0  0
  -16.2716   15.2685   44.2371 C   0  0  0  0  0  0
  -16.5960   14.1719   43.4659 C   0  0  0  0  0  0
  -16.9760   15.3513   45.7836 Cl  0  0  0  0  0  0
  -12.2722   14.6643   43.8800 F   0  0  0  0  0  0
  -11.3910   11.3996   39.0053 H   0  0  0  0  0  0
  -18.0453   10.2340   40.6274 H   0  0  0  0  0  0
   -8.9966   18.4462   45.3531 H   0  0  0  0  0  0
  -11.4229   18.6346   45.8078 H   0  0  0  0  0  0
  -12.9338   16.7942   45.1484 H   0  0  0  0  0  0
   -8.1057   16.5116   44.1998 H   0  0  0  0  0  0
   -9.3802   13.5177   43.6349 H   0  0  0  0  0  0
   -7.8875   15.7496   42.2800 H   0  0  0  0  0  0
   -7.3301   14.2943   43.0465 H   0  0  0  0  0  0
   -8.2624   13.3360   40.9876 H   0  0  0  0  0  0
  -11.4518   14.3383   42.2319 H   0  0  0  0  0  0
  -13.3069   13.2472   42.2452 H   0  0  0  0  0  0
  -13.8116   10.9265   38.6800 H   0  0  0  0  0  0
  -18.5713   12.3475   41.9238 H   0  0  0  0  0  0
  -14.8479   14.9674   40.6801 H   0  0  0  0  0  0
  -14.2543   16.9206   42.0712 H   0  0  0  0  0  0
  -15.1441   17.0975   44.3784 H   0  0  0  0  0  0
  -17.2320   13.4024   43.8813 H   0  0  0  0  0  0
  1  6  1  0  0  0
  1  2  2  0  0  0
  1 33  1  0  0  0
  2  3  1  0  0  0
  2 34  1  0  0  0
  3  4  2  0  0  0
  3 35  1  0  0  0
  4  5  1  0  0  0
  4 30  1  0  0  0
  5  6  2  0  0  0
  5  7  1  0  0  0
  6 36  1  0  0  0
  7  8  1  0  0  0
  7 10  1  0  0  0
  7 37  1  0  0  0
  8  9  1  0  0  0
  8 38  1  0  0  0
  8 39  1  0  0  0
  9 40  1  0  0  0
 10 11  1  0  0  0
 10 41  1  0  0  0
 11 12  2  0  0  0
 11 13  1  0  0  0
 13 17  1  0  0  0
 13 14  2  0  0  0
 14 15  1  0  0  0
 14 42  1  0  0  0
 15 16  2  0  0  0
 15 18  1  0  0  0
 16 17  1  0  0  0
 16 43  1  0  0  0
 17 31  1  0  0  0
 18 22  2  0  0  0
 18 19  1  0  0  0
 19 20  2  0  0  0
 19 23  1  0  0  0
 20 21  1  0  0  0
 20 44  1  0  0  0
 21 22  1  0  0  0
 21 32  1  0  0  0
 23 28  1  0  0  0
 23 24  2  0  0  0
 24 25  1  0  0  0
 24 45  1  0  0  0
 25 26  2  0  0  0
 25 46  1  0  0  0
 26 27  1  0  0  0
 26 47  1  0  0  0
 27 28  2  0  0  0
 27 29  1  0  0  0
 28 48  1  0  0  0
M  END
> <s_m_entry_id>
12635

> <s_m_entry_name>
ligand_docking-pose.21

> <s_m_Source_Path>
/home/csk/Desktop/cluster/DUD-E-result/mk01

> <s_m_Source_File>
ligand_docking-pose.sdf

> <i_m_Source_File_Index>
21

> <i_lp_mmshare_version>
53161

> <r_lp_tautomer_probability>
0.5

> <s_lp_Force_Field>
OPLS_2005

> <r_lp_Energy>
19.262154

> <b_lp_Chiralities_Consistent>
1

> <s_lp_Variant>
370049-3

> <s_i_glide_gridfile>
glide-grid_2ojg

> <i_i_glide_lignum>
90

> <i_i_glide_rotatable_bonds>
8

> <r_i_docking_score>
-6.88490598842516

> <r_i_glide_ligand_efficiency>
-0.229496866280839

> <r_i_glide_ligand_efficiency_sa>
-0.713100122113903

> <r_i_glide_ligand_efficiency_ln>
-1.56432565762934

> <r_i_glide_gscore>
-6.88490598842516

> <r_i_glide_lipo>
-2.91167766053237

> <r_i_glide_hbond>
-0.215211870026493

> <r_i_glide_metal>
0

> <r_i_glide_rewards>
-1.74727746568342

> <r_i_glide_evdw>
-36.2379302978516

> <r_i_glide_ecoul>
-5.65930032730103

> <r_i_glide_erotb>
0.659230389808806

> <r_i_glide_esite>
-0.00917781800394899

> <r_i_glide_emodel>
-47.8649762801557

> <r_i_glide_energy>
-41.8972306251526

> <r_i_glide_einternal>
23.8687362670898

> <i_i_glide_confnum>
11

> <i_i_glide_posenum>
239

> <r_i_glide_eff_state_penalty>
0

> <i_f3d_flags>
0

> <s_user_duplicate_titles>
370049

> <s_m_subgroup_title>
dock_pv

> <s_m_subgroupid>
dock_pv1

> <b_m_subgroup_collapsed>
0

$$$$
574871
                    3D
 Schrodinger Suite 2021-1.
 54 57  0  0  1  0            999 V2000
  -11.5454   17.6098   44.7346 C   0  0  0  0  0  0
  -12.1341   16.4073   44.0161 C   0  0  0  0  0  0
  -13.5235   16.3217   43.8800 C   0  0  0  0  0  0
  -14.1375   15.3337   43.1875 N   0  0  0  0  0  0
  -13.3310   14.3928   42.6382 C   0  0  0  0  0  0
  -11.9828   14.3779   42.7264 N   0  0  0  0  0  0
  -11.3712   15.3801   43.4164 C   0  0  0  0  0  0
   -9.8701   15.2848   43.3560 C   0  0  0  0  0  0
   -8.8924   16.0484   44.0206 C   0  0  0  0  0  0
   -7.6212   15.7220   43.5575 C   0  0  0  0  0  0
   -7.7953   14.6801   42.6800 N   0  0  0  0  0  0
   -9.1296   14.3987   42.5694 C   0  0  0  0  0  0
   -6.3710   16.3232   43.9198 C   0  0  0  0  0  0
   -6.3481   17.2911   44.6800 O   0  0  0  0  0  0
   -5.2722   15.7940   43.3461 N   0  0  0  0  0  0
   -3.8750   16.2462   43.5073 C   0  0  1  0  0  0
   -2.9346   15.5453   42.5087 C   0  0  0  0  0  0
   -1.6468   15.3750   43.0800 O   0  0  0  0  0  0
   -3.5831   17.7611   43.5297 C   0  0  0  0  0  0
   -4.3859   18.6802   42.8421 C   0  0  0  0  0  0
   -4.1218   20.0449   42.9282 C   0  0  0  0  0  0
   -3.0411   20.4940   43.6819 C   0  0  0  0  0  0
   -2.2239   19.5905   44.3552 C   0  0  0  0  0  0
   -2.4967   18.2280   44.2800 C   0  0  0  0  0  0
  -13.8661   13.3488   41.8801 N   0  0  0  0  0  0
  -15.1651   12.8581   41.6978 C   0  0  0  0  0  0
  -15.3291   11.8947   40.7032 C   0  0  0  0  0  0
  -16.5760   11.3248   40.4911 C   0  0  0  0  0  0
  -17.6641   11.7276   41.2593 C   0  0  0  0  0  0
  -17.5130   12.6817   42.2595 C   0  0  0  0  0  0
  -16.2600   13.2438   42.4839 C   0  0  0  0  0  0
   -7.0472   14.1749   42.2228 H   0  0  0  0  0  0
   -3.6179   15.8472   44.4889 H   0  0  0  0  0  0
  -12.3077   18.3471   44.9887 H   0  0  0  0  0  0
  -11.0538   17.3037   45.6554 H   0  0  0  0  0  0
  -10.8185   18.1124   44.0965 H   0  0  0  0  0  0
  -14.1726   17.0597   44.3273 H   0  0  0  0  0  0
   -9.0745   16.8205   44.7492 H   0  0  0  0  0  0
   -9.4555   13.6046   41.9150 H   0  0  0  0  0  0
   -5.3515   14.8032   43.0800 H   0  0  0  0  0  0
   -3.3180   14.5750   42.2043 H   0  0  0  0  0  0
   -2.8474   16.1349   41.5943 H   0  0  0  0  0  0
   -1.7522   14.7654   43.8342 H   0  0  0  0  0  0
   -5.2247   18.3405   42.2528 H   0  0  0  0  0  0
   -4.7493   20.7533   42.4082 H   0  0  0  0  0  0
   -2.8337   21.5525   43.7428 H   0  0  0  0  0  0
   -1.3838   19.9452   44.9344 H   0  0  0  0  0  0
   -1.8566   17.5347   44.8076 H   0  0  0  0  0  0
  -13.1488   12.7638   41.4819 H   0  0  0  0  0  0
  -14.4929   11.5727   40.0991 H   0  0  0  0  0  0
  -16.6972   10.5697   39.7302 H   0  0  0  0  0  0
  -18.6302   11.2864   41.0802 H   0  0  0  0  0  0
  -18.3595   12.9750   42.8646 H   0  0  0  0  0  0
  -16.1603   13.9556   43.2863 H   0  0  0  0  0  0
  1  2  1  0  0  0
  1 34  1  0  0  0
  1 35  1  0  0  0
  1 36  1  0  0  0
  2  7  1  0  0  0
  2  3  2  0  0  0
  3  4  1  0  0  0
  3 37  1  0  0  0
  4  5  2  0  0  0
  5  6  1  0  0  0
  5 25  1  0  0  0
  6  7  2  0  0  0
  7  8  1  0  0  0
  8 12  2  0  0  0
  8  9  1  0  0  0
  9 10  2  0  0  0
  9 38  1  0  0  0
 10 11  1  0  0  0
 10 13  1  0  0  0
 11 32  1  0  0  0
 11 12  1  0  0  0
 12 39  1  0  0  0
 13 14  2  0  0  0
 13 15  1  0  0  0
 15 16  1  0  0  0
 15 40  1  0  0  0
 16 33  1  0  0  0
 16 17  1  0  0  0
 16 19  1  0  0  0
 17 18  1  0  0  0
 17 41  1  0  0  0
 17 42  1  0  0  0
 18 43  1  0  0  0
 19 24  1  0  0  0
 19 20  2  0  0  0
 20 21  1  0  0  0
 20 44  1  0  0  0
 21 22  2  0  0  0
 21 45  1  0  0  0
 22 23  1  0  0  0
 22 46  1  0  0  0
 23 24  2  0  0  0
 23 47  1  0  0  0
 24 48  1  0  0  0
 25 26  1  0  0  0
 25 49  1  0  0  0
 26 31  1  0  0  0
 26 27  2  0  0  0
 27 28  1  0  0  0
 27 50  1  0  0  0
 28 29  2  0  0  0
 28 51  1  0  0  0
 29 30  1  0  0  0
 29 52  1  0  0  0
 30 31  2  0  0  0
 30 53  1  0  0  0
 31 54  1  0  0  0
M  END
> <s_m_entry_id>
12636

> <s_m_entry_name>
ligand_docking-pose.22

> <s_m_Source_Path>
/home/csk/Desktop/cluster/DUD-E-result/mk01

> <s_m_Source_File>
ligand_docking-pose.sdf

> <i_m_Source_File_Index>
22

> <i_lp_mmshare_version>
53161

> <r_lp_tautomer_probability>
0.999999987636

> <s_lp_Force_Field>
OPLS_2005

> <r_lp_Energy>
12.7209

> <b_lp_Chiralities_Consistent>
1

> <s_lp_Variant>
574871-1

> <s_i_glide_gridfile>
glide-grid_2ojg

> <i_i_glide_lignum>
127

> <i_i_glide_rotatable_bonds>
9

> <r_i_docking_score>
-6.87949893484484

> <r_i_glide_ligand_efficiency>
-0.221919320478866

> <r_i_glide_ligand_efficiency_sa>
-0.697133058946172

> <r_i_glide_ligand_efficiency_ln>
-1.55153784112998

> <r_i_glide_gscore>
-6.87949893484484

> <r_i_glide_lipo>
-2.13675149359855

> <r_i_glide_hbond>
-0.537022797361836

> <r_i_glide_metal>
0

> <r_i_glide_rewards>
-0.861693038185602

> <r_i_glide_evdw>
-37.0845108032227

> <r_i_glide_ecoul>
-13.5161571502686

> <r_i_glide_erotb>
0.807796159945825

> <r_i_glide_esite>
-0.270178652943268

> <r_i_glide_emodel>
-71.523576644277

> <r_i_glide_energy>
-50.6006679534912

> <r_i_glide_einternal>
5.21006870269775

> <i_i_glide_confnum>
2

> <i_i_glide_posenum>
276

> <r_i_glide_eff_state_penalty>
0

> <i_f3d_flags>
0

> <s_user_duplicate_titles>
574871

> <s_m_subgroup_title>
dock_pv

> <s_m_subgroupid>
dock_pv1

> <b_m_subgroup_collapsed>
0

$$$$
