CHEMBL4016_lig3
                    3D
 Schrodinger Suite 2021-1.
 35 37  0  0  1  0            999 V2000
    5.7269   35.3032    1.0370 N   0  3  0  0  0  0
    4.8796   36.0457    0.5505 O   0  0  0  0  0  0
    6.0790   35.3440    2.2089 O   0  5  0  0  0  0
    6.4184   34.3557    0.1404 C   0  0  0  0  0  0
    6.5794   32.9876    0.4536 C   0  0  0  0  0  0
    7.2370   32.1261   -0.4257 C   0  0  0  0  0  0
    7.7448   32.6159   -1.6238 C   0  0  0  0  0  0
    7.5806   33.9626   -1.9523 C   0  0  0  0  0  0
    6.9189   34.8265   -1.0819 C   0  0  0  0  0  0
    8.0790   34.4036   -3.1732 N   0  0  0  0  0  0
    8.7606   33.6470   -4.0657 C   0  0  0  0  0  0
    8.9021   32.3161   -3.7118 N   0  0  0  0  0  0
    8.3905   31.6669   -2.6087 C   0  0  0  0  0  0
    8.3962   30.4402   -2.4613 O   0  0  0  0  0  0
    9.4579   31.4866   -4.7012 N   0  0  1  0  0  0
   11.1564   31.0354   -4.4616 S   0  0  0  0  0  0
   11.5892   30.3731   -5.6944 O   0  0  0  0  0  0
   11.2734   30.3269   -3.1841 O   0  0  0  0  0  0
   12.0801   32.6630   -4.3108 C   0  0  0  0  0  0
    9.1594   34.1721   -5.1020 O   0  0  0  0  0  0
    6.0354   32.3889    1.5942 N   0  0  0  0  0  0
    6.4792   32.4298    2.8923 C   0  0  0  0  0  0
    5.8023   31.6469    3.6979 N   0  0  0  0  0  0
    4.8830   31.0873    2.9306 C   0  0  0  0  0  0
    5.0159   31.4771    1.6167 C   0  0  0  0  0  0
    7.3407   31.0771   -0.1763 H   0  0  0  0  0  0
    6.7827   35.8634   -1.3538 H   0  0  0  0  0  0
    7.9292   35.3673   -3.4460 H   0  0  0  0  0  0
    8.8824   30.6406   -4.7515 H   0  0  0  0  0  0
   13.1441   32.4478   -4.2411 H   0  0  0  0  0  0
   11.7351   33.1854   -3.4202 H   0  0  0  0  0  0
   11.8904   33.2470   -5.2045 H   0  0  0  0  0  0
    7.3300   33.0424    3.1517 H   0  0  0  0  0  0
    4.1378   30.3991    3.2994 H   0  0  0  0  0  0
    4.4790   31.2182    0.7164 H   0  0  0  0  0  0
  1  2  2  0  0  0
  1  3  1  0  0  0
  1  4  1  0  0  0
  4  5  2  0  0  0
  4  9  1  0  0  0
  5  6  1  0  0  0
  5 21  1  0  0  0
  6  7  2  0  0  0
  6 26  1  0  0  0
  7  8  1  0  0  0
  7 13  1  0  0  0
  8  9  2  0  0  0
  8 10  1  0  0  0
  9 27  1  0  0  0
 10 11  1  0  0  0
 10 28  1  0  0  0
 11 12  1  0  0  0
 11 20  2  0  0  0
 12 13  1  0  0  0
 12 15  1  0  0  0
 13 14  2  0  0  0
 15 16  1  0  0  0
 15 29  1  0  0  0
 16 17  2  0  0  0
 16 18  2  0  0  0
 16 19  1  0  0  0
 19 30  1  0  0  0
 19 31  1  0  0  0
 19 32  1  0  0  0
 21 22  1  0  0  0
 21 25  1  0  0  0
 22 23  2  0  0  0
 22 33  1  0  0  0
 23 24  1  0  0  0
 24 25  2  0  0  0
 24 34  1  0  0  0
 25 35  1  0  0  0
M  CHG  2   1   1   3  -1
M  END
> <s_m_entry_id>
3553

> <s_m_entry_name>
dock_pv.2

> <s_m_Source_Path>
/home/csk/Desktop/cluster/DUD-E-result/gria2

> <s_m_Source_File>
dock_pv.maegz

> <i_m_Source_File_Index>
2

> <chembl_id>
CHEMBL1738879

> <chembl_pref_name>
None

> <i_lp_mmshare_version>
53161

> <r_lp_tautomer_probability>
1

> <s_lp_Force_Field>
OPLS_2005

> <r_lp_Energy>
21.068749

> <b_lp_Chiralities_Consistent>
1

> <s_lp_Variant>
CHEMBL4016_lig3-1

> <s_i_glide_gridfile>
glide-grid_3kgc

> <i_i_glide_lignum>
3

> <i_i_glide_rotatable_bonds>
4

> <r_i_docking_score>
-7.70495249512953

> <r_i_glide_ligand_efficiency>
-0.308198099805181

> <r_i_glide_ligand_efficiency_sa>
-0.901176709746923

> <r_i_glide_ligand_efficiency_ln>
-1.82630464013959

> <r_i_glide_gscore>
-7.70495249512953

> <r_i_glide_lipo>
-1.0599267500176

> <r_i_glide_hbond>
-0.878429985767621

> <r_i_glide_metal>
0

> <r_i_glide_rewards>
-2.33662939220513

> <r_i_glide_evdw>
-39.7756080627441

> <r_i_glide_ecoul>
-9.4974193572998

> <r_i_glide_erotb>
0.200802802405371

> <r_i_glide_esite>
-0.217375862812367

> <r_i_glide_emodel>
-69.5498247344301

> <r_i_glide_energy>
-49.2730274200439

> <r_i_glide_einternal>
5.00749444961548

> <i_i_glide_confnum>
5

> <i_i_glide_posenum>
371

> <r_i_glide_eff_state_penalty>
0

> <s_user_duplicate_titles>
CHEMBL4016_lig3

> <i_f3d_flags>
0

> <s_m_subgroup_title>
dock_pv

> <s_m_subgroupid>
dock_pv

> <b_m_subgroup_collapsed>
0

$$$$
CHEMBL4016_lig195
                    3D
 Schrodinger Suite 2021-1.
 47 50  0  0  1  0            999 V2000
    7.8437   33.6284   -2.2890 C   0  0  0  0  0  0
    8.7716   33.8943   -4.3100 N   0  0  0  0  0  0
    7.9873   34.4470   -3.3853 N   0  0  0  0  0  0
    9.1285   32.6811   -3.7609 N   0  0  0  0  0  0
    7.0220   33.9617   -1.0639 C   0  0  0  0  0  0
    8.5449   32.5367   -2.5030 N   0  0  0  0  0  0
    3.7156   27.6904    2.3779 N   0  0  2  0  0  0
    6.7791   33.0792    0.0156 C   0  0  0  0  0  0
    3.0122   28.9860    2.3334 C   0  0  2  0  0  0
    4.1045   29.4951    0.0553 C   0  0  2  0  0  0
    1.6765   28.8885    3.1177 C   0  0  0  0  0  0
    7.2494   31.7561    0.0332 N   0  0  0  0  0  0
    2.7888   29.4544    0.8666 C   0  0  0  0  0  0
    4.8450   28.1452    0.1992 C   0  0  2  0  0  0
    5.0091   27.7718    1.6962 C   0  0  0  0  0  0
    5.0488   30.6513    0.4624 C   0  0  0  0  0  0
    6.3223   30.7102   -0.4198 C   0  0  2  0  0  0
    1.3275   27.9008    3.7686 O   0  0  0  0  0  0
    6.1436   28.1480   -0.6465 C   0  0  0  0  0  0
    0.9532   30.0471    3.0544 O   0  0  0  0  0  0
    7.0641   29.3560   -0.3406 C   0  0  0  0  0  0
    6.4502   35.2442   -1.0034 C   0  0  0  0  0  0
    6.0635   33.5237    1.1335 C   0  0  0  0  0  0
    5.6791   35.6471    0.0839 C   0  0  0  0  0  0
    5.5038   34.7948    1.1636 C   0  0  0  0  0  0
    4.1612   27.4128   -0.2356 H   0  0  0  0  0  0
    6.0312   30.9400   -1.4467 H   0  0  0  0  0  0
    3.8510   29.6197   -0.9999 H   0  0  0  0  0  0
    7.5519   35.3575   -3.5017 H   0  0  0  0  0  0
    3.1308   27.0078    1.9134 H   0  0  0  0  0  0
    3.5793   29.7308    2.8942 H   0  0  0  0  0  0
    8.1105   31.6955   -0.4925 H   0  0  0  0  0  0
    2.0739   28.7965    0.3681 H   0  0  0  0  0  0
    2.3334   30.4453    0.8497 H   0  0  0  0  0  0
    5.6805   28.4570    2.2134 H   0  0  0  0  0  0
    5.4888   26.7954    1.7684 H   0  0  0  0  0  0
    4.4819   31.5757    0.3772 H   0  0  0  0  0  0
    5.3124   30.5863    1.5183 H   0  0  0  0  0  0
    6.6913   27.2171   -0.4954 H   0  0  0  0  0  0
    5.8791   28.1692   -1.7047 H   0  0  0  0  0  0
    1.3354   30.7464    2.5121 H   0  0  0  0  0  0
    7.5001   29.2458    0.6526 H   0  0  0  0  0  0
    7.9043   29.3521   -1.0365 H   0  0  0  0  0  0
    6.5849   35.9511   -1.8051 H   0  0  0  0  0  0
    5.9138   32.8663    1.9770 H   0  0  0  0  0  0
    5.2409   36.6346    0.0999 H   0  0  0  0  0  0
    4.9268   35.1138    2.0164 H   0  0  0  0  0  0
  1  5  1  0  0  0
  1  6  2  0  0  0
  1  3  1  0  0  0
  2  4  2  0  0  0
  2  3  1  0  0  0
  3 29  1  0  0  0
  4  6  1  0  0  0
  5  8  2  0  0  0
  5 22  1  0  0  0
  7 15  1  0  0  0
  7  9  1  0  0  0
  7 30  1  0  0  0
  8 12  1  0  0  0
  8 23  1  0  0  0
  9 13  1  0  0  0
  9 11  1  0  0  0
  9 31  1  0  0  0
 10 16  1  0  0  0
 10 13  1  0  0  0
 10 28  1  0  0  0
 10 14  1  0  0  0
 11 18  2  0  0  0
 11 20  1  0  0  0
 12 17  1  0  0  0
 12 32  1  0  0  0
 13 33  1  0  0  0
 13 34  1  0  0  0
 14 19  1  0  0  0
 14 15  1  0  0  0
 14 26  1  0  0  0
 15 35  1  0  0  0
 15 36  1  0  0  0
 16 17  1  0  0  0
 16 37  1  0  0  0
 16 38  1  0  0  0
 17 21  1  0  0  0
 17 27  1  0  0  0
 19 21  1  0  0  0
 19 39  1  0  0  0
 19 40  1  0  0  0
 20 41  1  0  0  0
 21 42  1  0  0  0
 21 43  1  0  0  0
 22 24  2  0  0  0
 22 44  1  0  0  0
 23 25  2  0  0  0
 23 45  1  0  0  0
 24 25  1  0  0  0
 24 46  1  0  0  0
 25 47  1  0  0  0
M  END
> <s_m_entry_id>
3554

> <s_m_entry_name>
dock_pv.3

> <s_m_Source_Path>
/home/csk/Desktop/cluster/DUD-E-result/gria2

> <s_m_Source_File>
dock_pv.maegz

> <i_m_Source_File_Index>
3

> <chembl_id>
CHEMBL191249

> <chembl_pref_name>
None

> <i_lp_mmshare_version>
53161

> <r_lp_tautomer_probability>
0.3

> <s_lp_Force_Field>
OPLS_2005

> <r_lp_Energy>
37.907985

> <b_lp_Chiralities_Consistent>
1

> <s_lp_Variant>
CHEMBL4016_lig195-1

> <s_i_glide_gridfile>
glide-grid_3kgc

> <i_i_glide_lignum>
244

> <i_i_glide_rotatable_bonds>
5

> <r_i_docking_score>
-7.6832872382426

> <r_i_glide_ligand_efficiency>
-0.307331489529704

> <r_i_glide_ligand_efficiency_sa>
-0.89864272593203

> <r_i_glide_ligand_efficiency_ln>
-1.82116932500203

> <r_i_glide_gscore>
-7.6832872382426

> <r_i_glide_lipo>
-1.65260677949951

> <r_i_glide_hbond>
-0.376975578409854

> <r_i_glide_metal>
0

> <r_i_glide_rewards>
-2.25079734194281

> <r_i_glide_evdw>
-37.6676750183105

> <r_i_glide_ecoul>
-12.9628095626831

> <r_i_glide_erotb>
0.646974474819077

> <r_i_glide_esite>
-0.222076827891509

> <r_i_glide_emodel>
-68.8066474817596

> <r_i_glide_energy>
-50.6304845809937

> <r_i_glide_einternal>
13.750545501709

> <i_i_glide_confnum>
24

> <i_i_glide_posenum>
19

> <r_i_glide_eff_state_penalty>
0

> <s_user_duplicate_titles>
CHEMBL4016_lig195

> <i_f3d_flags>
0

> <s_m_subgroup_title>
dock_pv

> <s_m_subgroupid>
dock_pv

> <b_m_subgroup_collapsed>
0

$$$$
CHEMBL4016_lig9
                    3D
 Schrodinger Suite 2021-1.
 20 22  0  0  1  0            999 V2000
    8.7635   34.4453   -5.0395 O   0  0  0  0  0  0
    8.4795   33.8736   -3.9828 C   0  0  0  0  0  0
    8.8891   32.4248   -3.7731 C   0  0  0  0  0  0
    9.4186   31.8078   -4.7009 O   0  0  0  0  0  0
    8.6038   31.8985   -2.5529 N   0  0  0  0  0  0
    7.9453   32.5515   -1.4942 C   0  0  0  0  0  0
    7.7207   31.8996   -0.2754 C   0  0  0  0  0  0
    7.0652   32.6556    0.7047 C   0  0  0  0  0  0
    6.7194   32.3134    1.9386 N   0  3  0  0  0  0
    6.8674   31.1837    2.5342 O   0  5  0  0  0  0
    6.1108   33.3722    2.5574 O   0  0  0  0  0  0
    6.0595   34.4511    1.6556 N   0  0  0  0  0  0
    6.6433   33.9861    0.5092 C   0  0  0  0  0  0
    6.8603   34.6099   -0.7274 C   0  0  0  0  0  0
    7.5194   33.8735   -1.7150 C   0  0  0  0  0  0
    7.7953   34.4472   -2.9624 N   0  0  0  0  0  0
    8.8979   30.9430   -2.4261 H   0  0  0  0  0  0
    8.0444   30.8840   -0.0925 H   0  0  0  0  0  0
    6.5258   35.6225   -0.9035 H   0  0  0  0  0  0
    7.4854   35.3966   -3.1420 H   0  0  0  0  0  0
  1  2  2  0  0  0
  2  3  1  0  0  0
  2 16  1  0  0  0
  3  4  2  0  0  0
  3  5  1  0  0  0
  5  6  1  0  0  0
  5 17  1  0  0  0
  6 15  1  0  0  0
  6  7  2  0  0  0
  7  8  1  0  0  0
  7 18  1  0  0  0
  8 13  1  0  0  0
  8  9  2  0  0  0
  9 10  1  0  0  0
  9 11  1  0  0  0
 11 12  1  0  0  0
 12 13  2  0  0  0
 13 14  1  0  0  0
 14 15  2  0  0  0
 14 19  1  0  0  0
 15 16  1  0  0  0
 16 20  1  0  0  0
M  CHG  2   9   1  10  -1
M  END
> <s_m_entry_id>
3555

> <s_m_entry_name>
dock_pv.4

> <s_m_Source_Path>
/home/csk/Desktop/cluster/DUD-E-result/gria2

> <s_m_Source_File>
dock_pv.maegz

> <i_m_Source_File_Index>
4

> <chembl_id>
CHEMBL462490

> <chembl_pref_name>
None

> <i_lp_mmshare_version>
53161

> <r_lp_tautomer_probability>
1

> <s_lp_Force_Field>
OPLS_2005

> <r_lp_Energy>
30.952822

> <b_lp_Chiralities_Consistent>
1

> <s_lp_Variant>
CHEMBL4016_lig9-1

> <s_i_glide_gridfile>
glide-grid_3kgc

> <i_i_glide_lignum>
9

> <i_i_glide_rotatable_bonds>
0

> <r_i_docking_score>
-7.24088525896367

> <r_i_glide_ligand_efficiency>
-0.45255532868523

> <r_i_glide_ligand_efficiency_sa>
-1.1403679686513

> <r_i_glide_ligand_efficiency_ln>
-1.91934127785463

> <r_i_glide_gscore>
-7.24088525896367

> <r_i_glide_lipo>
-0.630642928918416

> <r_i_glide_hbond>
-0.857537652279663

> <r_i_glide_metal>
0

> <r_i_glide_rewards>
-2.75306960562058

> <r_i_glide_evdw>
-26.2388229370117

> <r_i_glide_ecoul>
-10.993971824646

> <r_i_glide_erotb>
0

> <r_i_glide_esite>
-0.0385981515975284

> <r_i_glide_emodel>
-55.9868687812845

> <r_i_glide_energy>
-37.2327947616577

> <r_i_glide_einternal>
0

> <i_i_glide_confnum>
1

> <i_i_glide_posenum>
162

> <r_i_glide_eff_state_penalty>
0

> <s_user_duplicate_titles>
CHEMBL4016_lig9

> <i_f3d_flags>
0

> <s_m_subgroup_title>
dock_pv

> <s_m_subgroupid>
dock_pv

> <b_m_subgroup_collapsed>
0

$$$$
CHEMBL4016_lig8
                    3D
 Schrodinger Suite 2021-1.
 22 23  0  0  1  0            999 V2000
    8.5743   33.6872   -3.8918 C   0  0  0  0  0  0
    9.1195   32.4125   -3.2574 C   0  0  0  0  0  0
    8.7775   32.1977   -1.9583 N   0  0  0  0  0  0
    7.7794   34.4473   -3.0938 N   0  0  0  0  0  0
    7.4611   34.1869   -1.7571 C   0  0  0  0  0  0
    7.9710   33.0326   -1.1671 C   0  0  0  0  0  0
    7.6780   32.7460    0.1654 C   0  0  0  0  0  0
    6.8844   33.6169    0.9440 C   0  0  0  0  0  0
    6.4149   34.8090    0.3379 C   0  0  0  0  0  0
    6.6845   35.0651   -1.0154 C   0  0  0  0  0  0
    8.8790   33.9789   -5.0533 O   0  0  0  0  0  0
    9.8244   31.6571   -3.9284 O   0  0  0  0  0  0
    5.6588   35.8307    1.0983 N   0  3  0  0  0  0
    5.9841   36.0785    2.2549 O   0  0  0  0  0  0
    4.7756   36.4446    0.5096 O   0  5  0  0  0  0
    6.5541   33.3364    2.2812 N   0  0  0  0  0  0
    6.8057   32.2670    2.8317 N   0  3  0  0  0  0
    6.8792   31.2766    3.3905 N   0  5  0  0  0  0
    9.1625   31.3591   -1.5500 H   0  0  0  0  0  0
    7.4269   35.3064   -3.5051 H   0  0  0  0  0  0
    8.0902   31.8467    0.6002 H   0  0  0  0  0  0
    6.3104   35.9682   -1.4816 H   0  0  0  0  0  0
  1 11  2  0  0  0
  1  2  1  0  0  0
  1  4  1  0  0  0
  2 12  2  0  0  0
  2  3  1  0  0  0
  3  6  1  0  0  0
  3 19  1  0  0  0
  4  5  1  0  0  0
  4 20  1  0  0  0
  5  6  2  0  0  0
  5 10  1  0  0  0
  6  7  1  0  0  0
  7  8  2  0  0  0
  7 21  1  0  0  0
  8  9  1  0  0  0
  8 16  1  0  0  0
  9 10  2  0  0  0
  9 13  1  0  0  0
 10 22  1  0  0  0
 13 14  2  0  0  0
 13 15  1  0  0  0
 16 17  2  0  0  0
 17 18  2  0  0  0
M  CHG  4  13   1  15  -1  17   1  18  -1
M  END
> <s_m_entry_id>
3556

> <s_m_entry_name>
dock_pv.5

> <s_m_Source_Path>
/home/csk/Desktop/cluster/DUD-E-result/gria2

> <s_m_Source_File>
dock_pv.maegz

> <i_m_Source_File_Index>
5

> <chembl_id>
CHEMBL506543

> <chembl_pref_name>
None

> <i_lp_mmshare_version>
53161

> <r_lp_tautomer_probability>
1

> <s_lp_Force_Field>
OPLS_2005

> <r_lp_Energy>
27.48648

> <b_lp_Chiralities_Consistent>
1

> <s_lp_Variant>
CHEMBL4016_lig8-1

> <s_i_glide_gridfile>
glide-grid_3kgc

> <i_i_glide_lignum>
8

> <i_i_glide_rotatable_bonds>
2

> <r_i_docking_score>
-7.21054861197991

> <r_i_glide_ligand_efficiency>
-0.400586033998884

> <r_i_glide_ligand_efficiency_sa>
-1.04983240023138

> <r_i_glide_ligand_efficiency_ln>
-1.85343434013597

> <r_i_glide_gscore>
-7.21054861197991

> <r_i_glide_lipo>
-0.77071251926213

> <r_i_glide_hbond>
-0.487631943445793

> <r_i_glide_metal>
0

> <r_i_glide_rewards>
-2.95833207551653

> <r_i_glide_evdw>
-34.7704849243164

> <r_i_glide_ecoul>
-9.24198341369629

> <r_i_glide_erotb>
0.283576304136473

> <r_i_glide_esite>
-0.152626619621665

> <r_i_glide_emodel>
-65.0620921124707

> <r_i_glide_energy>
-44.0124683380127

> <r_i_glide_einternal>
0.117786213755608

> <i_i_glide_confnum>
1

> <i_i_glide_posenum>
361

> <r_i_glide_eff_state_penalty>
0

> <s_user_duplicate_titles>
CHEMBL4016_lig8

> <i_f3d_flags>
0

> <s_m_subgroup_title>
dock_pv

> <s_m_subgroupid>
dock_pv

> <b_m_subgroup_collapsed>
0

$$$$
CHEMBL4016_lig220
                    3D
 Schrodinger Suite 2021-1.
 46 49  0  0  1  0            999 V2000
    8.2573   30.5339   -0.0388 C   0  0  1  0  0  0
    7.0727   29.5295   -0.0867 C   0  0  0  0  0  0
    7.0687   28.6252   -1.3381 C   0  0  0  0  0  0
    9.5957   29.8726   -0.4485 C   0  0  0  0  0  0
    9.5302   28.9753   -1.7107 C   0  0  1  0  0  0
    8.4245   27.9001   -1.5680 C   0  0  2  0  0  0
    8.4327   26.9677   -2.8057 C   0  0  0  0  0  0
    8.2581   27.6987   -4.0635 N   0  0  1  0  0  0
    9.2350   28.7774   -4.2952 C   0  0  1  0  0  0
    9.4063   29.7088   -3.0635 C   0  0  0  0  0  0
   10.5807   28.1908   -4.7964 C   0  0  0  0  0  0
   10.4213   27.3838   -5.8837 O   0  0  0  0  0  0
   11.6762   28.4503   -4.3020 O   0  0  0  0  0  0
    8.6973   27.3002   -0.7020 H   0  0  0  0  0  0
   10.4799   28.4469   -1.7551 H   0  0  0  0  0  0
    8.0298   31.6181   -0.9314 O   0  0  0  0  0  0
    7.3181   32.7400   -0.5459 C   0  0  0  0  0  0
    7.2677   33.8250   -1.4474 C   0  0  0  0  0  0
    6.5188   34.9612   -1.1020 C   0  0  0  0  0  0
    5.8404   35.0372    0.1109 C   0  0  0  0  0  0
    5.9012   33.9742    1.0028 C   0  0  0  0  0  0
    6.6308   32.8333    0.6774 C   0  0  0  0  0  0
    7.9536   33.7910   -2.7897 C   0  0  0  0  0  0
    8.0789   34.8467   -3.6536 N   0  0  0  0  0  0
    8.6290   34.4619   -4.8053 N   0  0  0  0  0  0
    8.9203   33.1328   -4.6269 N   0  0  0  0  0  0
    8.4861   32.7414   -3.3680 N   0  0  0  0  0  0
    5.1211   36.1399    0.4198 F   0  0  0  0  0  0
    8.4068   30.8593    0.9925 H   0  0  0  0  0  0
    6.1233   30.0623   -0.0221 H   0  0  0  0  0  0
    7.1114   28.8901    0.7924 H   0  0  0  0  0  0
    6.7857   29.2116   -2.2126 H   0  0  0  0  0  0
    6.2735   27.8829   -1.2584 H   0  0  0  0  0  0
    9.9266   29.2488    0.3820 H   0  0  0  0  0  0
   10.3611   30.6421   -0.5623 H   0  0  0  0  0  0
    7.6208   26.2434   -2.7133 H   0  0  0  0  0  0
    9.3469   26.3727   -2.8316 H   0  0  0  0  0  0
    8.2373   27.0714   -4.8577 H   0  0  0  0  0  0
    8.9079   29.3636   -5.1546 H   0  0  0  0  0  0
   10.2253   30.4182   -3.1883 H   0  0  0  0  0  0
    8.5169   30.3270   -3.0372 H   0  0  0  0  0  0
   11.2722   27.0457   -6.1687 H   0  0  0  0  0  0
    6.4328   35.7952   -1.7793 H   0  0  0  0  0  0
    5.3680   34.0270    1.9404 H   0  0  0  0  0  0
    6.6336   32.0229    1.3883 H   0  0  0  0  0  0
    7.7040   35.7838   -3.5019 H   0  0  0  0  0  0
  1  2  1  0  0  0
  1  4  1  0  0  0
  1 16  1  0  0  0
  1 29  1  0  0  0
  2  3  1  0  0  0
  2 30  1  0  0  0
  2 31  1  0  0  0
  3  6  1  0  0  0
  3 32  1  0  0  0
  3 33  1  0  0  0
  4  5  1  0  0  0
  4 34  1  0  0  0
  4 35  1  0  0  0
  5  6  1  0  0  0
  5 10  1  0  0  0
  5 15  1  0  0  0
  6  7  1  0  0  0
  6 14  1  0  0  0
  7  8  1  0  0  0
  7 36  1  0  0  0
  7 37  1  0  0  0
  8  9  1  0  0  0
  8 38  1  0  0  0
  9 10  1  0  0  0
  9 11  1  0  0  0
  9 39  1  0  0  0
 10 40  1  0  0  0
 10 41  1  0  0  0
 11 12  1  0  0  0
 11 13  2  0  0  0
 12 42  1  0  0  0
 16 17  1  0  0  0
 17 18  2  0  0  0
 17 22  1  0  0  0
 18 19  1  0  0  0
 18 23  1  0  0  0
 19 20  2  0  0  0
 19 43  1  0  0  0
 20 21  1  0  0  0
 20 28  1  0  0  0
 21 22  2  0  0  0
 21 44  1  0  0  0
 22 45  1  0  0  0
 23 24  1  0  0  0
 23 27  2  0  0  0
 24 46  1  0  0  0
 24 25  1  0  0  0
 25 26  2  0  0  0
 26 27  1  0  0  0
M  END
> <s_m_entry_id>
3557

> <s_m_entry_name>
dock_pv.6

> <s_m_Source_Path>
/home/csk/Desktop/cluster/DUD-E-result/gria2

> <s_m_Source_File>
dock_pv.maegz

> <i_m_Source_File_Index>
6

> <chembl_id>
CHEMBL3088059

> <chembl_pref_name>
None

> <i_lp_mmshare_version>
53161

> <r_lp_tautomer_probability>
0.3

> <s_lp_Force_Field>
OPLS_2005

> <r_lp_Energy>
39.627662

> <b_lp_Chiralities_Consistent>
1

> <s_lp_Variant>
CHEMBL4016_lig220-1

> <s_i_glide_gridfile>
glide-grid_3kgc

> <i_i_glide_lignum>
299

> <i_i_glide_rotatable_bonds>
5

> <r_i_docking_score>
-7.2009492996564

> <r_i_glide_ligand_efficiency>
-0.276959588448323

> <r_i_glide_ligand_efficiency_sa>
-0.8204916909948

> <r_i_glide_ligand_efficiency_ln>
-1.69111931478245

> <r_i_glide_gscore>
-7.2009492996564

> <r_i_glide_lipo>
-1.31123941372521

> <r_i_glide_hbond>
-0.32

> <r_i_glide_metal>
0

> <r_i_glide_rewards>
-2.62727640731366

> <r_i_glide_evdw>
-34.1868133544922

> <r_i_glide_ecoul>
-10.0182733535767

> <r_i_glide_erotb>
0.58779096662284

> <r_i_glide_esite>
-0.318142774479258

> <r_i_glide_emodel>
-66.2899565755265

> <r_i_glide_energy>
-44.2050867080688

> <r_i_glide_einternal>
1.14948236942291

> <i_i_glide_confnum>
45

> <i_i_glide_posenum>
74

> <r_i_glide_eff_state_penalty>
0

> <s_user_duplicate_titles>
CHEMBL4016_lig220

> <i_f3d_flags>
0

> <s_m_subgroup_title>
dock_pv

> <s_m_subgroupid>
dock_pv

> <b_m_subgroup_collapsed>
0

$$$$
CHEMBL4016_lig219
                    3D
 Schrodinger Suite 2021-1.
 46 49  0  0  1  0            999 V2000
    8.1613   30.4999   -0.0809 C   0  0  1  0  0  0
    7.0023   29.4727   -0.1537 C   0  0  0  0  0  0
    7.0507   28.5626   -1.3983 C   0  0  0  0  0  0
    9.5260   29.8634   -0.4412 C   0  0  0  0  0  0
    9.5178   28.9605   -1.7004 C   0  0  1  0  0  0
    8.4257   27.8667   -1.5867 C   0  0  2  0  0  0
    8.4829   26.9274   -2.8215 C   0  0  0  0  0  0
    8.3790   27.6566   -4.0910 N   0  0  1  0  0  0
    9.3390   28.7625   -4.2934 C   0  0  1  0  0  0
    9.4121   29.6971   -3.0552 C   0  0  0  0  0  0
   10.7597   28.2834   -4.7187 C   0  0  0  0  0  0
   10.8152   26.9734   -5.0897 O   0  0  0  0  0  0
   11.7321   29.0369   -4.7458 O   0  0  0  0  0  0
    8.6877   27.2848   -0.7023 H   0  0  0  0  0  0
   10.4794   28.4469   -1.7147 H   0  0  0  0  0  0
    7.9136   31.5637   -0.9924 O   0  0  0  0  0  0
    7.2330   32.7034   -0.6028 C   0  0  0  0  0  0
    7.2698   33.8254   -1.4605 C   0  0  0  0  0  0
    6.5522   34.9760   -1.0970 C   0  0  0  0  0  0
    5.8122   35.0267    0.0835 C   0  0  0  0  0  0
    5.7804   33.9218    0.9256 C   0  0  0  0  0  0
    6.4831   32.7715    0.5855 C   0  0  0  0  0  0
    8.0087   33.8121   -2.7757 C   0  0  0  0  0  0
    8.0796   34.8465   -3.6765 N   0  0  0  0  0  0
    8.6767   34.4503   -4.8037 N   0  0  0  0  0  0
    9.0593   33.1539   -4.5683 N   0  0  0  0  0  0
    8.6417   32.7870   -3.2966 N   0  0  0  0  0  0
    4.9218   36.4472    0.4945 Cl  0  0  0  0  0  0
    8.2738   30.8409    0.9512 H   0  0  0  0  0  0
    6.0415   29.9859   -0.1176 H   0  0  0  0  0  0
    7.0336   28.8487    0.7337 H   0  0  0  0  0  0
    6.7852   29.1369   -2.2864 H   0  0  0  0  0  0
    6.2711   27.8046   -1.3340 H   0  0  0  0  0  0
    9.8455   29.2528    0.4034 H   0  0  0  0  0  0
   10.2736   30.6493   -0.5447 H   0  0  0  0  0  0
    7.6717   26.2025   -2.7615 H   0  0  0  0  0  0
    9.3967   26.3343   -2.7973 H   0  0  0  0  0  0
    8.1957   27.0857   -4.9039 H   0  0  0  0  0  0
    9.0264   29.3359   -5.1660 H   0  0  0  0  0  0
   10.2100   30.4371   -3.1408 H   0  0  0  0  0  0
    8.5054   30.2938   -3.0688 H   0  0  0  0  0  0
    9.9780   26.5465   -4.8937 H   0  0  0  0  0  0
    6.5435   35.8461   -1.7349 H   0  0  0  0  0  0
    5.1962   33.9444    1.8334 H   0  0  0  0  0  0
    6.4167   31.9281    1.2548 H   0  0  0  0  0  0
    7.6862   35.7779   -3.5515 H   0  0  0  0  0  0
  1  2  1  0  0  0
  1  4  1  0  0  0
  1 16  1  0  0  0
  1 29  1  0  0  0
  2  3  1  0  0  0
  2 30  1  0  0  0
  2 31  1  0  0  0
  3  6  1  0  0  0
  3 32  1  0  0  0
  3 33  1  0  0  0
  4  5  1  0  0  0
  4 34  1  0  0  0
  4 35  1  0  0  0
  5  6  1  0  0  0
  5 10  1  0  0  0
  5 15  1  0  0  0
  6  7  1  0  0  0
  6 14  1  0  0  0
  7  8  1  0  0  0
  7 36  1  0  0  0
  7 37  1  0  0  0
  8  9  1  0  0  0
  8 38  1  0  0  0
  9 10  1  0  0  0
  9 11  1  0  0  0
  9 39  1  0  0  0
 10 40  1  0  0  0
 10 41  1  0  0  0
 11 12  1  0  0  0
 11 13  2  0  0  0
 12 42  1  0  0  0
 16 17  1  0  0  0
 17 18  2  0  0  0
 17 22  1  0  0  0
 18 19  1  0  0  0
 18 23  1  0  0  0
 19 20  2  0  0  0
 19 43  1  0  0  0
 20 21  1  0  0  0
 20 28  1  0  0  0
 21 22  2  0  0  0
 21 44  1  0  0  0
 22 45  1  0  0  0
 23 24  1  0  0  0
 23 27  2  0  0  0
 24 46  1  0  0  0
 24 25  1  0  0  0
 25 26  2  0  0  0
 26 27  1  0  0  0
M  END
> <s_m_entry_id>
3558

> <s_m_entry_name>
dock_pv.7

> <s_m_Source_Path>
/home/csk/Desktop/cluster/DUD-E-result/gria2

> <s_m_Source_File>
dock_pv.maegz

> <i_m_Source_File_Index>
7

> <chembl_id>
CHEMBL3088060

> <chembl_pref_name>
None

> <i_lp_mmshare_version>
53161

> <r_lp_tautomer_probability>
0.3

> <s_lp_Force_Field>
OPLS_2005

> <r_lp_Energy>
39.551804

> <b_lp_Chiralities_Consistent>
1

> <s_lp_Variant>
CHEMBL4016_lig219-1

> <s_i_glide_gridfile>
glide-grid_3kgc

> <i_i_glide_lignum>
297

> <i_i_glide_rotatable_bonds>
5

> <r_i_docking_score>
-6.99040385077052

> <r_i_glide_ligand_efficiency>
-0.268861686568097

> <r_i_glide_ligand_efficiency_sa>
-0.796501688538336

> <r_i_glide_ligand_efficiency_ln>
-1.64167340696757

> <r_i_glide_gscore>
-6.99040385077052

> <r_i_glide_lipo>
-1.56483357606289

> <r_i_glide_hbond>
-0.32

> <r_i_glide_metal>
0

> <r_i_glide_rewards>
-2.09095976358485

> <r_i_glide_evdw>
-36.483470916748

> <r_i_glide_ecoul>
-9.43874931335449

> <r_i_glide_erotb>
0.542833086075759

> <r_i_glide_esite>
-0.317457654357973

> <r_i_glide_emodel>
-67.1771097015894

> <r_i_glide_energy>
-45.9222202301025

> <r_i_glide_einternal>
0.628664970397949

> <i_i_glide_confnum>
48

> <i_i_glide_posenum>
16

> <r_i_glide_eff_state_penalty>
0

> <s_user_duplicate_titles>
CHEMBL4016_lig219

> <i_f3d_flags>
0

> <s_m_subgroup_title>
dock_pv

> <s_m_subgroupid>
dock_pv

> <b_m_subgroup_collapsed>
0

$$$$
CHEMBL4016_lig203
                    3D
 Schrodinger Suite 2021-1.
 21 22  0  0  1  0            999 V2000
    8.0788   34.8470   -2.9851 N   0  0  0  0  0  0
    7.3963   34.0814   -2.0521 O   0  0  0  0  0  0
    7.7543   32.8360   -2.3313 C   0  0  0  0  0  0
    7.4415   31.6737   -1.4018 C   0  0  0  0  0  0
    7.8435   30.3701   -1.9677 N   0  0  1  0  0  0
    9.1102   30.3755   -2.7377 C   0  0  1  0  0  0
    9.0972   31.4233   -3.9076 C   0  0  0  0  0  0
    8.4483   32.7307   -3.4618 C   0  0  0  0  0  0
    8.5133   34.0637   -3.9888 C   0  0  0  0  0  0
    8.8790   34.4334   -5.1020 O   0  0  0  0  0  0
   10.2930   30.5814   -1.7526 C   0  0  0  0  0  0
   10.5457   31.8981   -1.5020 O   0  0  0  0  0  0
   10.8775   29.6470   -1.2081 O   0  0  0  0  0  0
    6.3744   31.6350   -1.1789 H   0  0  0  0  0  0
    7.9449   31.8206   -0.4447 H   0  0  0  0  0  0
    7.8515   29.6532   -1.2530 H   0  0  0  0  0  0
    9.2868   29.3756   -3.1369 H   0  0  0  0  0  0
   10.1061   31.5871   -4.2897 H   0  0  0  0  0  0
    8.5259   31.0076   -4.7375 H   0  0  0  0  0  0
    7.6152   35.7534   -3.0103 H   0  0  0  0  0  0
   10.8800   32.0386   -0.5886 H   0  0  0  0  0  0
  1  9  1  0  0  0
  1 20  1  0  0  0
  1  2  1  0  0  0
  2  3  1  0  0  0
  3  8  2  0  0  0
  3  4  1  0  0  0
  4  5  1  0  0  0
  4 14  1  0  0  0
  4 15  1  0  0  0
  5  6  1  0  0  0
  5 16  1  0  0  0
  6  7  1  0  0  0
  6 11  1  0  0  0
  6 17  1  0  0  0
  7 18  1  0  0  0
  7 19  1  0  0  0
  7  8  1  0  0  0
  8  9  1  0  0  0
  9 10  2  0  0  0
 11 12  1  0  0  0
 11 13  2  0  0  0
 12 21  1  0  0  0
M  END
> <s_m_entry_id>
3559

> <s_m_entry_name>
dock_pv.8

> <s_m_Source_Path>
/home/csk/Desktop/cluster/DUD-E-result/gria2

> <s_m_Source_File>
dock_pv.maegz

> <i_m_Source_File_Index>
8

> <chembl_id>
CHEMBL2092841

> <chembl_pref_name>
None

> <i_lp_mmshare_version>
53161

> <r_lp_tautomer_probability>
0.0320612824512981

> <s_lp_Force_Field>
OPLS_2005

> <r_lp_Energy>
21.001288

> <b_lp_Chiralities_Consistent>
1

> <s_lp_Variant>
CHEMBL4016_lig203-4

> <s_i_glide_gridfile>
glide-grid_3kgc

> <i_i_glide_lignum>
269

> <i_i_glide_rotatable_bonds>
2

> <r_i_docking_score>
-6.89722695385724

> <r_i_glide_ligand_efficiency>
-0.53055591952748

> <r_i_glide_ligand_efficiency_sa>
-1.24751453629394

> <r_i_glide_ligand_efficiency_ln>
-1.93473350173156

> <r_i_glide_gscore>
-6.89722695385724

> <r_i_glide_lipo>
-0.136170199649206

> <r_i_glide_hbond>
-1.10922736497591

> <r_i_glide_metal>
0

> <r_i_glide_rewards>
-2.15352668181818

> <r_i_glide_evdw>
-16.5328674316406

> <r_i_glide_ecoul>
-17.1529102325439

> <r_i_glide_erotb>
0

> <r_i_glide_esite>
-0.0987228009503171

> <r_i_glide_emodel>
-47.5853736026732

> <r_i_glide_energy>
-33.6857776641846

> <r_i_glide_einternal>
3.77901387214661

> <i_i_glide_confnum>
3

> <i_i_glide_posenum>
202

> <r_i_glide_eff_state_penalty>
0

> <s_user_duplicate_titles>
CHEMBL4016_lig203

> <i_f3d_flags>
0

> <s_m_subgroup_title>
dock_pv

> <s_m_subgroupid>
dock_pv

> <b_m_subgroup_collapsed>
0

$$$$
CHEMBL4016_lig199
                    3D
 Schrodinger Suite 2021-1.
 31 32  0  0  1  0            999 V2000
    6.9524   33.4873    0.4801 C   0  0  0  0  0  0
    7.3542   33.6665   -0.9163 C   0  0  0  0  0  0
    7.9419   32.8350   -1.7881 C   0  0  0  0  0  0
    6.8460   32.3032    1.0476 N   0  0  0  0  0  0
    6.6680   34.5002    1.2880 N   0  0  0  0  0  0
    6.3374   33.9380    2.4977 N   0  0  0  0  0  0
    7.1022   34.8607   -1.4270 O   0  0  0  0  0  0
    6.4556   32.6306    2.2800 N   0  0  3  0  0  0
    7.6908   34.8470   -2.6600 N   0  0  0  0  0  0
    8.0813   33.6137   -3.0047 C   0  0  0  0  0  0
    8.4528   31.4099   -1.6259 C   0  0  0  0  0  0
   10.4749   29.9052   -1.5229 C   0  0  0  0  0  0
    9.9016   31.1966   -2.1317 C   0  0  2  0  0  0
   10.4777   28.8582   -2.1601 O   0  0  0  0  0  0
    8.4786   33.2619   -4.1171 O   0  0  0  0  0  0
   10.8736   32.2862   -1.9020 N   0  0  0  0  0  0
   10.9092   30.0470   -0.2316 O   0  0  0  0  0  0
    6.2007   31.6382    3.3135 C   0  0  0  0  0  0
    7.2780   31.6866    4.4161 C   0  0  0  0  0  0
    7.7730   30.7432   -2.1582 H   0  0  0  0  0  0
    8.3795   31.1358   -0.5741 H   0  0  0  0  0  0
    9.8438   31.0289   -3.2097 H   0  0  0  0  0  0
    7.4616   35.7353   -3.1013 H   0  0  0  0  0  0
   10.8501   32.6237   -0.9367 H   0  0  0  0  0  0
   11.7960   31.9128   -2.0489 H   0  0  0  0  0  0
   10.8793   30.9567    0.1089 H   0  0  0  0  0  0
    5.2045   31.8422    3.7061 H   0  0  0  0  0  0
    6.1611   30.6473    2.8576 H   0  0  0  0  0  0
    6.9798   31.1147    5.2923 H   0  0  0  0  0  0
    8.2191   31.2639    4.0641 H   0  0  0  0  0  0
    7.4761   32.7051    4.7519 H   0  0  0  0  0  0
  1  4  2  0  0  0
  1  5  1  0  0  0
  1  2  1  0  0  0
  2  7  1  0  0  0
  2  3  2  0  0  0
  3 11  1  0  0  0
  3 10  1  0  0  0
  4  8  1  0  0  0
  5  6  2  0  0  0
  6  8  1  0  0  0
  7  9  1  0  0  0
  8 18  1  0  0  0
  9 10  1  0  0  0
  9 23  1  0  0  0
 10 15  2  0  0  0
 11 13  1  0  0  0
 11 20  1  0  0  0
 11 21  1  0  0  0
 12 13  1  0  0  0
 12 14  2  0  0  0
 12 17  1  0  0  0
 13 16  1  0  0  0
 13 22  1  0  0  0
 16 24  1  0  0  0
 16 25  1  0  0  0
 17 26  1  0  0  0
 18 19  1  0  0  0
 18 27  1  0  0  0
 18 28  1  0  0  0
 19 29  1  0  0  0
 19 30  1  0  0  0
 19 31  1  0  0  0
M  END
> <s_m_entry_id>
3560

> <s_m_entry_name>
dock_pv.9

> <s_m_Source_Path>
/home/csk/Desktop/cluster/DUD-E-result/gria2

> <s_m_Source_File>
dock_pv.maegz

> <i_m_Source_File_Index>
9

> <chembl_id>
CHEMBL370941

> <chembl_pref_name>
None

> <i_lp_mmshare_version>
53161

> <r_lp_tautomer_probability>
0.0320612824512981

> <s_lp_Force_Field>
OPLS_2005

> <r_lp_Energy>
14.755387

> <b_lp_Chiralities_Consistent>
1

> <s_lp_Variant>
CHEMBL4016_lig199-4

> <s_i_glide_gridfile>
glide-grid_3kgc

> <i_i_glide_lignum>
259

> <i_i_glide_rotatable_bonds>
6

> <r_i_docking_score>
-6.86767980349802

> <r_i_glide_ligand_efficiency>
-0.361456831763054

> <r_i_glide_ligand_efficiency_sa>
-0.964512004871694

> <r_i_glide_ligand_efficiency_ln>
-1.74110433442409

> <r_i_glide_gscore>
-6.86767980349802

> <r_i_glide_lipo>
-0.350273034219171

> <r_i_glide_hbond>
-0.972841066005454

> <r_i_glide_metal>
0

> <r_i_glide_rewards>
-2.80837746328385

> <r_i_glide_evdw>
-27.9865379333496

> <r_i_glide_ecoul>
-14.8909463882446

> <r_i_glide_erotb>
0.992204730422292

> <r_i_glide_esite>
-0.0954241155076593

> <r_i_glide_emodel>
-61.0201606679081

> <r_i_glide_energy>
-42.8774843215942

> <r_i_glide_einternal>
5.19730281829834

> <i_i_glide_confnum>
19

> <i_i_glide_posenum>
141

> <r_i_glide_eff_state_penalty>
0

> <s_user_duplicate_titles>
CHEMBL4016_lig199,322021

> <i_f3d_flags>
0

> <s_m_subgroup_title>
dock_pv

> <s_m_subgroupid>
dock_pv

> <b_m_subgroup_collapsed>
0

$$$$
CHEMBL4016_lig202
                    3D
 Schrodinger Suite 2021-1.
 21 22  0  0  1  0            999 V2000
    8.4169   33.1640   -1.7942 C   0  0  0  0  0  0
    7.6698   33.0981   -0.6960 C   0  0  0  0  0  0
    9.4027   32.0755   -2.2039 C   0  0  2  0  0  0
    8.1515   34.2203   -2.5521 O   0  0  0  0  0  0
    7.1074   34.8470   -1.9020 N   0  0  0  0  0  0
    6.8338   34.2696   -0.7163 C   0  0  0  0  0  0
    9.7158   31.1395   -1.1020 N   0  0  2  0  0  0
   10.7015   32.6568   -2.8140 C   0  0  0  0  0  0
   11.5338   33.2470   -1.9020 O   0  0  0  0  0  0
   10.9110   32.6583   -4.0275 O   0  0  0  0  0  0
    7.6957   31.8870    0.2313 C   0  0  0  0  0  0
    8.4789   30.7073   -0.4320 C   0  0  0  0  0  0
    6.0593   34.6815    0.1427 O   0  0  0  0  0  0
    8.9756   31.5000   -3.0265 H   0  0  0  0  0  0
   10.2536   31.6158   -0.3738 H   0  0  0  0  0  0
   11.2787   33.1058   -0.9775 H   0  0  0  0  0  0
    6.6873   31.5588    0.4860 H   0  0  0  0  0  0
    8.1665   32.1504    1.1792 H   0  0  0  0  0  0
    8.7233   29.9592    0.3238 H   0  0  0  0  0  0
    7.8371   30.1944   -1.1508 H   0  0  0  0  0  0
    6.8753   35.6944   -2.4130 H   0  0  0  0  0  0
  1  4  1  0  0  0
  1  2  2  0  0  0
  1  3  1  0  0  0
  2 11  1  0  0  0
  2  6  1  0  0  0
  3  7  1  0  0  0
  3  8  1  0  0  0
  3 14  1  0  0  0
  4  5  1  0  0  0
  5  6  1  0  0  0
  5 21  1  0  0  0
  6 13  2  0  0  0
  7 12  1  0  0  0
  7 15  1  0  0  0
  8  9  1  0  0  0
  8 10  2  0  0  0
  9 16  1  0  0  0
 11 12  1  0  0  0
 11 17  1  0  0  0
 11 18  1  0  0  0
 12 19  1  0  0  0
 12 20  1  0  0  0
M  END
> <s_m_entry_id>
3561

> <s_m_entry_name>
dock_pv.10

> <s_m_Source_Path>
/home/csk/Desktop/cluster/DUD-E-result/gria2

> <s_m_Source_File>
dock_pv.maegz

> <i_m_Source_File_Index>
10

> <chembl_id>
CHEMBL154535

> <chembl_pref_name>
None

> <i_lp_mmshare_version>
53161

> <r_lp_tautomer_probability>
0.0320612824512981

> <s_lp_Force_Field>
OPLS_2005

> <r_lp_Energy>
19.180045

> <b_lp_Chiralities_Consistent>
1

> <s_lp_Variant>
CHEMBL4016_lig202-3

> <s_i_glide_gridfile>
glide-grid_3kgc

> <i_i_glide_lignum>
264

> <i_i_glide_rotatable_bonds>
2

> <r_i_docking_score>
-6.83114237687322

> <r_i_glide_ligand_efficiency>
-0.525472490528709

> <r_i_glide_ligand_efficiency_sa>
-1.23556169336679

> <r_i_glide_ligand_efficiency_ln>
-1.91619619015778

> <r_i_glide_gscore>
-6.83114237687322

> <r_i_glide_lipo>
-0.272061278628703

> <r_i_glide_hbond>
-0.48

> <r_i_glide_metal>
0

> <r_i_glide_rewards>
-2.99519334848485

> <r_i_glide_evdw>
-20.8139209747314

> <r_i_glide_ecoul>
-13.2210340499878

> <r_i_glide_erotb>
0

> <r_i_glide_esite>
-0.0600365935249232

> <r_i_glide_emodel>
-50.4245308126901

> <r_i_glide_energy>
-34.0349550247192

> <r_i_glide_einternal>
0.734884679317474

> <i_i_glide_confnum>
2

> <i_i_glide_posenum>
66

> <r_i_glide_eff_state_penalty>
0

> <s_user_duplicate_titles>
CHEMBL4016_lig202

> <i_f3d_flags>
0

> <s_m_subgroup_title>
dock_pv

> <s_m_subgroupid>
dock_pv

> <b_m_subgroup_collapsed>
0

$$$$
CHEMBL4016_lig45
                    3D
 Schrodinger Suite 2021-1.
 23 23  0  0  1  0            999 V2000
    8.2161   33.0793   -1.3075 N   0  0  0  0  0  0
    7.9214   34.3991   -1.5962 C   0  0  0  0  0  0
    7.5415   35.2468   -0.7929 O   0  0  0  0  0  0
    8.0785   34.7468   -2.9096 N   0  0  0  0  0  0
    8.4802   33.9890   -3.9675 C   0  0  0  0  0  0
    8.6032   34.4464   -5.1017 O   0  0  0  0  0  0
    8.7615   32.6092   -3.6047 C   0  0  0  0  0  0
    9.1473   31.7392   -4.5646 F   0  0  0  0  0  0
    8.6243   32.2397   -2.3153 C   0  0  0  0  0  0
    8.1891   32.6637    0.1070 C   0  0  0  0  0  0
    6.7954   32.4310    0.7645 C   0  0  2  0  0  0
    5.6790   32.2489   -0.1909 N   0  0  0  0  0  0
    6.4355   33.5140    1.8165 C   0  0  0  0  0  0
    5.4967   34.3003    1.6972 O   0  0  0  0  0  0
    7.2789   33.4671    2.8922 O   0  0  0  0  0  0
    7.8273   35.7060   -3.1222 H   0  0  0  0  0  0
    8.7949   31.2299   -1.9703 H   0  0  0  0  0  0
    8.7421   33.4186    0.6673 H   0  0  0  0  0  0
    8.7963   31.7657    0.2293 H   0  0  0  0  0  0
    6.8639   31.5090    1.3443 H   0  0  0  0  0  0
    5.6266   31.3068   -0.5484 H   0  0  0  0  0  0
    4.7669   32.4474    0.2192 H   0  0  0  0  0  0
    8.0132   32.8478    2.8072 H   0  0  0  0  0  0
  1  2  1  0  0  0
  1  9  1  0  0  0
  1 10  1  0  0  0
  2  3  2  0  0  0
  2  4  1  0  0  0
  4  5  1  0  0  0
  4 16  1  0  0  0
  5  6  2  0  0  0
  5  7  1  0  0  0
  7  8  1  0  0  0
  7  9  2  0  0  0
  9 17  1  0  0  0
 10 11  1  0  0  0
 10 18  1  0  0  0
 10 19  1  0  0  0
 11 12  1  0  0  0
 11 13  1  0  0  0
 11 20  1  0  0  0
 12 21  1  0  0  0
 12 22  1  0  0  0
 13 14  2  0  0  0
 13 15  1  0  0  0
 15 23  1  0  0  0
M  END
> <s_m_entry_id>
3562

> <s_m_entry_name>
dock_pv.11

> <s_m_Source_Path>
/home/csk/Desktop/cluster/DUD-E-result/gria2

> <s_m_Source_File>
dock_pv.maegz

> <i_m_Source_File_Index>
11

> <chembl_id>
CHEMBL123132

> <chembl_pref_name>
None

> <i_lp_mmshare_version>
53161

> <r_lp_tautomer_probability>
0.999537046341301

> <s_lp_Force_Field>
OPLS_2005

> <r_lp_Energy>
5.593593

> <b_lp_Chiralities_Consistent>
1

> <s_lp_Variant>
CHEMBL4016_lig45-1

> <s_i_glide_gridfile>
glide-grid_3kgc

> <i_i_glide_lignum>
52

> <i_i_glide_rotatable_bonds>
4

> <r_i_docking_score>
-6.80401616290683

> <r_i_glide_ligand_efficiency>
-0.453601077527122

> <r_i_glide_ligand_efficiency_sa>
-1.11867645331689

> <r_i_glide_ligand_efficiency_ln>
-1.83493097285586

> <r_i_glide_gscore>
-6.80401616290683

> <r_i_glide_lipo>
-0.0615140192893413

> <r_i_glide_hbond>
-0.964716569880245

> <r_i_glide_metal>
0

> <r_i_glide_rewards>
-3.18342824937528

> <r_i_glide_evdw>
-22.880521774292

> <r_i_glide_ecoul>
-12.289155960083

> <r_i_glide_erotb>
0.498028654777635

> <r_i_glide_esite>
-0.104986496412547

> <r_i_glide_emodel>
-52.0828252685031

> <r_i_glide_energy>
-35.169677734375

> <r_i_glide_einternal>
3.4187695980072

> <i_i_glide_confnum>
7

> <i_i_glide_posenum>
133

> <r_i_glide_eff_state_penalty>
0

> <s_user_duplicate_titles>
CHEMBL4016_lig45,199497

> <i_f3d_flags>
0

> <s_m_subgroup_title>
dock_pv

> <s_m_subgroupid>
dock_pv

> <b_m_subgroup_collapsed>
0

$$$$
22979
                    3D
 Schrodinger Suite 2021-1.
 42 44  0  0  1  0            999 V2000
    6.8173   35.0209   -0.9836 C   0  0  0  0  0  0
    6.3487   34.5070    0.2263 C   0  0  0  0  0  0
    6.5408   33.1328    0.4942 C   0  0  0  0  0  0
    7.1117   32.3060   -0.4713 C   0  0  0  0  0  0
    7.5996   32.8225   -1.6706 C   0  0  0  0  0  0
    7.4636   34.1965   -1.8896 C   0  0  0  0  0  0
    7.9571   34.7329   -3.0607 N   0  0  0  0  0  0
    8.5249   34.0470   -4.0626 C   0  0  0  0  0  0
    8.8790   34.5796   -5.1020 O   0  0  0  0  0  0
    8.7148   32.5610   -3.8653 C   0  0  0  0  0  0
    9.2790   31.9368   -4.7716 O   0  0  0  0  0  0
    8.2438   32.0456   -2.6791 N   0  0  0  0  0  0
    8.4922   30.6045   -2.4164 C   0  0  0  0  0  0
   10.0199   30.4279   -1.3951 P   0  0  0  0  0  0
   10.8790   29.2471   -1.6642 O   0  0  0  0  0  0
   10.7364   31.8822   -1.5020 O   0  0  0  0  0  0
    9.4405   30.4470    0.1180 O   0  0  0  0  0  0
    6.2186   32.4903    1.6679 N   0  0  0  0  0  0
    4.9173   31.8286    1.8219 C   0  0  0  0  0  0
    4.9711   30.7357    2.8980 C   0  0  0  0  0  0
    5.5514   31.2470    4.0970 O   0  0  0  0  0  0
    6.8788   31.7239    3.9036 C   0  0  0  0  0  0
    6.7766   32.9209    2.9501 C   0  0  0  0  0  0
    5.6099   35.4512    1.1756 C   0  0  0  0  0  0
    6.3623   35.7283    2.2382 F   0  0  0  0  0  0
    5.2790   36.6067    0.5963 F   0  0  0  0  0  0
    4.4790   34.8883    1.5683 F   0  0  0  0  0  0
    7.7998   35.7189   -3.2509 H   0  0  0  0  0  0
    6.6909   36.0667   -1.2248 H   0  0  0  0  0  0
    7.2018   31.2573   -0.2379 H   0  0  0  0  0  0
    7.6392   30.1050   -1.9608 H   0  0  0  0  0  0
    8.6899   30.0733   -3.3488 H   0  0  0  0  0  0
   10.8792   32.2828   -0.5918 H   0  0  0  0  0  0
    9.9839   30.9480    0.7674 H   0  0  0  0  0  0
    4.6294   31.3654    0.8767 H   0  0  0  0  0  0
    4.1351   32.5485    2.0554 H   0  0  0  0  0  0
    3.9631   30.3827    3.1172 H   0  0  0  0  0  0
    5.5332   29.8697    2.5422 H   0  0  0  0  0  0
    7.2886   32.0382    4.8636 H   0  0  0  0  0  0
    7.5383   30.9463    3.5114 H   0  0  0  0  0  0
    6.1426   33.6865    3.3907 H   0  0  0  0  0  0
    7.7678   33.3503    2.8048 H   0  0  0  0  0  0
  1  6  1  0  0  0
  1  2  2  0  0  0
  1 29  1  0  0  0
  2  3  1  0  0  0
  2 24  1  0  0  0
  3  4  2  0  0  0
  3 18  1  0  0  0
  4  5  1  0  0  0
  4 30  1  0  0  0
  5 12  1  0  0  0
  5  6  2  0  0  0
  6  7  1  0  0  0
  7 28  1  0  0  0
  7  8  1  0  0  0
  8  9  2  0  0  0
  8 10  1  0  0  0
 10 11  2  0  0  0
 10 12  1  0  0  0
 12 13  1  0  0  0
 13 14  1  0  0  0
 13 31  1  0  0  0
 13 32  1  0  0  0
 14 15  2  0  0  0
 14 16  1  0  0  0
 14 17  1  0  0  0
 16 33  1  0  0  0
 17 34  1  0  0  0
 18 23  1  0  0  0
 18 19  1  0  0  0
 19 20  1  0  0  0
 19 35  1  0  0  0
 19 36  1  0  0  0
 20 21  1  0  0  0
 20 37  1  0  0  0
 20 38  1  0  0  0
 21 22  1  0  0  0
 22 23  1  0  0  0
 22 39  1  0  0  0
 22 40  1  0  0  0
 23 41  1  0  0  0
 23 42  1  0  0  0
 24 25  1  0  0  0
 24 26  1  0  0  0
 24 27  1  0  0  0
M  END
> <s_m_entry_id>
3853

> <s_m_entry_name>
ligand_docking-pose.1

> <s_m_Source_Path>
/home/csk/Desktop/cluster/DUD-E-result/gria2

> <s_m_Source_File>
ligand_docking-pose.sdf

> <i_m_Source_File_Index>
1

> <i_lp_mmshare_version>
53161

> <r_lp_tautomer_probability>
1

> <s_lp_Force_Field>
OPLS_2005

> <r_lp_Energy>
37.926744

> <b_lp_Chiralities_Consistent>
1

> <s_lp_Variant>
22979-1

> <s_i_glide_gridfile>
glide-grid_3kgc

> <i_i_glide_lignum>
129

> <i_i_glide_rotatable_bonds>
6

> <r_i_docking_score>
-10.7599468783673

> <r_i_glide_ligand_efficiency>
-0.398516551050641

> <r_i_glide_ligand_efficiency_sa>
-1.19554965183848

> <r_i_glide_ligand_efficiency_ln>
-2.50473824169572

> <r_i_glide_gscore>
-10.7599468783673

> <r_i_glide_lipo>
-1.21747105181609

> <r_i_glide_hbond>
-1.53886286592769

> <r_i_glide_metal>
0

> <r_i_glide_rewards>
-2.71419995242521

> <r_i_glide_evdw>
-28.3839626312256

> <r_i_glide_ecoul>
-32.5048522949219

> <r_i_glide_erotb>
0.24686373249088

> <r_i_glide_esite>
-0.11707860912792

> <r_i_glide_emodel>
-98.974711632384

> <r_i_glide_energy>
-60.8888149261475

> <r_i_glide_einternal>
8.44892024993896

> <i_i_glide_confnum>
50

> <i_i_glide_posenum>
303

> <r_i_glide_eff_state_penalty>
0

> <s_user_duplicate_titles>
22979

> <i_f3d_flags>
0

> <s_m_subgroup_title>
dock_pv

> <s_m_subgroupid>
dock_pv1

> <b_m_subgroup_collapsed>
0

$$$$
128473
                    3D
 Schrodinger Suite 2021-1.
 57 60  0  0  1  0            999 V2000
   -0.0978   26.7504   -0.8826 C   0  0  0  0  0  0
   -0.8543   27.4222   -1.8391 C   0  0  0  0  0  0
   -0.8971   28.8241   -1.8668 C   0  0  0  0  0  0
   -0.1391   29.5369   -0.9211 C   0  0  0  0  0  0
    0.6242   28.8701    0.0461 C   0  0  0  0  0  0
    0.6379   27.4661    0.0577 C   0  0  0  0  0  0
    1.3444   29.6834    0.9412 N   0  0  0  0  0  0
    2.0784   29.3487    2.0197 C   0  0  0  0  0  0
    2.2712   28.2088    2.4480 O   0  0  0  0  0  0
    2.6059   30.4461    2.5808 N   0  0  0  0  0  0
    3.7421   30.4683    3.4993 C   0  0  0  0  0  0
    4.9225   31.2517    2.9773 C   0  0  0  0  0  0
    6.0786   31.6470    3.6747 C   0  0  0  0  0  0
    6.8643   32.4213    2.8451 C   0  0  0  0  0  0
    6.2596   32.4781    1.6214 N   0  0  0  0  0  0
    5.1094   31.7433    1.6985 C   0  0  0  0  0  0
    6.7443   33.0842    0.4667 C   0  0  0  0  0  0
    7.4394   32.2594   -0.4205 C   0  0  0  0  0  0
    7.8759   32.7624   -1.6472 C   0  0  0  0  0  0
    7.6494   34.1185   -1.9192 C   0  0  0  0  0  0
    6.9540   34.9414   -1.0447 C   0  0  0  0  0  0
    6.4809   34.4355    0.1650 C   0  0  0  0  0  0
    5.6597   35.3392    1.0894 C   0  0  0  0  0  0
    5.4255   36.5459    0.5730 F   0  0  0  0  0  0
    4.4791   34.7807    1.3001 F   0  0  0  0  0  0
    6.2850   35.4948    2.2553 F   0  0  0  0  0  0
    8.0733   34.6318   -3.1283 N   0  0  0  0  0  0
    8.6193   33.9314   -4.1299 C   0  0  0  0  0  0
    8.8790   34.4471   -5.2043 O   0  0  0  0  0  0
    8.8922   32.4630   -3.8873 C   0  0  0  0  0  0
    9.4325   31.8224   -4.7958 O   0  0  0  0  0  0
    8.5079   31.9764   -2.6610 N   0  0  0  0  0  0
    8.7912   30.5376   -2.3941 C   0  0  0  0  0  0
   10.0776   30.3116   -1.5673 C   0  0  0  0  0  0
   10.3402   29.2472   -1.0507 O   0  0  0  0  0  0
   10.8695   31.4172   -1.5020 O   0  0  0  0  0  0
   -1.7164   29.5230   -2.9267 C   0  0  0  0  0  0
   -2.1733   28.9300   -3.9018 O   0  0  0  0  0  0
   -1.9459   30.8467   -2.7094 O   0  0  0  0  0  0
    7.8551   35.5956   -3.3531 H   0  0  0  0  0  0
   -0.0764   25.6711   -0.8745 H   0  0  0  0  0  0
   -1.4110   26.8398   -2.5601 H   0  0  0  0  0  0
   -0.1221   30.6182   -0.9299 H   0  0  0  0  0  0
    1.2172   26.9075    0.7750 H   0  0  0  0  0  0
    1.2999   30.6746    0.7442 H   0  0  0  0  0  0
    2.2443   31.3565    2.2976 H   0  0  0  0  0  0
    4.0792   29.4596    3.6976 H   0  0  0  0  0  0
    3.3957   30.8949    4.4420 H   0  0  0  0  0  0
    6.3232   31.4276    4.7024 H   0  0  0  0  0  0
    7.8063   32.9213    3.0079 H   0  0  0  0  0  0
    4.4791   31.6584    0.8266 H   0  0  0  0  0  0
    7.6009   31.2266   -0.1491 H   0  0  0  0  0  0
    6.7652   35.9695   -1.3220 H   0  0  0  0  0  0
    8.8718   29.9608   -3.3158 H   0  0  0  0  0  0
    7.9485   30.0752   -1.8803 H   0  0  0  0  0  0
   11.5210   31.3466   -0.7958 H   0  0  0  0  0  0
   -1.7428   31.1406   -1.8195 H   0  0  0  0  0  0
  1  6  1  0  0  0
  1  2  2  0  0  0
  1 41  1  0  0  0
  2  3  1  0  0  0
  2 42  1  0  0  0
  3  4  2  0  0  0
  3 37  1  0  0  0
  4  5  1  0  0  0
  4 43  1  0  0  0
  5  6  2  0  0  0
  5  7  1  0  0  0
  6 44  1  0  0  0
  7  8  1  0  0  0
  7 45  1  0  0  0
  8  9  2  0  0  0
  8 10  1  0  0  0
 10 11  1  0  0  0
 10 46  1  0  0  0
 11 12  1  0  0  0
 11 47  1  0  0  0
 11 48  1  0  0  0
 12 16  2  0  0  0
 12 13  1  0  0  0
 13 14  2  0  0  0
 13 49  1  0  0  0
 14 15  1  0  0  0
 14 50  1  0  0  0
 15 16  1  0  0  0
 15 17  1  0  0  0
 16 51  1  0  0  0
 17 22  1  0  0  0
 17 18  2  0  0  0
 18 19  1  0  0  0
 18 52  1  0  0  0
 19 32  1  0  0  0
 19 20  2  0  0  0
 20 21  1  0  0  0
 20 27  1  0  0  0
 21 22  2  0  0  0
 21 53  1  0  0  0
 22 23  1  0  0  0
 23 24  1  0  0  0
 23 25  1  0  0  0
 23 26  1  0  0  0
 27 40  1  0  0  0
 27 28  1  0  0  0
 28 29  2  0  0  0
 28 30  1  0  0  0
 30 31  2  0  0  0
 30 32  1  0  0  0
 32 33  1  0  0  0
 33 34  1  0  0  0
 33 54  1  0  0  0
 33 55  1  0  0  0
 34 35  2  0  0  0
 34 36  1  0  0  0
 36 56  1  0  0  0
 37 38  2  0  0  0
 37 39  1  0  0  0
 39 57  1  0  0  0
M  END
> <s_m_entry_id>
3854

> <s_m_entry_name>
ligand_docking-pose.2

> <s_m_Source_Path>
/home/csk/Desktop/cluster/DUD-E-result/gria2

> <s_m_Source_File>
ligand_docking-pose.sdf

> <i_m_Source_File_Index>
2

> <i_lp_mmshare_version>
53161

> <r_lp_tautomer_probability>
1

> <s_lp_Force_Field>
OPLS_2005

> <r_lp_Energy>
38.20397

> <b_lp_Chiralities_Consistent>
1

> <s_lp_Variant>
128473-1

> <s_i_glide_gridfile>
glide-grid_3kgc

> <i_i_glide_lignum>
198

> <i_i_glide_rotatable_bonds>
12

> <r_i_docking_score>
-9.83230000473162

> <r_i_glide_ligand_efficiency>
-0.25211025653158

> <r_i_glide_ligand_efficiency_sa>
-0.854959185807066

> <r_i_glide_ligand_efficiency_ln>
-2.10832422744783

> <r_i_glide_gscore>
-9.83230000473162

> <r_i_glide_lipo>
-1.11710363347157

> <r_i_glide_hbond>
-1.10351274809013

> <r_i_glide_metal>
0

> <r_i_glide_rewards>
-2.20976995244993

> <r_i_glide_evdw>
-39.4303588867188

> <r_i_glide_ecoul>
-23.4973220825195

> <r_i_glide_erotb>
0.438456934147517

> <r_i_glide_esite>
-0.34425434815364

> <r_i_glide_emodel>
-97.6677368808448

> <r_i_glide_energy>
-62.9276809692383

> <r_i_glide_einternal>
9.60497188568115

> <i_i_glide_confnum>
154

> <i_i_glide_posenum>
186

> <r_i_glide_eff_state_penalty>
0

> <s_user_duplicate_titles>
128473

> <i_f3d_flags>
0

> <s_m_subgroup_title>
dock_pv

> <s_m_subgroupid>
dock_pv1

> <b_m_subgroup_collapsed>
0

$$$$
11514
                    3D
 Schrodinger Suite 2021-1.
 55 58  0  0  1  0            999 V2000
    0.4116   32.0260    7.9327 C   0  0  0  0  0  0
    0.4786   32.8002    6.7760 C   0  0  0  0  0  0
    0.3168   32.1994    5.5302 C   0  0  0  0  0  0
    0.0700   30.8257    5.4458 C   0  0  0  0  0  0
    0.0042   30.0565    6.6129 C   0  0  0  0  0  0
    0.1766   30.6555    7.8574 C   0  0  0  0  0  0
   -0.0953   30.1648    4.0790 C   0  0  0  0  0  0
    1.1292   29.3202    3.7153 C   0  0  0  0  0  0
    1.2788   28.2059    4.2224 O   0  0  0  0  0  0
    2.0082   29.8743    2.8663 N   0  0  0  0  0  0
    3.3022   29.3087    2.4969 C   0  0  0  0  0  0
    4.3157   30.4192    2.3226 C   0  0  0  0  0  0
    4.8773   31.2473    3.2985 C   0  0  0  0  0  0
    5.7613   32.1309    2.7028 C   0  0  0  0  0  0
    5.7105   31.9499    1.3440 N   0  0  0  0  0  0
    4.8781   30.8713    1.1378 C   0  0  0  0  0  0
    6.3771   32.6776    0.3344 C   0  0  0  0  0  0
    7.0646   31.9178   -0.6184 C   0  0  0  0  0  0
    7.6799   32.5199   -1.7203 C   0  0  0  0  0  0
    7.5829   33.9099   -1.8464 C   0  0  0  0  0  0
    6.9273   34.6834   -0.9005 C   0  0  0  0  0  0
    6.3295   34.0889    0.2154 C   0  0  0  0  0  0
    5.6078   35.0124    1.2019 C   0  0  0  0  0  0
    4.4791   34.4690    1.6241 F   0  0  0  0  0  0
    6.4067   35.2366    2.2449 F   0  0  0  0  0  0
    5.2877   36.1924    0.6645 F   0  0  0  0  0  0
    8.0780   34.5080   -2.9940 N   0  0  0  0  0  0
    8.6249   33.8731   -4.0440 C   0  0  0  0  0  0
    8.8787   34.4414   -5.1020 O   0  0  0  0  0  0
    8.8781   32.3852   -3.8852 C   0  0  0  0  0  0
    9.5064   31.8130   -4.7810 O   0  0  0  0  0  0
    8.3929   31.8068   -2.7331 N   0  0  0  0  0  0
    8.6258   30.3456   -2.5639 C   0  0  0  0  0  0
    9.8839   30.0990   -1.7160 C   0  0  0  0  0  0
   10.9075   29.6473   -2.1768 O   0  0  0  0  0  0
    9.6794   30.4473   -0.4158 O   0  0  0  0  0  0
    7.9037   35.4949   -3.1404 H   0  0  0  0  0  0
    0.5474   32.4904    8.8977 H   0  0  0  0  0  0
    0.6728   33.8602    6.8429 H   0  0  0  0  0  0
    0.3951   32.7996    4.6336 H   0  0  0  0  0  0
   -0.1722   28.9923    6.5512 H   0  0  0  0  0  0
    0.1309   30.0599    8.7575 H   0  0  0  0  0  0
   -0.9783   29.5265    4.0815 H   0  0  0  0  0  0
   -0.2648   30.9218    3.3101 H   0  0  0  0  0  0
    1.8066   30.7941    2.4890 H   0  0  0  0  0  0
    3.6615   28.6043    3.2500 H   0  0  0  0  0  0
    3.1810   28.7516    1.5668 H   0  0  0  0  0  0
    4.6312   31.2447    4.3492 H   0  0  0  0  0  0
    6.3722   32.9157    3.1239 H   0  0  0  0  0  0
    4.6844   30.5452    0.1266 H   0  0  0  0  0  0
    7.1034   30.8488   -0.4826 H   0  0  0  0  0  0
    6.8677   35.7545   -1.0503 H   0  0  0  0  0  0
    7.7667   29.8383   -2.1298 H   0  0  0  0  0  0
    8.7500   29.8469   -3.5256 H   0  0  0  0  0  0
   10.4925   30.5345    0.0939 H   0  0  0  0  0  0
  1  6  1  0  0  0
  1  2  2  0  0  0
  1 38  1  0  0  0
  2  3  1  0  0  0
  2 39  1  0  0  0
  3  4  2  0  0  0
  3 40  1  0  0  0
  4  5  1  0  0  0
  4  7  1  0  0  0
  5  6  2  0  0  0
  5 41  1  0  0  0
  6 42  1  0  0  0
  7  8  1  0  0  0
  7 43  1  0  0  0
  7 44  1  0  0  0
  8  9  2  0  0  0
  8 10  1  0  0  0
 10 11  1  0  0  0
 10 45  1  0  0  0
 11 12  1  0  0  0
 11 46  1  0  0  0
 11 47  1  0  0  0
 12 16  2  0  0  0
 12 13  1  0  0  0
 13 14  2  0  0  0
 13 48  1  0  0  0
 14 15  1  0  0  0
 14 49  1  0  0  0
 15 16  1  0  0  0
 15 17  1  0  0  0
 16 50  1  0  0  0
 17 22  1  0  0  0
 17 18  2  0  0  0
 18 19  1  0  0  0
 18 51  1  0  0  0
 19 32  1  0  0  0
 19 20  2  0  0  0
 20 21  1  0  0  0
 20 27  1  0  0  0
 21 22  2  0  0  0
 21 52  1  0  0  0
 22 23  1  0  0  0
 23 24  1  0  0  0
 23 25  1  0  0  0
 23 26  1  0  0  0
 27 37  1  0  0  0
 27 28  1  0  0  0
 28 29  2  0  0  0
 28 30  1  0  0  0
 30 31  2  0  0  0
 30 32  1  0  0  0
 32 33  1  0  0  0
 33 34  1  0  0  0
 33 53  1  0  0  0
 33 54  1  0  0  0
 34 35  2  0  0  0
 34 36  1  0  0  0
 36 55  1  0  0  0
M  END
> <s_m_entry_id>
3855

> <s_m_entry_name>
ligand_docking-pose.3

> <s_m_Source_Path>
/home/csk/Desktop/cluster/DUD-E-result/gria2

> <s_m_Source_File>
ligand_docking-pose.sdf

> <i_m_Source_File_Index>
3

> <i_lp_mmshare_version>
53161

> <r_lp_tautomer_probability>
1

> <s_lp_Force_Field>
OPLS_2005

> <r_lp_Energy>
32.902146

> <b_lp_Chiralities_Consistent>
1

> <s_lp_Variant>
11514-1

> <s_i_glide_gridfile>
glide-grid_3kgc

> <i_i_glide_lignum>
146

> <i_i_glide_rotatable_bonds>
10

> <r_i_docking_score>
-9.42898457736287

> <r_i_glide_ligand_efficiency>
-0.26191623826008

> <r_i_glide_ligand_efficiency_sa>
-0.864828363005891

> <r_i_glide_ligand_efficiency_ln>
-2.05714969305633

> <r_i_glide_gscore>
-9.42898457736287

> <r_i_glide_lipo>
-1.72768025530811

> <r_i_glide_hbond>
-1.33351251628198

> <r_i_glide_metal>
0

> <r_i_glide_rewards>
-1.74609174893436

> <r_i_glide_evdw>
-47.9707794189453

> <r_i_glide_ecoul>
-16.1304187774658

> <r_i_glide_erotb>
0.399541360536283

> <r_i_glide_esite>
-0.203139629807567

> <r_i_glide_emodel>
-94.6884898643297

> <r_i_glide_energy>
-64.1011981964111

> <r_i_glide_einternal>
10.3596248626709

> <i_i_glide_confnum>
50

> <i_i_glide_posenum>
357

> <r_i_glide_eff_state_penalty>
0

> <s_user_duplicate_titles>
11514

> <i_f3d_flags>
0

> <s_m_subgroup_title>
dock_pv

> <s_m_subgroupid>
dock_pv1

> <b_m_subgroup_collapsed>
0

$$$$
11425
                    3D
 Schrodinger Suite 2021-1.
 57 60  0  0  1  0            999 V2000
   -0.4302   28.6224   -2.5420 C   0  0  0  0  0  0
    0.3309   29.3087   -1.5989 C   0  0  0  0  0  0
    0.7636   28.6624   -0.4391 C   0  0  0  0  0  0
    0.4214   27.3178   -0.2270 C   0  0  0  0  0  0
   -0.3406   26.6351   -1.1697 C   0  0  0  0  0  0
   -0.7711   27.2814   -2.3324 C   0  0  0  0  0  0
   -1.6318   26.5375   -3.3533 C   0  0  0  0  0  0
   -0.8478   26.0519   -4.3147 F   0  0  0  0  0  0
   -2.2911   25.5204   -2.7947 F   0  0  0  0  0  0
   -2.5333   27.3541   -3.9014 F   0  0  0  0  0  0
    1.5046   29.4435    0.4648 N   0  0  0  0  0  0
    2.1772   29.0645    1.5672 C   0  0  0  0  0  0
    2.3577   27.9074    1.9527 O   0  0  0  0  0  0
    2.6598   30.1363    2.2057 N   0  0  0  0  0  0
    3.7365   30.1329    3.1921 C   0  0  0  0  0  0
    4.8567   31.0870    2.8468 C   0  0  0  0  0  0
    5.9370   31.5257    3.6391 C   0  0  0  0  0  0
    6.7375   32.3732    2.8967 C   0  0  0  0  0  0
    6.1740   32.4884    1.6575 N   0  0  0  0  0  0
    5.0558   31.7082    1.6350 C   0  0  0  0  0  0
    6.6980   33.1098    0.5352 C   0  0  0  0  0  0
    7.3456   32.2671   -0.3657 C   0  0  0  0  0  0
    7.8206   32.7634   -1.5761 C   0  0  0  0  0  0
    7.6440   34.1303   -1.8318 C   0  0  0  0  0  0
    6.9790   34.9710   -0.9511 C   0  0  0  0  0  0
    6.4885   34.4712    0.2526 C   0  0  0  0  0  0
    5.6802   35.3833    1.1741 C   0  0  0  0  0  0
    5.4986   36.6084    0.6808 F   0  0  0  0  0  0
    4.4792   34.8466    1.3221 F   0  0  0  0  0  0
    6.2742   35.4865    2.3623 F   0  0  0  0  0  0
    8.0790   34.6374   -3.0332 N   0  0  0  0  0  0
    8.6198   33.9302   -4.0313 C   0  0  0  0  0  0
    8.8797   34.4469   -5.1021 O   0  0  0  0  0  0
    8.8608   32.4526   -3.7978 C   0  0  0  0  0  0
    9.4057   31.8114   -4.7032 O   0  0  0  0  0  0
    8.4298   31.9602   -2.5889 N   0  0  0  0  0  0
    8.5865   30.4958   -2.3618 C   0  0  0  0  0  0
    9.9032   30.2007   -1.6323 C   0  0  0  0  0  0
   10.8984   29.8058   -2.1974 O   0  0  0  0  0  0
    9.7807   30.4470   -0.3008 O   0  0  0  0  0  0
    7.8819   35.6063   -3.2553 H   0  0  0  0  0  0
   -0.7505   29.1359   -3.4381 H   0  0  0  0  0  0
    0.5802   30.3461   -1.7760 H   0  0  0  0  0  0
    0.7177   26.7856    0.6626 H   0  0  0  0  0  0
   -0.5977   25.6013   -0.9882 H   0  0  0  0  0  0
    1.5620   30.4257    0.2324 H   0  0  0  0  0  0
    2.2826   31.0495    1.9706 H   0  0  0  0  0  0
    4.1483   29.1281    3.2980 H   0  0  0  0  0  0
    3.2768   30.4475    4.1213 H   0  0  0  0  0  0
    6.1479   31.2474    4.6598 H   0  0  0  0  0  0
    7.6733   32.8677    3.1209 H   0  0  0  0  0  0
    4.4791   31.6461    0.7232 H   0  0  0  0  0  0
    7.4387   31.2227   -0.1109 H   0  0  0  0  0  0
    6.8242   36.0075   -1.2205 H   0  0  0  0  0  0
    8.5801   29.9446   -3.3033 H   0  0  0  0  0  0
    7.7439   30.0726   -1.8169 H   0  0  0  0  0  0
   10.6257   30.5802    0.1421 H   0  0  0  0  0  0
  1  6  1  0  0  0
  1  2  2  0  0  0
  1 42  1  0  0  0
  2  3  1  0  0  0
  2 43  1  0  0  0
  3  4  2  0  0  0
  3 11  1  0  0  0
  4  5  1  0  0  0
  4 44  1  0  0  0
  5  6  2  0  0  0
  5 45  1  0  0  0
  6  7  1  0  0  0
  7  8  1  0  0  0
  7  9  1  0  0  0
  7 10  1  0  0  0
 11 12  1  0  0  0
 11 46  1  0  0  0
 12 13  2  0  0  0
 12 14  1  0  0  0
 14 15  1  0  0  0
 14 47  1  0  0  0
 15 16  1  0  0  0
 15 48  1  0  0  0
 15 49  1  0  0  0
 16 20  2  0  0  0
 16 17  1  0  0  0
 17 18  2  0  0  0
 17 50  1  0  0  0
 18 19  1  0  0  0
 18 51  1  0  0  0
 19 20  1  0  0  0
 19 21  1  0  0  0
 20 52  1  0  0  0
 21 26  1  0  0  0
 21 22  2  0  0  0
 22 23  1  0  0  0
 22 53  1  0  0  0
 23 36  1  0  0  0
 23 24  2  0  0  0
 24 25  1  0  0  0
 24 31  1  0  0  0
 25 26  2  0  0  0
 25 54  1  0  0  0
 26 27  1  0  0  0
 27 28  1  0  0  0
 27 29  1  0  0  0
 27 30  1  0  0  0
 31 41  1  0  0  0
 31 32  1  0  0  0
 32 33  2  0  0  0
 32 34  1  0  0  0
 34 35  2  0  0  0
 34 36  1  0  0  0
 36 37  1  0  0  0
 37 38  1  0  0  0
 37 55  1  0  0  0
 37 56  1  0  0  0
 38 39  2  0  0  0
 38 40  1  0  0  0
 40 57  1  0  0  0
M  END
> <s_m_entry_id>
3856

> <s_m_entry_name>
ligand_docking-pose.4

> <s_m_Source_Path>
/home/csk/Desktop/cluster/DUD-E-result/gria2

> <s_m_Source_File>
ligand_docking-pose.sdf

> <i_m_Source_File_Index>
4

> <i_lp_mmshare_version>
53161

> <r_lp_tautomer_probability>
1

> <s_lp_Force_Field>
OPLS_2005

> <r_lp_Energy>
38.630461

> <b_lp_Chiralities_Consistent>
1

> <s_lp_Variant>
11425-1

> <s_i_glide_gridfile>
glide-grid_3kgc

> <i_i_glide_lignum>
147

> <i_i_glide_rotatable_bonds>
11

> <r_i_docking_score>
-9.24160020608688

> <r_i_glide_ligand_efficiency>
-0.231040005152172

> <r_i_glide_ligand_efficiency_sa>
-0.790145702088965

> <r_i_glide_ligand_efficiency_ln>
-1.97096135580506

> <r_i_glide_gscore>
-9.24160020608688

> <r_i_glide_lipo>
-1.10080738760793

> <r_i_glide_hbond>
-1.37883958302138

> <r_i_glide_metal>
0

> <r_i_glide_rewards>
-2.0491402305524

> <r_i_glide_evdw>
-43.1644821166992

> <r_i_glide_ecoul>
-17.1032905578613

> <r_i_glide_erotb>
0.29748097363064

> <r_i_glide_esite>
-0.286576289021649

> <r_i_glide_emodel>
-89.8582376701453

> <r_i_glide_energy>
-60.2677726745605

> <r_i_glide_einternal>
8.67115497589111

> <i_i_glide_confnum>
58

> <i_i_glide_posenum>
387

> <r_i_glide_eff_state_penalty>
0

> <s_user_duplicate_titles>
11425

> <i_f3d_flags>
0

> <s_m_subgroup_title>
dock_pv

> <s_m_subgroupid>
dock_pv1

> <b_m_subgroup_collapsed>
0

$$$$
11103
                    3D
 Schrodinger Suite 2021-1.
 35 37  0  0  1  0            999 V2000
    6.1477   31.4774    3.6743 C   0  0  0  0  0  0
    5.0811   30.8979    2.9711 C   0  0  0  0  0  0
    5.0924   31.4355    1.7067 C   0  0  0  0  0  0
    6.0997   32.3597    1.6241 N   0  0  0  0  0  0
    6.7367   32.4049    2.8378 C   0  0  0  0  0  0
    6.5091   32.9885    0.4541 C   0  0  0  0  0  0
    7.1013   32.1568   -0.4951 C   0  0  0  0  0  0
    7.6427   32.6876   -1.6638 C   0  0  0  0  0  0
    7.5072   34.0651   -1.8759 C   0  0  0  0  0  0
    6.8666   34.8934   -0.9618 C   0  0  0  0  0  0
    6.3740   34.3721    0.2352 C   0  0  0  0  0  0
    5.6659   35.2995    1.2271 C   0  0  0  0  0  0
    6.4792   35.5718    2.2460 F   0  0  0  0  0  0
    5.2794   36.4481    0.6692 F   0  0  0  0  0  0
    4.5758   34.7123    1.6975 F   0  0  0  0  0  0
    7.9885   34.5961   -3.0537 N   0  0  0  0  0  0
    8.5750   33.9143   -4.0472 C   0  0  0  0  0  0
    8.8800   34.4470   -5.1020 O   0  0  0  0  0  0
    8.8256   32.4379   -3.8246 C   0  0  0  0  0  0
    9.4440   31.8249   -4.7023 O   0  0  0  0  0  0
    8.3432   31.9185   -2.6474 N   0  0  0  0  0  0
    8.6097   30.4726   -2.3967 C   0  0  0  0  0  0
    9.8715   30.2997   -1.5341 C   0  0  0  0  0  0
   10.8792   29.7553   -1.9291 O   0  0  0  0  0  0
    9.6788   30.8429   -0.3028 O   0  0  0  0  0  0
    7.8130   35.5730   -3.2556 H   0  0  0  0  0  0
    6.4809   31.2478    4.6760 H   0  0  0  0  0  0
    4.3872   30.1389    3.2981 H   0  0  0  0  0  0
    4.4782   31.2389    0.8412 H   0  0  0  0  0  0
    7.5968   33.0454    2.9746 H   0  0  0  0  0  0
    7.1761   31.1027   -0.2757 H   0  0  0  0  0  0
    6.7552   35.9463   -1.1816 H   0  0  0  0  0  0
    8.7411   29.9172   -3.3265 H   0  0  0  0  0  0
    7.7609   29.9842   -1.9231 H   0  0  0  0  0  0
   10.4810   31.0705    0.1891 H   0  0  0  0  0  0
  1  5  2  0  0  0
  1  2  1  0  0  0
  1 27  1  0  0  0
  2  3  2  0  0  0
  2 28  1  0  0  0
  3  4  1  0  0  0
  3 29  1  0  0  0
  4  5  1  0  0  0
  4  6  1  0  0  0
  5 30  1  0  0  0
  6 11  1  0  0  0
  6  7  2  0  0  0
  7  8  1  0  0  0
  7 31  1  0  0  0
  8 21  1  0  0  0
  8  9  2  0  0  0
  9 10  1  0  0  0
  9 16  1  0  0  0
 10 11  2  0  0  0
 10 32  1  0  0  0
 11 12  1  0  0  0
 12 13  1  0  0  0
 12 14  1  0  0  0
 12 15  1  0  0  0
 16 26  1  0  0  0
 16 17  1  0  0  0
 17 18  2  0  0  0
 17 19  1  0  0  0
 19 20  2  0  0  0
 19 21  1  0  0  0
 21 22  1  0  0  0
 22 23  1  0  0  0
 22 33  1  0  0  0
 22 34  1  0  0  0
 23 24  2  0  0  0
 23 25  1  0  0  0
 25 35  1  0  0  0
M  END
> <s_m_entry_id>
3857

> <s_m_entry_name>
ligand_docking-pose.5

> <s_m_Source_Path>
/home/csk/Desktop/cluster/DUD-E-result/gria2

> <s_m_Source_File>
ligand_docking-pose.sdf

> <i_m_Source_File_Index>
5

> <i_lp_mmshare_version>
53161

> <r_lp_tautomer_probability>
1

> <s_lp_Force_Field>
OPLS_2005

> <r_lp_Energy>
28.864405

> <b_lp_Chiralities_Consistent>
1

> <s_lp_Variant>
11103-1

> <s_i_glide_gridfile>
glide-grid_3kgc

> <i_i_glide_lignum>
224

> <i_i_glide_rotatable_bonds>
5

> <r_i_docking_score>
-8.95716678602693

> <r_i_glide_ligand_efficiency>
-0.358286671441077

> <r_i_glide_ligand_efficiency_sa>
-1.04763658153488

> <r_i_glide_ligand_efficiency_ln>
-2.12311695291642

> <r_i_glide_gscore>
-8.95716678602693

> <r_i_glide_lipo>
-1.19651725369362

> <r_i_glide_hbond>
-1.23339193861308

> <r_i_glide_metal>
0

> <r_i_glide_rewards>
-2.97938048222948

> <r_i_glide_evdw>
-30.3316688537598

> <r_i_glide_ecoul>
-15.0567121505737

> <r_i_glide_erotb>
0.321335902022791

> <r_i_glide_esite>
-0.0941227482394984

> <r_i_glide_emodel>
-67.4805243789462

> <r_i_glide_energy>
-45.3883810043335

> <r_i_glide_einternal>
7.3176646232605

> <i_i_glide_confnum>
12

> <i_i_glide_posenum>
198

> <r_i_glide_eff_state_penalty>
0

> <s_user_duplicate_titles>
11103

> <i_f3d_flags>
0

> <s_m_subgroup_title>
dock_pv

> <s_m_subgroupid>
dock_pv1

> <b_m_subgroup_collapsed>
0

$$$$
11173
                    3D
 Schrodinger Suite 2021-1.
 58 61  0  0  1  0            999 V2000
   -0.1108   31.6665    4.5846 C   0  0  0  0  0  0
    0.6677   31.9084    5.7176 C   0  0  0  0  0  0
    0.8772   30.9772    6.6824 N   0  0  0  0  0  0
    0.2947   29.7616    6.5225 C   0  0  0  0  0  0
   -0.4941   29.4360    5.4169 C   0  0  0  0  0  0
   -0.6962   30.4044    4.4282 C   0  0  0  0  0  0
   -1.4878   30.0662    3.1685 C   0  0  0  0  0  0
   -0.7115   29.2201    2.1281 C   0  0  0  0  0  0
    0.6240   29.7571    1.8485 N   0  0  0  0  0  0
    1.7475   29.3866    2.4787 C   0  0  0  0  0  0
    1.9661   28.2507    2.9087 O   0  0  0  0  0  0
    2.5359   30.4468    2.7009 N   0  0  0  0  0  0
    3.7103   30.4473    3.5653 C   0  0  0  0  0  0
    4.8565   31.2497    3.0257 C   0  0  0  0  0  0
    6.0323   31.6468    3.6879 C   0  0  0  0  0  0
    6.7732   32.4382    2.8368 C   0  0  0  0  0  0
    6.1119   32.5087    1.6428 N   0  0  0  0  0  0
    4.9840   31.7511    1.7496 C   0  0  0  0  0  0
    6.5569   33.1018    0.4725 C   0  0  0  0  0  0
    7.1501   32.2457   -0.4536 C   0  0  0  0  0  0
    7.6623   32.7443   -1.6501 C   0  0  0  0  0  0
    7.5018   34.1138   -1.9016 C   0  0  0  0  0  0
    6.8500   34.9619   -1.0145 C   0  0  0  0  0  0
    6.3812   34.4703    0.2024 C   0  0  0  0  0  0
    5.7173   35.3966    1.1410 N   0  3  0  0  0  0
    4.8791   36.1680    0.6874 O   0  5  0  0  0  0
    6.0792   35.3904    2.3109 O   0  0  0  0  0  0
    7.9833   34.6219   -3.0865 N   0  0  0  0  0  0
    8.5869   33.9246   -4.0567 C   0  0  0  0  0  0
    8.9291   34.4468   -5.1020 O   0  0  0  0  0  0
    8.8178   32.4490   -3.8207 C   0  0  0  0  0  0
    9.4098   31.8150   -4.7020 O   0  0  0  0  0  0
    8.3364   31.9512   -2.6338 N   0  0  0  0  0  0
    8.5837   30.5046   -2.3728 C   0  0  0  0  0  0
    9.8663   30.3311   -1.5442 C   0  0  0  0  0  0
   10.8789   29.8178   -1.9691 O   0  0  0  0  0  0
    9.6790   30.8468   -0.3020 O   0  0  0  0  0  0
    7.8090   35.5965   -3.3055 H   0  0  0  0  0  0
   -0.2209   32.4292    3.8266 H   0  0  0  0  0  0
    1.1567   32.8613    5.8557 H   0  0  0  0  0  0
    0.4811   29.0351    7.2991 H   0  0  0  0  0  0
   -0.9202   28.4489    5.3155 H   0  0  0  0  0  0
   -1.8181   30.9955    2.7012 H   0  0  0  0  0  0
   -2.4069   29.5530    3.4536 H   0  0  0  0  0  0
   -1.2547   29.1890    1.1827 H   0  0  0  0  0  0
   -0.5997   28.1988    2.5001 H   0  0  0  0  0  0
    0.6592   30.6024    1.2945 H   0  0  0  0  0  0
    2.2633   31.3451    2.3056 H   0  0  0  0  0  0
    4.0790   29.4349    3.6887 H   0  0  0  0  0  0
    3.4012   30.8477    4.5285 H   0  0  0  0  0  0
    6.3187   31.4129    4.7022 H   0  0  0  0  0  0
    7.7199   32.9402    2.9629 H   0  0  0  0  0  0
    4.3302   31.6473    0.8981 H   0  0  0  0  0  0
    7.2276   31.1980   -0.2044 H   0  0  0  0  0  0
    6.7192   36.0078   -1.2610 H   0  0  0  0  0  0
    8.6789   29.9349   -3.2984 H   0  0  0  0  0  0
    7.7404   30.0378   -1.8666 H   0  0  0  0  0  0
   10.4845   31.0853    0.1810 H   0  0  0  0  0  0
  1  6  1  0  0  0
  1  2  2  0  0  0
  1 39  1  0  0  0
  2  3  1  0  0  0
  2 40  1  0  0  0
  3  4  2  0  0  0
  4  5  1  0  0  0
  4 41  1  0  0  0
  5  6  2  0  0  0
  5 42  1  0  0  0
  6  7  1  0  0  0
  7  8  1  0  0  0
  7 43  1  0  0  0
  7 44  1  0  0  0
  8  9  1  0  0  0
  8 45  1  0  0  0
  8 46  1  0  0  0
  9 10  1  0  0  0
  9 47  1  0  0  0
 10 11  2  0  0  0
 10 12  1  0  0  0
 12 13  1  0  0  0
 12 48  1  0  0  0
 13 14  1  0  0  0
 13 49  1  0  0  0
 13 50  1  0  0  0
 14 18  2  0  0  0
 14 15  1  0  0  0
 15 16  2  0  0  0
 15 51  1  0  0  0
 16 17  1  0  0  0
 16 52  1  0  0  0
 17 18  1  0  0  0
 17 19  1  0  0  0
 18 53  1  0  0  0
 19 24  1  0  0  0
 19 20  2  0  0  0
 20 21  1  0  0  0
 20 54  1  0  0  0
 21 33  1  0  0  0
 21 22  2  0  0  0
 22 23  1  0  0  0
 22 28  1  0  0  0
 23 24  2  0  0  0
 23 55  1  0  0  0
 24 25  1  0  0  0
 25 26  1  0  0  0
 25 27  2  0  0  0
 28 38  1  0  0  0
 28 29  1  0  0  0
 29 30  2  0  0  0
 29 31  1  0  0  0
 31 32  2  0  0  0
 31 33  1  0  0  0
 33 34  1  0  0  0
 34 35  1  0  0  0
 34 56  1  0  0  0
 34 57  1  0  0  0
 35 36  2  0  0  0
 35 37  1  0  0  0
 37 58  1  0  0  0
M  CHG  2  25   1  26  -1
M  END
> <s_m_entry_id>
3858

> <s_m_entry_name>
ligand_docking-pose.6

> <s_m_Source_Path>
/home/csk/Desktop/cluster/DUD-E-result/gria2

> <s_m_Source_File>
ligand_docking-pose.sdf

> <i_m_Source_File_Index>
6

> <i_lp_mmshare_version>
53161

> <r_lp_tautomer_probability>
1

> <s_lp_Force_Field>
OPLS_2005

> <r_lp_Energy>
33.64672

> <b_lp_Chiralities_Consistent>
1

> <s_lp_Variant>
11173-1

> <s_i_glide_gridfile>
glide-grid_3kgc

> <i_i_glide_lignum>
271

> <i_i_glide_rotatable_bonds>
12

> <r_i_docking_score>
-8.88355835206182

> <r_i_glide_ligand_efficiency>
-0.240096171677346

> <r_i_glide_ligand_efficiency_sa>
-0.800053708796816

> <r_i_glide_ligand_efficiency_ln>
-1.92663554640628

> <r_i_glide_gscore>
-8.88355835206182

> <r_i_glide_lipo>
-1.05214567217035

> <r_i_glide_hbond>
-1.39418920306114

> <r_i_glide_metal>
0

> <r_i_glide_rewards>
-1.08569690886264

> <r_i_glide_evdw>
-43.6519241333008

> <r_i_glide_ecoul>
-22.3050231933594

> <r_i_glide_erotb>
0.500719077563276

> <r_i_glide_esite>
-0.323895959862026

> <r_i_glide_emodel>
-96.4437910142193

> <r_i_glide_energy>
-65.9569473266602

> <r_i_glide_einternal>
13.0502395629883

> <i_i_glide_confnum>
1

> <i_i_glide_posenum>
210

> <r_i_glide_eff_state_penalty>
0

> <s_user_duplicate_titles>
11173

> <i_f3d_flags>
0

> <s_m_subgroup_title>
dock_pv

> <s_m_subgroupid>
dock_pv1

> <b_m_subgroup_collapsed>
0

$$$$
193817
                    3D
 Schrodinger Suite 2021-1.
 33 35  0  0  1  0            999 V2000
    6.2621   31.6469    3.6980 C   0  0  0  0  0  0
    6.8397   32.5668    2.8587 C   0  0  0  0  0  0
    6.1580   32.4538    1.6841 N   0  0  0  0  0  0
    5.1806   31.5240    1.9327 C   0  0  0  0  0  0
    5.2117   31.0588    3.1543 N   0  0  0  0  0  0
    6.5106   33.0247    0.4673 C   0  0  0  0  0  0
    7.1540   32.1790   -0.4449 C   0  0  0  0  0  0
    7.5876   32.6704   -1.6787 C   0  0  0  0  0  0
    7.3152   34.0114   -1.9725 C   0  0  0  0  0  0
    6.6673   34.8524   -1.0794 C   0  0  0  0  0  0
    6.2815   34.3834    0.1729 C   0  0  0  0  0  0
    5.6813   35.3422    1.1243 N   0  3  0  0  0  0
    6.0800   35.3452    2.2815 O   0  5  0  0  0  0
    4.8727   36.1525    0.6874 O   0  0  0  0  0  0
    7.7468   34.5196   -3.1764 N   0  0  0  0  0  0
    8.4790   33.8817   -4.0970 C   0  0  0  0  0  0
    8.8825   34.4469   -5.1022 O   0  0  0  0  0  0
    8.7794   32.4208   -3.8426 C   0  0  0  0  0  0
    9.4195   31.8096   -4.7053 O   0  0  0  0  0  0
    8.2952   31.9057   -2.6615 N   0  0  0  0  0  0
    8.6482   30.4899   -2.3598 C   0  0  0  0  0  0
    9.9281   30.3605   -1.5015 C   0  0  0  0  0  0
   10.2138   29.3425   -0.9105 O   0  0  0  0  0  0
   10.6787   31.4983   -1.5021 O   0  0  0  0  0  0
    7.5261   35.4851   -3.4028 H   0  0  0  0  0  0
    6.6059   31.4316    4.6984 H   0  0  0  0  0  0
    7.6771   33.2361    2.9576 H   0  0  0  0  0  0
    4.4851   31.2458    1.1534 H   0  0  0  0  0  0
    7.3403   31.1544   -0.1586 H   0  0  0  0  0  0
    6.4876   35.8852   -1.3423 H   0  0  0  0  0  0
    8.7835   29.9061   -3.2711 H   0  0  0  0  0  0
    7.8215   29.9913   -1.8561 H   0  0  0  0  0  0
   11.2801   31.5297   -0.7459 H   0  0  0  0  0  0
  1  5  1  0  0  0
  1  2  2  0  0  0
  1 26  1  0  0  0
  2  3  1  0  0  0
  2 27  1  0  0  0
  3  4  1  0  0  0
  3  6  1  0  0  0
  4  5  2  0  0  0
  4 28  1  0  0  0
  6 11  1  0  0  0
  6  7  2  0  0  0
  7  8  1  0  0  0
  7 29  1  0  0  0
  8 20  1  0  0  0
  8  9  2  0  0  0
  9 10  1  0  0  0
  9 15  1  0  0  0
 10 11  2  0  0  0
 10 30  1  0  0  0
 11 12  1  0  0  0
 12 13  1  0  0  0
 12 14  2  0  0  0
 15 25  1  0  0  0
 15 16  1  0  0  0
 16 17  2  0  0  0
 16 18  1  0  0  0
 18 19  2  0  0  0
 18 20  1  0  0  0
 20 21  1  0  0  0
 21 22  1  0  0  0
 21 31  1  0  0  0
 21 32  1  0  0  0
 22 23  2  0  0  0
 22 24  1  0  0  0
 24 33  1  0  0  0
M  CHG  2  12   1  13  -1
M  END
> <s_m_entry_id>
3859

> <s_m_entry_name>
ligand_docking-pose.7

> <s_m_Source_Path>
/home/csk/Desktop/cluster/DUD-E-result/gria2

> <s_m_Source_File>
ligand_docking-pose.sdf

> <i_m_Source_File_Index>
7

> <i_lp_mmshare_version>
53161

> <r_lp_tautomer_probability>
1

> <s_lp_Force_Field>
OPLS_2005

> <r_lp_Energy>
34.561562

> <b_lp_Chiralities_Consistent>
1

> <s_lp_Variant>
193817-1

> <s_i_glide_gridfile>
glide-grid_3kgc

> <i_i_glide_lignum>
296

> <i_i_glide_rotatable_bonds>
5

> <r_i_docking_score>
-8.7195045779582

> <r_i_glide_ligand_efficiency>
-0.363312690748258

> <r_i_glide_ligand_efficiency_sa>
-1.04797514312763

> <r_i_glide_ligand_efficiency_ln>
-2.08697755749883

> <r_i_glide_gscore>
-8.7195045779582

> <r_i_glide_lipo>
-0.979364288437977

> <r_i_glide_hbond>
-1.23011299167116

> <r_i_glide_metal>
0

> <r_i_glide_rewards>
-2.57178666344577

> <r_i_glide_evdw>
-36.1370964050293

> <r_i_glide_ecoul>
-15.5519170761108

> <r_i_glide_erotb>
0.360182409794178

> <r_i_glide_esite>
-0.158780662529373

> <r_i_glide_emodel>
-76.9895187935238

> <r_i_glide_energy>
-51.6890134811401

> <r_i_glide_einternal>
6.21491718292236

> <i_i_glide_confnum>
10

> <i_i_glide_posenum>
135

> <r_i_glide_eff_state_penalty>
0

> <s_user_duplicate_titles>
193817

> <i_f3d_flags>
0

> <s_m_subgroup_title>
dock_pv

> <s_m_subgroupid>
dock_pv1

> <b_m_subgroup_collapsed>
0

$$$$
212523
                    3D
 Schrodinger Suite 2021-1.
 34 36  0  0  1  0            999 V2000
    6.2869   31.6470    3.6980 C   0  0  0  0  0  0
    6.8353   32.5911    2.8638 C   0  0  0  0  0  0
    6.1247   32.5026    1.7027 N   0  0  0  0  0  0
    5.1720   31.5471    1.9513 C   0  0  0  0  0  0
    5.2322   31.0592    3.1633 N   0  0  0  0  0  0
    6.4678   33.0811    0.4844 C   0  0  0  0  0  0
    7.0887   32.2305   -0.4352 C   0  0  0  0  0  0
    7.5791   32.7291   -1.6438 C   0  0  0  0  0  0
    7.3540   34.0803   -1.9288 C   0  0  0  0  0  0
    6.6985   34.9235   -1.0405 C   0  0  0  0  0  0
    6.2787   34.4482    0.2010 C   0  0  0  0  0  0
    5.6827   35.4065    1.1541 N   0  3  0  0  0  0
    4.8790   36.2216    0.7170 O   0  5  0  0  0  0
    6.0791   35.4006    2.3124 O   0  0  0  0  0  0
    7.8097   34.5809   -3.1309 N   0  0  0  0  0  0
    8.4889   33.9102   -4.0723 C   0  0  0  0  0  0
    8.8790   34.4470   -5.1020 O   0  0  0  0  0  0
    8.7656   32.4437   -3.8056 C   0  0  0  0  0  0
    9.3536   31.8095   -4.6909 O   0  0  0  0  0  0
    8.3100   31.9596   -2.6005 N   0  0  0  0  0  0
    8.6417   30.5519   -2.2741 C   0  0  0  0  0  0
    9.7404   30.3681   -1.2007 C   0  0  0  0  0  0
   10.8789   31.1458   -1.5020 O   0  0  0  0  0  0
    7.6051   35.5479   -3.3619 H   0  0  0  0  0  0
    6.6574   31.4113    4.6845 H   0  0  0  0  0  0
    7.6790   33.2539    2.9541 H   0  0  0  0  0  0
    4.4789   31.2579    1.1747 H   0  0  0  0  0  0
    7.2190   31.1926   -0.1692 H   0  0  0  0  0  0
    6.5441   35.9625   -1.2947 H   0  0  0  0  0  0
    8.9254   29.9826   -3.1610 H   0  0  0  0  0  0
    7.7341   30.0462   -1.9442 H   0  0  0  0  0  0
   10.0231   29.3215   -1.0827 H   0  0  0  0  0  0
    9.4071   30.7453   -0.2341 H   0  0  0  0  0  0
   11.1867   31.5472   -0.6696 H   0  0  0  0  0  0
  1  5  1  0  0  0
  1  2  2  0  0  0
  1 25  1  0  0  0
  2  3  1  0  0  0
  2 26  1  0  0  0
  3  4  1  0  0  0
  3  6  1  0  0  0
  4  5  2  0  0  0
  4 27  1  0  0  0
  6 11  1  0  0  0
  6  7  2  0  0  0
  7  8  1  0  0  0
  7 28  1  0  0  0
  8 20  1  0  0  0
  8  9  2  0  0  0
  9 10  1  0  0  0
  9 15  1  0  0  0
 10 11  2  0  0  0
 10 29  1  0  0  0
 11 12  1  0  0  0
 12 13  1  0  0  0
 12 14  2  0  0  0
 15 24  1  0  0  0
 15 16  1  0  0  0
 16 17  2  0  0  0
 16 18  1  0  0  0
 18 19  2  0  0  0
 18 20  1  0  0  0
 20 21  1  0  0  0
 21 22  1  0  0  0
 21 30  1  0  0  0
 21 31  1  0  0  0
 22 23  1  0  0  0
 22 32  1  0  0  0
 22 33  1  0  0  0
 23 34  1  0  0  0
M  CHG  2  12   1  13  -1
M  END
> <s_m_entry_id>
3860

> <s_m_entry_name>
ligand_docking-pose.8

> <s_m_Source_Path>
/home/csk/Desktop/cluster/DUD-E-result/gria2

> <s_m_Source_File>
ligand_docking-pose.sdf

> <i_m_Source_File_Index>
8

> <i_lp_mmshare_version>
53161

> <r_lp_tautomer_probability>
1

> <s_lp_Force_Field>
OPLS_2005

> <r_lp_Energy>
36.899725

> <b_lp_Chiralities_Consistent>
1

> <s_lp_Variant>
212523-1

> <s_i_glide_gridfile>
glide-grid_3kgc

> <i_i_glide_lignum>
295

> <i_i_glide_rotatable_bonds>
5

> <r_i_docking_score>
-8.65589160577713

> <r_i_glide_ligand_efficiency>
-0.376343113294658

> <r_i_glide_ligand_efficiency_sa>
-1.07026975187461

> <r_i_glide_ligand_efficiency_ln>
-2.09307307756259

> <r_i_glide_gscore>
-8.65589160577713

> <r_i_glide_lipo>
-0.959080838890375

> <r_i_glide_hbond>
-1.38641068216679

> <r_i_glide_metal>
0

> <r_i_glide_rewards>
-2.6590018005583

> <r_i_glide_evdw>
-33.6103935241699

> <r_i_glide_ecoul>
-15.0441236495972

> <r_i_glide_erotb>
0.388660745389267

> <r_i_glide_esite>
-0.102920805902857

> <r_i_glide_emodel>
-72.7753802963468

> <r_i_glide_energy>
-48.6545171737671

> <r_i_glide_einternal>
5.63390827178955

> <i_i_glide_confnum>
15

> <i_i_glide_posenum>
139

> <r_i_glide_eff_state_penalty>
0

> <s_user_duplicate_titles>
212523

> <i_f3d_flags>
0

> <s_m_subgroup_title>
dock_pv

> <s_m_subgroupid>
dock_pv1

> <b_m_subgroup_collapsed>
0

$$$$
159898
                    3D
 Schrodinger Suite 2021-1.
 38 40  0  0  1  0            999 V2000
    6.2588   31.6470    3.6833 C   0  0  0  0  0  0
    5.2224   31.0406    2.9628 C   0  0  0  0  0  0
    5.2747   31.5423    1.6812 C   0  0  0  0  0  0
    6.2620   32.4923    1.6091 N   0  0  0  0  0  0
    6.8491   32.5755    2.8465 C   0  0  0  0  0  0
    6.6899   33.1253    0.4420 C   0  0  0  0  0  0
    7.3952   32.3256   -0.4583 C   0  0  0  0  0  0
    7.8490   32.8539   -1.6679 C   0  0  0  0  0  0
    7.5939   34.2047   -1.9346 C   0  0  0  0  0  0
    6.8779   35.0017   -1.0512 C   0  0  0  0  0  0
    6.4210   34.4786    0.1590 C   0  0  0  0  0  0
    5.6090   35.3703    1.0993 C   0  0  0  0  0  0
    6.2959   35.6015    2.2174 F   0  0  0  0  0  0
    5.2795   36.5431    0.5555 F   0  0  0  0  0  0
    4.4791   34.7525    1.4017 F   0  0  0  0  0  0
    8.0303   34.7330   -3.1367 N   0  0  0  0  0  0
    8.6325   34.0474   -4.1213 C   0  0  0  0  0  0
    8.8786   34.5443   -5.2065 O   0  0  0  0  0  0
    8.9967   32.6083   -3.8485 C   0  0  0  0  0  0
    9.6615   32.0108   -4.7027 O   0  0  0  0  0  0
    8.5732   32.1097   -2.6471 N   0  0  0  0  0  0
    9.0017   30.7340   -2.3360 C   0  0  0  0  0  0
   10.2129   30.7145   -1.3779 C   0  0  0  0  0  0
   10.3161   29.4747   -0.4959 C   0  0  0  0  0  0
    9.6789   28.4471   -0.7031 O   0  0  0  0  0  0
   11.2182   29.6473    0.5097 O   0  0  0  0  0  0
    7.7854   35.6931   -3.3662 H   0  0  0  0  0  0
    6.5615   31.4557    4.7014 H   0  0  0  0  0  0
    4.5224   30.2901    3.2980 H   0  0  0  0  0  0
    4.6838   31.3068    0.8076 H   0  0  0  0  0  0
    7.6787   33.2476    3.0043 H   0  0  0  0  0  0
    7.5817   31.2972   -0.1869 H   0  0  0  0  0  0
    6.6704   36.0295   -1.3101 H   0  0  0  0  0  0
    9.1393   30.0687   -3.1908 H   0  0  0  0  0  0
    8.1465   30.2718   -1.8421 H   0  0  0  0  0  0
   10.0809   31.5543   -0.7020 H   0  0  0  0  0  0
   11.1392   30.9608   -1.8961 H   0  0  0  0  0  0
   11.4582   30.5801    0.6094 H   0  0  0  0  0  0
  1  5  2  0  0  0
  1  2  1  0  0  0
  1 28  1  0  0  0
  2  3  2  0  0  0
  2 29  1  0  0  0
  3  4  1  0  0  0
  3 30  1  0  0  0
  4  5  1  0  0  0
  4  6  1  0  0  0
  5 31  1  0  0  0
  6 11  1  0  0  0
  6  7  2  0  0  0
  7  8  1  0  0  0
  7 32  1  0  0  0
  8 21  1  0  0  0
  8  9  2  0  0  0
  9 10  1  0  0  0
  9 16  1  0  0  0
 10 11  2  0  0  0
 10 33  1  0  0  0
 11 12  1  0  0  0
 12 13  1  0  0  0
 12 14  1  0  0  0
 12 15  1  0  0  0
 16 27  1  0  0  0
 16 17  1  0  0  0
 17 18  2  0  0  0
 17 19  1  0  0  0
 19 20  2  0  0  0
 19 21  1  0  0  0
 21 22  1  0  0  0
 22 23  1  0  0  0
 22 34  1  0  0  0
 22 35  1  0  0  0
 23 24  1  0  0  0
 23 36  1  0  0  0
 23 37  1  0  0  0
 24 25  2  0  0  0
 24 26  1  0  0  0
 26 38  1  0  0  0
M  END
> <s_m_entry_id>
3861

> <s_m_entry_name>
ligand_docking-pose.9

> <s_m_Source_Path>
/home/csk/Desktop/cluster/DUD-E-result/gria2

> <s_m_Source_File>
ligand_docking-pose.sdf

> <i_m_Source_File_Index>
9

> <i_lp_mmshare_version>
53161

> <r_lp_tautomer_probability>
1

> <s_lp_Force_Field>
OPLS_2005

> <r_lp_Energy>
32.462991

> <b_lp_Chiralities_Consistent>
1

> <s_lp_Variant>
159898-1

> <s_i_glide_gridfile>
glide-grid_3kgc

> <i_i_glide_lignum>
223

> <i_i_glide_rotatable_bonds>
6

> <r_i_docking_score>
-8.62486069068814

> <r_i_glide_ligand_efficiency>
-0.331725411180313

> <r_i_glide_ligand_efficiency_sa>
-0.982735225345213

> <r_i_glide_ligand_efficiency_ln>
-2.02552023273189

> <r_i_glide_gscore>
-8.62486069068814

> <r_i_glide_lipo>
-1.13905162765113

> <r_i_glide_hbond>
-0.82082736387535

> <r_i_glide_metal>
0

> <r_i_glide_rewards>
-2.99718207324233

> <r_i_glide_evdw>
-32.9140243530273

> <r_i_glide_ecoul>
-15.2651090621948

> <r_i_glide_erotb>
0.399715448086452

> <r_i_glide_esite>
-0.132047497025181

> <r_i_glide_emodel>
-68.6458719552606

> <r_i_glide_energy>
-48.1791334152222

> <r_i_glide_einternal>
10.1519718170166

> <i_i_glide_confnum>
56

> <i_i_glide_posenum>
197

> <r_i_glide_eff_state_penalty>
0

> <s_user_duplicate_titles>
159898

> <i_f3d_flags>
0

> <s_m_subgroup_title>
dock_pv

> <s_m_subgroupid>
dock_pv1

> <b_m_subgroup_collapsed>
0

$$$$
11205
                    3D
 Schrodinger Suite 2021-1.
 57 60  0  0  1  0            999 V2000
   -1.8568   29.2453   -3.3250 C   0  0  0  0  0  0
   -1.5236   30.4465   -2.7037 C   0  0  0  0  0  0
   -0.4496   30.4945   -1.8199 C   0  0  0  0  0  0
    0.2829   29.3361   -1.5516 C   0  0  0  0  0  0
   -0.0541   28.1325   -2.1777 C   0  0  0  0  0  0
   -1.1250   28.0877   -3.0670 C   0  0  0  0  0  0
    1.4382   29.3884   -0.5639 C   0  0  0  0  0  0
    0.9531   29.5049    0.8964 C   0  0  0  0  0  0
    2.0899   29.3253    1.9020 C   0  0  0  0  0  0
    2.4751   28.1915    2.1958 O   0  0  0  0  0  0
    2.6135   30.4468    2.4233 N   0  0  0  0  0  0
    3.7411   30.4896    3.3486 C   0  0  0  0  0  0
    4.9259   31.2581    2.8163 C   0  0  0  0  0  0
    6.0831   31.6470    3.5103 C   0  0  0  0  0  0
    6.8790   32.3989    2.6703 C   0  0  0  0  0  0
    6.2757   32.4595    1.4450 N   0  0  0  0  0  0
    5.1190   31.7349    1.5307 C   0  0  0  0  0  0
    6.7581   33.0876    0.2976 C   0  0  0  0  0  0
    7.4344   32.2870   -0.6254 C   0  0  0  0  0  0
    7.8812   32.8271   -1.8355 C   0  0  0  0  0  0
    7.6781   34.1957   -2.0680 C   0  0  0  0  0  0
    6.9801   34.9891   -1.1621 C   0  0  0  0  0  0
    6.5097   34.4487    0.0358 C   0  0  0  0  0  0
    5.7594   35.3193    0.9652 N   0  3  0  0  0  0
    4.8877   36.0456    0.4981 O   0  5  0  0  0  0
    6.0791   35.3111    2.1472 O   0  0  0  0  0  0
    8.0714   34.7270   -3.2904 N   0  0  0  0  0  0
    8.4791   34.0107   -4.3539 C   0  0  0  0  0  0
    8.4790   34.4470   -5.5016 O   0  0  0  0  0  0
    8.8452   32.5623   -4.1005 C   0  0  0  0  0  0
    9.4126   31.9487   -5.0109 O   0  0  0  0  0  0
    8.5205   32.0666   -2.8630 N   0  0  0  0  0  0
    8.8721   30.6407   -2.6010 C   0  0  0  0  0  0
   10.0795   30.4863   -1.6506 C   0  0  0  0  0  0
   10.3417   29.4410   -1.0979 O   0  0  0  0  0  0
   10.7784   31.6466   -1.5020 O   0  0  0  0  0  0
    7.8020   35.6854   -3.5019 H   0  0  0  0  0  0
   -2.6878   29.2111   -4.0140 H   0  0  0  0  0  0
   -2.0959   31.3392   -2.9059 H   0  0  0  0  0  0
   -0.1955   31.4281   -1.3364 H   0  0  0  0  0  0
    0.5088   27.2328   -1.9767 H   0  0  0  0  0  0
   -1.3845   27.1602   -3.5560 H   0  0  0  0  0  0
    2.0723   28.5096   -0.6988 H   0  0  0  0  0  0
    2.0624   30.2471   -0.8193 H   0  0  0  0  0  0
    0.4584   30.4650    1.0513 H   0  0  0  0  0  0
    0.1961   28.7475    1.1037 H   0  0  0  0  0  0
    2.2348   31.3486    2.1208 H   0  0  0  0  0  0
    3.3920   30.9449    4.2758 H   0  0  0  0  0  0
    4.0791   29.4854    3.5806 H   0  0  0  0  0  0
    6.3178   31.4430    4.5437 H   0  0  0  0  0  0
    7.8213   32.8987    2.8331 H   0  0  0  0  0  0
    4.4794   31.6472    0.6636 H   0  0  0  0  0  0
    7.5782   31.2424   -0.3922 H   0  0  0  0  0  0
    6.7875   36.0284   -1.3959 H   0  0  0  0  0  0
    8.0152   30.1251   -2.1692 H   0  0  0  0  0  0
    9.0827   30.0828   -3.5141 H   0  0  0  0  0  0
   11.1834   31.7020   -0.6165 H   0  0  0  0  0  0
  1  6  1  0  0  0
  1  2  2  0  0  0
  1 38  1  0  0  0
  2  3  1  0  0  0
  2 39  1  0  0  0
  3  4  2  0  0  0
  3 40  1  0  0  0
  4  5  1  0  0  0
  4  7  1  0  0  0
  5  6  2  0  0  0
  5 41  1  0  0  0
  6 42  1  0  0  0
  7  8  1  0  0  0
  7 43  1  0  0  0
  7 44  1  0  0  0
  8  9  1  0  0  0
  8 45  1  0  0  0
  8 46  1  0  0  0
  9 10  2  0  0  0
  9 11  1  0  0  0
 11 12  1  0  0  0
 11 47  1  0  0  0
 12 13  1  0  0  0
 12 48  1  0  0  0
 12 49  1  0  0  0
 13 17  2  0  0  0
 13 14  1  0  0  0
 14 15  2  0  0  0
 14 50  1  0  0  0
 15 16  1  0  0  0
 15 51  1  0  0  0
 16 17  1  0  0  0
 16 18  1  0  0  0
 17 52  1  0  0  0
 18 23  1  0  0  0
 18 19  2  0  0  0
 19 20  1  0  0  0
 19 53  1  0  0  0
 20 32  1  0  0  0
 20 21  2  0  0  0
 21 22  1  0  0  0
 21 27  1  0  0  0
 22 23  2  0  0  0
 22 54  1  0  0  0
 23 24  1  0  0  0
 24 25  1  0  0  0
 24 26  2  0  0  0
 27 37  1  0  0  0
 27 28  1  0  0  0
 28 29  2  0  0  0
 28 30  1  0  0  0
 30 31  2  0  0  0
 30 32  1  0  0  0
 32 33  1  0  0  0
 33 34  1  0  0  0
 33 55  1  0  0  0
 33 56  1  0  0  0
 34 35  2  0  0  0
 34 36  1  0  0  0
 36 57  1  0  0  0
M  CHG  2  24   1  25  -1
M  END
> <s_m_entry_id>
3862

> <s_m_entry_name>
ligand_docking-pose.10

> <s_m_Source_Path>
/home/csk/Desktop/cluster/DUD-E-result/gria2

> <s_m_Source_File>
ligand_docking-pose.sdf

> <i_m_Source_File_Index>
10

> <i_lp_mmshare_version>
53161

> <r_lp_tautomer_probability>
1

> <s_lp_Force_Field>
OPLS_2005

> <r_lp_Energy>
33.79144

> <b_lp_Chiralities_Consistent>
1

> <s_lp_Variant>
11205-1

> <s_i_glide_gridfile>
glide-grid_3kgc

> <i_i_glide_lignum>
143

> <i_i_glide_rotatable_bonds>
11

> <r_i_docking_score>
-8.59163003323403

> <r_i_glide_ligand_efficiency>
-0.238656389812057

> <r_i_glide_ligand_efficiency_sa>
-0.788026035701945

> <r_i_glide_ligand_efficiency_ln>
-1.87446155423283

> <r_i_glide_gscore>
-8.59163003323403

> <r_i_glide_lipo>
-1.02401317783079

> <r_i_glide_hbond>
-1.04330311788332

> <r_i_glide_metal>
0

> <r_i_glide_rewards>
-1.47966922390893

> <r_i_glide_evdw>
-43.0503311157227

> <r_i_glide_ecoul>
-20.433385848999

> <r_i_glide_erotb>
0.472011022800484

> <r_i_glide_esite>
-0.299131103275489

> <r_i_glide_emodel>
-91.1058037520862

> <r_i_glide_energy>
-63.4837169647217

> <r_i_glide_einternal>
11.7986965179443

> <i_i_glide_confnum>
58

> <i_i_glide_posenum>
290

> <r_i_glide_eff_state_penalty>
0

> <s_user_duplicate_titles>
11205

> <i_f3d_flags>
0

> <s_m_subgroup_title>
dock_pv

> <s_m_subgroupid>
dock_pv1

> <b_m_subgroup_collapsed>
0

$$$$
212928
                    3D
 Schrodinger Suite 2021-1.
 39 42  0  0  1  0            999 V2000
    6.3427   31.6464    3.7174 C   0  0  0  0  0  0
    6.8770   32.6173    2.9051 C   0  0  0  0  0  0
    6.2144   32.4978    1.7204 N   0  0  0  0  0  0
    5.2752   31.5236    1.9432 C   0  0  0  0  0  0
    5.3215   31.0288    3.1523 N   0  0  0  0  0  0
    6.5709   33.0684    0.5031 C   0  0  0  0  0  0
    7.2446   32.2228   -0.3860 C   0  0  0  0  0  0
    7.6424   32.6771   -1.6493 C   0  0  0  0  0  0
    7.3047   33.9961   -1.9792 C   0  0  0  0  0  0
    6.6521   34.8479   -1.0980 C   0  0  0  0  0  0
    6.2983   34.4091    0.1748 C   0  0  0  0  0  0
    5.6876   35.3764    1.1110 N   0  3  0  0  0  0
    4.8788   36.1785    0.6596 O   0  5  0  0  0  0
    6.0791   35.3937    2.2709 O   0  0  0  0  0  0
    7.6922   34.4855   -3.2034 N   0  0  0  0  0  0
    8.4866   33.8793   -4.0902 C   0  0  0  0  0  0
    8.8790   34.4463   -5.1020 O   0  0  0  0  0  0
    8.8792   32.4488   -3.7900 C   0  0  0  0  0  0
    9.6195   31.8957   -4.6141 O   0  0  0  0  0  0
    8.3539   31.9032   -2.6315 N   0  0  0  0  0  0
    8.6454   30.4684   -2.3186 C   0  0  1  0  0  0
    8.3910   29.4308   -3.4306 C   0  0  0  0  0  0
    9.7115   28.6646   -3.5192 C   0  0  0  0  0  0
   10.7372   29.5851   -3.0483 N   0  0  2  0  0  0
   10.1066   30.2189   -1.8996 C   0  0  0  0  0  0
    7.4301   35.4359   -3.4510 H   0  0  0  0  0  0
    6.6910   31.4198    4.7143 H   0  0  0  0  0  0
    7.6790   33.3222    3.0261 H   0  0  0  0  0  0
    4.6019   31.2308    1.1501 H   0  0  0  0  0  0
    7.4697   31.2296   -0.0338 H   0  0  0  0  0  0
    6.4414   35.8665   -1.3904 H   0  0  0  0  0  0
    8.0617   30.1098   -1.4785 H   0  0  0  0  0  0
    7.5835   28.7504   -3.1576 H   0  0  0  0  0  0
    8.1306   29.8607   -4.3973 H   0  0  0  0  0  0
    9.6786   27.7567   -2.9134 H   0  0  0  0  0  0
    9.9335   28.3704   -4.5459 H   0  0  0  0  0  0
   10.8376   30.3052   -3.7559 H   0  0  0  0  0  0
   10.6232   31.1093   -1.5346 H   0  0  0  0  0  0
   10.1355   29.4841   -1.0915 H   0  0  0  0  0  0
  1  5  1  0  0  0
  1  2  2  0  0  0
  1 27  1  0  0  0
  2  3  1  0  0  0
  2 28  1  0  0  0
  3  4  1  0  0  0
  3  6  1  0  0  0
  4  5  2  0  0  0
  4 29  1  0  0  0
  6 11  1  0  0  0
  6  7  2  0  0  0
  7  8  1  0  0  0
  7 30  1  0  0  0
  8 20  1  0  0  0
  8  9  2  0  0  0
  9 10  1  0  0  0
  9 15  1  0  0  0
 10 11  2  0  0  0
 10 31  1  0  0  0
 11 12  1  0  0  0
 12 13  1  0  0  0
 12 14  2  0  0  0
 15 26  1  0  0  0
 15 16  1  0  0  0
 16 17  2  0  0  0
 16 18  1  0  0  0
 18 19  2  0  0  0
 18 20  1  0  0  0
 20 21  1  0  0  0
 21 25  1  0  0  0
 21 22  1  0  0  0
 21 32  1  0  0  0
 22 23  1  0  0  0
 22 33  1  0  0  0
 22 34  1  0  0  0
 23 24  1  0  0  0
 23 35  1  0  0  0
 23 36  1  0  0  0
 24 25  1  0  0  0
 24 37  1  0  0  0
 25 38  1  0  0  0
 25 39  1  0  0  0
M  CHG  2  12   1  13  -1
M  END
> <s_m_entry_id>
3863

> <s_m_entry_name>
ligand_docking-pose.11

> <s_m_Source_Path>
/home/csk/Desktop/cluster/DUD-E-result/gria2

> <s_m_Source_File>
ligand_docking-pose.sdf

> <i_m_Source_File_Index>
11

> <i_lp_mmshare_version>
53161

> <r_lp_tautomer_probability>
1

> <s_lp_Force_Field>
OPLS_2005

> <r_lp_Energy>
57.319782

> <b_lp_Chiralities_Consistent>
1

> <s_lp_Variant>
212928-2

> <s_i_glide_gridfile>
glide-grid_3kgc

> <i_i_glide_lignum>
293

> <i_i_glide_rotatable_bonds>
3

> <r_i_docking_score>
-8.5093930795698

> <r_i_glide_ligand_efficiency>
-0.340375723182792

> <r_i_glide_ligand_efficiency_sa>
-0.995264651175639

> <r_i_glide_ligand_efficiency_ln>
-2.01698116579092

> <r_i_glide_gscore>
-8.5093930795698

> <r_i_glide_lipo>
-1.00212131661119

> <r_i_glide_hbond>
-1.13205221347063

> <r_i_glide_metal>
0

> <r_i_glide_rewards>
-2.52759160397389

> <r_i_glide_evdw>
-38.8618774414062

> <r_i_glide_ecoul>
-13.5280294418335

> <r_i_glide_erotb>
0.22654213578153

> <r_i_glide_esite>
-0.101871792950294

> <r_i_glide_emodel>
-76.5397793588902

> <r_i_glide_energy>
-52.3899068832397

> <r_i_glide_einternal>
1.71805882453918

> <i_i_glide_confnum>
21

> <i_i_glide_posenum>
2

> <r_i_glide_eff_state_penalty>
0

> <s_user_duplicate_titles>
212928

> <i_f3d_flags>
0

> <s_m_subgroup_title>
dock_pv

> <s_m_subgroupid>
dock_pv1

> <b_m_subgroup_collapsed>
0

$$$$
11273
                    3D
 Schrodinger Suite 2021-1.
 39 41  0  0  1  0            999 V2000
    5.7291   31.4082    3.2980 C   0  0  0  0  0  0
    6.5594   32.2226    2.5524 C   0  0  0  0  0  0
    6.1190   32.1994    1.2571 N   0  0  0  0  0  0
    5.0543   31.3379    1.2072 C   0  0  0  0  0  0
    4.7126   30.9030    2.4727 C   0  0  0  0  0  0
    3.4999   30.0825    2.8350 C   0  0  0  0  0  0
    2.6142   30.8470    3.6979 N   0  0  0  0  0  0
    6.6452   32.8998    0.1693 C   0  0  0  0  0  0
    7.4043   32.1411   -0.7262 C   0  0  0  0  0  0
    7.8914   32.7147   -1.9016 C   0  0  0  0  0  0
    7.6791   34.0840   -2.1035 C   0  0  0  0  0  0
    6.9315   34.8458   -1.2176 C   0  0  0  0  0  0
    6.3663   34.2690   -0.0780 C   0  0  0  0  0  0
    5.4541   35.1033    0.7536 N   0  3  0  0  0  0
    4.8790   34.5960    1.6980 O   0  5  0  0  0  0
    5.2792   36.2817    0.4546 O   0  0  0  0  0  0
    8.0789   34.6484   -3.3011 N   0  0  0  0  0  0
    8.4915   33.9644   -4.3770 C   0  0  0  0  0  0
    8.4790   34.4470   -5.5020 O   0  0  0  0  0  0
    8.8782   32.5143   -4.1619 C   0  0  0  0  0  0
    9.4422   31.9282   -5.0922 O   0  0  0  0  0  0
    8.5668   31.9895   -2.9318 N   0  0  0  0  0  0
    8.9416   30.5656   -2.6939 C   0  0  0  0  0  0
   10.1506   30.4095   -1.7446 C   0  0  0  0  0  0
   10.4790   29.3386   -1.2819 O   0  0  0  0  0  0
   10.7798   31.5930   -1.5021 O   0  0  0  0  0  0
    7.7933   35.6016   -3.5000 H   0  0  0  0  0  0
    5.8271   31.2472    4.3555 H   0  0  0  0  0  0
    7.4142   32.8226    2.8270 H   0  0  0  0  0  0
    4.5502   31.1746    0.2668 H   0  0  0  0  0  0
    2.9402   29.8103    1.9386 H   0  0  0  0  0  0
    3.7929   29.1428    3.2980 H   0  0  0  0  0  0
    2.3134   31.6688    3.1696 H   0  0  0  0  0  0
    1.7635   30.3281    3.8575 H   0  0  0  0  0  0
    7.5647   31.0949   -0.5115 H   0  0  0  0  0  0
    6.7299   35.8793   -1.4599 H   0  0  0  0  0  0
    9.1664   30.0314   -3.6177 H   0  0  0  0  0  0
    8.0935   30.0233   -2.2781 H   0  0  0  0  0  0
   11.3226   31.5765   -0.7026 H   0  0  0  0  0  0
  1  5  1  0  0  0
  1  2  2  0  0  0
  1 28  1  0  0  0
  2  3  1  0  0  0
  2 29  1  0  0  0
  3  4  1  0  0  0
  3  8  1  0  0  0
  4  5  2  0  0  0
  4 30  1  0  0  0
  5  6  1  0  0  0
  6  7  1  0  0  0
  6 31  1  0  0  0
  6 32  1  0  0  0
  7 33  1  0  0  0
  7 34  1  0  0  0
  8 13  1  0  0  0
  8  9  2  0  0  0
  9 10  1  0  0  0
  9 35  1  0  0  0
 10 22  1  0  0  0
 10 11  2  0  0  0
 11 12  1  0  0  0
 11 17  1  0  0  0
 12 13  2  0  0  0
 12 36  1  0  0  0
 13 14  1  0  0  0
 14 15  1  0  0  0
 14 16  2  0  0  0
 17 27  1  0  0  0
 17 18  1  0  0  0
 18 19  2  0  0  0
 18 20  1  0  0  0
 20 21  2  0  0  0
 20 22  1  0  0  0
 22 23  1  0  0  0
 23 24  1  0  0  0
 23 37  1  0  0  0
 23 38  1  0  0  0
 24 25  2  0  0  0
 24 26  1  0  0  0
 26 39  1  0  0  0
M  CHG  2  14   1  15  -1
M  END
> <s_m_entry_id>
3864

> <s_m_entry_name>
ligand_docking-pose.12

> <s_m_Source_Path>
/home/csk/Desktop/cluster/DUD-E-result/gria2

> <s_m_Source_File>
ligand_docking-pose.sdf

> <i_m_Source_File_Index>
12

> <i_lp_mmshare_version>
53161

> <r_lp_tautomer_probability>
1

> <s_lp_Force_Field>
OPLS_2005

> <r_lp_Energy>
31.702045

> <b_lp_Chiralities_Consistent>
1

> <s_lp_Variant>
11273-1

> <s_i_glide_gridfile>
glide-grid_3kgc

> <i_i_glide_lignum>
260

> <i_i_glide_rotatable_bonds>
6

> <r_i_docking_score>
-8.46851459154736

> <r_i_glide_ligand_efficiency>
-0.325712099674898

> <r_i_glide_ligand_efficiency_sa>
-0.964920813671661

> <r_i_glide_ligand_efficiency_ln>
-1.98880286436208

> <r_i_glide_gscore>
-8.46851459154736

> <r_i_glide_lipo>
-0.952205505279946

> <r_i_glide_hbond>
-1.15462339831902

> <r_i_glide_metal>
0

> <r_i_glide_rewards>
-2.32499590729337

> <r_i_glide_evdw>
-32.9457855224609

> <r_i_glide_ecoul>
-17.1421699523926

> <r_i_glide_erotb>
0.311777995764624

> <r_i_glide_esite>
-0.129853007437723

> <r_i_glide_emodel>
-71.8301464432767

> <r_i_glide_energy>
-50.0879554748535

> <r_i_glide_einternal>
6.43332099914551

> <i_i_glide_confnum>
3

> <i_i_glide_posenum>
239

> <r_i_glide_eff_state_penalty>
0

> <s_user_duplicate_titles>
11273

> <i_f3d_flags>
0

> <s_m_subgroup_title>
dock_pv

> <s_m_subgroupid>
dock_pv1

> <b_m_subgroup_collapsed>
0

$$$$
10908
                    3D
 Schrodinger Suite 2021-1.
 45 47  0  0  1  0            999 V2000
   -0.0686   29.7928    3.6377 C   0  0  0  0  0  0
    1.2754   29.0919    3.4861 C   0  0  0  0  0  0
    1.4959   28.0455    4.0976 O   0  0  0  0  0  0
    2.1613   29.6764    2.6672 N   0  0  0  0  0  0
    3.5191   29.2016    2.4217 C   0  0  0  0  0  0
    4.4616   30.3752    2.3008 C   0  0  0  0  0  0
    4.9067   31.2491    3.2978 C   0  0  0  0  0  0
    5.7950   32.1592    2.7446 C   0  0  0  0  0  0
    5.8414   31.9542    1.3886 N   0  0  0  0  0  0
    5.0596   30.8464    1.1453 C   0  0  0  0  0  0
    6.5285   32.6874    0.3980 C   0  0  0  0  0  0
    7.2752   31.9342   -0.5206 C   0  0  0  0  0  0
    7.8220   32.5266   -1.6635 C   0  0  0  0  0  0
    7.6496   33.9077   -1.8256 C   0  0  0  0  0  0
    6.9726   34.6776   -0.8940 C   0  0  0  0  0  0
    6.4039   34.0907    0.2370 C   0  0  0  0  0  0
    5.6184   35.0060    1.1850 C   0  0  0  0  0  0
    6.3584   35.2472    2.2650 F   0  0  0  0  0  0
    5.2989   36.1790    0.6322 F   0  0  0  0  0  0
    4.4791   34.4465    1.5514 F   0  0  0  0  0  0
    8.0792   34.5039   -2.9973 N   0  0  0  0  0  0
    8.6214   33.8735   -4.0507 C   0  0  0  0  0  0
    8.8792   34.4470   -5.1021 O   0  0  0  0  0  0
    8.8792   32.3881   -3.9021 C   0  0  0  0  0  0
    9.4000   31.8030   -4.8583 O   0  0  0  0  0  0
    8.4890   31.8158   -2.7109 N   0  0  0  0  0  0
    8.6662   30.3406   -2.6003 C   0  0  0  0  0  0
   10.1046   29.9520   -2.2161 C   0  0  0  0  0  0
   10.7960   29.2475   -2.9184 O   0  0  0  0  0  0
   10.4793   30.4472   -1.0044 O   0  0  0  0  0  0
    7.8779   35.4853   -3.1501 H   0  0  0  0  0  0
   -0.0999   30.3372    4.5814 H   0  0  0  0  0  0
   -0.8766   29.0625    3.6318 H   0  0  0  0  0  0
   -0.2437   30.5041    2.8277 H   0  0  0  0  0  0
    1.9164   30.5625    2.2376 H   0  0  0  0  0  0
    3.8693   28.5313    3.2093 H   0  0  0  0  0  0
    3.5092   28.6231    1.4968 H   0  0  0  0  0  0
    4.5838   31.2471    4.3248 H   0  0  0  0  0  0
    6.3502   32.9715    3.1890 H   0  0  0  0  0  0
    4.9444   30.4963    0.1308 H   0  0  0  0  0  0
    7.3648   30.8744   -0.3439 H   0  0  0  0  0  0
    6.8475   35.7335   -1.0889 H   0  0  0  0  0  0
    7.9537   29.8565   -1.9388 H   0  0  0  0  0  0
    8.4478   29.8749   -3.5632 H   0  0  0  0  0  0
    9.8688   31.0519   -0.5744 H   0  0  0  0  0  0
  1  2  1  0  0  0
  1 32  1  0  0  0
  1 33  1  0  0  0
  1 34  1  0  0  0
  2  3  2  0  0  0
  2  4  1  0  0  0
  4  5  1  0  0  0
  4 35  1  0  0  0
  5  6  1  0  0  0
  5 36  1  0  0  0
  5 37  1  0  0  0
  6 10  2  0  0  0
  6  7  1  0  0  0
  7  8  2  0  0  0
  7 38  1  0  0  0
  8  9  1  0  0  0
  8 39  1  0  0  0
  9 10  1  0  0  0
  9 11  1  0  0  0
 10 40  1  0  0  0
 11 16  1  0  0  0
 11 12  2  0  0  0
 12 13  1  0  0  0
 12 41  1  0  0  0
 13 26  1  0  0  0
 13 14  2  0  0  0
 14 15  1  0  0  0
 14 21  1  0  0  0
 15 16  2  0  0  0
 15 42  1  0  0  0
 16 17  1  0  0  0
 17 18  1  0  0  0
 17 19  1  0  0  0
 17 20  1  0  0  0
 21 31  1  0  0  0
 21 22  1  0  0  0
 22 23  2  0  0  0
 22 24  1  0  0  0
 24 25  2  0  0  0
 24 26  1  0  0  0
 26 27  1  0  0  0
 27 28  1  0  0  0
 27 43  1  0  0  0
 27 44  1  0  0  0
 28 29  2  0  0  0
 28 30  1  0  0  0
 30 45  1  0  0  0
M  END
> <s_m_entry_id>
3865

> <s_m_entry_name>
ligand_docking-pose.13

> <s_m_Source_Path>
/home/csk/Desktop/cluster/DUD-E-result/gria2

> <s_m_Source_File>
ligand_docking-pose.sdf

> <i_m_Source_File_Index>
13

> <i_lp_mmshare_version>
53161

> <r_lp_tautomer_probability>
1

> <s_lp_Force_Field>
OPLS_2005

> <r_lp_Energy>
26.580919

> <b_lp_Chiralities_Consistent>
1

> <s_lp_Variant>
10908-1

> <s_i_glide_gridfile>
glide-grid_3kgc

> <i_i_glide_lignum>
580

> <i_i_glide_rotatable_bonds>
8

> <r_i_docking_score>
-8.42974084056889

> <r_i_glide_ligand_efficiency>
-0.280991361352296

> <r_i_glide_ligand_efficiency_sa>
-0.873105490896214

> <r_i_glide_ligand_efficiency_ln>
-1.91532896836027

> <r_i_glide_gscore>
-8.42974084056889

> <r_i_glide_lipo>
-1.13991574980765

> <r_i_glide_hbond>
-1.0867890530834

> <r_i_glide_metal>
0

> <r_i_glide_rewards>
-2.18303848189146

> <r_i_glide_evdw>
-39.6744117736816

> <r_i_glide_ecoul>
-16.065071105957

> <r_i_glide_erotb>
0.55058747987378

> <r_i_glide_esite>
-0.177103781082514

> <r_i_glide_emodel>
-79.7146634989886

> <r_i_glide_energy>
-55.7394828796387

> <r_i_glide_einternal>
7.30869626998901

> <i_i_glide_confnum>
78

> <i_i_glide_posenum>
146

> <r_i_glide_eff_state_penalty>
0

> <s_user_duplicate_titles>
10908

> <i_f3d_flags>
0

> <s_m_subgroup_title>
dock_pv

> <s_m_subgroupid>
dock_pv1

> <b_m_subgroup_collapsed>
0

$$$$
11159
                    3D
 Schrodinger Suite 2021-1.
 50 53  0  0  1  0            999 V2000
    1.3712   27.9964   -1.0428 C   0  0  0  0  0  0
    0.5967   28.1745   -2.1915 C   0  0  0  0  0  0
   -0.2334   29.2327   -2.3646 N   0  0  0  0  0  0
   -0.3011   30.1486   -1.3681 C   0  0  0  0  0  0
    0.4382   30.0461   -0.1886 C   0  0  0  0  0  0
    1.3033   28.9507   -0.0146 C   0  0  0  0  0  0
    2.1524   28.7868    1.2271 C   0  0  0  0  0  0
    2.5655   27.6748    1.5683 O   0  0  0  0  0  0
    2.4535   29.9140    1.8985 N   0  0  0  0  0  0
    3.4048   30.0211    3.0070 C   0  0  0  0  0  0
    4.5754   30.9176    2.6616 C   0  0  0  0  0  0
    5.5737   31.4384    3.5002 C   0  0  0  0  0  0
    6.3939   32.2919    2.7945 C   0  0  0  0  0  0
    5.9458   32.3045    1.5068 N   0  0  0  0  0  0
    4.9215   31.4060    1.4193 C   0  0  0  0  0  0
    6.4972   32.9618    0.4188 C   0  0  0  0  0  0
    7.1154   32.1416   -0.5213 C   0  0  0  0  0  0
    7.6758   32.6828   -1.6738 C   0  0  0  0  0  0
    7.5395   34.0625   -1.8772 C   0  0  0  0  0  0
    6.8800   34.8816   -0.9684 C   0  0  0  0  0  0
    6.3718   34.3484    0.2140 C   0  0  0  0  0  0
    5.7123   35.2523    1.1761 N   0  3  0  0  0  0
    4.8791   36.0438    0.7464 O   0  5  0  0  0  0
    6.0829   35.2152    2.3420 O   0  0  0  0  0  0
    8.0294   34.6017   -3.0467 N   0  0  0  0  0  0
    8.6091   33.9187   -4.0435 C   0  0  0  0  0  0
    8.8950   34.4471   -5.1026 O   0  0  0  0  0  0
    8.8661   32.4428   -3.8264 C   0  0  0  0  0  0
    9.4925   31.8359   -4.7020 O   0  0  0  0  0  0
    8.3798   31.9178   -2.6548 N   0  0  0  0  0  0
    8.6353   30.4683   -2.4133 C   0  0  0  0  0  0
    9.8787   30.2806   -1.5266 C   0  0  0  0  0  0
   10.8791   29.7092   -1.9013 O   0  0  0  0  0  0
    9.6789   30.8410   -0.3025 O   0  0  0  0  0  0
    7.8484   35.5789   -3.2469 H   0  0  0  0  0  0
    2.0201   27.1355   -0.9610 H   0  0  0  0  0  0
    0.6378   27.4632   -3.0040 H   0  0  0  0  0  0
   -0.9660   30.9824   -1.5319 H   0  0  0  0  0  0
    0.3321   30.8147    0.5624 H   0  0  0  0  0  0
    2.0831   30.7946    1.5561 H   0  0  0  0  0  0
    3.7816   29.0400    3.2979 H   0  0  0  0  0  0
    2.8702   30.4436    3.8597 H   0  0  0  0  0  0
    5.6984   31.2470    4.5466 H   0  0  0  0  0  0
    7.2564   32.8777    3.0823 H   0  0  0  0  0  0
    4.4791   31.2285    0.4529 H   0  0  0  0  0  0
    7.1681   31.0824   -0.3206 H   0  0  0  0  0  0
    6.7657   35.9373   -1.1709 H   0  0  0  0  0  0
    8.7822   29.9216   -3.3463 H   0  0  0  0  0  0
    7.7746   29.9790   -1.9614 H   0  0  0  0  0  0
   10.4796   31.0639    0.1955 H   0  0  0  0  0  0
  1  6  1  0  0  0
  1  2  2  0  0  0
  1 36  1  0  0  0
  2  3  1  0  0  0
  2 37  1  0  0  0
  3  4  2  0  0  0
  4  5  1  0  0  0
  4 38  1  0  0  0
  5  6  2  0  0  0
  5 39  1  0  0  0
  6  7  1  0  0  0
  7  8  2  0  0  0
  7  9  1  0  0  0
  9 10  1  0  0  0
  9 40  1  0  0  0
 10 11  1  0  0  0
 10 41  1  0  0  0
 10 42  1  0  0  0
 11 15  2  0  0  0
 11 12  1  0  0  0
 12 13  2  0  0  0
 12 43  1  0  0  0
 13 14  1  0  0  0
 13 44  1  0  0  0
 14 15  1  0  0  0
 14 16  1  0  0  0
 15 45  1  0  0  0
 16 21  1  0  0  0
 16 17  2  0  0  0
 17 18  1  0  0  0
 17 46  1  0  0  0
 18 30  1  0  0  0
 18 19  2  0  0  0
 19 20  1  0  0  0
 19 25  1  0  0  0
 20 21  2  0  0  0
 20 47  1  0  0  0
 21 22  1  0  0  0
 22 23  1  0  0  0
 22 24  2  0  0  0
 25 35  1  0  0  0
 25 26  1  0  0  0
 26 27  2  0  0  0
 26 28  1  0  0  0
 28 29  2  0  0  0
 28 30  1  0  0  0
 30 31  1  0  0  0
 31 32  1  0  0  0
 31 48  1  0  0  0
 31 49  1  0  0  0
 32 33  2  0  0  0
 32 34  1  0  0  0
 34 50  1  0  0  0
M  CHG  2  22   1  23  -1
M  END
> <s_m_entry_id>
3866

> <s_m_entry_name>
ligand_docking-pose.14

> <s_m_Source_Path>
/home/csk/Desktop/cluster/DUD-E-result/gria2

> <s_m_Source_File>
ligand_docking-pose.sdf

> <i_m_Source_File_Index>
14

> <i_lp_mmshare_version>
53161

> <r_lp_tautomer_probability>
1

> <s_lp_Force_Field>
OPLS_2005

> <r_lp_Energy>
31.269922

> <b_lp_Chiralities_Consistent>
1

> <s_lp_Variant>
11159-1

> <s_i_glide_gridfile>
glide-grid_3kgc

> <i_i_glide_lignum>
272

> <i_i_glide_rotatable_bonds>
9

> <r_i_docking_score>
-8.33932564436047

> <r_i_glide_ligand_efficiency>
-0.245274283657661

> <r_i_glide_ligand_efficiency_sa>
-0.794593462953232

> <r_i_glide_ligand_efficiency_ln>
-1.84239094500049

> <r_i_glide_gscore>
-8.33932564436047

> <r_i_glide_lipo>
-0.98050180740313

> <r_i_glide_hbond>
-1.3104745648768

> <r_i_glide_metal>
0

> <r_i_glide_rewards>
-1.526638101205

> <r_i_glide_evdw>
-42.924488067627

> <r_i_glide_ecoul>
-17.0442943572998

> <r_i_glide_erotb>
0.392606113450788

> <r_i_glide_esite>
-0.21144872735002

> <r_i_glide_emodel>
-85.2440334940088

> <r_i_glide_energy>
-59.9687824249268

> <r_i_glide_einternal>
10.863076210022

> <i_i_glide_confnum>
15

> <i_i_glide_posenum>
189

> <r_i_glide_eff_state_penalty>
0

> <s_user_duplicate_titles>
11159

> <i_f3d_flags>
0

> <s_m_subgroup_title>
dock_pv

> <s_m_subgroupid>
dock_pv1

> <b_m_subgroup_collapsed>
0

$$$$
11553
                    3D
 Schrodinger Suite 2021-1.
 52 55  0  0  1  0            999 V2000
   -0.2177   29.2456   -2.3029 C   0  0  0  0  0  0
    0.6364   28.1536   -2.1766 C   0  0  0  0  0  0
    1.4086   28.0087   -1.0263 C   0  0  0  0  0  0
    1.3399   28.9612    0.0012 C   0  0  0  0  0  0
    0.4635   30.0496   -0.1393 C   0  0  0  0  0  0
   -0.3088   30.1939   -1.2884 C   0  0  0  0  0  0
    2.2098   28.8040    1.2287 C   0  0  0  0  0  0
    2.6445   27.6975    1.5587 O   0  0  0  0  0  0
    2.5052   29.9333    1.8981 N   0  0  0  0  0  0
    3.4423   30.0455    3.0164 C   0  0  0  0  0  0
    4.6184   30.9434    2.6920 C   0  0  0  0  0  0
    5.6080   31.4401    3.5564 C   0  0  0  0  0  0
    6.4799   32.2503    2.8554 C   0  0  0  0  0  0
    6.0646   32.2730    1.5543 N   0  0  0  0  0  0
    4.9680   31.4604    1.4588 C   0  0  0  0  0  0
    6.6613   32.9253    0.4804 C   0  0  0  0  0  0
    7.3487   32.1174   -0.4285 C   0  0  0  0  0  0
    7.8418   32.6616   -1.6143 C   0  0  0  0  0  0
    7.6591   34.0343   -1.8307 C   0  0  0  0  0  0
    7.0025   34.8473   -0.9209 C   0  0  0  0  0  0
    6.4886   34.3061    0.2541 C   0  0  0  0  0  0
    5.6982   35.2088    1.2024 C   0  0  0  0  0  0
    6.2959   35.2599    2.3913 F   0  0  0  0  0  0
    5.5597   36.4553    0.7515 F   0  0  0  0  0  0
    4.4790   34.7125    1.3344 F   0  0  0  0  0  0
    8.0790   34.5775   -3.0233 N   0  0  0  0  0  0
    8.6172   33.9014   -4.0451 C   0  0  0  0  0  0
    8.8790   34.4471   -5.1021 O   0  0  0  0  0  0
    8.8796   32.4236   -3.8484 C   0  0  0  0  0  0
    9.4218   31.8086   -4.7733 O   0  0  0  0  0  0
    8.4949   31.9062   -2.6362 N   0  0  0  0  0  0
    8.8054   30.4696   -2.3905 C   0  0  0  0  0  0
   10.0577   30.2745   -1.5060 C   0  0  0  0  0  0
   10.2765   29.2472   -0.9050 O   0  0  0  0  0  0
   10.8785   31.3604   -1.5020 O   0  0  0  0  0  0
    7.8794   35.5519   -3.2158 H   0  0  0  0  0  0
   -0.8078   29.3610   -3.2001 H   0  0  0  0  0  0
    0.7040   27.4272   -2.9739 H   0  0  0  0  0  0
    2.0725   27.1590   -0.9471 H   0  0  0  0  0  0
    0.3805   30.8084    0.6280 H   0  0  0  0  0  0
   -0.9702   31.0427   -1.3915 H   0  0  0  0  0  0
    2.1406   30.8108    1.5433 H   0  0  0  0  0  0
    3.8248   29.0643    3.2980 H   0  0  0  0  0  0
    2.8946   30.4470    3.8696 H   0  0  0  0  0  0
    5.6907   31.2470    4.6132 H   0  0  0  0  0  0
    7.3635   32.7982    3.1560 H   0  0  0  0  0  0
    4.4807   31.3415    0.5003 H   0  0  0  0  0  0
    7.4527   31.0649   -0.2105 H   0  0  0  0  0  0
    6.8598   35.8943   -1.1532 H   0  0  0  0  0  0
    8.9527   29.9151   -3.3182 H   0  0  0  0  0  0
    7.9548   29.9727   -1.9267 H   0  0  0  0  0  0
   11.5162   31.3152   -0.7792 H   0  0  0  0  0  0
  1  6  1  0  0  0
  1  2  2  0  0  0
  1 37  1  0  0  0
  2  3  1  0  0  0
  2 38  1  0  0  0
  3  4  2  0  0  0
  3 39  1  0  0  0
  4  5  1  0  0  0
  4  7  1  0  0  0
  5  6  2  0  0  0
  5 40  1  0  0  0
  6 41  1  0  0  0
  7  8  2  0  0  0
  7  9  1  0  0  0
  9 10  1  0  0  0
  9 42  1  0  0  0
 10 11  1  0  0  0
 10 43  1  0  0  0
 10 44  1  0  0  0
 11 15  2  0  0  0
 11 12  1  0  0  0
 12 13  2  0  0  0
 12 45  1  0  0  0
 13 14  1  0  0  0
 13 46  1  0  0  0
 14 15  1  0  0  0
 14 16  1  0  0  0
 15 47  1  0  0  0
 16 21  1  0  0  0
 16 17  2  0  0  0
 17 18  1  0  0  0
 17 48  1  0  0  0
 18 31  1  0  0  0
 18 19  2  0  0  0
 19 20  1  0  0  0
 19 26  1  0  0  0
 20 21  2  0  0  0
 20 49  1  0  0  0
 21 22  1  0  0  0
 22 23  1  0  0  0
 22 24  1  0  0  0
 22 25  1  0  0  0
 26 36  1  0  0  0
 26 27  1  0  0  0
 27 28  2  0  0  0
 27 29  1  0  0  0
 29 30  2  0  0  0
 29 31  1  0  0  0
 31 32  1  0  0  0
 32 33  1  0  0  0
 32 50  1  0  0  0
 32 51  1  0  0  0
 33 34  2  0  0  0
 33 35  1  0  0  0
 35 52  1  0  0  0
M  END
> <s_m_entry_id>
3867

> <s_m_entry_name>
ligand_docking-pose.15

> <s_m_Source_Path>
/home/csk/Desktop/cluster/DUD-E-result/gria2

> <s_m_Source_File>
ligand_docking-pose.sdf

> <i_m_Source_File_Index>
15

> <i_lp_mmshare_version>
53161

> <r_lp_tautomer_probability>
1

> <s_lp_Force_Field>
OPLS_2005

> <r_lp_Energy>
34.542262

> <b_lp_Chiralities_Consistent>
1

> <s_lp_Variant>
11553-1

> <s_i_glide_gridfile>
glide-grid_3kgc

> <i_i_glide_lignum>
168

> <i_i_glide_rotatable_bonds>
9

> <r_i_docking_score>
-8.27080316594191

> <r_i_glide_ligand_efficiency>
-0.236308661884055

> <r_i_glide_ligand_efficiency_sa>
-0.772981301778605

> <r_i_glide_ligand_efficiency_ln>
-1.81562485551053

> <r_i_glide_gscore>
-8.27080316594191

> <r_i_glide_lipo>
-1.21490449842685

> <r_i_glide_hbond>
-0.915441266148903

> <r_i_glide_metal>
0

> <r_i_glide_rewards>
-1.97989056256958

> <r_i_glide_evdw>
-41.4726142883301

> <r_i_glide_ecoul>
-14.8945693969727

> <r_i_glide_erotb>
0.360767744709935

> <r_i_glide_esite>
-0.213518459544112

> <r_i_glide_emodel>
-81.765328322566

> <r_i_glide_energy>
-56.3671836853027

> <r_i_glide_einternal>
6.97283124923706

> <i_i_glide_confnum>
15

> <i_i_glide_posenum>
146

> <r_i_glide_eff_state_penalty>
0

> <s_user_duplicate_titles>
11553

> <i_f3d_flags>
0

> <s_m_subgroup_title>
dock_pv

> <s_m_subgroupid>
dock_pv1

> <b_m_subgroup_collapsed>
0

$$$$
11381
                    3D
 Schrodinger Suite 2021-1.
 54 57  0  0  1  0            999 V2000
    0.3083   25.5771   -2.3763 C   0  0  0  0  0  0
    0.5392   25.2594   -1.0408 C   0  0  0  0  0  0
    1.0698   26.2199   -0.1829 C   0  0  0  0  0  0
    1.3730   27.5047   -0.6652 C   0  0  0  0  0  0
    1.1230   27.8152   -2.0046 C   0  0  0  0  0  0
    0.5998   26.8499   -2.8619 C   0  0  0  0  0  0
    1.8961   28.5422    0.1311 N   0  0  0  0  0  0
    2.5341   28.4520    1.3140 C   0  0  0  0  0  0
    2.8160   27.4032    1.9009 O   0  0  0  0  0  0
    2.8556   29.6687    1.7829 N   0  0  0  0  0  0
    3.7500   29.9172    2.9149 C   0  0  0  0  0  0
    4.9080   30.8319    2.5843 C   0  0  0  0  0  0
    5.8568   31.3836    3.4630 C   0  0  0  0  0  0
    6.7377   32.1788    2.7595 C   0  0  0  0  0  0
    6.3523   32.1553    1.4495 N   0  0  0  0  0  0
    5.2711   31.3233    1.3460 C   0  0  0  0  0  0
    6.9004   32.8554    0.3825 C   0  0  0  0  0  0
    7.5325   32.0934   -0.6016 C   0  0  0  0  0  0
    7.9438   32.6914   -1.7922 C   0  0  0  0  0  0
    7.7294   34.0715   -1.9389 C   0  0  0  0  0  0
    7.1283   34.8408   -0.9498 C   0  0  0  0  0  0
    6.7065   34.2434    0.2371 C   0  0  0  0  0  0
    5.9906   35.0928    1.2956 C   0  0  0  0  0  0
    6.7964   35.2496    2.3453 F   0  0  0  0  0  0
    5.6407   36.2978    0.8425 F   0  0  0  0  0  0
    4.8774   34.4931    1.6973 F   0  0  0  0  0  0
    8.0795   34.6698   -3.1309 N   0  0  0  0  0  0
    8.5938   34.0473   -4.2014 C   0  0  0  0  0  0
    8.8657   34.6481   -5.2264 O   0  0  0  0  0  0
    8.8408   32.5617   -4.0967 C   0  0  0  0  0  0
    9.2784   31.9824   -5.0986 O   0  0  0  0  0  0
    8.5215   31.9833   -2.8913 N   0  0  0  0  0  0
    8.7438   30.5134   -2.7905 C   0  0  0  0  0  0
   10.2050   30.1653   -2.4495 C   0  0  0  0  0  0
   10.7919   29.2470   -2.9761 O   0  0  0  0  0  0
   10.7383   30.9841   -1.5020 O   0  0  0  0  0  0
    7.8762   35.6557   -3.2674 H   0  0  0  0  0  0
   -0.1019   24.8325   -3.0420 H   0  0  0  0  0  0
    0.3022   24.2729   -0.6674 H   0  0  0  0  0  0
    1.2212   25.9506    0.8497 H   0  0  0  0  0  0
    1.3379   28.7998   -2.3958 H   0  0  0  0  0  0
    0.4135   27.0928   -3.8984 H   0  0  0  0  0  0
    1.8150   29.4660   -0.2640 H   0  0  0  0  0  0
    2.4768   30.4945    1.3341 H   0  0  0  0  0  0
    4.1488   28.9786    3.2980 H   0  0  0  0  0  0
    3.1483   30.3754    3.6988 H   0  0  0  0  0  0
    5.9011   31.2472    4.5311 H   0  0  0  0  0  0
    7.5931   32.7638    3.0685 H   0  0  0  0  0  0
    4.7992   31.1850    0.3845 H   0  0  0  0  0  0
    7.6499   31.0355   -0.4260 H   0  0  0  0  0  0
    6.9587   35.8954   -1.1238 H   0  0  0  0  0  0
    8.5045   30.0374   -3.7433 H   0  0  0  0  0  0
    8.0659   30.0200   -2.0994 H   0  0  0  0  0  0
   10.1491   31.6461   -1.1313 H   0  0  0  0  0  0
  1  6  1  0  0  0
  1  2  2  0  0  0
  1 38  1  0  0  0
  2  3  1  0  0  0
  2 39  1  0  0  0
  3  4  2  0  0  0
  3 40  1  0  0  0
  4  5  1  0  0  0
  4  7  1  0  0  0
  5  6  2  0  0  0
  5 41  1  0  0  0
  6 42  1  0  0  0
  7  8  1  0  0  0
  7 43  1  0  0  0
  8  9  2  0  0  0
  8 10  1  0  0  0
 10 11  1  0  0  0
 10 44  1  0  0  0
 11 12  1  0  0  0
 11 45  1  0  0  0
 11 46  1  0  0  0
 12 16  2  0  0  0
 12 13  1  0  0  0
 13 14  2  0  0  0
 13 47  1  0  0  0
 14 15  1  0  0  0
 14 48  1  0  0  0
 15 16  1  0  0  0
 15 17  1  0  0  0
 16 49  1  0  0  0
 17 22  1  0  0  0
 17 18  2  0  0  0
 18 19  1  0  0  0
 18 50  1  0  0  0
 19 32  1  0  0  0
 19 20  2  0  0  0
 20 21  1  0  0  0
 20 27  1  0  0  0
 21 22  2  0  0  0
 21 51  1  0  0  0
 22 23  1  0  0  0
 23 24  1  0  0  0
 23 25  1  0  0  0
 23 26  1  0  0  0
 27 37  1  0  0  0
 27 28  1  0  0  0
 28 29  2  0  0  0
 28 30  1  0  0  0
 30 31  2  0  0  0
 30 32  1  0  0  0
 32 33  1  0  0  0
 33 34  1  0  0  0
 33 52  1  0  0  0
 33 53  1  0  0  0
 34 35  2  0  0  0
 34 36  1  0  0  0
 36 54  1  0  0  0
M  END
> <s_m_entry_id>
3868

> <s_m_entry_name>
ligand_docking-pose.16

> <s_m_Source_Path>
/home/csk/Desktop/cluster/DUD-E-result/gria2

> <s_m_Source_File>
ligand_docking-pose.sdf

> <i_m_Source_File_Index>
16

> <i_lp_mmshare_version>
53161

> <r_lp_tautomer_probability>
1

> <s_lp_Force_Field>
OPLS_2005

> <r_lp_Energy>
36.58429

> <b_lp_Chiralities_Consistent>
1

> <s_lp_Variant>
11381-1

> <s_i_glide_gridfile>
glide-grid_3kgc

> <i_i_glide_lignum>
196

> <i_i_glide_rotatable_bonds>
10

> <r_i_docking_score>
-8.25249433934099

> <r_i_glide_ligand_efficiency>
-0.229235953870583

> <r_i_glide_ligand_efficiency_sa>
-0.756920441607484

> <r_i_glide_ligand_efficiency_ln>
-1.80047130821297

> <r_i_glide_gscore>
-8.25249433934099

> <r_i_glide_lipo>
-0.952004408219929

> <r_i_glide_hbond>
-1.05436911377614

> <r_i_glide_metal>
0

> <r_i_glide_rewards>
-2.04891643010819

> <r_i_glide_evdw>
-37.0118865966797

> <r_i_glide_ecoul>
-16.9400157928467

> <r_i_glide_erotb>
0.398098936335098

> <r_i_glide_esite>
-0.203706624810849

> <r_i_glide_emodel>
-79.6898101537567

> <r_i_glide_energy>
-53.9519023895264

> <r_i_glide_einternal>
7.11605644226074

> <i_i_glide_confnum>
23

> <i_i_glide_posenum>
144

> <r_i_glide_eff_state_penalty>
0

> <s_user_duplicate_titles>
11381

> <i_f3d_flags>
0

> <s_m_subgroup_title>
dock_pv

> <s_m_subgroupid>
dock_pv1

> <b_m_subgroup_collapsed>
0

$$$$
11263
                    3D
 Schrodinger Suite 2021-1.
 53 56  0  0  1  0            999 V2000
    4.8897   24.2067   -0.9889 C   0  0  0  0  0  0
    5.7695   25.0377   -0.3002 C   0  0  0  0  0  0
    5.2776   26.1415    0.3910 C   0  0  0  0  0  0
    3.9001   26.4142    0.3939 C   0  0  0  0  0  0
    3.0297   25.5811   -0.3132 C   0  0  0  0  0  0
    3.5227   24.4736   -0.9987 C   0  0  0  0  0  0
    3.3214   27.5246    1.0371 N   0  0  0  0  0  0
    3.8283   28.2688    2.0375 C   0  0  0  0  0  0
    4.8789   28.0350    2.6281 O   0  0  0  0  0  0
    3.0488   29.3303    2.2978 N   0  0  0  0  0  0
    3.4166   30.5530    3.0241 C   0  0  0  0  0  0
    4.7202   31.1889    2.5936 C   0  0  0  0  0  0
    5.8314   31.5637    3.3671 C   0  0  0  0  0  0
    6.7325   32.2481    2.5725 C   0  0  0  0  0  0
    6.2070   32.2982    1.3112 N   0  0  0  0  0  0
    5.0451   31.5843    1.3157 C   0  0  0  0  0  0
    6.7068   32.9661    0.2015 C   0  0  0  0  0  0
    7.4293   32.1822   -0.7009 C   0  0  0  0  0  0
    7.8810   32.7306   -1.9005 C   0  0  0  0  0  0
    7.6793   34.1011   -2.1092 C   0  0  0  0  0  0
    6.9471   34.8795   -1.2257 C   0  0  0  0  0  0
    6.4017   34.3241   -0.0682 C   0  0  0  0  0  0
    5.4834   35.1631    0.7568 N   0  3  0  0  0  0
    4.8930   34.6626    1.6979 O   0  5  0  0  0  0
    5.3103   36.3396    0.4495 O   0  0  0  0  0  0
    8.0784   34.6559   -3.3071 N   0  0  0  0  0  0
    8.4859   33.9659   -4.3790 C   0  0  0  0  0  0
    8.4789   34.4470   -5.5020 O   0  0  0  0  0  0
    8.8418   32.5087   -4.1690 C   0  0  0  0  0  0
    9.3991   31.9159   -5.0991 O   0  0  0  0  0  0
    8.5021   31.9799   -2.9488 N   0  0  0  0  0  0
    8.7717   30.5229   -2.7622 C   0  0  0  0  0  0
   10.0716   30.2491   -1.9784 C   0  0  0  0  0  0
   10.7339   29.2471   -2.1235 O   0  0  0  0  0  0
   10.3406   31.2468   -1.1020 O   0  0  0  0  0  0
    7.8042   35.6132   -3.5019 H   0  0  0  0  0  0
    5.2720   23.3475   -1.5197 H   0  0  0  0  0  0
    6.8293   24.8277   -0.3004 H   0  0  0  0  0  0
    5.9830   26.7788    0.9014 H   0  0  0  0  0  0
    1.9679   25.7818   -0.3329 H   0  0  0  0  0  0
    2.8477   23.8250   -1.5373 H   0  0  0  0  0  0
    2.4020   27.7734    0.7085 H   0  0  0  0  0  0
    2.1131   29.3328    1.9228 H   0  0  0  0  0  0
    3.3638   30.4470    4.0982 H   0  0  0  0  0  0
    2.6089   31.2470    2.8112 H   0  0  0  0  0  0
    5.9542   31.4094    4.4259 H   0  0  0  0  0  0
    7.6788   32.7235    2.7930 H   0  0  0  0  0  0
    4.4786   31.5059    0.4016 H   0  0  0  0  0  0
    7.5925   31.1395   -0.4703 H   0  0  0  0  0  0
    6.7444   35.9113   -1.4826 H   0  0  0  0  0  0
    8.8263   29.9948   -3.7151 H   0  0  0  0  0  0
    7.9380   30.0445   -2.2508 H   0  0  0  0  0  0
   11.0921   31.1403   -0.5073 H   0  0  0  0  0  0
  1  6  1  0  0  0
  1  2  2  0  0  0
  1 37  1  0  0  0
  2  3  1  0  0  0
  2 38  1  0  0  0
  3  4  2  0  0  0
  3 39  1  0  0  0
  4  5  1  0  0  0
  4  7  1  0  0  0
  5  6  2  0  0  0
  5 40  1  0  0  0
  6 41  1  0  0  0
  7  8  1  0  0  0
  7 42  1  0  0  0
  8  9  2  0  0  0
  8 10  1  0  0  0
 10 11  1  0  0  0
 10 43  1  0  0  0
 11 12  1  0  0  0
 11 44  1  0  0  0
 11 45  1  0  0  0
 12 16  2  0  0  0
 12 13  1  0  0  0
 13 14  2  0  0  0
 13 46  1  0  0  0
 14 15  1  0  0  0
 14 47  1  0  0  0
 15 16  1  0  0  0
 15 17  1  0  0  0
 16 48  1  0  0  0
 17 22  1  0  0  0
 17 18  2  0  0  0
 18 19  1  0  0  0
 18 49  1  0  0  0
 19 31  1  0  0  0
 19 20  2  0  0  0
 20 21  1  0  0  0
 20 26  1  0  0  0
 21 22  2  0  0  0
 21 50  1  0  0  0
 22 23  1  0  0  0
 23 24  1  0  0  0
 23 25  2  0  0  0
 26 36  1  0  0  0
 26 27  1  0  0  0
 27 28  2  0  0  0
 27 29  1  0  0  0
 29 30  2  0  0  0
 29 31  1  0  0  0
 31 32  1  0  0  0
 32 33  1  0  0  0
 32 51  1  0  0  0
 32 52  1  0  0  0
 33 34  2  0  0  0
 33 35  1  0  0  0
 35 53  1  0  0  0
M  CHG  2  23   1  24  -1
M  END
> <s_m_entry_id>
3869

> <s_m_entry_name>
ligand_docking-pose.17

> <s_m_Source_Path>
/home/csk/Desktop/cluster/DUD-E-result/gria2

> <s_m_Source_File>
ligand_docking-pose.sdf

> <i_m_Source_File_Index>
17

> <i_lp_mmshare_version>
53161

> <r_lp_tautomer_probability>
1

> <s_lp_Force_Field>
OPLS_2005

> <r_lp_Energy>
39.173195

> <b_lp_Chiralities_Consistent>
1

> <s_lp_Variant>
11263-1

> <s_i_glide_gridfile>
glide-grid_3kgc

> <i_i_glide_lignum>
201

> <i_i_glide_rotatable_bonds>
10

> <r_i_docking_score>
-8.24659565274034

> <r_i_glide_ligand_efficiency>
-0.235617018649724

> <r_i_glide_ligand_efficiency_sa>
-0.770718890898798

> <r_i_glide_ligand_efficiency_ln>
-1.81031076910598

> <r_i_glide_gscore>
-8.24659565274034

> <r_i_glide_lipo>
-1.24452867690838

> <r_i_glide_hbond>
-1.07307852621808

> <r_i_glide_metal>
0

> <r_i_glide_rewards>
-1.53523939667729

> <r_i_glide_evdw>
-42.3623390197754

> <r_i_glide_ecoul>
-16.7593002319336

> <r_i_glide_erotb>
0.433829377257814

> <r_i_glide_esite>
-0.195566444415601

> <r_i_glide_emodel>
-84.0943706839714

> <r_i_glide_energy>
-59.121639251709

> <r_i_glide_einternal>
11.5384225845337

> <i_i_glide_confnum>
4

> <i_i_glide_posenum>
309

> <r_i_glide_eff_state_penalty>
0

> <s_user_duplicate_titles>
11263

> <i_f3d_flags>
0

> <s_m_subgroup_title>
dock_pv

> <s_m_subgroupid>
dock_pv1

> <b_m_subgroup_collapsed>
0

$$$$
11333
                    3D
 Schrodinger Suite 2021-1.
 57 60  0  0  1  0            999 V2000
   -0.8226   29.6082   -2.6232 C   0  0  0  0  0  0
   -1.7493   28.7629   -2.0160 C   0  0  0  0  0  0
   -1.8805   28.7632   -0.6285 C   0  0  0  0  0  0
   -1.0896   29.6111    0.1538 C   0  0  0  0  0  0
   -0.1531   30.4472   -0.4692 C   0  0  0  0  0  0
   -0.0225   30.4495   -1.8534 C   0  0  0  0  0  0
   -1.2480   29.5868    1.6771 C   0  0  0  0  0  0
   -0.0816   30.0535    2.4312 N   0  0  0  0  0  0
    0.9770   29.2939    2.7401 C   0  0  0  0  0  0
    0.9230   28.0866    2.9819 O   0  0  0  0  0  0
    2.1137   29.9954    2.6650 N   0  0  0  0  0  0
    3.4242   29.3909    2.4613 C   0  0  0  0  0  0
    4.4526   30.4795    2.3179 C   0  0  0  0  0  0
    5.0203   31.2786    3.3128 C   0  0  0  0  0  0
    5.9179   32.1633    2.7411 C   0  0  0  0  0  0
    5.8679   31.9958    1.3827 N   0  0  0  0  0  0
    5.0154   30.9422    1.1459 C   0  0  0  0  0  0
    6.5347   32.7222    0.3850 C   0  0  0  0  0  0
    7.2651   31.9640   -0.5368 C   0  0  0  0  0  0
    7.8057   32.5593   -1.6762 C   0  0  0  0  0  0
    7.6382   33.9398   -1.8389 C   0  0  0  0  0  0
    6.9680   34.7147   -0.9046 C   0  0  0  0  0  0
    6.4057   34.1240    0.2277 C   0  0  0  0  0  0
    5.6164   35.0236    1.1858 C   0  0  0  0  0  0
    5.2942   36.2025    0.6471 F   0  0  0  0  0  0
    4.4792   34.4481    1.5386 F   0  0  0  0  0  0
    6.3504   35.2512    2.2737 F   0  0  0  0  0  0
    8.0790   34.5250   -3.0090 N   0  0  0  0  0  0
    8.6181   33.8801   -4.0541 C   0  0  0  0  0  0
    8.8790   34.4475   -5.1021 O   0  0  0  0  0  0
    8.8863   32.3992   -3.8962 C   0  0  0  0  0  0
    9.4424   31.8128   -4.8316 O   0  0  0  0  0  0
    8.4988   31.8460   -2.7016 N   0  0  0  0  0  0
    8.8579   30.4173   -2.4753 C   0  0  0  0  0  0
   10.0765   30.2641   -1.5371 C   0  0  0  0  0  0
   10.3009   29.2472   -0.9196 O   0  0  0  0  0  0
   10.8575   31.3796   -1.5022 O   0  0  0  0  0  0
    7.8842   35.5065   -3.1697 H   0  0  0  0  0  0
   -0.7199   29.6087   -3.6986 H   0  0  0  0  0  0
   -2.3627   28.1097   -2.6192 H   0  0  0  0  0  0
   -2.6010   28.1056   -0.1639 H   0  0  0  0  0  0
    0.4727   31.1137    0.1072 H   0  0  0  0  0  0
    0.6992   31.1058   -2.3167 H   0  0  0  0  0  0
   -1.5102   28.5739    1.9932 H   0  0  0  0  0  0
   -2.0983   30.2199    1.9320 H   0  0  0  0  0  0
    0.0475   31.0560    2.4655 H   0  0  0  0  0  0
    2.0590   30.9975    2.5124 H   0  0  0  0  0  0
    3.3933   28.7491    1.5781 H   0  0  0  0  0  0
    3.6759   28.7425    3.2979 H   0  0  0  0  0  0
    4.7710   31.2470    4.3610 H   0  0  0  0  0  0
    6.5461   32.9279    3.1736 H   0  0  0  0  0  0
    4.8188   30.6386    0.1285 H   0  0  0  0  0  0
    7.3583   30.9011   -0.3723 H   0  0  0  0  0  0
    6.8512   35.7743   -1.0884 H   0  0  0  0  0  0
    9.0755   29.8913   -3.4055 H   0  0  0  0  0  0
    8.0107   29.8720   -2.0617 H   0  0  0  0  0  0
   11.4558   31.3701   -0.7445 H   0  0  0  0  0  0
  1  6  1  0  0  0
  1  2  2  0  0  0
  1 39  1  0  0  0
  2  3  1  0  0  0
  2 40  1  0  0  0
  3  4  2  0  0  0
  3 41  1  0  0  0
  4  5  1  0  0  0
  4  7  1  0  0  0
  5  6  2  0  0  0
  5 42  1  0  0  0
  6 43  1  0  0  0
  7  8  1  0  0  0
  7 44  1  0  0  0
  7 45  1  0  0  0
  8  9  1  0  0  0
  8 46  1  0  0  0
  9 10  2  0  0  0
  9 11  1  0  0  0
 11 12  1  0  0  0
 11 47  1  0  0  0
 12 13  1  0  0  0
 12 48  1  0  0  0
 12 49  1  0  0  0
 13 17  2  0  0  0
 13 14  1  0  0  0
 14 15  2  0  0  0
 14 50  1  0  0  0
 15 16  1  0  0  0
 15 51  1  0  0  0
 16 17  1  0  0  0
 16 18  1  0  0  0
 17 52  1  0  0  0
 18 23  1  0  0  0
 18 19  2  0  0  0
 19 20  1  0  0  0
 19 53  1  0  0  0
 20 33  1  0  0  0
 20 21  2  0  0  0
 21 22  1  0  0  0
 21 28  1  0  0  0
 22 23  2  0  0  0
 22 54  1  0  0  0
 23 24  1  0  0  0
 24 25  1  0  0  0
 24 26  1  0  0  0
 24 27  1  0  0  0
 28 38  1  0  0  0
 28 29  1  0  0  0
 29 30  2  0  0  0
 29 31  1  0  0  0
 31 32  2  0  0  0
 31 33  1  0  0  0
 33 34  1  0  0  0
 34 35  1  0  0  0
 34 55  1  0  0  0
 34 56  1  0  0  0
 35 36  2  0  0  0
 35 37  1  0  0  0
 37 57  1  0  0  0
M  END
> <s_m_entry_id>
3870

> <s_m_entry_name>
ligand_docking-pose.18

> <s_m_Source_Path>
/home/csk/Desktop/cluster/DUD-E-result/gria2

> <s_m_Source_File>
ligand_docking-pose.sdf

> <i_m_Source_File_Index>
18

> <i_lp_mmshare_version>
53161

> <r_lp_tautomer_probability>
1

> <s_lp_Force_Field>
OPLS_2005

> <r_lp_Energy>
29.265533

> <b_lp_Chiralities_Consistent>
1

> <s_lp_Variant>
11333-1

> <s_i_glide_gridfile>
glide-grid_3kgc

> <i_i_glide_lignum>
158

> <i_i_glide_rotatable_bonds>
11

> <r_i_docking_score>
-8.24281924943

> <r_i_glide_ligand_efficiency>
-0.222778898633243

> <r_i_glide_ligand_efficiency_sa>
-0.742348713217792

> <r_i_glide_ligand_efficiency_ln>
-1.78767425610121

> <r_i_glide_gscore>
-8.24281924943

> <r_i_glide_lipo>
-1.33194772823335

> <r_i_glide_hbond>
-0.96617418889974

> <r_i_glide_metal>
0

> <r_i_glide_rewards>
-1.40920391652668

> <r_i_glide_evdw>
-44.7104911804199

> <r_i_glide_ecoul>
-16.3374271392822

> <r_i_glide_erotb>
0.432502126346987

> <r_i_glide_esite>
-0.281856912203888

> <r_i_glide_emodel>
-88.3986739781832

> <r_i_glide_energy>
-61.0479183197021

> <r_i_glide_einternal>
5.25678157806396

> <i_i_glide_confnum>
10

> <i_i_glide_posenum>
21

> <r_i_glide_eff_state_penalty>
0

> <s_user_duplicate_titles>
11333

> <i_f3d_flags>
0

> <s_m_subgroup_title>
dock_pv

> <s_m_subgroupid>
dock_pv1

> <b_m_subgroup_collapsed>
0

$$$$
124428
                    3D
 Schrodinger Suite 2021-1.
 32 34  0  0  1  0            999 V2000
    6.3959   30.2578   -0.9600 C   0  0  0  0  0  0
    7.4250   31.3722   -0.6585 C   0  0  2  0  0  0
    6.7768   32.5791    0.0304 C   0  0  0  0  0  0
    6.8786   33.7146   -0.7793 C   0  0  0  0  0  0
    6.3596   34.9457   -0.3823 C   0  0  0  0  0  0
    5.7670   35.0612    0.8718 C   0  0  0  0  0  0
    5.6951   33.9477    1.7067 C   0  0  0  0  0  0
    6.1735   32.7048    1.2910 C   0  0  0  0  0  0
    6.0198   31.3641    2.3722 Cl  0  0  0  0  0  0
    7.5847   33.3257   -1.9851 C   0  0  0  0  0  0
    7.8966   32.0214   -1.9556 C   0  0  0  0  0  0
    8.5463   31.4527   -3.0148 N   0  0  0  0  0  0
    8.9079   32.1560   -4.1265 C   0  0  0  0  0  0
    8.5618   33.6564   -4.1339 C   0  0  0  0  0  0
    7.8997   34.1299   -3.0410 N   0  0  0  0  0  0
    8.8790   34.3505   -5.1020 O   0  0  0  0  0  0
    9.4661   31.6548   -5.1020 O   0  0  0  0  0  0
    8.6185   30.8464    0.1932 C   0  0  0  0  0  0
    9.6180   29.8530   -0.4181 C   0  0  0  0  0  0
    9.3278   28.9928   -1.2463 O   0  0  0  0  0  0
   10.8635   30.0470    0.0980 O   0  0  0  0  0  0
    5.5343   30.6480   -1.4993 H   0  0  0  0  0  0
    6.8169   29.4612   -1.5723 H   0  0  0  0  0  0
    6.0227   29.7983   -0.0449 H   0  0  0  0  0  0
    6.4261   35.8141   -1.0220 H   0  0  0  0  0  0
    5.3825   36.0150    1.2028 H   0  0  0  0  0  0
    5.2790   34.0470    2.6931 H   0  0  0  0  0  0
    7.6352   35.1059   -3.0784 H   0  0  0  0  0  0
    8.7888   30.4716   -3.0152 H   0  0  0  0  0  0
    9.1858   31.7196    0.4981 H   0  0  0  0  0  0
    8.2606   30.3949    1.1171 H   0  0  0  0  0  0
   10.9195   30.9332    0.5170 H   0  0  0  0  0  0
  1  2  1  0  0  0
  1 22  1  0  0  0
  1 23  1  0  0  0
  1 24  1  0  0  0
  2  3  1  0  0  0
  2 18  1  0  0  0
  2 11  1  0  0  0
  3  8  2  0  0  0
  3  4  1  0  0  0
  4  5  2  0  0  0
  4 10  1  0  0  0
  5  6  1  0  0  0
  5 25  1  0  0  0
  6  7  2  0  0  0
  6 26  1  0  0  0
  7  8  1  0  0  0
  7 27  1  0  0  0
  8  9  1  0  0  0
 10 11  2  0  0  0
 10 15  1  0  0  0
 11 12  1  0  0  0
 12 29  1  0  0  0
 12 13  1  0  0  0
 13 17  2  0  0  0
 13 14  1  0  0  0
 14 16  2  0  0  0
 14 15  1  0  0  0
 15 28  1  0  0  0
 18 19  1  0  0  0
 18 30  1  0  0  0
 18 31  1  0  0  0
 19 20  2  0  0  0
 19 21  1  0  0  0
 21 32  1  0  0  0
M  END
> <s_m_entry_id>
3871

> <s_m_entry_name>
ligand_docking-pose.19

> <s_m_Source_Path>
/home/csk/Desktop/cluster/DUD-E-result/gria2

> <s_m_Source_File>
ligand_docking-pose.sdf

> <i_m_Source_File_Index>
19

> <i_lp_mmshare_version>
53161

> <r_lp_tautomer_probability>
0.999419562528581

> <s_lp_Force_Field>
OPLS_2005

> <r_lp_Energy>
40.624771

> <b_lp_Chiralities_Consistent>
1

> <s_lp_Variant>
124428-1

> <s_i_glide_gridfile>
glide-grid_3kgc

> <i_i_glide_lignum>
332

> <i_i_glide_rotatable_bonds>
3

> <r_i_docking_score>
-8.19264764189333

> <r_i_glide_ligand_efficiency>
-0.390126078185396

> <r_i_glide_ligand_efficiency_sa>
-1.07632826785014

> <r_i_glide_ligand_efficiency_ln>
-2.02561557465479

> <r_i_glide_gscore>
-8.19264764189333

> <r_i_glide_lipo>
-1.3914451557347

> <r_i_glide_hbond>
-0.731687028497157

> <r_i_glide_metal>
0

> <r_i_glide_rewards>
-2.25461548484848

> <r_i_glide_evdw>
-29.4048938751221

> <r_i_glide_ecoul>
-16.0317287445068

> <r_i_glide_erotb>
0.137490942651496

> <r_i_glide_esite>
-0.0773869100323491

> <r_i_glide_emodel>
-70.7009551345755

> <r_i_glide_energy>
-45.4366226196289

> <r_i_glide_einternal>
3.06376528739929

> <i_i_glide_confnum>
2

> <i_i_glide_posenum>
249

> <r_i_glide_eff_state_penalty>
0

> <s_user_duplicate_titles>
124428

> <i_f3d_flags>
0

> <s_m_subgroup_title>
dock_pv

> <s_m_subgroupid>
dock_pv1

> <b_m_subgroup_collapsed>
0

$$$$
123018
                    3D
 Schrodinger Suite 2021-1.
 25 27  0  0  1  0            999 V2000
    7.2719   32.0293   -0.4518 C   0  0  0  0  0  0
    7.6938   32.6054   -1.6505 C   0  0  0  0  0  0
    7.2982   33.9101   -1.9695 C   0  0  0  0  0  0
    6.4928   34.6463   -1.1021 C   0  0  0  0  0  0
    6.0643   34.0773    0.0952 C   0  0  0  0  0  0
    6.4544   32.7668    0.4100 C   0  0  0  0  0  0
    6.0593   32.1738    1.6052 N   0  0  0  0  0  0
    6.7350   32.1712    2.7939 C   0  0  0  0  0  0
    6.0936   31.4856    3.6980 N   0  0  0  0  0  0
    4.9178   31.0236    3.1131 N   0  0  0  0  0  0
    4.9372   31.4308    1.8722 C   0  0  0  0  0  0
    5.0645   35.0148    1.1539 Cl  0  0  0  0  0  0
    7.7235   34.4470   -3.1805 N   0  0  0  0  0  0
    8.5331   33.8509   -4.0830 C   0  0  0  0  0  0
    8.8790   34.4470   -5.1020 O   0  0  0  0  0  0
    8.8830   32.5724   -3.7225 N   0  0  0  0  0  0
    8.5677   31.8239   -2.6147 C   0  0  0  0  0  0
    8.9492   30.6653   -2.4255 O   0  0  0  0  0  0
    9.6655   31.8974   -4.6855 O   0  0  0  0  0  0
    7.4259   35.3851   -3.4299 H   0  0  0  0  0  0
    7.5742   31.0240   -0.1861 H   0  0  0  0  0  0
    6.1814   35.6471   -1.3610 H   0  0  0  0  0  0
    7.6790   32.6843    2.8953 H   0  0  0  0  0  0
    4.1945   31.2464    1.1122 H   0  0  0  0  0  0
   10.5415   31.8945   -4.2888 H   0  0  0  0  0  0
  1  6  1  0  0  0
  1  2  2  0  0  0
  1 21  1  0  0  0
  2 17  1  0  0  0
  2  3  1  0  0  0
  3  4  2  0  0  0
  3 13  1  0  0  0
  4  5  1  0  0  0
  4 22  1  0  0  0
  5  6  2  0  0  0
  5 12  1  0  0  0
  6  7  1  0  0  0
  7 11  1  0  0  0
  7  8  1  0  0  0
  8  9  2  0  0  0
  8 23  1  0  0  0
  9 10  1  0  0  0
 10 11  2  0  0  0
 11 24  1  0  0  0
 13 20  1  0  0  0
 13 14  1  0  0  0
 14 15  2  0  0  0
 14 16  1  0  0  0
 16 17  1  0  0  0
 16 19  1  0  0  0
 17 18  2  0  0  0
 19 25  1  0  0  0
M  END
> <s_m_entry_id>
3872

> <s_m_entry_name>
ligand_docking-pose.20

> <s_m_Source_Path>
/home/csk/Desktop/cluster/DUD-E-result/gria2

> <s_m_Source_File>
ligand_docking-pose.sdf

> <i_m_Source_File_Index>
20

> <i_lp_mmshare_version>
53161

> <r_lp_tautomer_probability>
1

> <s_lp_Force_Field>
OPLS_2005

> <r_lp_Energy>
42.607789

> <b_lp_Chiralities_Consistent>
1

> <s_lp_Variant>
123018-1

> <s_i_glide_gridfile>
glide-grid_3kgc

> <i_i_glide_lignum>
8

> <i_i_glide_rotatable_bonds>
2

> <r_i_docking_score>
-8.17809971331259

> <r_i_glide_ligand_efficiency>
-0.430426300700663

> <r_i_glide_ligand_efficiency_sa>
-1.14855024931566

> <r_i_glide_ligand_efficiency_ln>
-2.07332392680108

> <r_i_glide_gscore>
-8.17809971331259

> <r_i_glide_lipo>
-1.15589098065145

> <r_i_glide_hbond>
-0.758187280347346

> <r_i_glide_metal>
0

> <r_i_glide_rewards>
-2.53770450438369

> <r_i_glide_evdw>
-29.2122821807861

> <r_i_glide_ecoul>
-13.6749639511108

> <r_i_glide_erotb>
0.161545719644935

> <r_i_glide_esite>
-0.376003965869116

> <r_i_glide_emodel>
-64.8060267719873

> <r_i_glide_energy>
-42.887246131897

> <r_i_glide_einternal>
3.5121386051178

> <i_i_glide_confnum>
3

> <i_i_glide_posenum>
165

> <r_i_glide_eff_state_penalty>
0

> <s_user_duplicate_titles>
123018

> <i_f3d_flags>
0

> <s_m_subgroup_title>
dock_pv

> <s_m_subgroupid>
dock_pv1

> <b_m_subgroup_collapsed>
0

$$$$
11298
                    3D
 Schrodinger Suite 2021-1.
 34 36  0  0  1  0            999 V2000
    5.0461   31.1064    3.1320 C   0  0  0  0  0  0
    6.2049   31.6444    3.6994 C   0  0  0  0  0  0
    6.7907   32.4669    2.7754 C   0  0  0  0  0  0
    6.0669   32.3867    1.6189 N   0  0  0  0  0  0
    5.0336   31.5055    1.8168 C   0  0  0  0  0  0
    6.4420   32.9609    0.4170 C   0  0  0  0  0  0
    7.0556   32.1021   -0.4971 C   0  0  0  0  0  0
    7.5440   32.5956   -1.7046 C   0  0  0  0  0  0
    7.3162   33.9489   -1.9849 C   0  0  0  0  0  0
    6.6846   34.8063   -1.0925 C   0  0  0  0  0  0
    6.2667   34.3326    0.1472 C   0  0  0  0  0  0
    5.6816   35.2898    1.1107 N   0  3  0  0  0  0
    6.0761   35.2710    2.2714 O   0  5  0  0  0  0
    4.8792   36.1130    0.6845 O   0  0  0  0  0  0
    7.7601   34.4479   -3.1825 N   0  0  0  0  0  0
    8.4815   33.8009   -4.1002 C   0  0  0  0  0  0
    8.8790   34.3717   -5.1028 O   0  0  0  0  0  0
    8.7639   32.3337   -3.8490 C   0  0  0  0  0  0
    9.3958   31.7181   -4.7140 O   0  0  0  0  0  0
    8.2595   31.8194   -2.6741 N   0  0  0  0  0  0
    8.5206   30.3779   -2.4045 C   0  0  0  0  0  0
    9.8325   30.2066   -1.6217 C   0  0  0  0  0  0
   10.8793   29.8844   -2.1398 O   0  0  0  0  0  0
    9.6392   30.4703   -0.3023 O   0  0  0  0  0  0
    7.5611   35.4175   -3.4067 H   0  0  0  0  0  0
    4.3158   30.4548    3.5864 H   0  0  0  0  0  0
    6.5883   31.4872    4.6966 H   0  0  0  0  0  0
    7.6789   33.0790    2.8201 H   0  0  0  0  0  0
    4.3652   31.2498    1.0079 H   0  0  0  0  0  0
    7.1821   31.0657   -0.2237 H   0  0  0  0  0  0
    6.5394   35.8468   -1.3468 H   0  0  0  0  0  0
    8.5927   29.8105   -3.3330 H   0  0  0  0  0  0
    7.6933   29.9026   -1.8797 H   0  0  0  0  0  0
   10.4620   30.6412    0.1709 H   0  0  0  0  0  0
  1  5  2  0  0  0
  1  2  1  0  0  0
  1 26  1  0  0  0
  2  3  2  0  0  0
  2 27  1  0  0  0
  3  4  1  0  0  0
  3 28  1  0  0  0
  4  5  1  0  0  0
  4  6  1  0  0  0
  5 29  1  0  0  0
  6 11  1  0  0  0
  6  7  2  0  0  0
  7  8  1  0  0  0
  7 30  1  0  0  0
  8 20  1  0  0  0
  8  9  2  0  0  0
  9 10  1  0  0  0
  9 15  1  0  0  0
 10 11  2  0  0  0
 10 31  1  0  0  0
 11 12  1  0  0  0
 12 13  1  0  0  0
 12 14  2  0  0  0
 15 25  1  0  0  0
 15 16  1  0  0  0
 16 17  2  0  0  0
 16 18  1  0  0  0
 18 19  2  0  0  0
 18 20  1  0  0  0
 20 21  1  0  0  0
 21 22  1  0  0  0
 21 32  1  0  0  0
 21 33  1  0  0  0
 22 23  2  0  0  0
 22 24  1  0  0  0
 24 34  1  0  0  0
M  CHG  2  12   1  13  -1
M  END
> <s_m_entry_id>
3873

> <s_m_entry_name>
ligand_docking-pose.21

> <s_m_Source_Path>
/home/csk/Desktop/cluster/DUD-E-result/gria2

> <s_m_Source_File>
ligand_docking-pose.sdf

> <i_m_Source_File_Index>
21

> <i_lp_mmshare_version>
53161

> <r_lp_tautomer_probability>
1

> <s_lp_Force_Field>
OPLS_2005

> <r_lp_Energy>
31.75627

> <b_lp_Chiralities_Consistent>
1

> <s_lp_Variant>
11298-1

> <s_i_glide_gridfile>
glide-grid_3kgc

> <i_i_glide_lignum>
230

> <i_i_glide_rotatable_bonds>
5

> <r_i_docking_score>
-8.16283211221003

> <r_i_glide_ligand_efficiency>
-0.340118004675418

> <r_i_glide_ligand_efficiency_sa>
-0.981070091154571

> <r_i_glide_ligand_efficiency_ln>
-1.95374029241031

> <r_i_glide_gscore>
-8.16283211221003

> <r_i_glide_lipo>
-0.983767598399623

> <r_i_glide_hbond>
-1.07793606727823

> <r_i_glide_metal>
0

> <r_i_glide_rewards>
-2.52180119157048

> <r_i_glide_evdw>
-36.216194152832

> <r_i_glide_ecoul>
-13.5559024810791

> <r_i_glide_erotb>
0.362089636718327

> <r_i_glide_esite>
-0.0972218118765535

> <r_i_glide_emodel>
-69.8324251356297

> <r_i_glide_energy>
-49.7720966339111

> <r_i_glide_einternal>
8.00642013549805

> <i_i_glide_confnum>
15

> <i_i_glide_posenum>
350

> <r_i_glide_eff_state_penalty>
0

> <s_user_duplicate_titles>
11298

> <i_f3d_flags>
0

> <s_m_subgroup_title>
dock_pv

> <s_m_subgroupid>
dock_pv1

> <b_m_subgroup_collapsed>
0

$$$$
99579
                    3D
 Schrodinger Suite 2021-1.
 30 32  0  0  1  0            999 V2000
    8.6849   30.5661   -2.2706 C   0  0  0  0  0  0
    8.4097   31.9804   -2.5752 N   0  0  0  0  0  0
    7.7137   32.7493   -1.5958 C   0  0  0  0  0  0
    7.2557   32.2412   -0.3796 C   0  0  0  0  0  0
    6.5961   33.0723    0.5324 C   0  0  0  0  0  0
    6.3706   34.4334    0.2488 C   0  0  0  0  0  0
    6.7997   34.9259   -0.9835 C   0  0  0  0  0  0
    7.4740   34.0996   -1.8741 C   0  0  0  0  0  0
    7.9119   34.6074   -3.0810 N   0  0  0  0  0  0
    8.5391   33.9241   -4.0510 C   0  0  0  0  0  0
    8.8790   34.4470   -5.1022 O   0  0  0  0  0  0
    8.8202   32.4571   -3.7958 C   0  0  0  0  0  0
    9.3729   31.8181   -4.7006 O   0  0  0  0  0  0
    5.7124   35.3620    1.1900 N   0  3  0  0  0  0
    4.8790   36.1386    0.7376 O   0  5  0  0  0  0
    6.0802   35.3667    2.3578 O   0  0  0  0  0  0
    6.2087   32.4702    1.7256 N   0  0  0  0  0  0
    6.8563   32.5416    2.9251 C   0  0  0  0  0  0
    6.2925   31.5518    3.6981 C   0  0  0  0  0  0
    5.2715   30.9679    3.0942 N   0  0  0  0  0  0
    5.2503   31.5052    1.9028 C   0  0  0  0  0  0
    7.7045   35.5744   -3.3072 H   0  0  0  0  0  0
    7.7513   30.0260   -2.1091 H   0  0  0  0  0  0
    9.2821   30.4899   -1.3606 H   0  0  0  0  0  0
    9.2305   30.0414   -3.0568 H   0  0  0  0  0  0
    7.4240   31.2066   -0.1170 H   0  0  0  0  0  0
    6.6196   35.9612   -1.2369 H   0  0  0  0  0  0
    7.6790   33.2198    3.0763 H   0  0  0  0  0  0
    6.6326   31.2633    4.6832 H   0  0  0  0  0  0
    4.5863   31.2463    1.0899 H   0  0  0  0  0  0
  1  2  1  0  0  0
  1 23  1  0  0  0
  1 24  1  0  0  0
  1 25  1  0  0  0
  2 12  1  0  0  0
  2  3  1  0  0  0
  3  8  2  0  0  0
  3  4  1  0  0  0
  4  5  2  0  0  0
  4 26  1  0  0  0
  5  6  1  0  0  0
  5 17  1  0  0  0
  6  7  2  0  0  0
  6 14  1  0  0  0
  7  8  1  0  0  0
  7 27  1  0  0  0
  8  9  1  0  0  0
  9 22  1  0  0  0
  9 10  1  0  0  0
 10 11  2  0  0  0
 10 12  1  0  0  0
 12 13  2  0  0  0
 14 15  1  0  0  0
 14 16  2  0  0  0
 17 21  1  0  0  0
 17 18  1  0  0  0
 18 19  2  0  0  0
 18 28  1  0  0  0
 19 20  1  0  0  0
 19 29  1  0  0  0
 20 21  2  0  0  0
 21 30  1  0  0  0
M  CHG  2  14   1  15  -1
M  END
> <s_m_entry_id>
3874

> <s_m_entry_name>
ligand_docking-pose.22

> <s_m_Source_Path>
/home/csk/Desktop/cluster/DUD-E-result/gria2

> <s_m_Source_File>
ligand_docking-pose.sdf

> <i_m_Source_File_Index>
22

> <i_lp_mmshare_version>
53161

> <r_lp_tautomer_probability>
1

> <s_lp_Force_Field>
OPLS_2005

> <r_lp_Energy>
36.366663

> <b_lp_Chiralities_Consistent>
1

> <s_lp_Variant>
99579-1

> <s_i_glide_gridfile>
glide-grid_3kgc

> <i_i_glide_lignum>
582

> <i_i_glide_rotatable_bonds>
2

> <r_i_docking_score>
-8.04157568910253

> <r_i_glide_ligand_efficiency>
-0.382932175671549

> <r_i_glide_ligand_efficiency_sa>
-1.0564808363023

> <r_i_glide_ligand_efficiency_ln>
-1.98826333959689

> <r_i_glide_gscore>
-8.04157568910253

> <r_i_glide_lipo>
-0.883376746162908

> <r_i_glide_hbond>
-1.10146736730373

> <r_i_glide_metal>
0

> <r_i_glide_rewards>
-2.89260651591502

> <r_i_glide_evdw>
-33.0170631408691

> <r_i_glide_ecoul>
-10.5005502700806

> <r_i_glide_erotb>
0.154192340884455

> <r_i_glide_esite>
-0.0923817030497841

> <r_i_glide_emodel>
-64.3353225295844

> <r_i_glide_energy>
-43.5176134109497

> <r_i_glide_einternal>
1.85469210147858

> <i_i_glide_confnum>
2

> <i_i_glide_posenum>
366

> <r_i_glide_eff_state_penalty>
0

> <s_user_duplicate_titles>
99579

> <i_f3d_flags>
0

> <s_m_subgroup_title>
dock_pv

> <s_m_subgroupid>
dock_pv1

> <b_m_subgroup_collapsed>
0

$$$$
154328
                    3D
 Schrodinger Suite 2021-1.
 30 31  0  0  1  0            999 V2000
    5.4502   34.9084    1.2364 C   0  0  0  0  0  0
    6.2636   34.0727    0.2581 C   0  0  0  0  0  0
    6.6313   34.6343   -0.9661 C   0  0  0  0  0  0
    7.3599   33.8845   -1.8876 C   0  0  0  0  0  0
    7.7416   32.5632   -1.6171 C   0  0  0  0  0  0
    7.3805   32.0104   -0.3763 C   0  0  0  0  0  0
    6.6467   32.7538    0.5584 C   0  0  0  0  0  0
    6.2724   32.1109    1.8874 C   0  0  0  0  0  0
    8.4615   31.8635   -2.6393 N   0  0  0  0  0  0
    8.8792   32.4252   -3.8258 C   0  0  0  0  0  0
    9.5315   31.8583   -4.7100 O   0  0  0  0  0  0
    8.4804   33.8693   -4.0675 C   0  0  0  0  0  0
    8.8304   34.4459   -5.1014 O   0  0  0  0  0  0
    7.7339   34.4472   -3.1032 N   0  0  0  0  0  0
    8.8449   30.4422   -2.4015 C   0  0  0  0  0  0
   10.1264   30.2879   -1.5527 C   0  0  0  0  0  0
   10.4263   29.2475   -1.0124 O   0  0  0  0  0  0
   10.8723   31.4264   -1.5028 O   0  0  0  0  0  0
    7.4501   35.4012   -3.3029 H   0  0  0  0  0  0
    5.9610   34.9742    2.1969 H   0  0  0  0  0  0
    5.2843   35.9250    0.8755 H   0  0  0  0  0  0
    4.4799   34.4421    1.4071 H   0  0  0  0  0  0
    6.3391   35.6469   -1.2082 H   0  0  0  0  0  0
    7.6654   31.0020   -0.1171 H   0  0  0  0  0  0
    6.6241   31.0818    1.9638 H   0  0  0  0  0  0
    6.7009   32.6779    2.7142 H   0  0  0  0  0  0
    5.1890   32.1114    2.0115 H   0  0  0  0  0  0
    8.9849   29.9012   -3.3367 H   0  0  0  0  0  0
    8.0262   29.9115   -1.9182 H   0  0  0  0  0  0
   11.5073   31.4023   -0.7755 H   0  0  0  0  0  0
  1  2  1  0  0  0
  1 20  1  0  0  0
  1 21  1  0  0  0
  1 22  1  0  0  0
  2  7  1  0  0  0
  2  3  2  0  0  0
  3  4  1  0  0  0
  3 23  1  0  0  0
  4 14  1  0  0  0
  4  5  2  0  0  0
  5  6  1  0  0  0
  5  9  1  0  0  0
  6  7  2  0  0  0
  6 24  1  0  0  0
  7  8  1  0  0  0
  8 25  1  0  0  0
  8 26  1  0  0  0
  8 27  1  0  0  0
  9 10  1  0  0  0
  9 15  1  0  0  0
 10 11  2  0  0  0
 10 12  1  0  0  0
 12 13  2  0  0  0
 12 14  1  0  0  0
 14 19  1  0  0  0
 15 16  1  0  0  0
 15 28  1  0  0  0
 15 29  1  0  0  0
 16 17  2  0  0  0
 16 18  1  0  0  0
 18 30  1  0  0  0
M  END
> <s_m_entry_id>
3875

> <s_m_entry_name>
ligand_docking-pose.23

> <s_m_Source_Path>
/home/csk/Desktop/cluster/DUD-E-result/gria2

> <s_m_Source_File>
ligand_docking-pose.sdf

> <i_m_Source_File_Index>
23

> <i_lp_mmshare_version>
53161

> <r_lp_tautomer_probability>
1

> <s_lp_Force_Field>
OPLS_2005

> <r_lp_Energy>
24.834642

> <b_lp_Chiralities_Consistent>
1

> <s_lp_Variant>
154328-1

> <s_i_glide_gridfile>
glide-grid_3kgc

> <i_i_glide_lignum>
336

> <i_i_glide_rotatable_bonds>
3

> <r_i_docking_score>
-8.04035662194013

> <r_i_glide_ligand_efficiency>
-0.446686478996674

> <r_i_glide_ligand_efficiency_sa>
-1.17064974461214

> <r_i_glide_ligand_efficiency_ln>
-2.06673221026265

> <r_i_glide_gscore>
-8.04035662194013

> <r_i_glide_lipo>
-1.34030228299461

> <r_i_glide_hbond>
-0.858305004262314

> <r_i_glide_metal>
0

> <r_i_glide_rewards>
-2.63192285198403

> <r_i_glide_evdw>
-27.7919864654541

> <r_i_glide_ecoul>
-14.058235168457

> <r_i_glide_erotb>
0.396789019656928

> <r_i_glide_esite>
-0.108280903814847

> <r_i_glide_emodel>
-64.7141587704024

> <r_i_glide_energy>
-41.8502216339111

> <r_i_glide_einternal>
3.12713408470154

> <i_i_glide_confnum>
4

> <i_i_glide_posenum>
41

> <r_i_glide_eff_state_penalty>
0

> <s_user_duplicate_titles>
154328

> <i_f3d_flags>
0

> <s_m_subgroup_title>
dock_pv

> <s_m_subgroupid>
dock_pv1

> <b_m_subgroup_collapsed>
0

$$$$
212100
                    3D
 Schrodinger Suite 2021-1.
 34 36  0  0  1  0            999 V2000
   10.1861   30.0440   -0.2706 C   0  0  0  0  0  0
   10.1826   30.6707   -1.6706 C   0  0  0  0  0  0
    8.8355   30.7451   -2.1607 O   0  0  0  0  0  0
    8.4677   32.0623   -2.5057 N   0  0  0  0  0  0
    7.6914   32.7951   -1.5771 C   0  0  0  0  0  0
    7.2232   32.2816   -0.3726 C   0  0  0  0  0  0
    6.5375   33.1116    0.5173 C   0  0  0  0  0  0
    6.2999   34.4685    0.2196 C   0  0  0  0  0  0
    6.6983   34.9468   -1.0296 C   0  0  0  0  0  0
    7.3948   34.1212   -1.9024 C   0  0  0  0  0  0
    7.8224   34.6057   -3.1253 N   0  0  0  0  0  0
    8.5252   33.9311   -4.0522 C   0  0  0  0  0  0
    8.8790   34.4465   -5.1021 O   0  0  0  0  0  0
    8.8866   32.4920   -3.7384 C   0  0  0  0  0  0
    9.5127   31.8498   -4.5899 O   0  0  0  0  0  0
    5.6856   35.4172    1.1703 N   0  3  0  0  0  0
    6.0792   35.4142    2.3298 O   0  5  0  0  0  0
    4.8768   36.2257    0.7305 O   0  0  0  0  0  0
    6.1654   32.5208    1.7166 N   0  0  0  0  0  0
    6.8429   32.6060    2.8959 C   0  0  0  0  0  0
    6.2789   31.6467    3.6984 C   0  0  0  0  0  0
    5.2484   31.0486    3.1284 N   0  0  0  0  0  0
    5.2160   31.5511    1.9225 C   0  0  0  0  0  0
    7.5710   35.5551   -3.3860 H   0  0  0  0  0  0
   11.2066   29.9099    0.0901 H   0  0  0  0  0  0
    9.6925   29.0698   -0.2588 H   0  0  0  0  0  0
    9.6792   30.6907    0.4487 H   0  0  0  0  0  0
   10.6959   31.6370   -1.6250 H   0  0  0  0  0  0
   10.7576   30.0481   -2.3587 H   0  0  0  0  0  0
    7.4218   31.2524   -0.1064 H   0  0  0  0  0  0
    6.4958   35.9741   -1.2997 H   0  0  0  0  0  0
    7.6791   33.2732    3.0170 H   0  0  0  0  0  0
    6.6258   31.4006    4.6906 H   0  0  0  0  0  0
    4.5496   31.2585    1.1224 H   0  0  0  0  0  0
  1  2  1  0  0  0
  1 25  1  0  0  0
  1 26  1  0  0  0
  1 27  1  0  0  0
  2  3  1  0  0  0
  2 28  1  0  0  0
  2 29  1  0  0  0
  3  4  1  0  0  0
  4 14  1  0  0  0
  4  5  1  0  0  0
  5 10  2  0  0  0
  5  6  1  0  0  0
  6  7  2  0  0  0
  6 30  1  0  0  0
  7  8  1  0  0  0
  7 19  1  0  0  0
  8  9  2  0  0  0
  8 16  1  0  0  0
  9 10  1  0  0  0
  9 31  1  0  0  0
 10 11  1  0  0  0
 11 24  1  0  0  0
 11 12  1  0  0  0
 12 13  2  0  0  0
 12 14  1  0  0  0
 14 15  2  0  0  0
 16 17  1  0  0  0
 16 18  2  0  0  0
 19 23  1  0  0  0
 19 20  1  0  0  0
 20 21  2  0  0  0
 20 32  1  0  0  0
 21 22  1  0  0  0
 21 33  1  0  0  0
 22 23  2  0  0  0
 23 34  1  0  0  0
M  CHG  2  16   1  17  -1
M  END
> <s_m_entry_id>
3876

> <s_m_entry_name>
ligand_docking-pose.24

> <s_m_Source_Path>
/home/csk/Desktop/cluster/DUD-E-result/gria2

> <s_m_Source_File>
ligand_docking-pose.sdf

> <i_m_Source_File_Index>
24

> <i_lp_mmshare_version>
53161

> <r_lp_tautomer_probability>
1

> <s_lp_Force_Field>
OPLS_2005

> <r_lp_Energy>
31.373934

> <b_lp_Chiralities_Consistent>
1

> <s_lp_Variant>
212100-1

> <s_i_glide_gridfile>
glide-grid_3kgc

> <i_i_glide_lignum>
577

> <i_i_glide_rotatable_bonds>
4

> <r_i_docking_score>
-8.01870896480502

> <r_i_glide_ligand_efficiency>
-0.348639520208914

> <r_i_glide_ligand_efficiency_sa>
-0.991484418357158

> <r_i_glide_ligand_efficiency_ln>
-1.93899653732278

> <r_i_glide_gscore>
-8.01870896480502

> <r_i_glide_lipo>
-0.929864748685323

> <r_i_glide_hbond>
-1.06277451952282

> <r_i_glide_metal>
0

> <r_i_glide_rewards>
-2.68028562791361

> <r_i_glide_evdw>
-36.5854415893555

> <r_i_glide_ecoul>
-11.1674184799194

> <r_i_glide_erotb>
0.259107163592844

> <r_i_glide_esite>
-0.100506380820423

> <r_i_glide_emodel>
-68.1809399597607

> <r_i_glide_energy>
-47.7528600692749

> <r_i_glide_einternal>
5.60372924804688

> <i_i_glide_confnum>
2

> <i_i_glide_posenum>
141

> <r_i_glide_eff_state_penalty>
0

> <s_user_duplicate_titles>
212100

> <i_f3d_flags>
0

> <s_m_subgroup_title>
dock_pv

> <s_m_subgroupid>
dock_pv1

> <b_m_subgroup_collapsed>
0

$$$$
99483
                    3D
 Schrodinger Suite 2021-1.
 38 41  0  0  1  0            999 V2000
    6.4204   29.4594   -1.9249 C   0  0  0  0  0  0
    7.6295   29.5348   -2.8692 C   0  0  0  0  0  0
    8.7670   30.5125   -2.4625 C   0  0  1  0  0  0
    9.8889   30.5267   -3.5104 C   0  0  0  0  0  0
    9.7403   31.7243   -4.3025 N   0  0  0  0  0  0
    8.9093   32.4630   -3.6870 C   0  0  0  0  0  0
    8.3908   31.9135   -2.5141 N   0  0  0  0  0  0
    7.6279   32.6773   -1.5912 C   0  0  0  0  0  0
    7.2253   32.2165   -0.3464 C   0  0  0  0  0  0
    6.5474   33.0701    0.5300 C   0  0  0  0  0  0
    6.2835   34.4128    0.1854 C   0  0  0  0  0  0
    6.6413   34.8470   -1.0936 C   0  0  0  0  0  0
    7.3007   33.9910   -1.9678 C   0  0  0  0  0  0
    7.6836   34.4471   -3.2279 N   0  0  0  0  0  0
    8.5132   33.8269   -4.0882 C   0  0  0  0  0  0
    8.8789   34.4086   -5.1020 O   0  0  0  0  0  0
    5.6794   35.3893    1.1160 N   0  3  0  0  0  0
    4.8788   36.1965    0.6593 O   0  5  0  0  0  0
    6.0790   35.4141    2.2731 O   0  0  0  0  0  0
    6.2012   32.5084    1.7554 N   0  0  0  0  0  0
    6.8789   32.6351    2.9315 C   0  0  0  0  0  0
    6.3824   31.6468    3.7483 C   0  0  0  0  0  0
    5.3506   31.0288    3.2028 N   0  0  0  0  0  0
    5.2761   31.5245    1.9948 C   0  0  0  0  0  0
    5.7193   28.6933   -2.2576 H   0  0  0  0  0  0
    6.7227   29.2027   -0.9092 H   0  0  0  0  0  0
    5.8718   30.4003   -1.8966 H   0  0  0  0  0  0
    8.0500   28.5313   -2.9485 H   0  0  0  0  0  0
    7.2789   29.7833   -3.8715 H   0  0  0  0  0  0
    9.1595   30.2476   -1.4783 H   0  0  0  0  0  0
   10.8753   30.5442   -3.0415 H   0  0  0  0  0  0
    9.8564   29.6566   -4.1684 H   0  0  0  0  0  0
    7.4783   31.2131   -0.0380 H   0  0  0  0  0  0
    6.4293   35.8622   -1.3960 H   0  0  0  0  0  0
    7.4117   35.3871   -3.5023 H   0  0  0  0  0  0
    7.6792   33.3446    3.0363 H   0  0  0  0  0  0
    6.7588   31.4143    4.7340 H   0  0  0  0  0  0
    4.5955   31.2214    1.2123 H   0  0  0  0  0  0
  1  2  1  0  0  0
  1 25  1  0  0  0
  1 26  1  0  0  0
  1 27  1  0  0  0
  2  3  1  0  0  0
  2 28  1  0  0  0
  2 29  1  0  0  0
  3  7  1  0  0  0
  3  4  1  0  0  0
  3 30  1  0  0  0
  4  5  1  0  0  0
  4 31  1  0  0  0
  4 32  1  0  0  0
  5  6  2  0  0  0
  6 15  1  0  0  0
  6  7  1  0  0  0
  7  8  1  0  0  0
  8 13  2  0  0  0
  8  9  1  0  0  0
  9 10  2  0  0  0
  9 33  1  0  0  0
 10 11  1  0  0  0
 10 20  1  0  0  0
 11 12  2  0  0  0
 11 17  1  0  0  0
 12 13  1  0  0  0
 12 34  1  0  0  0
 13 14  1  0  0  0
 14 15  1  0  0  0
 14 35  1  0  0  0
 15 16  2  0  0  0
 17 18  1  0  0  0
 17 19  2  0  0  0
 20 24  1  0  0  0
 20 21  1  0  0  0
 21 22  2  0  0  0
 21 36  1  0  0  0
 22 23  1  0  0  0
 22 37  1  0  0  0
 23 24  2  0  0  0
 24 38  1  0  0  0
M  CHG  2  17   1  18  -1
M  END
> <s_m_entry_id>
3877

> <s_m_entry_name>
ligand_docking-pose.25

> <s_m_Source_Path>
/home/csk/Desktop/cluster/DUD-E-result/gria2

> <s_m_Source_File>
ligand_docking-pose.sdf

> <i_m_Source_File_Index>
25

> <i_lp_mmshare_version>
53161

> <r_lp_tautomer_probability>
1

> <s_lp_Force_Field>
OPLS_2005

> <r_lp_Energy>
45.493279

> <b_lp_Chiralities_Consistent>
1

> <s_lp_Variant>
99483-2

> <s_i_glide_gridfile>
glide-grid_3kgc

> <i_i_glide_lignum>
424

> <i_i_glide_rotatable_bonds>
3

> <r_i_docking_score>
-8.01801858043969

> <r_i_glide_ligand_efficiency>
-0.334084107518321

> <r_i_glide_ligand_efficiency_sa>
-0.963665320008803

> <r_i_glide_ligand_efficiency_ln>
-1.9190797691977

> <r_i_glide_gscore>
-8.01801858043969

> <r_i_glide_lipo>
-1.00694648765879

> <r_i_glide_hbond>
-1.00717680520167

> <r_i_glide_metal>
0

> <r_i_glide_rewards>
-2.6353963523867

> <r_i_glide_evdw>
-36.4436340332031

> <r_i_glide_ecoul>
-9.76637363433838

> <r_i_glide_erotb>
0.123284386999157

> <r_i_glide_esite>
-0.204645575380783

> <r_i_glide_emodel>
-64.3792830275987

> <r_i_glide_energy>
-46.2100076675415

> <r_i_glide_einternal>
3.13196134567261

> <i_i_glide_confnum>
1

> <i_i_glide_posenum>
25

> <r_i_glide_eff_state_penalty>
0

> <s_user_duplicate_titles>
99483

> <i_f3d_flags>
0

> <s_m_subgroup_title>
dock_pv

> <s_m_subgroupid>
dock_pv1

> <b_m_subgroup_collapsed>
0

$$$$
431626
                    3D
 Schrodinger Suite 2021-1.
 30 33  0  0  1  0            999 V2000
    7.4943   32.1160   -0.2787 C   0  0  0  0  0  0
    7.8918   32.6934   -1.4804 C   0  0  0  0  0  0
    7.3741   33.9471   -1.8555 C   0  0  0  0  0  0
    6.4794   34.6202   -1.0230 C   0  0  0  0  0  0
    6.0589   34.0324    0.1698 C   0  0  0  0  0  0
    6.5606   32.7718    0.5272 C   0  0  0  0  0  0
    6.1110   32.1130    1.6693 N   0  0  0  0  0  0
    4.9710   31.3657    1.8198 C   0  0  0  0  0  0
    4.8882   30.8484    3.0162 N   0  0  0  0  0  0
    6.0353   31.2474    3.6978 N   0  0  0  0  0  0
    6.7314   31.9929    2.8831 C   0  0  0  0  0  0
    4.9219   34.8779    1.1652 Cl  0  0  0  0  0  0
    7.7346   34.5130   -3.0852 N   0  0  0  0  0  0
    8.5581   33.9943   -4.0203 C   0  0  0  0  0  0
    8.8689   34.4910   -5.1020 O   0  0  0  0  0  0
    9.0886   32.7280   -3.6287 N   0  0  0  0  0  0
    8.8270   32.0564   -2.4550 C   0  0  0  0  0  0
    9.5528   30.8832   -2.5363 C   0  0  0  0  0  0
   10.2016   30.9185   -3.7852 C   0  0  0  0  0  0
    9.9270   32.0402   -4.4160 N   0  0  0  0  0  0
   11.0407   29.8772   -4.3053 C   0  0  0  0  0  0
   11.2790   28.8470   -3.6883 O   0  0  0  0  0  0
   11.5402   30.1434   -5.5475 O   0  0  0  0  0  0
    7.3382   35.4151   -3.3323 H   0  0  0  0  0  0
    7.8828   31.1484    0.0066 H   0  0  0  0  0  0
    6.0787   35.5817   -1.3127 H   0  0  0  0  0  0
    4.2734   31.2467    1.0049 H   0  0  0  0  0  0
    7.6789   32.4764    3.0714 H   0  0  0  0  0  0
    9.5963   30.0960   -1.7960 H   0  0  0  0  0  0
   12.0803   29.4064   -5.8398 H   0  0  0  0  0  0
  1  6  1  0  0  0
  1  2  2  0  0  0
  1 25  1  0  0  0
  2 17  1  0  0  0
  2  3  1  0  0  0
  3  4  2  0  0  0
  3 13  1  0  0  0
  4  5  1  0  0  0
  4 26  1  0  0  0
  5  6  2  0  0  0
  5 12  1  0  0  0
  6  7  1  0  0  0
  7 11  1  0  0  0
  7  8  1  0  0  0
  8  9  2  0  0  0
  8 27  1  0  0  0
  9 10  1  0  0  0
 10 11  2  0  0  0
 11 28  1  0  0  0
 13 24  1  0  0  0
 13 14  1  0  0  0
 14 15  2  0  0  0
 14 16  1  0  0  0
 16 20  1  0  0  0
 16 17  1  0  0  0
 17 18  2  0  0  0
 18 19  1  0  0  0
 18 29  1  0  0  0
 19 20  2  0  0  0
 19 21  1  0  0  0
 21 22  2  0  0  0
 21 23  1  0  0  0
 23 30  1  0  0  0
M  END
> <s_m_entry_id>
3878

> <s_m_entry_name>
ligand_docking-pose.26

> <s_m_Source_Path>
/home/csk/Desktop/cluster/DUD-E-result/gria2

> <s_m_Source_File>
ligand_docking-pose.sdf

> <i_m_Source_File_Index>
26

> <i_lp_mmshare_version>
53161

> <r_lp_tautomer_probability>
1

> <s_lp_Force_Field>
OPLS_2005

> <r_lp_Energy>
26.810525

> <b_lp_Chiralities_Consistent>
1

> <s_lp_Variant>
431626-1

> <s_i_glide_gridfile>
glide-grid_3kgc

> <i_i_glide_lignum>
7

> <i_i_glide_rotatable_bonds>
3

> <r_i_docking_score>
-8.01058639862586

> <r_i_glide_ligand_efficiency>
-0.348286365157646

> <r_i_glide_ligand_efficiency_sa>
-0.99048009236914

> <r_i_glide_ligand_efficiency_ln>
-1.93703242716931

> <r_i_glide_gscore>
-8.01058639862586

> <r_i_glide_lipo>
-0.974167967870223

> <r_i_glide_hbond>
-0.834535136763937

> <r_i_glide_metal>
0

> <r_i_glide_rewards>
-2.34018698802867

> <r_i_glide_evdw>
-31.7450790405273

> <r_i_glide_ecoul>
-14.1316022872925

> <r_i_glide_erotb>
0.240834148786139

> <r_i_glide_esite>
-0.395536159628939

> <r_i_glide_emodel>
-67.0516618361617

> <r_i_glide_energy>
-45.8766813278198

> <r_i_glide_einternal>
5.10444307327271

> <i_i_glide_confnum>
5

> <i_i_glide_posenum>
359

> <r_i_glide_eff_state_penalty>
0

> <s_user_duplicate_titles>
431626

> <i_f3d_flags>
0

> <s_m_subgroup_title>
dock_pv

> <s_m_subgroupid>
dock_pv1

> <b_m_subgroup_collapsed>
0

$$$$
212168
                    3D
 Schrodinger Suite 2021-1.
 27 29  0  0  1  0            999 V2000
    6.8930   34.8761   -0.9067 C   0  0  0  0  0  0
    7.7607   34.1860   -1.7432 C   0  0  0  0  0  0
    8.2834   32.9426   -1.3716 C   0  0  0  0  0  0
    7.8403   32.3394   -0.1966 C   0  0  0  0  0  0
    6.9207   33.0046    0.6212 C   0  0  0  0  0  0
    6.5133   34.3226    0.3175 C   0  0  0  0  0  0
    5.7469   35.1526    1.2686 N   0  3  0  0  0  0
    4.8790   35.8984    0.8273 O   0  5  0  0  0  0
    6.0790   35.1102    2.4483 O   0  0  0  0  0  0
    6.3490   32.2784    1.6766 N   0  0  0  0  0  0
    6.9273   31.4135    2.5615 C   0  0  0  0  0  0
    6.0157   30.8470    3.2980 N   0  0  0  0  0  0
    4.9000   31.3594    2.8149 C   0  0  0  0  0  0
    5.0241   32.2199    1.8345 N   0  0  0  0  0  0
    9.1934   32.3406   -2.2633 N   0  0  0  0  0  0
    9.5303   32.7823   -3.5136 C   0  0  0  0  0  0
   10.3587   32.2958   -4.2924 O   0  0  0  0  0  0
    8.8048   34.0470   -3.9448 C   0  0  0  0  0  0
    8.8790   34.4470   -5.1020 O   0  0  0  0  0  0
    8.0777   34.6843   -3.0031 N   0  0  0  0  0  0
   10.0326   31.3333   -1.7485 O   0  0  0  0  0  0
    7.6268   35.5394   -3.3158 H   0  0  0  0  0  0
    6.5261   35.8523   -1.1925 H   0  0  0  0  0  0
    8.1736   31.3418    0.0537 H   0  0  0  0  0  0
    7.9931   31.2470    2.5763 H   0  0  0  0  0  0
    3.9241   31.0911    3.1948 H   0  0  0  0  0  0
   10.4775   31.7638   -1.0048 H   0  0  0  0  0  0
  1  6  1  0  0  0
  1  2  2  0  0  0
  1 23  1  0  0  0
  2 20  1  0  0  0
  2  3  1  0  0  0
  3  4  2  0  0  0
  3 15  1  0  0  0
  4  5  1  0  0  0
  4 24  1  0  0  0
  5  6  2  0  0  0
  5 10  1  0  0  0
  6  7  1  0  0  0
  7  8  1  0  0  0
  7  9  2  0  0  0
 10 14  1  0  0  0
 10 11  1  0  0  0
 11 12  2  0  0  0
 11 25  1  0  0  0
 12 13  1  0  0  0
 13 14  2  0  0  0
 13 26  1  0  0  0
 15 16  1  0  0  0
 15 21  1  0  0  0
 16 17  2  0  0  0
 16 18  1  0  0  0
 18 19  2  0  0  0
 18 20  1  0  0  0
 20 22  1  0  0  0
 21 27  1  0  0  0
M  CHG  2   7   1   8  -1
M  END
> <s_m_entry_id>
3879

> <s_m_entry_name>
ligand_docking-pose.27

> <s_m_Source_Path>
/home/csk/Desktop/cluster/DUD-E-result/gria2

> <s_m_Source_File>
ligand_docking-pose.sdf

> <i_m_Source_File_Index>
27

> <i_lp_mmshare_version>
53161

> <r_lp_tautomer_probability>
1

> <s_lp_Force_Field>
OPLS_2005

> <r_lp_Energy>
46.077982

> <b_lp_Chiralities_Consistent>
1

> <s_lp_Variant>
212168-1

> <s_i_glide_gridfile>
glide-grid_3kgc

> <i_i_glide_lignum>
12

> <i_i_glide_rotatable_bonds>
3

> <r_i_docking_score>
-7.99610893902003

> <r_i_glide_ligand_efficiency>
-0.380767092334287

> <r_i_glide_ligand_efficiency_sa>
-1.05050753554531

> <r_i_glide_ligand_efficiency_ln>
-1.97702177751321

> <r_i_glide_gscore>
-7.99610893902003

> <r_i_glide_lipo>
-0.651142124662118

> <r_i_glide_hbond>
-0.959078832656368

> <r_i_glide_metal>
0

> <r_i_glide_rewards>
-2.84637978239082

> <r_i_glide_evdw>
-31.8102207183838

> <r_i_glide_ecoul>
-12.9515895843506

> <r_i_glide_erotb>
0.151460974005591

> <r_i_glide_esite>
-0.157719699744545

> <r_i_glide_emodel>
-67.2186062956021

> <r_i_glide_energy>
-44.7618103027344

> <r_i_glide_einternal>
0.947655498981476

> <i_i_glide_confnum>
2

> <i_i_glide_posenum>
78

> <r_i_glide_eff_state_penalty>
0

> <s_user_duplicate_titles>
212168

> <i_f3d_flags>
0

> <s_m_subgroup_title>
dock_pv

> <s_m_subgroupid>
dock_pv1

> <b_m_subgroup_collapsed>
0

$$$$
104025
                    3D
 Schrodinger Suite 2021-1.
 37 39  0  0  1  0            999 V2000
    6.2473   31.4837    3.5684 C   0  0  0  0  0  0
    5.1557   30.9182    2.9000 C   0  0  0  0  0  0
    5.1361   31.4544    1.6305 C   0  0  0  0  0  0
    6.1471   32.3792    1.5161 N   0  0  0  0  0  0
    6.8192   32.4033    2.7124 C   0  0  0  0  0  0
    6.5543   33.0066    0.3364 C   0  0  0  0  0  0
    7.2928   32.2065   -0.5408 C   0  0  0  0  0  0
    7.7465   32.7209   -1.7575 C   0  0  0  0  0  0
    7.4298   34.0456   -2.0651 C   0  0  0  0  0  0
    6.6978   34.8468   -1.2081 C   0  0  0  0  0  0
    6.2585   34.3516    0.0163 C   0  0  0  0  0  0
    5.5327   35.2739    0.9104 N   0  3  0  0  0  0
    5.6792   35.1404    2.1095 O   0  5  0  0  0  0
    4.8789   36.1849    0.4139 O   0  0  0  0  0  0
    7.8567   34.5641   -3.2657 N   0  0  0  0  0  0
    8.5754   33.9254   -4.1968 C   0  0  0  0  0  0
    8.8776   34.4474   -5.2557 O   0  0  0  0  0  0
    8.9976   32.5092   -3.8889 C   0  0  0  0  0  0
    9.7280   31.9354   -4.7039 O   0  0  0  0  0  0
    8.5383   32.0018   -2.7030 N   0  0  0  0  0  0
    9.0224   30.6588   -2.3574 C   0  0  0  0  0  0
   10.2106   30.7056   -1.3715 C   0  0  0  0  0  0
   10.3202   29.4711   -0.4902 C   0  0  0  0  0  0
    9.6793   28.4469   -0.7012 O   0  0  0  0  0  0
   11.2204   29.6470    0.5183 O   0  0  0  0  0  0
    7.5789   35.5119   -3.5023 H   0  0  0  0  0  0
    6.6030   31.2500    4.5616 H   0  0  0  0  0  0
    4.4687   30.1738    3.2740 H   0  0  0  0  0  0
    4.4842   31.2470    0.7930 H   0  0  0  0  0  0
    7.6789   33.0445    2.8271 H   0  0  0  0  0  0
    7.5172   31.1930   -0.2422 H   0  0  0  0  0  0
    6.4754   35.8634   -1.4981 H   0  0  0  0  0  0
    9.2062   29.9852   -3.1959 H   0  0  0  0  0  0
    8.1731   30.1734   -1.8758 H   0  0  0  0  0  0
   10.0523   31.5477   -0.7017 H   0  0  0  0  0  0
   11.1402   30.9646   -1.8779 H   0  0  0  0  0  0
   11.4581   30.5802    0.6158 H   0  0  0  0  0  0
  1  5  2  0  0  0
  1  2  1  0  0  0
  1 27  1  0  0  0
  2  3  2  0  0  0
  2 28  1  0  0  0
  3  4  1  0  0  0
  3 29  1  0  0  0
  4  5  1  0  0  0
  4  6  1  0  0  0
  5 30  1  0  0  0
  6 11  1  0  0  0
  6  7  2  0  0  0
  7  8  1  0  0  0
  7 31  1  0  0  0
  8 20  1  0  0  0
  8  9  2  0  0  0
  9 10  1  0  0  0
  9 15  1  0  0  0
 10 11  2  0  0  0
 10 32  1  0  0  0
 11 12  1  0  0  0
 12 13  1  0  0  0
 12 14  2  0  0  0
 15 26  1  0  0  0
 15 16  1  0  0  0
 16 17  2  0  0  0
 16 18  1  0  0  0
 18 19  2  0  0  0
 18 20  1  0  0  0
 20 21  1  0  0  0
 21 22  1  0  0  0
 21 33  1  0  0  0
 21 34  1  0  0  0
 22 23  1  0  0  0
 22 35  1  0  0  0
 22 36  1  0  0  0
 23 24  2  0  0  0
 23 25  1  0  0  0
 25 37  1  0  0  0
M  CHG  2  12   1  13  -1
M  END
> <s_m_entry_id>
3880

> <s_m_entry_name>
ligand_docking-pose.28

> <s_m_Source_Path>
/home/csk/Desktop/cluster/DUD-E-result/gria2

> <s_m_Source_File>
ligand_docking-pose.sdf

> <i_m_Source_File_Index>
28

> <i_lp_mmshare_version>
53161

> <r_lp_tautomer_probability>
1

> <s_lp_Force_Field>
OPLS_2005

> <r_lp_Energy>
32.667552

> <b_lp_Chiralities_Consistent>
1

> <s_lp_Variant>
104025-1

> <s_i_glide_gridfile>
glide-grid_3kgc

> <i_i_glide_lignum>
229

> <i_i_glide_rotatable_bonds>
6

> <r_i_docking_score>
-7.96857765850398

> <r_i_glide_ligand_efficiency>
-0.318743106340159

> <r_i_glide_ligand_efficiency_sa>
-0.932010495871686

> <r_i_glide_ligand_efficiency_ln>
-1.88879170406797

> <r_i_glide_gscore>
-7.96857765850398

> <r_i_glide_lipo>
-0.972538263848984

> <r_i_glide_hbond>
-0.816843016925306

> <r_i_glide_metal>
0

> <r_i_glide_rewards>
-2.47912883525269

> <r_i_glide_evdw>
-35.3172302246094

> <r_i_glide_ecoul>
-14.9781150817871

> <r_i_glide_erotb>
0.44849524398695

> <r_i_glide_esite>
-0.135984012965409

> <r_i_glide_emodel>
-71.2966010950913

> <r_i_glide_energy>
-50.2953453063965

> <r_i_glide_einternal>
7.6627721786499

> <i_i_glide_confnum>
58

> <i_i_glide_posenum>
235

> <r_i_glide_eff_state_penalty>
0

> <s_user_duplicate_titles>
104025

> <i_f3d_flags>
0

> <s_m_subgroup_title>
dock_pv

> <s_m_subgroupid>
dock_pv1

> <b_m_subgroup_collapsed>
0

$$$$
99355
                    3D
 Schrodinger Suite 2021-1.
 28 30  0  0  1  0            999 V2000
    4.8603   30.9212    2.8992 C   0  0  0  0  0  0
    5.0185   31.3421    1.5956 C   0  0  0  0  0  0
    6.0572   32.2343    1.6165 N   0  0  0  0  0  0
    6.4790   32.2351    2.9213 C   0  0  0  0  0  0
    5.7674   31.4571    3.6974 N   0  0  0  0  0  0
    6.6030   32.9054    0.5184 C   0  0  0  0  0  0
    7.2881   32.1203   -0.4137 C   0  0  0  0  0  0
    7.7804   32.6986   -1.5823 C   0  0  0  0  0  0
    7.5601   34.0603   -1.8158 C   0  0  0  0  0  0
    6.8790   34.8470   -0.8931 C   0  0  0  0  0  0
    6.4113   34.2876    0.3000 C   0  0  0  0  0  0
    5.7235   35.1670    1.2662 N   0  3  0  0  0  0
    4.8790   35.9468    0.8379 O   0  5  0  0  0  0
    6.0791   35.1238    2.4368 O   0  0  0  0  0  0
    7.9947   34.5997   -3.0228 N   0  0  0  0  0  0
    8.5855   33.9254   -4.0326 C   0  0  0  0  0  0
    8.8790   34.4470   -5.1020 O   0  0  0  0  0  0
    8.8791   32.4544   -3.8027 C   0  0  0  0  0  0
    9.4552   31.8289   -4.7020 O   0  0  0  0  0  0
    8.4610   31.9820   -2.5905 N   0  0  0  0  0  0
    8.8042   30.6438   -2.3342 O   0  0  0  0  0  0
    7.7777   35.5688   -3.2293 H   0  0  0  0  0  0
    4.0964   30.2454    3.2554 H   0  0  0  0  0  0
    4.4790   31.1276    0.6842 H   0  0  0  0  0  0
    7.3228   32.8421    3.2143 H   0  0  0  0  0  0
    7.4180   31.0621   -0.2329 H   0  0  0  0  0  0
    6.7024   35.8932   -1.1020 H   0  0  0  0  0  0
    9.5588   30.7213   -1.7430 H   0  0  0  0  0  0
  1  5  1  0  0  0
  1  2  2  0  0  0
  1 23  1  0  0  0
  2  3  1  0  0  0
  2 24  1  0  0  0
  3  4  1  0  0  0
  3  6  1  0  0  0
  4  5  2  0  0  0
  4 25  1  0  0  0
  6 11  1  0  0  0
  6  7  2  0  0  0
  7  8  1  0  0  0
  7 26  1  0  0  0
  8 20  1  0  0  0
  8  9  2  0  0  0
  9 10  1  0  0  0
  9 15  1  0  0  0
 10 11  2  0  0  0
 10 27  1  0  0  0
 11 12  1  0  0  0
 12 13  1  0  0  0
 12 14  2  0  0  0
 15 22  1  0  0  0
 15 16  1  0  0  0
 16 17  2  0  0  0
 16 18  1  0  0  0
 18 19  2  0  0  0
 18 20  1  0  0  0
 20 21  1  0  0  0
 21 28  1  0  0  0
M  CHG  2  12   1  13  -1
M  END
> <s_m_entry_id>
3881

> <s_m_entry_name>
ligand_docking-pose.29

> <s_m_Source_Path>
/home/csk/Desktop/cluster/DUD-E-result/gria2

> <s_m_Source_File>
ligand_docking-pose.sdf

> <i_m_Source_File_Index>
29

> <i_lp_mmshare_version>
53161

> <r_lp_tautomer_probability>
1

> <s_lp_Force_Field>
OPLS_2005

> <r_lp_Energy>
42.38301

> <b_lp_Chiralities_Consistent>
1

> <s_lp_Variant>
99355-1

> <s_i_glide_gridfile>
glide-grid_3kgc

> <i_i_glide_lignum>
297

> <i_i_glide_rotatable_bonds>
3

> <r_i_docking_score>
-7.9643414831609

> <r_i_glide_ligand_efficiency>
-0.379254356340995

> <r_i_glide_ligand_efficiency_sa>
-1.04633401164517

> <r_i_glide_ligand_efficiency_ln>
-1.96916733824423

> <r_i_glide_gscore>
-7.9643414831609

> <r_i_glide_lipo>
-0.825421334526721

> <r_i_glide_hbond>
-1.11015699075105

> <r_i_glide_metal>
0

> <r_i_glide_rewards>
-2.82062559443229

> <r_i_glide_evdw>
-33.4501838684082

> <r_i_glide_ecoul>
-10.9739742279053

> <r_i_glide_erotb>
0.152364261070918

> <r_i_glide_esite>
-0.0418964969155637

> <r_i_glide_emodel>
-65.8801219371222

> <r_i_glide_energy>
-44.4241580963135

> <r_i_glide_einternal>
3.5614595413208

> <i_i_glide_confnum>
2

> <i_i_glide_posenum>
140

> <r_i_glide_eff_state_penalty>
0

> <s_user_duplicate_titles>
99355

> <i_f3d_flags>
0

> <s_m_subgroup_title>
dock_pv

> <s_m_subgroupid>
dock_pv1

> <b_m_subgroup_collapsed>
0

$$$$
212283
                    3D
 Schrodinger Suite 2021-1.
 31 33  0  0  1  0            999 V2000
   10.0975   30.3760   -1.7730 C   0  0  0  0  0  0
    8.7989   30.5296   -2.3465 O   0  0  0  0  0  0
    8.5065   31.8862   -2.5829 N   0  0  0  0  0  0
    7.7605   32.5838   -1.6010 C   0  0  0  0  0  0
    7.3030   32.0173   -0.4113 C   0  0  0  0  0  0
    6.6011   32.7997    0.5110 C   0  0  0  0  0  0
    6.3739   34.1734    0.2746 C   0  0  0  0  0  0
    6.7888   34.7149   -0.9449 C   0  0  0  0  0  0
    7.4619   33.9236   -1.8686 C   0  0  0  0  0  0
    7.8506   34.4508   -3.0919 N   0  0  0  0  0  0
    8.5405   33.8183   -4.0606 C   0  0  0  0  0  0
    8.8789   34.3729   -5.1020 O   0  0  0  0  0  0
    8.9015   32.3659   -3.8066 C   0  0  0  0  0  0
    9.4958   31.7529   -4.7022 O   0  0  0  0  0  0
    5.7110   35.0630    1.2504 N   0  3  0  0  0  0
    6.0795   35.0139    2.4168 O   0  5  0  0  0  0
    4.8790   35.8621    0.8344 O   0  0  0  0  0  0
    6.0613   32.1331    1.6128 N   0  0  0  0  0  0
    5.0148   31.2504    1.5936 C   0  0  0  0  0  0
    4.8450   30.8470    2.9013 C   0  0  0  0  0  0
    5.7560   31.3783    3.6977 N   0  0  0  0  0  0
    6.4790   32.1418    2.9185 C   0  0  0  0  0  0
    7.6018   35.4111   -3.3077 H   0  0  0  0  0  0
   10.2740   29.3210   -1.5662 H   0  0  0  0  0  0
   10.1875   30.9140   -0.8267 H   0  0  0  0  0  0
   10.8872   30.7180   -2.4437 H   0  0  0  0  0  0
    7.4812   30.9715   -0.2015 H   0  0  0  0  0  0
    6.5805   35.7514   -1.1723 H   0  0  0  0  0  0
    4.4791   31.0350    0.6802 H   0  0  0  0  0  0
    4.0750   30.1821    3.2647 H   0  0  0  0  0  0
    7.3252   32.7463    3.2098 H   0  0  0  0  0  0
  1  2  1  0  0  0
  1 24  1  0  0  0
  1 25  1  0  0  0
  1 26  1  0  0  0
  2  3  1  0  0  0
  3 13  1  0  0  0
  3  4  1  0  0  0
  4  9  2  0  0  0
  4  5  1  0  0  0
  5  6  2  0  0  0
  5 27  1  0  0  0
  6  7  1  0  0  0
  6 18  1  0  0  0
  7  8  2  0  0  0
  7 15  1  0  0  0
  8  9  1  0  0  0
  8 28  1  0  0  0
  9 10  1  0  0  0
 10 23  1  0  0  0
 10 11  1  0  0  0
 11 12  2  0  0  0
 11 13  1  0  0  0
 13 14  2  0  0  0
 15 16  1  0  0  0
 15 17  2  0  0  0
 18 22  1  0  0  0
 18 19  1  0  0  0
 19 20  2  0  0  0
 19 29  1  0  0  0
 20 21  1  0  0  0
 20 30  1  0  0  0
 21 22  2  0  0  0
 22 31  1  0  0  0
M  CHG  2  15   1  16  -1
M  END
> <s_m_entry_id>
3882

> <s_m_entry_name>
ligand_docking-pose.30

> <s_m_Source_Path>
/home/csk/Desktop/cluster/DUD-E-result/gria2

> <s_m_Source_File>
ligand_docking-pose.sdf

> <i_m_Source_File_Index>
30

> <i_lp_mmshare_version>
53161

> <r_lp_tautomer_probability>
1

> <s_lp_Force_Field>
OPLS_2005

> <r_lp_Energy>
32.315721

> <b_lp_Chiralities_Consistent>
1

> <s_lp_Variant>
212283-1

> <s_i_glide_gridfile>
glide-grid_3kgc

> <i_i_glide_lignum>
632

> <i_i_glide_rotatable_bonds>
3

> <r_i_docking_score>
-7.95410025775788

> <r_i_glide_ligand_efficiency>
-0.361550011716267

> <r_i_glide_ligand_efficiency_sa>
-1.01307735178407

> <r_i_glide_ligand_efficiency_ln>
-1.94427223585235

> <r_i_glide_gscore>
-7.95410025775788

> <r_i_glide_lipo>
-0.854901221751254

> <r_i_glide_hbond>
-1.10546728317883

> <r_i_glide_metal>
0

> <r_i_glide_rewards>
-2.70691518710853

> <r_i_glide_evdw>
-35.1805610656738

> <r_i_glide_ecoul>
-10.8231954574585

> <r_i_glide_erotb>
0.140261416106403

> <r_i_glide_esite>
-0.0445706099231967

> <r_i_glide_emodel>
-65.8820094332681

> <r_i_glide_energy>
-46.0037565231323

> <r_i_glide_einternal>
4.05131912231445

> <i_i_glide_confnum>
3

> <i_i_glide_posenum>
30

> <r_i_glide_eff_state_penalty>
0

> <s_user_duplicate_titles>
212283

> <i_f3d_flags>
0

> <s_m_subgroup_title>
dock_pv

> <s_m_subgroupid>
dock_pv1

> <b_m_subgroup_collapsed>
0

$$$$
99354
                    3D
 Schrodinger Suite 2021-1.
 36 38  0  0  1  0            999 V2000
    9.7406   30.1788   -0.4881 C   0  0  0  0  0  0
    9.5270   29.8871   -1.9788 C   0  0  0  0  0  0
    8.1937   30.4213   -2.5482 C   0  0  0  0  0  0
    8.1172   31.8946   -2.7042 N   0  0  0  0  0  0
    7.4886   32.6842   -1.6903 C   0  0  0  0  0  0
    7.0021   32.1881   -0.4780 C   0  0  0  0  0  0
    6.4327   33.0501    0.4663 C   0  0  0  0  0  0
    6.2793   34.4249    0.2006 C   0  0  0  0  0  0
    6.7249   34.9074   -1.0279 C   0  0  0  0  0  0
    7.3444   34.0561   -1.9334 C   0  0  0  0  0  0
    7.8399   34.5728   -3.1136 N   0  0  0  0  0  0
    8.4827   33.8978   -4.0761 C   0  0  0  0  0  0
    8.8791   34.4410   -5.1020 O   0  0  0  0  0  0
    8.6705   32.4086   -3.8551 C   0  0  0  0  0  0
    9.2787   31.7771   -4.7273 O   0  0  0  0  0  0
    5.6860   35.3837    1.1556 N   0  3  0  0  0  0
    6.0791   35.3761    2.3146 O   0  5  0  0  0  0
    4.8790   36.1965    0.7196 O   0  0  0  0  0  0
    6.1098   32.4777    1.6935 N   0  0  0  0  0  0
    6.8362   32.5797    2.8440 C   0  0  0  0  0  0
    6.2978   31.6470    3.6981 C   0  0  0  0  0  0
    5.2306   31.0602    3.1870 N   0  0  0  0  0  0
    5.1540   31.5335    1.9699 C   0  0  0  0  0  0
    7.6875   35.5551   -3.3151 H   0  0  0  0  0  0
   10.7219   29.8405   -0.1546 H   0  0  0  0  0  0
    8.9933   29.6800    0.1294 H   0  0  0  0  0  0
    9.6792   31.2468   -0.2855 H   0  0  0  0  0  0
   10.3654   30.2735   -2.5599 H   0  0  0  0  0  0
    9.5490   28.8045   -2.1101 H   0  0  0  0  0  0
    8.0004   29.9425   -3.5107 H   0  0  0  0  0  0
    7.3699   30.0667   -1.9313 H   0  0  0  0  0  0
    7.1086   31.1457   -0.2205 H   0  0  0  0  0  0
    6.6132   35.9571   -1.2610 H   0  0  0  0  0  0
    7.6789   33.2470    2.9148 H   0  0  0  0  0  0
    6.6805   31.4273    4.6838 H   0  0  0  0  0  0
    4.4432   31.2469    1.2091 H   0  0  0  0  0  0
  1  2  1  0  0  0
  1 25  1  0  0  0
  1 26  1  0  0  0
  1 27  1  0  0  0
  2  3  1  0  0  0
  2 28  1  0  0  0
  2 29  1  0  0  0
  3  4  1  0  0  0
  3 30  1  0  0  0
  3 31  1  0  0  0
  4 14  1  0  0  0
  4  5  1  0  0  0
  5 10  2  0  0  0
  5  6  1  0  0  0
  6  7  2  0  0  0
  6 32  1  0  0  0
  7  8  1  0  0  0
  7 19  1  0  0  0
  8  9  2  0  0  0
  8 16  1  0  0  0
  9 10  1  0  0  0
  9 33  1  0  0  0
 10 11  1  0  0  0
 11 24  1  0  0  0
 11 12  1  0  0  0
 12 13  2  0  0  0
 12 14  1  0  0  0
 14 15  2  0  0  0
 16 17  1  0  0  0
 16 18  2  0  0  0
 19 23  1  0  0  0
 19 20  1  0  0  0
 20 21  2  0  0  0
 20 34  1  0  0  0
 21 22  1  0  0  0
 21 35  1  0  0  0
 22 23  2  0  0  0
 23 36  1  0  0  0
M  CHG  2  16   1  17  -1
M  END
> <s_m_entry_id>
3883

> <s_m_entry_name>
ligand_docking-pose.31

> <s_m_Source_Path>
/home/csk/Desktop/cluster/DUD-E-result/gria2

> <s_m_Source_File>
ligand_docking-pose.sdf

> <i_m_Source_File_Index>
31

> <i_lp_mmshare_version>
53161

> <r_lp_tautomer_probability>
1

> <s_lp_Force_Field>
OPLS_2005

> <r_lp_Energy>
36.763139

> <b_lp_Chiralities_Consistent>
1

> <s_lp_Variant>
99354-1

> <s_i_glide_gridfile>
glide-grid_3kgc

> <i_i_glide_lignum>
492

> <i_i_glide_rotatable_bonds>
4

> <r_i_docking_score>
-7.95137688487516

> <r_i_glide_ligand_efficiency>
-0.345712038472833

> <r_i_glide_ligand_efficiency_sa>
-0.983159049722501

> <r_i_glide_ligand_efficiency_ln>
-1.9227150298622

> <r_i_glide_gscore>
-7.95137688487516

> <r_i_glide_lipo>
-0.965124550595139

> <r_i_glide_hbond>
-1.1130345124062

> <r_i_glide_metal>
0

> <r_i_glide_rewards>
-2.66113415811199

> <r_i_glide_evdw>
-35.0475921630859

> <r_i_glide_ecoul>
-10.8090438842773

> <r_i_glide_erotb>
0.261967067448355

> <r_i_glide_esite>
-0.100314540414287

> <r_i_glide_emodel>
-67.4390501267945

> <r_i_glide_energy>
-45.8566360473633

> <r_i_glide_einternal>
2.96991443634033

> <i_i_glide_confnum>
5

> <i_i_glide_posenum>
117

> <r_i_glide_eff_state_penalty>
0

> <s_user_duplicate_titles>
99354

> <i_f3d_flags>
0

> <s_m_subgroup_title>
dock_pv

> <s_m_subgroupid>
dock_pv1

> <b_m_subgroup_collapsed>
0

$$$$
124396
                    3D
 Schrodinger Suite 2021-1.
 32 34  0  0  1  0            999 V2000
    6.5037   30.1356   -0.9544 C   0  0  0  0  0  0
    7.5921   31.1756   -0.6011 C   0  0  2  0  0  0
    7.0082   32.3506    0.1926 C   0  0  0  0  0  0
    7.0351   33.5209   -0.5760 C   0  0  0  0  0  0
    6.5208   34.7240   -0.0937 C   0  0  0  0  0  0
    6.0316   34.7809    1.2070 C   0  0  0  0  0  0
    6.0416   33.6344    2.0045 C   0  0  0  0  0  0
    6.5021   32.4181    1.4993 C   0  0  0  0  0  0
    6.4342   31.0265    2.5249 Cl  0  0  0  0  0  0
    5.4316   36.2736    1.8302 Cl  0  0  0  0  0  0
    7.6800   33.2003   -1.8381 C   0  0  0  0  0  0
    8.0217   31.9029   -1.8751 C   0  0  0  0  0  0
    8.6250   31.3931   -2.9889 N   0  0  0  0  0  0
    8.9296   32.1473   -4.0812 C   0  0  0  0  0  0
    8.5760   33.6442   -4.0085 C   0  0  0  0  0  0
    7.9381   34.0546   -2.8741 N   0  0  0  0  0  0
    8.8783   34.3799   -4.9503 O   0  0  0  0  0  0
    9.4487   31.6914   -5.0978 O   0  0  0  0  0  0
    8.7713   30.4938    0.1738 C   0  0  0  0  0  0
    9.8199   29.7046   -0.6256 C   0  0  0  0  0  0
    9.5340   28.8632   -1.4753 O   0  0  0  0  0  0
   11.0935   30.0411   -0.2707 O   0  0  0  0  0  0
    5.6715   30.5923   -1.4906 H   0  0  0  0  0  0
    6.8957   29.3378   -1.5873 H   0  0  0  0  0  0
    6.0918   29.6670   -0.0601 H   0  0  0  0  0  0
    6.5130   35.6149   -0.7053 H   0  0  0  0  0  0
    5.6829   33.6790    3.0175 H   0  0  0  0  0  0
    7.6710   35.0306   -2.8535 H   0  0  0  0  0  0
    8.8777   30.4161   -3.0461 H   0  0  0  0  0  0
    9.2790   31.2477    0.7688 H   0  0  0  0  0  0
    8.3720   29.8009    0.9124 H   0  0  0  0  0  0
   11.1364   30.8074    0.3194 H   0  0  0  0  0  0
  1  2  1  0  0  0
  1 23  1  0  0  0
  1 24  1  0  0  0
  1 25  1  0  0  0
  2  3  1  0  0  0
  2 19  1  0  0  0
  2 12  1  0  0  0
  3  8  2  0  0  0
  3  4  1  0  0  0
  4  5  2  0  0  0
  4 11  1  0  0  0
  5  6  1  0  0  0
  5 26  1  0  0  0
  6  7  2  0  0  0
  6 10  1  0  0  0
  7  8  1  0  0  0
  7 27  1  0  0  0
  8  9  1  0  0  0
 11 12  2  0  0  0
 11 16  1  0  0  0
 12 13  1  0  0  0
 13 29  1  0  0  0
 13 14  1  0  0  0
 14 18  2  0  0  0
 14 15  1  0  0  0
 15 17  2  0  0  0
 15 16  1  0  0  0
 16 28  1  0  0  0
 19 20  1  0  0  0
 19 30  1  0  0  0
 19 31  1  0  0  0
 20 21  2  0  0  0
 20 22  1  0  0  0
 22 32  1  0  0  0
M  END
> <s_m_entry_id>
3884

> <s_m_entry_name>
ligand_docking-pose.32

> <s_m_Source_Path>
/home/csk/Desktop/cluster/DUD-E-result/gria2

> <s_m_Source_File>
ligand_docking-pose.sdf

> <i_m_Source_File_Index>
32

> <i_lp_mmshare_version>
53161

> <r_lp_tautomer_probability>
0.999419562528581

> <s_lp_Force_Field>
OPLS_2005

> <r_lp_Energy>
39.510462

> <b_lp_Chiralities_Consistent>
1

> <s_lp_Variant>
124396-1

> <s_i_glide_gridfile>
glide-grid_3kgc

> <i_i_glide_lignum>
334

> <i_i_glide_rotatable_bonds>
3

> <r_i_docking_score>
-7.91885051660164

> <r_i_glide_ligand_efficiency>
-0.35994775075462

> <r_i_glide_ligand_efficiency_sa>
-1.00858775355619

> <r_i_glide_ligand_efficiency_ln>
-1.93565591334822

> <r_i_glide_gscore>
-7.91885051660164

> <r_i_glide_lipo>
-1.48451762435192

> <r_i_glide_hbond>
-0.630939252832752

> <r_i_glide_metal>
0

> <r_i_glide_rewards>
-2.04177175659532

> <r_i_glide_evdw>
-34.1930274963379

> <r_i_glide_ecoul>
-13.9373807907104

> <r_i_glide_erotb>
0.113957364891683

> <r_i_glide_esite>
-0.0753207542898709

> <r_i_glide_emodel>
-72.1860589996332

> <r_i_glide_energy>
-48.1304082870483

> <r_i_glide_einternal>
4.81861877441406

> <i_i_glide_confnum>
2

> <i_i_glide_posenum>
321

> <r_i_glide_eff_state_penalty>
0

> <s_user_duplicate_titles>
124396

> <i_f3d_flags>
0

> <s_m_subgroup_title>
dock_pv

> <s_m_subgroupid>
dock_pv1

> <b_m_subgroup_collapsed>
0

$$$$
11292
                    3D
 Schrodinger Suite 2021-1.
 52 55  0  0  1  0            999 V2000
    1.1273   26.9761   -0.7785 C   0  0  0  0  0  0
    1.1541   28.3491   -1.0180 C   0  0  0  0  0  0
    0.9666   29.2361    0.0388 C   0  0  0  0  0  0
    0.7493   28.7448    1.3293 C   0  0  0  0  0  0
    0.7271   27.3673    1.5642 C   0  0  0  0  0  0
    0.9162   26.4812    0.5072 C   0  0  0  0  0  0
    0.5476   29.7204    2.4884 C   0  0  0  0  0  0
    1.6689   29.7829    3.3730 O   0  0  0  0  0  0
    2.8149   30.2022    2.6706 N   0  0  0  0  0  0
    3.5808   30.8469    3.4443 C   0  0  0  0  0  0
    4.8413   31.3796    2.9744 C   0  0  0  0  0  0
    6.0152   31.6470    3.6979 C   0  0  0  0  0  0
    6.8794   32.3527    2.8870 C   0  0  0  0  0  0
    6.3104   32.4673    1.6509 N   0  0  0  0  0  0
    5.1106   31.8203    1.6952 C   0  0  0  0  0  0
    6.8234   33.0988    0.5250 C   0  0  0  0  0  0
    7.5339   32.2989   -0.3728 C   0  0  0  0  0  0
    7.9381   32.8212   -1.6040 C   0  0  0  0  0  0
    7.6816   34.1793   -1.8530 C   0  0  0  0  0  0
    6.9777   34.9759   -0.9634 C   0  0  0  0  0  0
    6.5232   34.4457    0.2406 C   0  0  0  0  0  0
    5.6870   35.3257    1.1772 C   0  0  0  0  0  0
    6.2621   35.3979    2.3763 F   0  0  0  0  0  0
    5.5180   36.5675    0.7217 F   0  0  0  0  0  0
    4.4791   34.7963    1.2981 F   0  0  0  0  0  0
    8.0790   34.7233   -3.0555 N   0  0  0  0  0  0
    8.6022   34.0466   -4.0848 C   0  0  0  0  0  0
    8.8789   34.5871   -5.1416 O   0  0  0  0  0  0
    8.8466   32.5692   -3.8946 C   0  0  0  0  0  0
    9.2796   31.9339   -4.8634 O   0  0  0  0  0  0
    8.5317   32.0562   -2.6560 N   0  0  0  0  0  0
    8.7139   30.5854   -2.4865 C   0  0  0  0  0  0
   10.1939   30.1893   -2.3407 C   0  0  0  0  0  0
   10.6762   29.2470   -2.9295 O   0  0  0  0  0  0
   10.8790   31.0120   -1.5020 O   0  0  0  0  0  0
    7.8574   35.6956   -3.2510 H   0  0  0  0  0  0
    1.2742   26.2897   -1.5995 H   0  0  0  0  0  0
    1.3225   28.7239   -2.0175 H   0  0  0  0  0  0
    1.0012   30.3030   -0.1406 H   0  0  0  0  0  0
    0.5661   26.9867    2.5618 H   0  0  0  0  0  0
    0.9008   25.4155    0.6833 H   0  0  0  0  0  0
   -0.3224   29.4061    3.0637 H   0  0  0  0  0  0
    0.3051   30.7208    2.1223 H   0  0  0  0  0  0
    3.3786   31.0376    4.4940 H   0  0  0  0  0  0
    6.2089   31.4287    4.7366 H   0  0  0  0  0  0
    7.8471   32.7885    3.0804 H   0  0  0  0  0  0
    4.4791   31.8098    0.8179 H   0  0  0  0  0  0
    7.7109   31.2701   -0.1007 H   0  0  0  0  0  0
    6.7628   36.0035   -1.2278 H   0  0  0  0  0  0
    8.3283   30.0784   -3.3726 H   0  0  0  0  0  0
    8.1324   30.1503   -1.6793 H   0  0  0  0  0  0
   10.3708   31.6516   -0.9957 H   0  0  0  0  0  0
  1  6  1  0  0  0
  1  2  2  0  0  0
  1 37  1  0  0  0
  2  3  1  0  0  0
  2 38  1  0  0  0
  3  4  2  0  0  0
  3 39  1  0  0  0
  4  5  1  0  0  0
  4  7  1  0  0  0
  5  6  2  0  0  0
  5 40  1  0  0  0
  6 41  1  0  0  0
  7  8  1  0  0  0
  7 42  1  0  0  0
  7 43  1  0  0  0
  8  9  1  0  0  0
  9 10  2  0  0  0
 10 11  1  0  0  0
 10 44  1  0  0  0
 11 15  2  0  0  0
 11 12  1  0  0  0
 12 13  2  0  0  0
 12 45  1  0  0  0
 13 14  1  0  0  0
 13 46  1  0  0  0
 14 15  1  0  0  0
 14 16  1  0  0  0
 15 47  1  0  0  0
 16 21  1  0  0  0
 16 17  2  0  0  0
 17 18  1  0  0  0
 17 48  1  0  0  0
 18 31  1  0  0  0
 18 19  2  0  0  0
 19 20  1  0  0  0
 19 26  1  0  0  0
 20 21  2  0  0  0
 20 49  1  0  0  0
 21 22  1  0  0  0
 22 23  1  0  0  0
 22 24  1  0  0  0
 22 25  1  0  0  0
 26 36  1  0  0  0
 26 27  1  0  0  0
 27 28  2  0  0  0
 27 29  1  0  0  0
 29 30  2  0  0  0
 29 31  1  0  0  0
 31 32  1  0  0  0
 32 33  1  0  0  0
 32 50  1  0  0  0
 32 51  1  0  0  0
 33 34  2  0  0  0
 33 35  1  0  0  0
 35 52  1  0  0  0
M  END
> <s_m_entry_id>
3885

> <s_m_entry_name>
ligand_docking-pose.33

> <s_m_Source_Path>
/home/csk/Desktop/cluster/DUD-E-result/gria2

> <s_m_Source_File>
ligand_docking-pose.sdf

> <i_m_Source_File_Index>
33

> <i_lp_mmshare_version>
53161

> <r_lp_tautomer_probability>
1

> <s_lp_Force_Field>
OPLS_2005

> <r_lp_Energy>
39.188384

> <b_lp_Chiralities_Consistent>
1

> <s_lp_Variant>
11292-1

> <s_i_glide_gridfile>
glide-grid_3kgc

> <i_i_glide_lignum>
169

> <i_i_glide_rotatable_bonds>
9

> <r_i_docking_score>
-7.90115802052776

> <r_i_glide_ligand_efficiency>
-0.225747372015079

> <r_i_glide_ligand_efficiency_sa>
-0.738434622337004

> <r_i_glide_ligand_efficiency_ln>
-1.73447954226014

> <r_i_glide_gscore>
-7.90115802052776

> <r_i_glide_lipo>
-1.01010056924175

> <r_i_glide_hbond>
-1.00911529304822

> <r_i_glide_metal>
0

> <r_i_glide_rewards>
-1.93883209598347

> <r_i_glide_evdw>
-35.7259368896484

> <r_i_glide_ecoul>
-14.5600481033325

> <r_i_glide_erotb>
0.360767744709935

> <r_i_glide_esite>
-0.33357374698195

> <r_i_glide_emodel>
-70.1074815736465

> <r_i_glide_energy>
-50.285984992981

> <r_i_glide_einternal>
8.16927909851074

> <i_i_glide_confnum>
7

> <i_i_glide_posenum>
141

> <r_i_glide_eff_state_penalty>
0

> <s_user_duplicate_titles>
11292

> <i_f3d_flags>
0

> <s_m_subgroup_title>
dock_pv

> <s_m_subgroupid>
dock_pv1

> <b_m_subgroup_collapsed>
0

$$$$
99163
                    3D
 Schrodinger Suite 2021-1.
 33 35  0  0  1  0            999 V2000
   10.0286   30.2746   -1.4991 C   0  0  0  0  0  0
    8.7859   30.4801   -2.3835 C   0  0  0  0  0  0
    8.4709   31.9051   -2.6218 N   0  0  0  0  0  0
    7.7640   32.6300   -1.6137 C   0  0  0  0  0  0
    7.2791   32.0628   -0.4288 C   0  0  0  0  0  0
    6.5924   32.8426    0.5074 C   0  0  0  0  0  0
    6.4009   34.2239    0.2921 C   0  0  0  0  0  0
    6.8639   34.7818   -0.9023 C   0  0  0  0  0  0
    7.5343   33.9951   -1.8340 C   0  0  0  0  0  0
    7.9602   34.5503   -3.0331 N   0  0  0  0  0  0
    8.5826   33.9069   -4.0376 C   0  0  0  0  0  0
    8.8786   34.4470   -5.1020 O   0  0  0  0  0  0
    8.9048   32.4428   -3.8109 C   0  0  0  0  0  0
    9.5285   31.8543   -4.7018 O   0  0  0  0  0  0
    5.7233   35.1053    1.2637 N   0  3  0  0  0  0
    6.0872   35.0614    2.4318 O   0  5  0  0  0  0
    4.8789   35.8897    0.8425 O   0  0  0  0  0  0
    6.0524   32.1673    1.6097 N   0  0  0  0  0  0
    5.0211   31.2652    1.5920 C   0  0  0  0  0  0
    4.8651   30.8486    2.8988 C   0  0  0  0  0  0
    5.7631   31.3996    3.6974 N   0  0  0  0  0  0
    6.4714   32.1778    2.9161 C   0  0  0  0  0  0
    7.7352   35.5195   -3.2290 H   0  0  0  0  0  0
   10.2053   29.2135   -1.3234 H   0  0  0  0  0  0
    9.9169   30.7521   -0.5243 H   0  0  0  0  0  0
   10.9242   30.6767   -1.9754 H   0  0  0  0  0  0
    8.9224   29.9446   -3.3263 H   0  0  0  0  0  0
    7.9271   29.9792   -1.9387 H   0  0  0  0  0  0
    7.4191   31.0137   -0.2157 H   0  0  0  0  0  0
    6.6918   35.8305   -1.1035 H   0  0  0  0  0  0
    4.4797   31.0469    0.6818 H   0  0  0  0  0  0
    4.1055   30.1708    3.2598 H   0  0  0  0  0  0
    7.3068   32.7967    3.2090 H   0  0  0  0  0  0
  1  2  1  0  0  0
  1 24  1  0  0  0
  1 25  1  0  0  0
  1 26  1  0  0  0
  2  3  1  0  0  0
  2 27  1  0  0  0
  2 28  1  0  0  0
  3 13  1  0  0  0
  3  4  1  0  0  0
  4  9  2  0  0  0
  4  5  1  0  0  0
  5  6  2  0  0  0
  5 29  1  0  0  0
  6  7  1  0  0  0
  6 18  1  0  0  0
  7  8  2  0  0  0
  7 15  1  0  0  0
  8  9  1  0  0  0
  8 30  1  0  0  0
  9 10  1  0  0  0
 10 23  1  0  0  0
 10 11  1  0  0  0
 11 12  2  0  0  0
 11 13  1  0  0  0
 13 14  2  0  0  0
 15 16  1  0  0  0
 15 17  2  0  0  0
 18 22  1  0  0  0
 18 19  1  0  0  0
 19 20  2  0  0  0
 19 31  1  0  0  0
 20 21  1  0  0  0
 20 32  1  0  0  0
 21 22  2  0  0  0
 22 33  1  0  0  0
M  CHG  2  15   1  16  -1
M  END
> <s_m_entry_id>
3886

> <s_m_entry_name>
ligand_docking-pose.34

> <s_m_Source_Path>
/home/csk/Desktop/cluster/DUD-E-result/gria2

> <s_m_Source_File>
ligand_docking-pose.sdf

> <i_m_Source_File_Index>
34

> <i_lp_mmshare_version>
53161

> <r_lp_tautomer_probability>
1

> <s_lp_Force_Field>
OPLS_2005

> <r_lp_Energy>
37.090313

> <b_lp_Chiralities_Consistent>
1

> <s_lp_Variant>
99163-1

> <s_i_glide_gridfile>
glide-grid_3kgc

> <i_i_glide_lignum>
533

> <i_i_glide_rotatable_bonds>
3

> <r_i_docking_score>
-7.89677966057932

> <r_i_glide_ligand_efficiency>
-0.358944530026333

> <r_i_glide_ligand_efficiency_sa>
-1.0057766896211

> <r_i_glide_ligand_efficiency_ln>
-1.93026099108233

> <r_i_glide_gscore>
-7.89677966057932

> <r_i_glide_lipo>
-0.834395996080937

> <r_i_glide_hbond>
-1.1112008904275

> <r_i_glide_metal>
0

> <r_i_glide_rewards>
-2.72779850325273

> <r_i_glide_evdw>
-34.5459480285645

> <r_i_glide_ecoul>
-10.6367301940918

> <r_i_glide_erotb>
0.141874058557275

> <r_i_glide_esite>
-0.0424513988334454

> <r_i_glide_emodel>
-65.3989324917723

> <r_i_glide_energy>
-45.1826782226562

> <r_i_glide_einternal>
3.04860067367554

> <i_i_glide_confnum>
3

> <i_i_glide_posenum>
65

> <r_i_glide_eff_state_penalty>
0

> <s_user_duplicate_titles>
99163

> <i_f3d_flags>
0

> <s_m_subgroup_title>
dock_pv

> <s_m_subgroupid>
dock_pv1

> <b_m_subgroup_collapsed>
0

$$$$
212929
                    3D
 Schrodinger Suite 2021-1.
 41 43  0  0  1  0            999 V2000
    9.7872   28.9542   -0.5128 C   0  0  0  0  0  0
   10.3682   29.5434   -1.7158 N   0  0  0  0  0  0
   10.8788   30.8788   -1.4356 C   0  0  0  0  0  0
    9.4800   29.4689   -2.8795 C   0  0  0  0  0  0
    8.1233   30.2348   -2.8222 C   0  0  0  0  0  0
    8.1529   31.7248   -2.8303 N   0  0  0  0  0  0
    7.5907   32.4594   -1.7340 C   0  0  0  0  0  0
    7.0774   31.8891   -0.5589 C   0  0  0  0  0  0
    6.5124   32.6908    0.4411 C   0  0  0  0  0  0
    6.4453   34.0892    0.2862 C   0  0  0  0  0  0
    6.9312   34.6566   -0.8895 C   0  0  0  0  0  0
    7.5071   33.8554   -1.8677 C   0  0  0  0  0  0
    7.9713   34.4470   -3.0310 N   0  0  0  0  0  0
    8.5045   33.8156   -4.0891 C   0  0  0  0  0  0
    8.8792   34.4067   -5.1012 O   0  0  0  0  0  0
    8.6121   32.3045   -3.9932 C   0  0  0  0  0  0
    9.0633   31.7124   -4.9816 O   0  0  0  0  0  0
    5.8561   34.9811    1.2995 N   0  3  0  0  0  0
    6.4144   35.0549    2.3875 O   0  5  0  0  0  0
    4.8794   35.6485    0.9773 O   0  0  0  0  0  0
    5.9587   32.0458    1.5561 N   0  0  0  0  0  0
    4.9108   31.1613    1.5634 C   0  0  0  0  0  0
    4.7023   30.8372    2.8891 C   0  0  0  0  0  0
    5.5990   31.4027    3.6747 N   0  0  0  0  0  0
    6.3481   32.1149    2.8709 C   0  0  0  0  0  0
    7.8596   35.4471   -3.1486 H   0  0  0  0  0  0
   10.5305   28.9070    0.2844 H   0  0  0  0  0  0
    9.4448   27.9359   -0.7022 H   0  0  0  0  0  0
    8.9429   29.5347   -0.1417 H   0  0  0  0  0  0
   11.6785   30.8226   -0.6932 H   0  0  0  0  0  0
   11.2893   31.3358   -2.3360 H   0  0  0  0  0  0
   10.1077   31.5395   -1.0384 H   0  0  0  0  0  0
   10.0462   29.7575   -3.7650 H   0  0  0  0  0  0
    9.2607   28.4115   -3.0402 H   0  0  0  0  0  0
    7.5454   29.9312   -3.6968 H   0  0  0  0  0  0
    7.5429   29.8306   -2.0003 H   0  0  0  0  0  0
    7.0993   30.8269   -0.3834 H   0  0  0  0  0  0
    6.8491   35.7227   -1.0477 H   0  0  0  0  0  0
    4.3912   30.8924    0.6548 H   0  0  0  0  0  0
    3.9161   30.2004    3.2666 H   0  0  0  0  0  0
    7.2008   32.7177    3.1500 H   0  0  0  0  0  0
  1  2  1  0  0  0
  1 27  1  0  0  0
  1 28  1  0  0  0
  1 29  1  0  0  0
  2  3  1  0  0  0
  2  4  1  0  0  0
  3 30  1  0  0  0
  3 31  1  0  0  0
  3 32  1  0  0  0
  4  5  1  0  0  0
  4 33  1  0  0  0
  4 34  1  0  0  0
  5  6  1  0  0  0
  5 35  1  0  0  0
  5 36  1  0  0  0
  6 16  1  0  0  0
  6  7  1  0  0  0
  7 12  2  0  0  0
  7  8  1  0  0  0
  8  9  2  0  0  0
  8 37  1  0  0  0
  9 10  1  0  0  0
  9 21  1  0  0  0
 10 11  2  0  0  0
 10 18  1  0  0  0
 11 12  1  0  0  0
 11 38  1  0  0  0
 12 13  1  0  0  0
 13 26  1  0  0  0
 13 14  1  0  0  0
 14 15  2  0  0  0
 14 16  1  0  0  0
 16 17  2  0  0  0
 18 19  1  0  0  0
 18 20  2  0  0  0
 21 25  1  0  0  0
 21 22  1  0  0  0
 22 23  2  0  0  0
 22 39  1  0  0  0
 23 24  1  0  0  0
 23 40  1  0  0  0
 24 25  2  0  0  0
 25 41  1  0  0  0
M  CHG  2  18   1  19  -1
M  END
> <s_m_entry_id>
3887

> <s_m_entry_name>
ligand_docking-pose.35

> <s_m_Source_Path>
/home/csk/Desktop/cluster/DUD-E-result/gria2

> <s_m_Source_File>
ligand_docking-pose.sdf

> <i_m_Source_File_Index>
35

> <i_lp_mmshare_version>
53161

> <r_lp_tautomer_probability>
1

> <s_lp_Force_Field>
OPLS_2005

> <r_lp_Energy>
45.883061

> <b_lp_Chiralities_Consistent>
1

> <s_lp_Variant>
212929-1

> <s_i_glide_gridfile>
glide-grid_3kgc

> <i_i_glide_lignum>
611

> <i_i_glide_rotatable_bonds>
5

> <r_i_docking_score>
-7.80045099467281

> <r_i_glide_ligand_efficiency>
-0.312018039786912

> <r_i_glide_ligand_efficiency_sa>
-0.91234628200043

> <r_i_glide_ligand_efficiency_ln>
-1.84894064639044

> <r_i_glide_gscore>
-7.80045099467281

> <r_i_glide_lipo>
-0.834177029896536

> <r_i_glide_hbond>
-1.17990086466475

> <r_i_glide_metal>
0

> <r_i_glide_rewards>
-2.39848877259464

> <r_i_glide_evdw>
-35.730354309082

> <r_i_glide_ecoul>
-13.6746788024902

> <r_i_glide_erotb>
0.48041578903

> <r_i_glide_esite>
-0.0305805807192478

> <r_i_glide_emodel>
-69.1677335126786

> <r_i_glide_energy>
-49.4050331115723

> <r_i_glide_einternal>
6.0826563835144

> <i_i_glide_confnum>
47

> <i_i_glide_posenum>
386

> <r_i_glide_eff_state_penalty>
0

> <s_user_duplicate_titles>
212929

> <i_f3d_flags>
0

> <s_m_subgroup_title>
dock_pv

> <s_m_subgroupid>
dock_pv1

> <b_m_subgroup_collapsed>
0

$$$$
212227
                    3D
 Schrodinger Suite 2021-1.
 42 44  0  0  1  0            999 V2000
    9.3885   28.2779   -0.7027 C   0  0  0  0  0  0
   10.5831   29.2480   -0.7788 C   0  0  0  0  0  0
   11.3487   29.2928    0.5620 C   0  0  0  0  0  0
   10.1517   30.6774   -1.1904 C   0  0  0  0  0  0
    9.0546   30.7529   -2.2781 C   0  0  0  0  0  0
    8.6508   32.1327   -2.6065 N   0  0  0  0  0  0
    7.8667   32.8645   -1.6626 C   0  0  0  0  0  0
    7.3483   32.3328   -0.4787 C   0  0  0  0  0  0
    6.6084   33.1323    0.3996 C   0  0  0  0  0  0
    6.3356   34.4838    0.0914 C   0  0  0  0  0  0
    6.8406   34.9997   -1.1015 C   0  0  0  0  0  0
    7.6110   34.2118   -1.9425 C   0  0  0  0  0  0
    8.0731   34.7400   -3.1348 N   0  0  0  0  0  0
    8.6657   34.0467   -4.1172 C   0  0  0  0  0  0
    8.8790   34.5299   -5.2153 O   0  0  0  0  0  0
    9.0450   32.6125   -3.8299 C   0  0  0  0  0  0
    9.6825   32.0070   -4.7017 O   0  0  0  0  0  0
    5.5625   35.3908    0.9630 N   0  3  0  0  0  0
    5.6901   35.2838    2.1696 O   0  5  0  0  0  0
    4.8792   36.2623    0.4387 O   0  0  0  0  0  0
    6.2223   32.5167    1.5949 N   0  0  0  0  0  0
    6.8601   32.6061    2.8011 C   0  0  0  0  0  0
    6.2771   31.6470    3.6061 C   0  0  0  0  0  0
    5.2830   31.0313    2.9904 N   0  0  0  0  0  0
    5.2788   31.5387    1.7818 C   0  0  0  0  0  0
    7.8118   35.6917   -3.3795 H   0  0  0  0  0  0
    8.5958   28.6920   -0.0780 H   0  0  0  0  0  0
    9.6661   27.3041   -0.3018 H   0  0  0  0  0  0
    8.9644   28.0859   -1.6889 H   0  0  0  0  0  0
   11.2769   28.8648   -1.5307 H   0  0  0  0  0  0
   10.7273   29.7075    1.3561 H   0  0  0  0  0  0
   11.6813   28.3091    0.8942 H   0  0  0  0  0  0
   12.2309   29.9309    0.4917 H   0  0  0  0  0  0
    9.7987   31.2052   -0.3032 H   0  0  0  0  0  0
   11.0322   31.2267   -1.5272 H   0  0  0  0  0  0
    9.3816   30.1906   -3.1550 H   0  0  0  0  0  0
    8.1660   30.2121   -1.9565 H   0  0  0  0  0  0
    7.5308   31.3024   -0.2102 H   0  0  0  0  0  0
    6.6373   36.0273   -1.3673 H   0  0  0  0  0  0
    7.6790   33.2888    2.9478 H   0  0  0  0  0  0
    6.5888   31.4173    4.6130 H   0  0  0  0  0  0
    4.6317   31.2480    0.9662 H   0  0  0  0  0  0
  1  2  1  0  0  0
  1 27  1  0  0  0
  1 28  1  0  0  0
  1 29  1  0  0  0
  2  3  1  0  0  0
  2  4  1  0  0  0
  2 30  1  0  0  0
  3 31  1  0  0  0
  3 32  1  0  0  0
  3 33  1  0  0  0
  4  5  1  0  0  0
  4 34  1  0  0  0
  4 35  1  0  0  0
  5  6  1  0  0  0
  5 36  1  0  0  0
  5 37  1  0  0  0
  6 16  1  0  0  0
  6  7  1  0  0  0
  7 12  2  0  0  0
  7  8  1  0  0  0
  8  9  2  0  0  0
  8 38  1  0  0  0
  9 10  1  0  0  0
  9 21  1  0  0  0
 10 11  2  0  0  0
 10 18  1  0  0  0
 11 12  1  0  0  0
 11 39  1  0  0  0
 12 13  1  0  0  0
 13 26  1  0  0  0
 13 14  1  0  0  0
 14 15  2  0  0  0
 14 16  1  0  0  0
 16 17  2  0  0  0
 18 19  1  0  0  0
 18 20  2  0  0  0
 21 25  1  0  0  0
 21 22  1  0  0  0
 22 23  2  0  0  0
 22 40  1  0  0  0
 23 24  1  0  0  0
 23 41  1  0  0  0
 24 25  2  0  0  0
 25 42  1  0  0  0
M  CHG  2  18   1  19  -1
M  END
> <s_m_entry_id>
3888

> <s_m_entry_name>
ligand_docking-pose.36

> <s_m_Source_Path>
/home/csk/Desktop/cluster/DUD-E-result/gria2

> <s_m_Source_File>
ligand_docking-pose.sdf

> <i_m_Source_File_Index>
36

> <i_lp_mmshare_version>
53161

> <r_lp_tautomer_probability>
1

> <s_lp_Force_Field>
OPLS_2005

> <r_lp_Energy>
37.231563

> <b_lp_Chiralities_Consistent>
1

> <s_lp_Variant>
212227-1

> <s_i_glide_gridfile>
glide-grid_3kgc

> <i_i_glide_lignum>
453

> <i_i_glide_rotatable_bonds>
5

> <r_i_docking_score>
-7.71429404963427

> <r_i_glide_ligand_efficiency>
-0.308571761985371

> <r_i_glide_ligand_efficiency_sa>
-0.902269304588725

> <r_i_glide_ligand_efficiency_ln>
-1.82851886850101

> <r_i_glide_gscore>
-7.71429404963427

> <r_i_glide_lipo>
-0.893832652674216

> <r_i_glide_hbond>
-1.03195207950488

> <r_i_glide_metal>
0

> <r_i_glide_rewards>
-2.54145377772829

> <r_i_glide_evdw>
-36.443790435791

> <r_i_glide_ecoul>
-11.0599565505981

> <r_i_glide_erotb>
0.338010478960952

> <r_i_glide_esite>
-0.103883014308562

> <r_i_glide_emodel>
-67.261025150817

> <r_i_glide_energy>
-47.5037469863892

> <r_i_glide_einternal>
5.11305379867554

> <i_i_glide_confnum>
9

> <i_i_glide_posenum>
237

> <r_i_glide_eff_state_penalty>
0

> <s_user_duplicate_titles>
212227

> <i_f3d_flags>
0

> <s_m_subgroup_title>
dock_pv

> <s_m_subgroupid>
dock_pv1

> <b_m_subgroup_collapsed>
0

$$$$
11525
                    3D
 Schrodinger Suite 2021-1.
 52 54  0  0  1  0            999 V2000
    1.9125   28.3960    0.0284 C   0  0  0  0  0  0
    1.7488   29.5736    1.0058 C   0  0  0  0  0  0
    2.2025   29.2589    2.3712 N   0  0  0  0  0  0
    1.7312   30.2450    3.3600 C   0  0  0  0  0  0
    0.2051   30.2305    3.5595 C   0  0  0  0  0  0
    3.6607   29.0548    2.4439 C   0  0  0  0  0  0
    4.5115   30.3114    2.2985 C   0  0  0  0  0  0
    4.8821   31.2468    3.2776 C   0  0  0  0  0  0
    5.7434   32.1752    2.7173 C   0  0  0  0  0  0
    5.8151   31.9462    1.3662 N   0  0  0  0  0  0
    5.0870   30.7989    1.1382 C   0  0  0  0  0  0
    6.4928   32.6869    0.3727 C   0  0  0  0  0  0
    7.2371   31.9367   -0.5500 C   0  0  0  0  0  0
    7.7859   32.5357   -1.6853 C   0  0  0  0  0  0
    7.6189   33.9146   -1.8461 C   0  0  0  0  0  0
    6.9405   34.6820   -0.9153 C   0  0  0  0  0  0
    6.3748   34.0919    0.2163 C   0  0  0  0  0  0
    5.6077   35.0111    1.1730 C   0  0  0  0  0  0
    4.4793   34.4485    1.5619 F   0  0  0  0  0  0
    6.3675   35.2585    2.2379 F   0  0  0  0  0  0
    5.2791   36.1825    0.6199 F   0  0  0  0  0  0
    8.0718   34.5082   -3.0083 N   0  0  0  0  0  0
    8.6150   33.8717   -4.0564 C   0  0  0  0  0  0
    8.8790   34.4470   -5.1020 O   0  0  0  0  0  0
    8.8820   32.3876   -3.9018 C   0  0  0  0  0  0
    9.4415   31.8048   -4.8372 O   0  0  0  0  0  0
    8.4862   31.8288   -2.7106 N   0  0  0  0  0  0
    8.8315   30.3967   -2.4932 C   0  0  0  0  0  0
   10.0383   30.2214   -1.5427 C   0  0  0  0  0  0
   10.2406   29.1989   -0.9262 O   0  0  0  0  0  0
   10.8402   31.3223   -1.5023 O   0  0  0  0  0  0
    7.8795   35.4899   -3.1643 H   0  0  0  0  0  0
    1.4179   28.6220   -0.9162 H   0  0  0  0  0  0
    2.9577   28.1870   -0.2013 H   0  0  0  0  0  0
    1.4623   27.4865    0.4267 H   0  0  0  0  0  0
    0.6931   29.8375    1.0107 H   0  0  0  0  0  0
    2.2738   30.4470    0.6208 H   0  0  0  0  0  0
    2.1794   30.0470    4.3303 H   0  0  0  0  0  0
    2.0674   31.2469    3.0945 H   0  0  0  0  0  0
   -0.0682   30.8345    4.4236 H   0  0  0  0  0  0
   -0.3235   30.6518    2.7048 H   0  0  0  0  0  0
   -0.1663   29.2201    3.7299 H   0  0  0  0  0  0
    3.9608   28.3256    1.6933 H   0  0  0  0  0  0
    3.8956   28.5549    3.3756 H   0  0  0  0  0  0
    4.5566   31.2471    4.3045 H   0  0  0  0  0  0
    6.2619   33.0142    3.1555 H   0  0  0  0  0  0
    5.0065   30.4140    0.1327 H   0  0  0  0  0  0
    7.3374   30.8739   -0.3904 H   0  0  0  0  0  0
    6.8229   35.7401   -1.1019 H   0  0  0  0  0  0
    9.0554   29.8758   -3.4256 H   0  0  0  0  0  0
    7.9752   29.8560   -2.0929 H   0  0  0  0  0  0
   11.4534   31.2876   -0.7582 H   0  0  0  0  0  0
  1  2  1  0  0  0
  1 33  1  0  0  0
  1 34  1  0  0  0
  1 35  1  0  0  0
  2  3  1  0  0  0
  2 36  1  0  0  0
  2 37  1  0  0  0
  3  4  1  0  0  0
  3  6  1  0  0  0
  4  5  1  0  0  0
  4 38  1  0  0  0
  4 39  1  0  0  0
  5 40  1  0  0  0
  5 41  1  0  0  0
  5 42  1  0  0  0
  6  7  1  0  0  0
  6 43  1  0  0  0
  6 44  1  0  0  0
  7 11  2  0  0  0
  7  8  1  0  0  0
  8  9  2  0  0  0
  8 45  1  0  0  0
  9 10  1  0  0  0
  9 46  1  0  0  0
 10 11  1  0  0  0
 10 12  1  0  0  0
 11 47  1  0  0  0
 12 17  1  0  0  0
 12 13  2  0  0  0
 13 14  1  0  0  0
 13 48  1  0  0  0
 14 27  1  0  0  0
 14 15  2  0  0  0
 15 16  1  0  0  0
 15 22  1  0  0  0
 16 17  2  0  0  0
 16 49  1  0  0  0
 17 18  1  0  0  0
 18 19  1  0  0  0
 18 20  1  0  0  0
 18 21  1  0  0  0
 22 32  1  0  0  0
 22 23  1  0  0  0
 23 24  2  0  0  0
 23 25  1  0  0  0
 25 26  2  0  0  0
 25 27  1  0  0  0
 27 28  1  0  0  0
 28 29  1  0  0  0
 28 50  1  0  0  0
 28 51  1  0  0  0
 29 30  2  0  0  0
 29 31  1  0  0  0
 31 52  1  0  0  0
M  END
> <s_m_entry_id>
3889

> <s_m_entry_name>
ligand_docking-pose.37

> <s_m_Source_Path>
/home/csk/Desktop/cluster/DUD-E-result/gria2

> <s_m_Source_File>
ligand_docking-pose.sdf

> <i_m_Source_File_Index>
37

> <i_lp_mmshare_version>
53161

> <r_lp_tautomer_probability>
1

> <s_lp_Force_Field>
OPLS_2005

> <r_lp_Energy>
36.300314

> <b_lp_Chiralities_Consistent>
1

> <s_lp_Variant>
11525-1

> <s_i_glide_gridfile>
glide-grid_3kgc

> <i_i_glide_lignum>
550

> <i_i_glide_rotatable_bonds>
9

> <r_i_docking_score>
-7.59251624448202

> <r_i_glide_ligand_efficiency>
-0.244919878854259

> <r_i_glide_ligand_efficiency_sa>
-0.769386567938125

> <r_i_glide_ligand_efficiency_ln>
-1.71234509580946

> <r_i_glide_gscore>
-7.59251624448202

> <r_i_glide_lipo>
-1.15658955093151

> <r_i_glide_hbond>
-0.888926149896583

> <r_i_glide_metal>
0

> <r_i_glide_rewards>
-2.10643488060095

> <r_i_glide_evdw>
-36.7670974731445

> <r_i_glide_ecoul>
-13.5509376525879

> <r_i_glide_erotb>
0.518991045524132

> <r_i_glide_esite>
-0.0885611870317067

> <r_i_glide_emodel>
-70.3089938049828

> <r_i_glide_energy>
-50.3180351257324

> <r_i_glide_einternal>
4.8244571685791

> <i_i_glide_confnum>
147

> <i_i_glide_posenum>
229

> <r_i_glide_eff_state_penalty>
0

> <s_user_duplicate_titles>
11525

> <i_f3d_flags>
0

> <s_m_subgroup_title>
dock_pv

> <s_m_subgroupid>
dock_pv1

> <b_m_subgroup_collapsed>
0

$$$$
159725
                    3D
 Schrodinger Suite 2021-1.
 34 36  0  0  1  0            999 V2000
   10.0605   30.3655   -1.4687 C   0  0  0  0  0  0
    8.7922   30.5270   -2.3253 C   0  0  0  0  0  0
    8.4564   31.9396   -2.6081 N   0  0  0  0  0  0
    7.7461   32.6902   -1.6221 C   0  0  0  0  0  0
    7.3150   32.1732   -0.4018 C   0  0  0  0  0  0
    6.6288   32.9844    0.5046 C   0  0  0  0  0  0
    6.3739   34.3424    0.2323 C   0  0  0  0  0  0
    6.7792   34.8472   -1.0015 C   0  0  0  0  0  0
    7.4540   34.0314   -1.9016 C   0  0  0  0  0  0
    7.8570   34.5482   -3.1129 N   0  0  0  0  0  0
    8.5387   33.8992   -4.0663 C   0  0  0  0  0  0
    8.8791   34.4469   -5.1020 O   0  0  0  0  0  0
    8.8794   32.4467   -3.8119 C   0  0  0  0  0  0
    9.4903   31.8415   -4.7016 O   0  0  0  0  0  0
    5.7122   35.2512    1.1906 N   0  3  0  0  0  0
    4.8789   36.0411    0.7582 O   0  5  0  0  0  0
    6.0792   35.2234    2.3586 O   0  0  0  0  0  0
    6.1855   32.3514    1.6572 N   0  0  0  0  0  0
    5.1458   31.4581    1.7173 C   0  0  0  0  0  0
    5.0998   30.9150    2.9790 C   0  0  0  0  0  0
    6.1714   31.4629    3.6982 C   0  0  0  0  0  0
    6.8103   32.3618    2.8751 C   0  0  0  0  0  0
    7.6136   35.5069   -3.3392 H   0  0  0  0  0  0
   10.2703   29.3118   -1.2859 H   0  0  0  0  0  0
    9.9582   30.8458   -0.4944 H   0  0  0  0  0  0
   10.9326   30.7911   -1.9654 H   0  0  0  0  0  0
    8.9069   29.9579   -3.2501 H   0  0  0  0  0  0
    7.9497   30.0368   -1.8364 H   0  0  0  0  0  0
    7.5061   31.1446   -0.1320 H   0  0  0  0  0  0
    6.5741   35.8784   -1.2528 H   0  0  0  0  0  0
    4.5246   31.2782    0.8507 H   0  0  0  0  0  0
    4.3737   30.1833    3.2980 H   0  0  0  0  0  0
    6.4790   31.2471    4.7101 H   0  0  0  0  0  0
    7.6776   32.9848    3.0329 H   0  0  0  0  0  0
  1  2  1  0  0  0
  1 24  1  0  0  0
  1 25  1  0  0  0
  1 26  1  0  0  0
  2  3  1  0  0  0
  2 27  1  0  0  0
  2 28  1  0  0  0
  3 13  1  0  0  0
  3  4  1  0  0  0
  4  9  2  0  0  0
  4  5  1  0  0  0
  5  6  2  0  0  0
  5 29  1  0  0  0
  6  7  1  0  0  0
  6 18  1  0  0  0
  7  8  2  0  0  0
  7 15  1  0  0  0
  8  9  1  0  0  0
  8 30  1  0  0  0
  9 10  1  0  0  0
 10 23  1  0  0  0
 10 11  1  0  0  0
 11 12  2  0  0  0
 11 13  1  0  0  0
 13 14  2  0  0  0
 15 16  1  0  0  0
 15 17  2  0  0  0
 18 22  1  0  0  0
 18 19  1  0  0  0
 19 20  2  0  0  0
 19 31  1  0  0  0
 20 21  1  0  0  0
 20 32  1  0  0  0
 21 22  2  0  0  0
 21 33  1  0  0  0
 22 34  1  0  0  0
M  CHG  2  15   1  16  -1
M  END
> <s_m_entry_id>
3890

> <s_m_entry_name>
ligand_docking-pose.38

> <s_m_Source_Path>
/home/csk/Desktop/cluster/DUD-E-result/gria2

> <s_m_Source_File>
ligand_docking-pose.sdf

> <i_m_Source_File_Index>
38

> <i_lp_mmshare_version>
53161

> <r_lp_tautomer_probability>
1

> <s_lp_Force_Field>
OPLS_2005

> <r_lp_Energy>
33.524956

> <b_lp_Chiralities_Consistent>
1

> <s_lp_Variant>
159725-1

> <s_i_glide_gridfile>
glide-grid_3kgc

> <i_i_glide_lignum>
532

> <i_i_glide_rotatable_bonds>
3

> <r_i_docking_score>
-7.57882055254415

> <r_i_glide_ligand_efficiency>
-0.344491843297461

> <r_i_glide_ligand_efficiency_sa>
-0.965279693014886

> <r_i_glide_ligand_efficiency_ln>
-1.85254018723828

> <r_i_glide_gscore>
-7.57882055254415

> <r_i_glide_lipo>
-0.886240922097345

> <r_i_glide_hbond>
-0.868428362276576

> <r_i_glide_metal>
0

> <r_i_glide_rewards>
-2.77619231553673

> <r_i_glide_evdw>
-33.2023239135742

> <r_i_glide_ecoul>
-9.85191059112549

> <r_i_glide_erotb>
0.142692272818228

> <r_i_glide_esite>
-0.0527484411041968

> <r_i_glide_emodel>
-60.9224784990802

> <r_i_glide_energy>
-43.0542345046997

> <r_i_glide_einternal>
3.33605337142944

> <i_i_glide_confnum>
4

> <i_i_glide_posenum>
306

> <r_i_glide_eff_state_penalty>
0

> <s_user_duplicate_titles>
159725

> <i_f3d_flags>
0

> <s_m_subgroup_title>
dock_pv

> <s_m_subgroupid>
dock_pv1

> <b_m_subgroup_collapsed>
0

$$$$
212556
                    3D
 Schrodinger Suite 2021-1.
 46 49  0  0  1  0            999 V2000
    4.8659   30.8489    2.8974 C   0  0  0  0  0  0
    5.0197   31.2572    1.5886 C   0  0  0  0  0  0
    6.0528   32.1577    1.5974 N   0  0  0  0  0  0
    6.4779   32.1693    2.9017 C   0  0  0  0  0  0
    5.7739   31.3930    3.6866 N   0  0  0  0  0  0
    6.5930   32.8267    0.4952 C   0  0  0  0  0  0
    7.2702   32.0445   -0.4453 C   0  0  0  0  0  0
    7.7583   32.6074   -1.6278 C   0  0  0  0  0  0
    7.5396   33.9770   -1.8402 C   0  0  0  0  0  0
    6.8776   34.7652   -0.9053 C   0  0  0  0  0  0
    6.4132   34.2091    0.2866 C   0  0  0  0  0  0
    5.7379   35.0903    1.2602 N   0  3  0  0  0  0
    6.1142   35.0560    2.4248 O   0  5  0  0  0  0
    4.8791   35.8616    0.8427 O   0  0  0  0  0  0
    7.9653   34.5383   -3.0333 N   0  0  0  0  0  0
    8.5775   33.8986   -4.0455 C   0  0  0  0  0  0
    8.8790   34.4471   -5.1020 O   0  0  0  0  0  0
    8.8810   32.4297   -3.8341 C   0  0  0  0  0  0
    9.4935   31.8415   -4.7329 O   0  0  0  0  0  0
    8.4487   31.8831   -2.6467 N   0  0  0  0  0  0
    8.7233   30.4354   -2.4667 C   0  0  0  0  0  0
    7.7436   29.5016   -3.2331 C   0  0  0  0  0  0
    8.3876   28.1342   -3.5694 C   0  0  0  0  0  0
    8.5663   27.2360   -2.3308 C   0  0  0  0  0  0
    7.2258   27.0125   -1.6067 C   0  0  0  0  0  0
    6.5374   28.3466   -1.2574 C   0  0  0  0  0  0
    6.4009   29.2679   -2.4930 C   0  0  0  0  0  0
    7.7467   35.5104   -3.2212 H   0  0  0  0  0  0
    4.1075   30.1682    3.2587 H   0  0  0  0  0  0
    4.4789   31.0341    0.6814 H   0  0  0  0  0  0
    7.3184   32.7829    3.1868 H   0  0  0  0  0  0
    7.3898   30.9961   -0.2345 H   0  0  0  0  0  0
    6.7097   35.8146   -1.1061 H   0  0  0  0  0  0
    8.7807   30.1558   -1.4181 H   0  0  0  0  0  0
    9.7401   30.2432   -2.8137 H   0  0  0  0  0  0
    7.4971   29.9499   -4.1965 H   0  0  0  0  0  0
    9.3532   28.2828   -4.0546 H   0  0  0  0  0  0
    7.7659   27.6104   -4.3004 H   0  0  0  0  0  0
    9.2842   27.6854   -1.6414 H   0  0  0  0  0  0
    8.9895   26.2758   -2.6282 H   0  0  0  0  0  0
    7.3831   26.4226   -0.7026 H   0  0  0  0  0  0
    6.5644   26.4193   -2.2420 H   0  0  0  0  0  0
    7.1113   28.8394   -0.4734 H   0  0  0  0  0  0
    5.5540   28.1573   -0.8274 H   0  0  0  0  0  0
    5.6830   28.8238   -3.1842 H   0  0  0  0  0  0
    5.9629   30.2222   -2.1938 H   0  0  0  0  0  0
  1  5  1  0  0  0
  1  2  2  0  0  0
  1 29  1  0  0  0
  2  3  1  0  0  0
  2 30  1  0  0  0
  3  4  1  0  0  0
  3  6  1  0  0  0
  4  5  2  0  0  0
  4 31  1  0  0  0
  6 11  1  0  0  0
  6  7  2  0  0  0
  7  8  1  0  0  0
  7 32  1  0  0  0
  8 20  1  0  0  0
  8  9  2  0  0  0
  9 10  1  0  0  0
  9 15  1  0  0  0
 10 11  2  0  0  0
 10 33  1  0  0  0
 11 12  1  0  0  0
 12 13  1  0  0  0
 12 14  2  0  0  0
 15 28  1  0  0  0
 15 16  1  0  0  0
 16 17  2  0  0  0
 16 18  1  0  0  0
 18 19  2  0  0  0
 18 20  1  0  0  0
 20 21  1  0  0  0
 21 22  1  0  0  0
 21 34  1  0  0  0
 21 35  1  0  0  0
 22 27  1  0  0  0
 22 23  1  0  0  0
 22 36  1  0  0  0
 23 24  1  0  0  0
 23 37  1  0  0  0
 23 38  1  0  0  0
 24 25  1  0  0  0
 24 39  1  0  0  0
 24 40  1  0  0  0
 25 26  1  0  0  0
 25 41  1  0  0  0
 25 42  1  0  0  0
 26 27  1  0  0  0
 26 43  1  0  0  0
 26 44  1  0  0  0
 27 45  1  0  0  0
 27 46  1  0  0  0
M  CHG  2  12   1  13  -1
M  END
> <s_m_entry_id>
3891

> <s_m_entry_name>
ligand_docking-pose.39

> <s_m_Source_Path>
/home/csk/Desktop/cluster/DUD-E-result/gria2

> <s_m_Source_File>
ligand_docking-pose.sdf

> <i_m_Source_File_Index>
39

> <i_lp_mmshare_version>
53161

> <r_lp_tautomer_probability>
1

> <s_lp_Force_Field>
OPLS_2005

> <r_lp_Energy>
44.984351

> <b_lp_Chiralities_Consistent>
1

> <s_lp_Variant>
212556-1

> <s_i_glide_gridfile>
glide-grid_3kgc

> <i_i_glide_lignum>
294

> <i_i_glide_rotatable_bonds>
4

> <r_i_docking_score>
-7.54523003140656

> <r_i_glide_ligand_efficiency>
-0.279452964126169

> <r_i_glide_ligand_efficiency_sa>
-0.838358891457475

> <r_i_glide_ligand_efficiency_ln>
-1.75640515847255

> <r_i_glide_gscore>
-7.54523003140656

> <r_i_glide_lipo>
-0.932711646060585

> <r_i_glide_hbond>
-1.12187147656159

> <r_i_glide_metal>
0

> <r_i_glide_rewards>
-2.25946561447236

> <r_i_glide_evdw>
-37.7816925048828

> <r_i_glide_ecoul>
-10.6487674713135

> <r_i_glide_erotb>
0.296755550670174

> <r_i_glide_esite>
-0.0415370990410341

> <r_i_glide_emodel>
-69.1693098235649

> <r_i_glide_energy>
-48.4304599761963

> <r_i_glide_einternal>
3.84257435798645

> <i_i_glide_confnum>
35

> <i_i_glide_posenum>
372

> <r_i_glide_eff_state_penalty>
0

> <s_user_duplicate_titles>
212556

> <i_f3d_flags>
0

> <s_m_subgroup_title>
dock_pv

> <s_m_subgroupid>
dock_pv1

> <b_m_subgroup_collapsed>
0

$$$$
370657
                    3D
 Schrodinger Suite 2021-1.
 21 22  0  0  1  0            999 V2000
    7.7154   32.3660   -0.0551 C   0  0  0  0  0  0
    6.9677   33.1662    0.8206 C   0  0  0  0  0  0
    6.5043   34.4370    0.3926 C   0  0  0  0  0  0
    6.7717   34.8464   -0.9223 C   0  0  0  0  0  0
    7.5113   34.0436   -1.7819 C   0  0  0  0  0  0
    7.9973   32.8083   -1.3471 C   0  0  0  0  0  0
    8.7708   32.0571   -2.2443 N   0  0  0  0  0  0
    9.1028   32.4193   -3.5125 C   0  0  0  0  0  0
    9.7766   31.7342   -4.2839 O   0  0  0  0  0  0
    8.5801   33.7713   -3.9780 C   0  0  0  0  0  0
    8.8782   34.1882   -5.1017 O   0  0  0  0  0  0
    7.8126   34.4470   -3.0874 N   0  0  0  0  0  0
    5.7658   35.3762    1.2734 N   0  3  0  0  0  0
    4.8777   36.0551    0.7701 O   0  5  0  0  0  0
    6.1163   35.4906    2.4418 O   0  0  0  0  0  0
    6.6842   32.6167    2.1477 C   0  0  0  0  0  0
    6.4604   32.1768    3.1949 N   0  0  0  0  0  0
    9.1401   31.1648   -1.9496 H   0  0  0  0  0  0
    7.4666   35.3484   -3.4115 H   0  0  0  0  0  0
    8.0951   31.4072    0.2727 H   0  0  0  0  0  0
    6.4140   35.8060   -1.2695 H   0  0  0  0  0  0
  1  6  1  0  0  0
  1  2  2  0  0  0
  1 20  1  0  0  0
  2  3  1  0  0  0
  2 16  1  0  0  0
  3  4  2  0  0  0
  3 13  1  0  0  0
  4  5  1  0  0  0
  4 21  1  0  0  0
  5 12  1  0  0  0
  5  6  2  0  0  0
  6  7  1  0  0  0
  7 18  1  0  0  0
  7  8  1  0  0  0
  8  9  2  0  0  0
  8 10  1  0  0  0
 10 11  2  0  0  0
 10 12  1  0  0  0
 12 19  1  0  0  0
 13 14  1  0  0  0
 13 15  2  0  0  0
 16 17  3  0  0  0
M  CHG  2  13   1  14  -1
M  END
> <s_m_entry_id>
3892

> <s_m_entry_name>
ligand_docking-pose.40

> <s_m_Source_Path>
/home/csk/Desktop/cluster/DUD-E-result/gria2

> <s_m_Source_File>
ligand_docking-pose.sdf

> <i_m_Source_File_Index>
40

> <i_lp_mmshare_version>
53161

> <r_lp_tautomer_probability>
1

> <s_lp_Force_Field>
OPLS_2005

> <r_lp_Energy>
23.284539

> <b_lp_Chiralities_Consistent>
1

> <s_lp_Variant>
370657-1

> <s_i_glide_gridfile>
glide-grid_3kgc

> <i_i_glide_lignum>
130

> <i_i_glide_rotatable_bonds>
1

> <r_i_docking_score>
-7.54519438779997

> <r_i_glide_ligand_efficiency>
-0.443834963988233

> <r_i_glide_ligand_efficiency_sa>
-1.14122467111563

> <r_i_glide_ligand_efficiency_ln>
-1.96837319255907

> <r_i_glide_gscore>
-7.54519438779997

> <r_i_glide_lipo>
-0.698709446194069

> <r_i_glide_hbond>
-0.637164081088108

> <r_i_glide_metal>
0

> <r_i_glide_rewards>
-3.08195256303333

> <r_i_glide_evdw>
-31.7231063842773

> <r_i_glide_ecoul>
-9.9662971496582

> <r_i_glide_erotb>
0

> <r_i_glide_esite>
-0.046268405821858

> <r_i_glide_emodel>
-62.5965612157157

> <r_i_glide_energy>
-41.6894035339355

> <r_i_glide_einternal>
0.0165884047746658

> <i_i_glide_confnum>
1

> <i_i_glide_posenum>
339

> <r_i_glide_eff_state_penalty>
0

> <s_user_duplicate_titles>
370657

> <i_f3d_flags>
0

> <s_m_subgroup_title>
dock_pv

> <s_m_subgroupid>
dock_pv1

> <b_m_subgroup_collapsed>
0

$$$$
159363
                    3D
 Schrodinger Suite 2021-1.
 44 46  0  0  1  0            999 V2000
    3.9241   28.8289   -3.7092 C   0  0  0  0  0  0
    5.0234   27.8150   -3.3602 C   0  0  0  0  0  0
    6.3399   28.3294   -3.5551 O   0  0  0  0  0  0
    6.9045   29.1936   -2.6822 C   0  0  0  0  0  0
    6.3439   29.7039   -1.7145 O   0  0  0  0  0  0
    8.3789   29.4434   -3.0172 C   0  0  0  0  0  0
    9.0962   30.5942   -2.2585 C   0  0  0  0  0  0
    8.6354   31.9740   -2.5588 N   0  0  0  0  0  0
    7.9024   32.7138   -1.5781 C   0  0  0  0  0  0
    7.4548   32.1975   -0.3628 C   0  0  0  0  0  0
    6.7117   32.9926    0.5118 C   0  0  0  0  0  0
    6.4260   34.3409    0.2244 C   0  0  0  0  0  0
    6.8761   34.8548   -0.9881 C   0  0  0  0  0  0
    7.5977   34.0530   -1.8609 C   0  0  0  0  0  0
    7.9891   34.5764   -3.0706 N   0  0  0  0  0  0
    8.6123   33.9136   -4.0498 C   0  0  0  0  0  0
    8.8790   34.4471   -5.1113 O   0  0  0  0  0  0
    8.9876   32.4719   -3.7913 C   0  0  0  0  0  0
    9.5841   31.8710   -4.6949 O   0  0  0  0  0  0
    5.6087   35.2335    1.1607 C   0  0  0  0  0  0
    4.4792   34.6174    1.4708 F   0  0  0  0  0  0
    6.3013   35.4668    2.2746 F   0  0  0  0  0  0
    5.2792   36.4078    0.6163 F   0  0  0  0  0  0
    6.2484   32.3557    1.6552 N   0  0  0  0  0  0
    5.2228   31.4440    1.6965 C   0  0  0  0  0  0
    5.1457   30.9187    2.9657 C   0  0  0  0  0  0
    6.1975   31.4807    3.6981 C   0  0  0  0  0  0
    6.8295   32.4023    2.8934 C   0  0  0  0  0  0
    7.7273   35.5289   -3.2997 H   0  0  0  0  0  0
    2.9410   28.3579   -3.6925 H   0  0  0  0  0  0
    4.0725   29.2466   -4.7021 H   0  0  0  0  0  0
    3.9038   29.6477   -2.9928 H   0  0  0  0  0  0
    4.9021   27.4542   -2.3368 H   0  0  0  0  0  0
    4.9169   26.9437   -4.0072 H   0  0  0  0  0  0
    8.9130   28.5112   -2.8353 H   0  0  0  0  0  0
    8.4292   29.6310   -4.0895 H   0  0  0  0  0  0
    9.0851   30.3870   -1.1910 H   0  0  0  0  0  0
   10.1598   30.5471   -2.5001 H   0  0  0  0  0  0
    7.6354   31.1718   -0.0827 H   0  0  0  0  0  0
    6.6490   35.8742   -1.2649 H   0  0  0  0  0  0
    4.6354   31.2490    0.8102 H   0  0  0  0  0  0
    4.4258   30.1848    3.2962 H   0  0  0  0  0  0
    6.4835   31.2556    4.7146 H   0  0  0  0  0  0
    7.6787   33.0449    3.0700 H   0  0  0  0  0  0
  1  2  1  0  0  0
  1 30  1  0  0  0
  1 31  1  0  0  0
  1 32  1  0  0  0
  2  3  1  0  0  0
  2 33  1  0  0  0
  2 34  1  0  0  0
  3  4  1  0  0  0
  4  5  2  0  0  0
  4  6  1  0  0  0
  6  7  1  0  0  0
  6 35  1  0  0  0
  6 36  1  0  0  0
  7  8  1  0  0  0
  7 37  1  0  0  0
  7 38  1  0  0  0
  8 18  1  0  0  0
  8  9  1  0  0  0
  9 14  2  0  0  0
  9 10  1  0  0  0
 10 11  2  0  0  0
 10 39  1  0  0  0
 11 12  1  0  0  0
 11 24  1  0  0  0
 12 13  2  0  0  0
 12 20  1  0  0  0
 13 14  1  0  0  0
 13 40  1  0  0  0
 14 15  1  0  0  0
 15 29  1  0  0  0
 15 16  1  0  0  0
 16 17  2  0  0  0
 16 18  1  0  0  0
 18 19  2  0  0  0
 20 21  1  0  0  0
 20 22  1  0  0  0
 20 23  1  0  0  0
 24 28  1  0  0  0
 24 25  1  0  0  0
 25 26  2  0  0  0
 25 41  1  0  0  0
 26 27  1  0  0  0
 26 42  1  0  0  0
 27 28  2  0  0  0
 27 43  1  0  0  0
 28 44  1  0  0  0
M  END
> <s_m_entry_id>
3893

> <s_m_entry_name>
ligand_docking-pose.41

> <s_m_Source_Path>
/home/csk/Desktop/cluster/DUD-E-result/gria2

> <s_m_Source_File>
ligand_docking-pose.sdf

> <i_m_Source_File_Index>
41

> <i_lp_mmshare_version>
53161

> <r_lp_tautomer_probability>
1

> <s_lp_Force_Field>
OPLS_2005

> <r_lp_Energy>
25.979071

> <b_lp_Chiralities_Consistent>
1

> <s_lp_Variant>
159363-1

> <s_i_glide_gridfile>
glide-grid_3kgc

> <i_i_glide_lignum>
572

> <i_i_glide_rotatable_bonds>
7

> <r_i_docking_score>
-7.40548545657589

> <r_i_glide_ligand_efficiency>
-0.264481623449139

> <r_i_glide_ligand_efficiency_sa>
-0.803121980137371

> <r_i_glide_ligand_efficiency_ln>
-1.70940347787884

> <r_i_glide_gscore>
-7.40548545657589

> <r_i_glide_lipo>
-1.12045797032907

> <r_i_glide_hbond>
-0.86593588739047

> <r_i_glide_metal>
0

> <r_i_glide_rewards>
-2.72479995043158

> <r_i_glide_evdw>
-34.3880729675293

> <r_i_glide_ecoul>
-9.09965515136719

> <r_i_glide_erotb>
0.437899741697007

> <r_i_glide_esite>
-0.0478394690402336

> <r_i_glide_emodel>
-60.6745747224581

> <r_i_glide_energy>
-43.4877281188965

> <r_i_glide_einternal>
4.06423854827881

> <i_i_glide_confnum>
76

> <i_i_glide_posenum>
92

> <r_i_glide_eff_state_penalty>
0

> <s_user_duplicate_titles>
159363

> <i_f3d_flags>
0

> <s_m_subgroup_title>
dock_pv

> <s_m_subgroupid>
dock_pv1

> <b_m_subgroup_collapsed>
0

$$$$
231573
                    3D
 Schrodinger Suite 2021-1.
 30 31  0  0  1  0            999 V2000
    5.3419   36.3692    0.3663 C   0  0  0  0  0  0
    5.5796   35.5643    1.6343 C   0  0  0  0  0  0
    6.2697   34.3110    1.1491 C   0  0  0  0  0  0
    6.5107   34.3370   -0.1818 C   0  0  0  0  0  0
    7.1242   33.2849   -0.8363 N   0  0  0  0  0  0
    7.5288   32.1568   -0.1545 C   0  0  0  0  0  0
    8.0796   31.1786   -0.6583 O   0  0  0  0  0  0
    7.2784   32.1944    1.1886 N   0  0  0  0  0  0
    6.6665   33.1533    1.9350 C   0  0  0  0  0  0
    6.4792   33.0265    3.1426 O   0  0  0  0  0  0
    7.2877   33.3264   -2.2996 C   0  0  0  0  0  0
    8.6632   33.8562   -2.7715 C   0  0  1  0  0  0
    9.5955   32.7340   -3.3043 C   0  0  0  0  0  0
    9.6824   32.4310   -4.4990 O   0  0  0  0  0  0
   10.3231   32.1565   -2.3020 O   0  0  0  0  0  0
    8.4790   34.8470   -3.8469 N   0  0  0  0  0  0
    6.0339   35.6470   -0.7924 C   0  0  0  0  0  0
    7.5949   31.3895    1.7065 H   0  0  0  0  0  0
    9.1464   34.3733   -1.9400 H   0  0  0  0  0  0
    5.6870   37.3954    0.4980 H   0  0  0  0  0  0
    4.2721   36.4470    0.1693 H   0  0  0  0  0  0
    4.6325   35.3154    2.0980 H   0  0  0  0  0  0
    6.1987   36.0976    2.3577 H   0  0  0  0  0  0
    6.4835   33.9273   -2.7231 H   0  0  0  0  0  0
    7.1041   32.3344   -2.7166 H   0  0  0  0  0  0
   10.0790   32.4156   -1.4068 H   0  0  0  0  0  0
    7.7235   35.4970   -3.6351 H   0  0  0  0  0  0
    9.3251   35.4147   -3.9020 H   0  0  0  0  0  0
    6.8790   36.2192   -1.1723 H   0  0  0  0  0  0
    5.3335   35.5024   -1.6124 H   0  0  0  0  0  0
  1 17  1  0  0  0
  1  2  1  0  0  0
  1 20  1  0  0  0
  1 21  1  0  0  0
  2  3  1  0  0  0
  2 22  1  0  0  0
  2 23  1  0  0  0
  3  9  1  0  0  0
  3  4  2  0  0  0
  4  5  1  0  0  0
  4 17  1  0  0  0
  5  6  1  0  0  0
  5 11  1  0  0  0
  6  7  2  0  0  0
  6  8  1  0  0  0
  8 18  1  0  0  0
  8  9  1  0  0  0
  9 10  2  0  0  0
 11 12  1  0  0  0
 11 24  1  0  0  0
 11 25  1  0  0  0
 12 19  1  0  0  0
 12 13  1  0  0  0
 12 16  1  0  0  0
 13 14  2  0  0  0
 13 15  1  0  0  0
 15 26  1  0  0  0
 16 27  1  0  0  0
 16 28  1  0  0  0
 17 29  1  0  0  0
 17 30  1  0  0  0
M  END
> <s_m_entry_id>
3894

> <s_m_entry_name>
ligand_docking-pose.42

> <s_m_Source_Path>
/home/csk/Desktop/cluster/DUD-E-result/gria2

> <s_m_Source_File>
ligand_docking-pose.sdf

> <i_m_Source_File_Index>
42

> <i_lp_mmshare_version>
53161

> <r_lp_tautomer_probability>
0.999537046341301

> <s_lp_Force_Field>
OPLS_2005

> <r_lp_Energy>
19.943247

> <b_lp_Chiralities_Consistent>
1

> <s_lp_Variant>
231573-1

> <s_i_glide_gridfile>
glide-grid_3kgc

> <i_i_glide_lignum>
29

> <i_i_glide_rotatable_bonds>
4

> <r_i_docking_score>
-7.36586670288507

> <r_i_glide_ligand_efficiency>
-0.433286276640298

> <r_i_glide_ligand_efficiency_sa>
-1.11410102555789

> <r_i_glide_ligand_efficiency_ln>
-1.92159059299597

> <r_i_glide_gscore>
-7.36586670288507

> <r_i_glide_lipo>
-1.71509647921719

> <r_i_glide_hbond>
-0.678533429808535

> <r_i_glide_metal>
0

> <r_i_glide_rewards>
-2.28414579692977

> <r_i_glide_evdw>
-27.5428352355957

> <r_i_glide_ecoul>
-12.3197326660156

> <r_i_glide_erotb>
0.603799329346476

> <r_i_glide_esite>
-0.0667886645939241

> <r_i_glide_emodel>
-59.1659683339734

> <r_i_glide_energy>
-39.8625679016113

> <r_i_glide_einternal>
3.09622192382812

> <i_i_glide_confnum>
9

> <i_i_glide_posenum>
13

> <r_i_glide_eff_state_penalty>
0

> <s_user_duplicate_titles>
231573

> <i_f3d_flags>
0

> <s_m_subgroup_title>
dock_pv

> <s_m_subgroupid>
dock_pv1

> <b_m_subgroup_collapsed>
0

$$$$
29104
                    3D
 Schrodinger Suite 2021-1.
 89 92  0  0  1  0            999 V2000
    8.4981   33.0244   -2.8005 C   0  0  0  0  0  0
    8.6998   32.0745   -1.8083 C   0  0  0  0  0  0
    8.0791   32.2003   -0.5680 C   0  0  0  0  0  0
    7.2241   33.3051   -0.2835 C   0  0  0  0  0  0
    6.9968   34.2577   -1.3281 C   0  0  0  0  0  0
    7.6586   34.1086   -2.5737 C   0  0  0  0  0  0
    6.1130   35.3390   -1.1019 C   0  0  0  0  0  0
    5.4876   35.5021    0.1254 C   0  0  0  0  0  0
    5.7366   34.6136    1.1593 C   0  0  0  0  0  0
    6.5930   33.5251    0.9870 C   0  0  0  0  0  0
    6.9075   32.6451    2.1990 C   0  0  0  0  0  0
    5.8208   31.6507    2.6281 C   0  0  0  0  0  0
    5.8567   31.2471    3.7832 O   0  0  0  0  0  0
    4.8789   31.2602    1.7513 N   0  0  0  0  0  0
    3.8323   30.2305    1.9419 C   0  0  2  0  0  0
    2.9321   30.5802    3.1750 C   0  0  0  0  0  0
    1.5999   29.8083    3.2640 C   0  0  0  0  0  0
    1.5450   28.6608    3.6993 O   0  0  0  0  0  0
    0.5068   30.4469    2.8613 N   0  0  0  0  0  0
    4.3780   28.7596    1.8974 C   0  0  0  0  0  0
    4.2244   28.0505    2.8980 O   0  0  0  0  0  0
    4.9745   28.2758    0.7708 N   0  0  0  0  0  0
    5.3332   29.1368   -0.3870 C   0  0  0  0  0  0
    4.9171   28.4104   -1.6798 C   0  0  0  0  0  0
    5.5177   26.9954   -1.7652 C   0  0  0  0  0  0
    4.9259   26.2233   -0.5798 C   0  0  0  0  0  0
    5.3920   26.8452    0.7484 C   0  0  0  0  0  0
    5.2010   26.3117   -3.1071 C   0  0  0  0  0  0
    5.9536   26.9710   -4.1654 N   0  0  2  0  0  0
    5.4332   26.6097   -5.4709 C   0  0  0  0  0  0
    6.1911   27.3895   -6.5548 C   0  0  0  0  0  0
    7.6636   26.9649   -6.7439 C   0  0  0  0  0  0
    8.4737   27.9282   -7.6325 C   0  0  0  0  0  0
    8.6481   29.2467   -7.0221 N   0  0  2  0  0  0
    9.5467   29.2575   -5.8642 C   0  0  0  0  0  0
   11.0040   28.8171   -6.1537 C   0  0  0  0  0  0
   11.7100   29.6621   -7.2337 C   0  0  0  0  0  0
   13.1369   29.1470   -7.5138 C   0  0  0  0  0  0
   13.9417   29.0890   -6.2885 N   0  0  1  0  0  0
   13.3095   28.3606   -5.1844 C   0  0  0  0  0  0
   11.8899   28.8951   -4.8965 C   0  0  0  0  0  0
    3.1870   30.3308    1.0669 H   0  0  0  0  0  0
    8.9922   32.9176   -3.7550 H   0  0  0  0  0  0
    9.3544   31.2352   -1.9944 H   0  0  0  0  0  0
    8.2731   31.4440    0.1760 H   0  0  0  0  0  0
    7.4929   34.8460   -3.3484 H   0  0  0  0  0  0
    5.9206   36.0458   -1.8954 H   0  0  0  0  0  0
    4.8181   36.3353    0.2815 H   0  0  0  0  0  0
    5.2672   34.7809    2.1159 H   0  0  0  0  0  0
    7.8512   32.1164    2.1006 H   0  0  0  0  0  0
    7.0591   33.3177    3.0454 H   0  0  0  0  0  0
    4.8541   31.7171    0.8495 H   0  0  0  0  0  0
    3.4820   30.4470    4.0980 H   0  0  0  0  0  0
    2.7170   31.6467    3.1874 H   0  0  0  0  0  0
   -0.3960   29.9982    2.8879 H   0  0  0  0  0  0
    0.6039   31.3968    2.4970 H   0  0  0  0  0  0
    4.7964   30.0831   -0.4174 H   0  0  0  0  0  0
    6.4109   29.3061   -0.3838 H   0  0  0  0  0  0
    3.8300   28.3800   -1.7815 H   0  0  0  0  0  0
    5.2391   29.0040   -2.5364 H   0  0  0  0  0  0
    6.6018   27.0493   -1.6362 H   0  0  0  0  0  0
    5.2549   25.1835   -0.6183 H   0  0  0  0  0  0
    3.8373   26.1606   -0.6390 H   0  0  0  0  0  0
    6.4748   26.7862    0.8032 H   0  0  0  0  0  0
    4.9544   26.2520    1.5529 H   0  0  0  0  0  0
    5.4780   25.2565   -3.0736 H   0  0  0  0  0  0
    4.1265   26.3608   -3.2947 H   0  0  0  0  0  0
    6.9240   26.6973   -4.1016 H   0  0  0  0  0  0
    5.5308   25.5353   -5.6375 H   0  0  0  0  0  0
    4.3739   26.8669   -5.5020 H   0  0  0  0  0  0
    5.6792   27.2458   -7.5027 H   0  0  0  0  0  0
    6.1146   28.4556   -6.3381 H   0  0  0  0  0  0
    8.1630   26.8395   -5.7836 H   0  0  0  0  0  0
    7.6799   25.9749   -7.2016 H   0  0  0  0  0  0
    9.4310   27.4863   -7.9020 H   0  0  0  0  0  0
    7.9392   28.0700   -8.5732 H   0  0  0  0  0  0
    7.7398   29.5343   -6.6876 H   0  0  0  0  0  0
    9.5710   30.2880   -5.5086 H   0  0  0  0  0  0
    9.1274   28.7026   -5.0242 H   0  0  0  0  0  0
   11.0084   27.7747   -6.4737 H   0  0  0  0  0  0
   11.1304   29.6460   -8.1569 H   0  0  0  0  0  0
   11.7361   30.7177   -6.9616 H   0  0  0  0  0  0
   13.0981   28.1503   -7.9567 H   0  0  0  0  0  0
   13.6357   29.7993   -8.2318 H   0  0  0  0  0  0
   14.8568   28.7053   -6.4854 H   0  0  0  0  0  0
   13.2703   27.3002   -5.4400 H   0  0  0  0  0  0
   13.9411   28.4521   -4.3022 H   0  0  0  0  0  0
   11.9277   29.9069   -4.4889 H   0  0  0  0  0  0
   11.4361   28.3082   -4.0983 H   0  0  0  0  0  0
  1  6  1  0  0  0
  1  2  2  0  0  0
  1 43  1  0  0  0
  2  3  1  0  0  0
  2 44  1  0  0  0
  3  4  2  0  0  0
  3 45  1  0  0  0
  4 10  1  0  0  0
  4  5  1  0  0  0
  5  6  2  0  0  0
  5  7  1  0  0  0
  6 46  1  0  0  0
  7  8  2  0  0  0
  7 47  1  0  0  0
  8  9  1  0  0  0
  8 48  1  0  0  0
  9 10  2  0  0  0
  9 49  1  0  0  0
 10 11  1  0  0  0
 11 12  1  0  0  0
 11 50  1  0  0  0
 11 51  1  0  0  0
 12 13  2  0  0  0
 12 14  1  0  0  0
 14 15  1  0  0  0
 14 52  1  0  0  0
 15 42  1  0  0  0
 15 16  1  0  0  0
 15 20  1  0  0  0
 16 17  1  0  0  0
 16 53  1  0  0  0
 16 54  1  0  0  0
 17 18  2  0  0  0
 17 19  1  0  0  0
 19 55  1  0  0  0
 19 56  1  0  0  0
 20 21  2  0  0  0
 20 22  1  0  0  0
 22 27  1  0  0  0
 22 23  1  0  0  0
 23 24  1  0  0  0
 23 57  1  0  0  0
 23 58  1  0  0  0
 24 25  1  0  0  0
 24 59  1  0  0  0
 24 60  1  0  0  0
 25 26  1  0  0  0
 25 28  1  0  0  0
 25 61  1  0  0  0
 26 27  1  0  0  0
 26 62  1  0  0  0
 26 63  1  0  0  0
 27 64  1  0  0  0
 27 65  1  0  0  0
 28 29  1  0  0  0
 28 66  1  0  0  0
 28 67  1  0  0  0
 29 30  1  0  0  0
 29 68  1  0  0  0
 30 31  1  0  0  0
 30 69  1  0  0  0
 30 70  1  0  0  0
 31 32  1  0  0  0
 31 71  1  0  0  0
 31 72  1  0  0  0
 32 33  1  0  0  0
 32 73  1  0  0  0
 32 74  1  0  0  0
 33 34  1  0  0  0
 33 75  1  0  0  0
 33 76  1  0  0  0
 34 35  1  0  0  0
 34 77  1  0  0  0
 35 36  1  0  0  0
 35 78  1  0  0  0
 35 79  1  0  0  0
 36 41  1  0  0  0
 36 37  1  0  0  0
 36 80  1  0  0  0
 37 38  1  0  0  0
 37 81  1  0  0  0
 37 82  1  0  0  0
 38 39  1  0  0  0
 38 83  1  0  0  0
 38 84  1  0  0  0
 39 40  1  0  0  0
 39 85  1  0  0  0
 40 41  1  0  0  0
 40 86  1  0  0  0
 40 87  1  0  0  0
 41 88  1  0  0  0
 41 89  1  0  0  0
M  END
> <s_m_entry_id>
3895

> <s_m_entry_name>
ligand_docking-pose.43

> <s_m_Source_Path>
/home/csk/Desktop/cluster/DUD-E-result/gria2

> <s_m_Source_File>
ligand_docking-pose.sdf

> <i_m_Source_File_Index>
43

> <i_lp_mmshare_version>
53161

> <r_lp_tautomer_probability>
1

> <s_lp_Force_Field>
OPLS_2005

> <r_lp_Energy>
49.854256

> <b_lp_Chiralities_Consistent>
1

> <s_lp_Variant>
29104-1

> <s_i_glide_gridfile>
glide-grid_3kgc

> <i_i_glide_lignum>
84

> <i_i_glide_rotatable_bonds>
17

> <r_i_docking_score>
-7.32825445452516

> <r_i_glide_ligand_efficiency>
-0.178737913525004

> <r_i_glide_ligand_efficiency_sa>
-0.616327154164031

> <r_i_glide_ligand_efficiency_ln>
-1.55471356984025

> <r_i_glide_gscore>
-7.32825445452516

> <r_i_glide_lipo>
-2.36428403950644

> <r_i_glide_hbond>
-0.668563354867428

> <r_i_glide_metal>
0

> <r_i_glide_rewards>
-0.289171593504982

> <r_i_glide_evdw>
-44.1548347473145

> <r_i_glide_ecoul>
-15.9289331436157

> <r_i_glide_erotb>
0.829088831598693

> <r_i_glide_esite>
-0.238242589336922

> <r_i_glide_emodel>
-84.1065897658511

> <r_i_glide_energy>
-60.0837678909302

> <r_i_glide_einternal>
11.443941116333

> <i_i_glide_confnum>
7

> <i_i_glide_posenum>
154

> <r_i_glide_eff_state_penalty>
0

> <s_user_duplicate_titles>
29104

> <i_f3d_flags>
0

> <s_m_subgroup_title>
dock_pv

> <s_m_subgroupid>
dock_pv1

> <b_m_subgroup_collapsed>
0

$$$$
159760
                    3D
 Schrodinger Suite 2021-1.
 44 47  0  0  1  0            999 V2000
    6.1299   31.6445    3.6979 C   0  0  0  0  0  0
    5.0770   31.0351    3.0011 C   0  0  0  0  0  0
    5.0787   31.5631    1.7342 C   0  0  0  0  0  0
    6.0562   32.5208    1.6502 N   0  0  0  0  0  0
    6.6998   32.5754    2.8589 C   0  0  0  0  0  0
    6.4868   33.1262    0.4776 C   0  0  0  0  0  0
    7.0759   32.2687   -0.4517 C   0  0  0  0  0  0
    7.6133   32.7606   -1.6386 C   0  0  0  0  0  0
    7.5234   34.1419   -1.8631 C   0  0  0  0  0  0
    6.8750   34.9937   -0.9762 C   0  0  0  0  0  0
    6.3629   34.5028    0.2231 C   0  0  0  0  0  0
    5.7114   35.4440    1.1554 N   0  3  0  0  0  0
    4.8792   36.2165    0.6950 O   0  5  0  0  0  0
    6.0790   35.4526    2.3230 O   0  0  0  0  0  0
    8.0468   34.6536   -3.0323 N   0  0  0  0  0  0
    8.5802   33.9408   -4.0329 C   0  0  0  0  0  0
    8.8796   34.4472   -5.1022 O   0  0  0  0  0  0
    8.7471   32.4530   -3.8162 C   0  0  0  0  0  0
    9.3255   31.8194   -4.7065 O   0  0  0  0  0  0
    8.2292   31.9494   -2.6453 N   0  0  0  0  0  0
    8.3068   30.4711   -2.4574 C   0  0  0  0  0  0
    9.2670   29.9744   -1.3418 C   0  0  0  0  0  0
    9.2817   28.4443   -1.1994 C   0  0  0  0  0  0
    7.8854   27.8061   -1.1777 C   0  0  0  0  0  0
    7.0901   28.1811   -2.4230 C   0  0  0  0  0  0
    6.9547   29.7032   -2.5480 C   0  0  0  0  0  0
    7.9022   35.6346   -3.2398 H   0  0  0  0  0  0
    6.4793   31.4297    4.6963 H   0  0  0  0  0  0
    4.4036   30.2558    3.3196 H   0  0  0  0  0  0
    4.4787   31.3214    0.8703 H   0  0  0  0  0  0
    7.5532   33.2267    2.9913 H   0  0  0  0  0  0
    7.1152   31.2190   -0.2130 H   0  0  0  0  0  0
    6.7807   36.0452   -1.2054 H   0  0  0  0  0  0
    8.8087   30.0536   -3.3317 H   0  0  0  0  0  0
   10.2810   30.3175   -1.5523 H   0  0  0  0  0  0
    9.0126   30.3882   -0.3683 H   0  0  0  0  0  0
    9.8400   28.0320   -2.0383 H   0  0  0  0  0  0
    9.8298   28.1644   -0.3003 H   0  0  0  0  0  0
    7.9727   26.7211   -1.1003 H   0  0  0  0  0  0
    7.3319   28.1398   -0.3021 H   0  0  0  0  0  0
    7.5834   27.7780   -3.3091 H   0  0  0  0  0  0
    6.1019   27.7197   -2.3895 H   0  0  0  0  0  0
    6.2538   30.0437   -1.7877 H   0  0  0  0  0  0
    6.4810   29.8940   -3.5019 H   0  0  0  0  0  0
  1  5  2  0  0  0
  1  2  1  0  0  0
  1 28  1  0  0  0
  2  3  2  0  0  0
  2 29  1  0  0  0
  3  4  1  0  0  0
  3 30  1  0  0  0
  4  5  1  0  0  0
  4  6  1  0  0  0
  5 31  1  0  0  0
  6 11  1  0  0  0
  6  7  2  0  0  0
  7  8  1  0  0  0
  7 32  1  0  0  0
  8 20  1  0  0  0
  8  9  2  0  0  0
  9 10  1  0  0  0
  9 15  1  0  0  0
 10 11  2  0  0  0
 10 33  1  0  0  0
 11 12  1  0  0  0
 12 13  1  0  0  0
 12 14  2  0  0  0
 15 27  1  0  0  0
 15 16  1  0  0  0
 16 17  2  0  0  0
 16 18  1  0  0  0
 18 19  2  0  0  0
 18 20  1  0  0  0
 20 21  1  0  0  0
 21 26  1  0  0  0
 21 22  1  0  0  0
 21 34  1  0  0  0
 22 23  1  0  0  0
 22 35  1  0  0  0
 22 36  1  0  0  0
 23 24  1  0  0  0
 23 37  1  0  0  0
 23 38  1  0  0  0
 24 25  1  0  0  0
 24 39  1  0  0  0
 24 40  1  0  0  0
 25 26  1  0  0  0
 25 41  1  0  0  0
 25 42  1  0  0  0
 26 43  1  0  0  0
 26 44  1  0  0  0
M  CHG  2  12   1  13  -1
M  END
> <s_m_entry_id>
3896

> <s_m_entry_name>
ligand_docking-pose.44

> <s_m_Source_Path>
/home/csk/Desktop/cluster/DUD-E-result/gria2

> <s_m_Source_File>
ligand_docking-pose.sdf

> <i_m_Source_File_Index>
44

> <i_lp_mmshare_version>
53161

> <r_lp_tautomer_probability>
1

> <s_lp_Force_Field>
OPLS_2005

> <r_lp_Energy>
44.76817

> <b_lp_Chiralities_Consistent>
1

> <s_lp_Variant>
159760-1

> <s_i_glide_gridfile>
glide-grid_3kgc

> <i_i_glide_lignum>
228

> <i_i_glide_rotatable_bonds>
3

> <r_i_docking_score>
-7.30117056881302

> <r_i_glide_ligand_efficiency>
-0.280814252646654

> <r_i_glide_ligand_efficiency_sa>
-0.831911118514986

> <r_i_glide_ligand_efficiency_ln>
-1.71465595099107

> <r_i_glide_gscore>
-7.30117056881302

> <r_i_glide_lipo>
-1.08703843229942

> <r_i_glide_hbond>
-0.862121952384976

> <r_i_glide_metal>
0

> <r_i_glide_rewards>
-2.36002577846912

> <r_i_glide_evdw>
-36.1273460388184

> <r_i_glide_ecoul>
-9.04015636444092

> <r_i_glide_erotb>
0.213034288805311

> <r_i_glide_esite>
-0.0426279378577508

> <r_i_glide_emodel>
-62.1604418986451

> <r_i_glide_energy>
-45.1675024032593

> <r_i_glide_einternal>
3.06339502334595

> <i_i_glide_confnum>
4

> <i_i_glide_posenum>
81

> <r_i_glide_eff_state_penalty>
0

> <s_user_duplicate_titles>
159760

> <i_f3d_flags>
0

> <s_m_subgroup_title>
dock_pv

> <s_m_subgroupid>
dock_pv1

> <b_m_subgroup_collapsed>
0

$$$$
104485
                    3D
 Schrodinger Suite 2021-1.
 37 39  0  0  1  0            999 V2000
    5.5183   29.2402    2.1114 C   0  0  0  0  0  0
    6.4670   30.0903    1.5596 C   0  0  0  0  0  0
    5.8618   30.8423    0.5889 N   0  0  0  0  0  0
    4.5583   30.4197    0.5106 C   0  0  0  0  0  0
    4.2812   29.5095    1.5235 C   0  0  0  0  0  0
    3.0232   28.9144    1.8795 C   0  0  0  0  0  0
    2.9351   27.8708    2.5293 O   0  0  0  0  0  0
    1.9567   29.6470    1.4405 O   0  0  0  0  0  0
    6.4565   31.8253   -0.2147 C   0  0  0  0  0  0
    7.3499   31.3661   -1.1814 C   0  0  0  0  0  0
    7.8809   32.2454   -2.1270 C   0  0  0  0  0  0
    7.5119   33.5961   -2.0686 C   0  0  0  0  0  0
    6.6738   34.0739   -1.0714 C   0  0  0  0  0  0
    6.1366   33.2038   -0.1148 C   0  0  0  0  0  0
    5.2790   33.7718    0.9580 N   0  3  0  0  0  0
    4.8949   33.0364    1.8532 O   0  5  0  0  0  0
    5.0096   34.9707    0.9306 O   0  0  0  0  0  0
    7.9321   34.4439   -3.0851 N   0  0  0  0  0  0
    8.6491   34.0735   -4.1635 C   0  0  0  0  0  0
    8.8790   34.8263   -5.1020 O   0  0  0  0  0  0
    9.1833   32.6573   -4.1849 C   0  0  0  0  0  0
    9.9503   32.3470   -5.1017 O   0  0  0  0  0  0
    8.7905   31.8492   -3.1507 N   0  0  0  0  0  0
    9.4240   30.5019   -3.0682 C   0  0  0  0  0  0
   10.4423   30.4130   -1.9073 C   0  0  0  0  0  0
   10.7887   29.3570   -1.4287 O   0  0  0  0  0  0
   10.8771   31.6400   -1.5020 O   0  0  0  0  0  0
    7.5991   35.4025   -3.1055 H   0  0  0  0  0  0
    5.6789   28.5184    2.8979 H   0  0  0  0  0  0
    7.5164   30.2410    1.7710 H   0  0  0  0  0  0
    3.9358   30.8469   -0.2531 H   0  0  0  0  0  0
    2.1956   30.5215    1.1108 H   0  0  0  0  0  0
    7.5831   30.3121   -1.2093 H   0  0  0  0  0  0
    6.4172   35.1249   -1.0603 H   0  0  0  0  0  0
    9.9341   30.2151   -3.9882 H   0  0  0  0  0  0
    8.6602   29.7374   -2.9336 H   0  0  0  0  0  0
   11.2776   31.6466   -0.6141 H   0  0  0  0  0  0
  1  5  1  0  0  0
  1  2  2  0  0  0
  1 29  1  0  0  0
  2  3  1  0  0  0
  2 30  1  0  0  0
  3  4  1  0  0  0
  3  9  1  0  0  0
  4  5  2  0  0  0
  4 31  1  0  0  0
  5  6  1  0  0  0
  6  7  2  0  0  0
  6  8  1  0  0  0
  8 32  1  0  0  0
  9 14  1  0  0  0
  9 10  2  0  0  0
 10 11  1  0  0  0
 10 33  1  0  0  0
 11 23  1  0  0  0
 11 12  2  0  0  0
 12 13  1  0  0  0
 12 18  1  0  0  0
 13 14  2  0  0  0
 13 34  1  0  0  0
 14 15  1  0  0  0
 15 16  1  0  0  0
 15 17  2  0  0  0
 18 28  1  0  0  0
 18 19  1  0  0  0
 19 20  2  0  0  0
 19 21  1  0  0  0
 21 22  2  0  0  0
 21 23  1  0  0  0
 23 24  1  0  0  0
 24 25  1  0  0  0
 24 35  1  0  0  0
 24 36  1  0  0  0
 25 26  2  0  0  0
 25 27  1  0  0  0
 27 37  1  0  0  0
M  CHG  2  15   1  16  -1
M  END
> <s_m_entry_id>
3897

> <s_m_entry_name>
ligand_docking-pose.45

> <s_m_Source_Path>
/home/csk/Desktop/cluster/DUD-E-result/gria2

> <s_m_Source_File>
ligand_docking-pose.sdf

> <i_m_Source_File_Index>
45

> <i_lp_mmshare_version>
53161

> <r_lp_tautomer_probability>
1

> <s_lp_Force_Field>
OPLS_2005

> <r_lp_Energy>
29.37086

> <b_lp_Chiralities_Consistent>
1

> <s_lp_Variant>
104485-1

> <s_i_glide_gridfile>
glide-grid_3kgc

> <i_i_glide_lignum>
270

> <i_i_glide_rotatable_bonds>
7

> <r_i_docking_score>
-7.22365900455865

> <r_i_glide_ligand_efficiency>
-0.267542926094765

> <r_i_glide_ligand_efficiency_sa>
-0.802628777402517

> <r_i_glide_ligand_efficiency_ln>
-1.68154872493507

> <r_i_glide_gscore>
-7.22365900455865

> <r_i_glide_lipo>
-0.717509040960602

> <r_i_glide_hbond>
-1.28245263007513

> <r_i_glide_metal>
0

> <r_i_glide_rewards>
-0.857305227272727

> <r_i_glide_evdw>
-24.246940612793

> <r_i_glide_ecoul>
-23.293155670166

> <r_i_glide_erotb>
0.552118400072744

> <r_i_glide_esite>
-0.21219012515839

> <r_i_glide_emodel>
-67.6201927156674

> <r_i_glide_energy>
-47.540096282959

> <r_i_glide_einternal>
7.98006916046143

> <i_i_glide_confnum>
20

> <i_i_glide_posenum>
66

> <r_i_glide_eff_state_penalty>
0

> <s_user_duplicate_titles>
104485

> <i_f3d_flags>
0

> <s_m_subgroup_title>
dock_pv

> <s_m_subgroupid>
dock_pv1

> <b_m_subgroup_collapsed>
0

$$$$
203414
                    3D
 Schrodinger Suite 2021-1.
 38 40  0  0  1  0            999 V2000
    5.9378   36.7449    2.2245 C   0  0  0  0  0  0
    5.2767   35.8082    1.3171 N   0  0  2  0  0  0
    5.3782   34.4077    1.7150 C   0  0  0  0  0  0
    6.3081   33.7412    0.7185 C   0  0  0  0  0  0
    6.9005   32.4723    0.7080 C   0  0  0  0  0  0
    7.6754   32.0653   -0.3899 C   0  0  0  0  0  0
    7.8403   32.9200   -1.4922 C   0  0  0  0  0  0
    7.2455   34.2151   -1.4251 C   0  0  0  0  0  0
    6.4800   34.6317   -0.3330 C   0  0  0  0  0  0
    5.6752   35.8812   -0.0803 C   0  0  0  0  0  0
    7.5534   34.8466   -2.6043 N   0  0  0  0  0  0
    8.2412   34.0059   -3.4258 C   0  0  0  0  0  0
    8.4682   32.7953   -2.7889 C   0  0  0  0  0  0
    9.1021   31.6729   -3.2745 N   0  0  0  0  0  0
    9.4599   31.7099   -4.4347 O   0  0  0  0  0  0
    8.4797   34.4438   -4.7015 O   0  0  0  0  0  0
    6.6890   31.2934    2.0515 S   0  0  0  0  0  0
    7.8843   30.4471    2.0281 O   0  0  0  0  0  0
    6.3231   32.0161    3.2759 O   0  0  0  0  0  0
    5.2998   30.2941    1.5716 N   0  0  0  0  0  0
    5.4344   28.8271    1.6741 C   0  0  0  0  0  0
    3.9585   30.8328    1.8657 C   0  0  0  0  0  0
    7.2586   35.7738   -2.9150 H   0  0  0  0  0  0
    5.3781   36.8389    3.1555 H   0  0  0  0  0  0
    5.9870   37.7414    1.7855 H   0  0  0  0  0  0
    6.9491   36.4271    2.4823 H   0  0  0  0  0  0
    5.7181   34.3232    2.7476 H   0  0  0  0  0  0
    4.3816   33.9750    1.6598 H   0  0  0  0  0  0
    8.1265   31.0833   -0.4036 H   0  0  0  0  0  0
    4.7775   35.8838   -0.6988 H   0  0  0  0  0  0
    6.2126   36.7998   -0.3019 H   0  0  0  0  0  0
    7.6767   34.2840   -5.2038 H   0  0  0  0  0  0
    4.6125   28.3344    1.1536 H   0  0  0  0  0  0
    6.3739   28.5148    1.2193 H   0  0  0  0  0  0
    5.4415   28.5286    2.7228 H   0  0  0  0  0  0
    3.2141   30.3848    1.2070 H   0  0  0  0  0  0
    3.7003   30.6540    2.9095 H   0  0  0  0  0  0
    3.9549   31.9059    1.6992 H   0  0  0  0  0  0
  1  2  1  0  0  0
  1 24  1  0  0  0
  1 25  1  0  0  0
  1 26  1  0  0  0
  2 10  1  0  0  0
  2  3  1  0  0  0
  3  4  1  0  0  0
  3 27  1  0  0  0
  3 28  1  0  0  0
  4  9  2  0  0  0
  4  5  1  0  0  0
  5  6  2  0  0  0
  5 17  1  0  0  0
  6  7  1  0  0  0
  6 29  1  0  0  0
  7 13  1  0  0  0
  7  8  2  0  0  0
  8  9  1  0  0  0
  8 11  1  0  0  0
  9 10  1  0  0  0
 10 30  1  0  0  0
 10 31  1  0  0  0
 11 23  1  0  0  0
 11 12  1  0  0  0
 12 13  2  0  0  0
 12 16  1  0  0  0
 13 14  1  0  0  0
 14 15  2  0  0  0
 16 32  1  0  0  0
 17 18  2  0  0  0
 17 19  2  0  0  0
 17 20  1  0  0  0
 20 21  1  0  0  0
 20 22  1  0  0  0
 21 33  1  0  0  0
 21 34  1  0  0  0
 21 35  1  0  0  0
 22 36  1  0  0  0
 22 37  1  0  0  0
 22 38  1  0  0  0
M  END
> <s_m_entry_id>
3898

> <s_m_entry_name>
ligand_docking-pose.46

> <s_m_Source_Path>
/home/csk/Desktop/cluster/DUD-E-result/gria2

> <s_m_Source_File>
ligand_docking-pose.sdf

> <i_m_Source_File_Index>
46

> <i_lp_mmshare_version>
53161

> <r_lp_tautomer_probability>
1

> <s_lp_Force_Field>
OPLS_2005

> <r_lp_Energy>
50.624215

> <b_lp_Chiralities_Consistent>
1

> <s_lp_Variant>
203414-1

> <s_i_glide_gridfile>
glide-grid_3kgc

> <i_i_glide_lignum>
584

> <i_i_glide_rotatable_bonds>
4

> <r_i_docking_score>
-7.16258316323158

> <r_i_glide_ligand_efficiency>
-0.325571961965072

> <r_i_glide_ligand_efficiency_sa>
-0.912265441444821

> <r_i_glide_ligand_efficiency_ln>
-1.75079658666261

> <r_i_glide_gscore>
-7.16258316323158

> <r_i_glide_lipo>
-1.60006171386132

> <r_i_glide_hbond>
-0.311322245793968

> <r_i_glide_metal>
0

> <r_i_glide_rewards>
-1.74138736239444

> <r_i_glide_evdw>
-32.9645843505859

> <r_i_glide_ecoul>
-12.0616664886475

> <r_i_glide_erotb>
0.177996935624682

> <r_i_glide_esite>
-0.230329585980116

> <r_i_glide_emodel>
-60.020531816507

> <r_i_glide_energy>
-45.0262508392334

> <r_i_glide_einternal>
7.07071304321289

> <i_i_glide_confnum>
10

> <i_i_glide_posenum>
142

> <r_i_glide_eff_state_penalty>
0

> <s_user_duplicate_titles>
203414

> <i_f3d_flags>
0

> <s_m_subgroup_title>
dock_pv

> <s_m_subgroupid>
dock_pv1

> <b_m_subgroup_collapsed>
0

$$$$
34982
                    3D
 Schrodinger Suite 2021-1.
 45 49  0  0  1  0            999 V2000
    5.6803   35.6474   -0.0327 C   0  0  0  0  0  0
    5.2199   35.0819    1.1403 C   0  0  0  0  0  0
    5.6724   33.8305    1.5404 C   0  0  0  0  0  0
    6.5976   33.1071    0.7698 C   0  0  0  0  0  0
    7.0587   33.6905   -0.4414 C   0  0  0  0  0  0
    6.5905   34.9567   -0.8237 C   0  0  0  0  0  0
    8.0247   33.0901   -1.4033 C   0  0  0  0  0  0
    7.7921   32.0270   -2.2787 C   0  0  0  0  0  0
    8.9745   31.8131   -2.9302 N   0  0  0  0  0  0
    9.3823   30.9090   -3.8751 C   0  0  0  0  0  0
   10.6837   30.9777   -4.3208 C   0  0  0  0  0  0
   11.5789   31.8935   -3.8778 N   0  0  0  0  0  0
   11.1973   32.7661   -2.9009 C   0  0  0  0  0  0
    9.8663   32.7744   -2.4172 C   0  0  0  0  0  0
    9.2520   33.5668   -1.5018 N   0  0  0  0  0  0
   12.0548   33.6482   -2.3002 O   0  0  0  0  0  0
   10.8938   29.8839   -5.2830 C   0  0  0  0  0  0
   12.0279   29.5028   -5.9987 C   0  0  0  0  0  0
   11.9628   28.4040   -6.8544 C   0  0  0  0  0  0
   10.7732   27.6883   -6.9835 C   0  0  0  0  0  0
    9.6307   28.0569   -6.2634 C   0  0  0  0  0  0
    9.6941   29.1690   -5.4089 C   0  0  0  0  0  0
    8.6196   29.7765   -4.5191 C   0  0  0  0  0  0
    8.3537   27.2332   -6.4431 C   0  0  0  0  0  0
    7.4685   27.7689   -7.5714 C   0  0  0  0  0  0
    6.8800   28.8469   -7.5031 O   0  0  0  0  0  0
    7.4414   26.9323   -8.6469 O   0  0  0  0  0  0
    7.0497   31.7573    1.3050 C   0  0  0  0  0  0
    6.5447   31.2462    2.3062 O   0  0  0  0  0  0
    8.0787   31.1602    0.6531 O   0  0  0  0  0  0
    5.3202   36.6238   -0.3021 H   0  0  0  0  0  0
    4.4867   35.6222    1.7141 H   0  0  0  0  0  0
    5.2821   33.4249    2.4627 H   0  0  0  0  0  0
    6.9295   35.4134   -1.7431 H   0  0  0  0  0  0
    6.9068   31.4331   -2.4479 H   0  0  0  0  0  0
   11.6793   33.9422   -1.4606 H   0  0  0  0  0  0
   12.9581   30.0454   -5.8970 H   0  0  0  0  0  0
   12.8369   28.1018   -7.4121 H   0  0  0  0  0  0
   10.7442   26.8358   -7.6496 H   0  0  0  0  0  0
    7.7614   30.1157   -5.0992 H   0  0  0  0  0  0
    8.2491   29.0557   -3.7888 H   0  0  0  0  0  0
    8.6114   26.1878   -6.6295 H   0  0  0  0  0  0
    7.7745   27.2268   -5.5190 H   0  0  0  0  0  0
    6.8843   27.2474   -9.3691 H   0  0  0  0  0  0
    8.3804   30.4046    1.1588 H   0  0  0  0  0  0
  1  6  1  0  0  0
  1  2  2  0  0  0
  1 31  1  0  0  0
  2  3  1  0  0  0
  2 32  1  0  0  0
  3  4  2  0  0  0
  3 33  1  0  0  0
  4  5  1  0  0  0
  4 28  1  0  0  0
  5  6  2  0  0  0
  5  7  1  0  0  0
  6 34  1  0  0  0
  7 15  1  0  0  0
  7  8  2  0  0  0
  8  9  1  0  0  0
  8 35  1  0  0  0
  9 14  1  0  0  0
  9 10  1  0  0  0
 10 23  1  0  0  0
 10 11  2  0  0  0
 11 12  1  0  0  0
 11 17  1  0  0  0
 12 13  2  0  0  0
 13 14  1  0  0  0
 13 16  1  0  0  0
 14 15  2  0  0  0
 16 36  1  0  0  0
 17 22  2  0  0  0
 17 18  1  0  0  0
 18 19  2  0  0  0
 18 37  1  0  0  0
 19 20  1  0  0  0
 19 38  1  0  0  0
 20 21  2  0  0  0
 20 39  1  0  0  0
 21 22  1  0  0  0
 21 24  1  0  0  0
 22 23  1  0  0  0
 23 40  1  0  0  0
 23 41  1  0  0  0
 24 25  1  0  0  0
 24 42  1  0  0  0
 24 43  1  0  0  0
 25 26  2  0  0  0
 25 27  1  0  0  0
 27 44  1  0  0  0
 28 29  2  0  0  0
 28 30  1  0  0  0
 30 45  1  0  0  0
M  END
> <s_m_entry_id>
3899

> <s_m_entry_name>
ligand_docking-pose.47

> <s_m_Source_Path>
/home/csk/Desktop/cluster/DUD-E-result/gria2

> <s_m_Source_File>
ligand_docking-pose.sdf

> <i_m_Source_File_Index>
47

> <i_lp_mmshare_version>
53161

> <r_lp_tautomer_probability>
1

> <s_lp_Force_Field>
OPLS_2005

> <r_lp_Energy>
53.690331

> <b_lp_Chiralities_Consistent>
1

> <s_lp_Variant>
34982-1

> <s_i_glide_gridfile>
glide-grid_3kgc

> <i_i_glide_lignum>
136

> <i_i_glide_rotatable_bonds>
7

> <r_i_docking_score>
-7.14680573755819

> <r_i_glide_ligand_efficiency>
-0.238226857918606

> <r_i_glide_ligand_efficiency_sa>
-0.740226235876727

> <r_i_glide_ligand_efficiency_ln>
-1.62383213425868

> <r_i_glide_gscore>
-7.14680573755819

> <r_i_glide_lipo>
-1.52003143588501

> <r_i_glide_hbond>
-0.946825481851491

> <r_i_glide_metal>
0

> <r_i_glide_rewards>
-1.16526795766936

> <r_i_glide_evdw>
-42.275749206543

> <r_i_glide_ecoul>
-11.9030914306641

> <r_i_glide_erotb>
0.486989621821044

> <r_i_glide_esite>
-0.102419309046613

> <r_i_glide_emodel>
-75.1357549225265

> <r_i_glide_energy>
-54.178840637207

> <r_i_glide_einternal>
5.12720775604248

> <i_i_glide_confnum>
38

> <i_i_glide_posenum>
178

> <r_i_glide_eff_state_penalty>
0

> <s_user_duplicate_titles>
34982

> <i_f3d_flags>
0

> <s_m_subgroup_title>
dock_pv

> <s_m_subgroupid>
dock_pv1

> <b_m_subgroup_collapsed>
0

$$$$
159364
                    3D
 Schrodinger Suite 2021-1.
 40 42  0  0  1  0            999 V2000
    5.5099   27.5191   -1.7095 C   0  0  0  0  0  0
    5.3972   28.8820   -2.4101 C   0  0  0  0  0  0
    6.5288   29.7025   -2.1373 O   0  0  0  0  0  0
    7.6905   29.5605   -2.8147 C   0  0  0  0  0  0
    7.9072   28.7496   -3.7158 O   0  0  0  0  0  0
    8.7916   30.5157   -2.3284 C   0  0  0  0  0  0
    8.4417   31.9314   -2.6169 N   0  0  0  0  0  0
    7.7530   32.6912   -1.6200 C   0  0  0  0  0  0
    7.3256   32.1783   -0.3967 C   0  0  0  0  0  0
    6.6380   32.9885    0.5086 C   0  0  0  0  0  0
    6.3777   34.3450    0.2346 C   0  0  0  0  0  0
    6.7818   34.8476   -1.0006 C   0  0  0  0  0  0
    7.4577   34.0316   -1.9004 C   0  0  0  0  0  0
    7.8568   34.5479   -3.1129 N   0  0  0  0  0  0
    8.5390   33.9006   -4.0663 C   0  0  0  0  0  0
    8.8791   34.4470   -5.1022 O   0  0  0  0  0  0
    8.8791   32.4490   -3.8143 C   0  0  0  0  0  0
    9.4953   31.8466   -4.7021 O   0  0  0  0  0  0
    5.7104   35.2532    1.1908 N   0  3  0  0  0  0
    6.0790   35.2275    2.3582 O   0  5  0  0  0  0
    4.8789   36.0445    0.7563 O   0  0  0  0  0  0
    6.1935   32.3519    1.6586 N   0  0  0  0  0  0
    6.8126   32.3663    2.8794 C   0  0  0  0  0  0
    6.1757   31.4622    3.6980 C   0  0  0  0  0  0
    5.1084   30.9106    2.9759 C   0  0  0  0  0  0
    5.1592   31.4515    1.7134 C   0  0  0  0  0  0
    7.6105   35.5061   -3.3403 H   0  0  0  0  0  0
    4.6119   26.9240   -1.8745 H   0  0  0  0  0  0
    5.6343   27.6402   -0.6322 H   0  0  0  0  0  0
    6.3603   26.9469   -2.0835 H   0  0  0  0  0  0
    5.2562   28.7568   -3.4861 H   0  0  0  0  0  0
    4.5125   29.4022   -2.0401 H   0  0  0  0  0  0
    9.0317   30.3494   -1.2794 H   0  0  0  0  0  0
    9.7066   30.2357   -2.8532 H   0  0  0  0  0  0
    7.4985   31.1459   -0.1322 H   0  0  0  0  0  0
    6.5731   35.8778   -1.2536 H   0  0  0  0  0  0
    7.6778   32.9926    3.0413 H   0  0  0  0  0  0
    6.4793   31.2470    4.7111 H   0  0  0  0  0  0
    4.3854   30.1774    3.2981 H   0  0  0  0  0  0
    4.5466   31.2664    0.8427 H   0  0  0  0  0  0
  1  2  1  0  0  0
  1 28  1  0  0  0
  1 29  1  0  0  0
  1 30  1  0  0  0
  2  3  1  0  0  0
  2 31  1  0  0  0
  2 32  1  0  0  0
  3  4  1  0  0  0
  4  5  2  0  0  0
  4  6  1  0  0  0
  6  7  1  0  0  0
  6 33  1  0  0  0
  6 34  1  0  0  0
  7 17  1  0  0  0
  7  8  1  0  0  0
  8 13  2  0  0  0
  8  9  1  0  0  0
  9 10  2  0  0  0
  9 35  1  0  0  0
 10 11  1  0  0  0
 10 22  1  0  0  0
 11 12  2  0  0  0
 11 19  1  0  0  0
 12 13  1  0  0  0
 12 36  1  0  0  0
 13 14  1  0  0  0
 14 27  1  0  0  0
 14 15  1  0  0  0
 15 16  2  0  0  0
 15 17  1  0  0  0
 17 18  2  0  0  0
 19 20  1  0  0  0
 19 21  2  0  0  0
 22 26  1  0  0  0
 22 23  1  0  0  0
 23 24  2  0  0  0
 23 37  1  0  0  0
 24 25  1  0  0  0
 24 38  1  0  0  0
 25 26  2  0  0  0
 25 39  1  0  0  0
 26 40  1  0  0  0
M  CHG  2  19   1  20  -1
M  END
> <s_m_entry_id>
3900

> <s_m_entry_name>
ligand_docking-pose.48

> <s_m_Source_Path>
/home/csk/Desktop/cluster/DUD-E-result/gria2

> <s_m_Source_File>
ligand_docking-pose.sdf

> <i_m_Source_File_Index>
48

> <i_lp_mmshare_version>
53161

> <r_lp_tautomer_probability>
1

> <s_lp_Force_Field>
OPLS_2005

> <r_lp_Energy>
32.753427

> <b_lp_Chiralities_Consistent>
1

> <s_lp_Variant>
159364-1

> <s_i_glide_gridfile>
glide-grid_3kgc

> <i_i_glide_lignum>
574

> <i_i_glide_rotatable_bonds>
6

> <r_i_docking_score>
-7.12518280802102

> <r_i_glide_ligand_efficiency>
-0.274045492616193

> <r_i_glide_ligand_efficiency_sa>
-0.811858693558528

> <r_i_glide_ligand_efficiency_ln>
-1.67332580283201

> <r_i_glide_gscore>
-7.12518280802102

> <r_i_glide_lipo>
-0.905913140681298

> <r_i_glide_hbond>
-0.868839107860462

> <r_i_glide_metal>
0

> <r_i_glide_rewards>
-2.38480530943611

> <r_i_glide_evdw>
-35.8855400085449

> <r_i_glide_ecoul>
-10.2131128311157

> <r_i_glide_erotb>
0.41774902249732

> <r_i_glide_esite>
-0.0571303474458609

> <r_i_glide_emodel>
-66.6693250219829

> <r_i_glide_energy>
-46.0986528396606

> <r_i_glide_einternal>
4.84140157699585

> <i_i_glide_confnum>
1

> <i_i_glide_posenum>
89

> <r_i_glide_eff_state_penalty>
0

> <s_user_duplicate_titles>
159364

> <i_f3d_flags>
0

> <s_m_subgroup_title>
dock_pv

> <s_m_subgroupid>
dock_pv1

> <b_m_subgroup_collapsed>
0

$$$$
11306
                    3D
 Schrodinger Suite 2021-1.
 54 57  0  0  1  0            999 V2000
    5.2638   27.7041   -1.3662 C   0  0  0  0  0  0
    5.7314   27.5880   -2.6738 C   0  0  0  0  0  0
    5.0153   28.1643   -3.7218 C   0  0  0  0  0  0
    3.8258   28.8469   -3.4728 C   0  0  0  0  0  0
    3.3625   28.9754   -2.1656 C   0  0  0  0  0  0
    4.0748   28.4028   -1.1087 C   0  0  0  0  0  0
    3.5802   28.6385    0.1846 N   0  0  0  0  0  0
    3.8291   27.9589    1.3249 C   0  0  0  0  0  0
    4.3411   26.8436    1.3813 O   0  0  0  0  0  0
    3.4613   28.5914    2.4546 N   0  0  0  0  0  0
    3.1388   30.0122    2.6366 C   0  0  0  0  0  0
    4.3674   30.8807    2.4673 C   0  0  0  0  0  0
    5.2225   31.4022    3.4411 C   0  0  0  0  0  0
    6.1952   32.1889    2.8424 C   0  0  0  0  0  0
    5.9530   32.1912    1.4950 N   0  0  0  0  0  0
    4.8791   31.3690    1.2833 C   0  0  0  0  0  0
    6.6303   32.8662    0.4748 C   0  0  0  0  0  0
    7.3121   32.0694   -0.4503 C   0  0  0  0  0  0
    7.8262   32.6298   -1.6216 C   0  0  0  0  0  0
    7.6625   34.0075   -1.8173 C   0  0  0  0  0  0
    7.0245   34.8146   -0.8873 C   0  0  0  0  0  0
    6.4988   34.2583    0.2780 C   0  0  0  0  0  0
    5.7270   35.1634    1.2391 C   0  0  0  0  0  0
    5.6740   36.4344    0.8410 F   0  0  0  0  0  0
    4.4790   34.7310    1.3059 F   0  0  0  0  0  0
    6.2824   35.1348    2.4487 F   0  0  0  0  0  0
    8.0793   34.5605   -3.0108 N   0  0  0  0  0  0
    8.6173   33.8958   -4.0435 C   0  0  0  0  0  0
    8.8794   34.4471   -5.1018 O   0  0  0  0  0  0
    8.8787   32.4147   -3.8545 C   0  0  0  0  0  0
    9.4315   31.8080   -4.7784 O   0  0  0  0  0  0
    8.4790   31.8838   -2.6519 N   0  0  0  0  0  0
    8.7727   30.4409   -2.4228 C   0  0  0  0  0  0
    9.9926   30.2274   -1.4985 C   0  0  0  0  0  0
   10.1558   29.2121   -0.8618 O   0  0  0  0  0  0
   10.8496   31.2859   -1.5022 O   0  0  0  0  0  0
    5.6833   28.0467   -5.5024 Br  0  0  0  0  0  0
    7.8833   35.5384   -3.1909 H   0  0  0  0  0  0
    5.8434   27.2725   -0.5637 H   0  0  0  0  0  0
    6.6531   27.0610   -2.8715 H   0  0  0  0  0  0
    3.2696   29.2906   -4.2863 H   0  0  0  0  0  0
    2.4514   29.5279   -1.9814 H   0  0  0  0  0  0
    2.9714   29.4387    0.2711 H   0  0  0  0  0  0
    3.4999   28.0455    3.2973 H   0  0  0  0  0  0
    2.7100   30.1485    3.6298 H   0  0  0  0  0  0
    2.3462   30.3085    1.9459 H   0  0  0  0  0  0
    5.1077   31.2475    4.4987 H   0  0  0  0  0  0
    7.0188   32.7594    3.2483 H   0  0  0  0  0  0
    4.5083   31.2470    0.2763 H   0  0  0  0  0  0
    7.3844   31.0083   -0.2623 H   0  0  0  0  0  0
    6.8934   35.8669   -1.1029 H   0  0  0  0  0  0
    8.9508   29.9015   -3.3535 H   0  0  0  0  0  0
    7.9028   29.9438   -1.9959 H   0  0  0  0  0  0
   11.4730   31.2477   -0.7670 H   0  0  0  0  0  0
  1  6  1  0  0  0
  1  2  2  0  0  0
  1 39  1  0  0  0
  2  3  1  0  0  0
  2 40  1  0  0  0
  3  4  2  0  0  0
  3 37  1  0  0  0
  4  5  1  0  0  0
  4 41  1  0  0  0
  5  6  2  0  0  0
  5 42  1  0  0  0
  6  7  1  0  0  0
  7  8  1  0  0  0
  7 43  1  0  0  0
  8  9  2  0  0  0
  8 10  1  0  0  0
 10 11  1  0  0  0
 10 44  1  0  0  0
 11 12  1  0  0  0
 11 45  1  0  0  0
 11 46  1  0  0  0
 12 16  2  0  0  0
 12 13  1  0  0  0
 13 14  2  0  0  0
 13 47  1  0  0  0
 14 15  1  0  0  0
 14 48  1  0  0  0
 15 16  1  0  0  0
 15 17  1  0  0  0
 16 49  1  0  0  0
 17 22  1  0  0  0
 17 18  2  0  0  0
 18 19  1  0  0  0
 18 50  1  0  0  0
 19 32  1  0  0  0
 19 20  2  0  0  0
 20 21  1  0  0  0
 20 27  1  0  0  0
 21 22  2  0  0  0
 21 51  1  0  0  0
 22 23  1  0  0  0
 23 24  1  0  0  0
 23 25  1  0  0  0
 23 26  1  0  0  0
 27 38  1  0  0  0
 27 28  1  0  0  0
 28 29  2  0  0  0
 28 30  1  0  0  0
 30 31  2  0  0  0
 30 32  1  0  0  0
 32 33  1  0  0  0
 33 34  1  0  0  0
 33 52  1  0  0  0
 33 53  1  0  0  0
 34 35  2  0  0  0
 34 36  1  0  0  0
 36 54  1  0  0  0
M  END
> <s_m_entry_id>
3901

> <s_m_entry_name>
ligand_docking-pose.49

> <s_m_Source_Path>
/home/csk/Desktop/cluster/DUD-E-result/gria2

> <s_m_Source_File>
ligand_docking-pose.sdf

> <i_m_Source_File_Index>
49

> <i_lp_mmshare_version>
53161

> <r_lp_tautomer_probability>
1

> <s_lp_Force_Field>
OPLS_2005

> <r_lp_Energy>
35.610043

> <b_lp_Chiralities_Consistent>
1

> <s_lp_Variant>
11306-1

> <s_i_glide_gridfile>
glide-grid_3kgc

> <i_i_glide_lignum>
197

> <i_i_glide_rotatable_bonds>
10

> <r_i_docking_score>
-7.12475526178697

> <r_i_glide_ligand_efficiency>
-0.192560953021269

> <r_i_glide_ligand_efficiency_sa>
-0.641655814658922

> <r_i_glide_ligand_efficiency_ln>
-1.54519238832017

> <r_i_glide_gscore>
-7.12475526178697

> <r_i_glide_lipo>
-1.23560659078251

> <r_i_glide_hbond>
-0.875556603141649

> <r_i_glide_metal>
0

> <r_i_glide_rewards>
-0.840175881278753

> <r_i_glide_evdw>
-47.955451965332

> <r_i_glide_ecoul>
-12.4237804412842

> <r_i_glide_erotb>
0.234309387824249

> <r_i_glide_esite>
-0.146385909949071

> <r_i_glide_emodel>
-77.0832056706661

> <r_i_glide_energy>
-60.3792324066162

> <r_i_glide_einternal>
10.1621284484863

> <i_i_glide_confnum>
13

> <i_i_glide_posenum>
96

> <r_i_glide_eff_state_penalty>
0

> <s_user_duplicate_titles>
11306

> <i_f3d_flags>
0

> <s_m_subgroup_title>
dock_pv

> <s_m_subgroupid>
dock_pv1

> <b_m_subgroup_collapsed>
0

$$$$
469285
                    3D
 Schrodinger Suite 2021-1.
 26 27  0  0  1  0            999 V2000
    6.1361   35.2384   -0.8529 C   0  0  0  0  0  0
    5.5864   36.0130    0.1589 C   0  0  0  0  0  0
    5.6790   35.2376    1.6980 S   0  0  0  0  0  0
    6.3750   33.8238    0.9876 C   0  0  0  0  0  0
    6.5837   33.9910   -0.3799 C   0  0  0  0  0  0
    7.1811   32.9552   -1.1054 N   0  0  0  0  0  0
    7.5660   31.7832   -0.4952 C   0  0  0  0  0  0
    8.1207   30.8390   -1.0556 O   0  0  0  0  0  0
    7.2835   31.7216    0.8425 N   0  0  0  0  0  0
    6.6886   32.6021    1.6980 C   0  0  0  0  0  0
    6.4798   32.3161    2.8758 O   0  0  0  0  0  0
    7.3995   33.1146   -2.5554 C   0  0  0  0  0  0
    8.7159   33.8413   -2.9164 C   0  0  1  0  0  0
    9.8149   32.8546   -3.3979 C   0  0  0  0  0  0
   10.0790   32.6584   -4.5885 O   0  0  0  0  0  0
   10.4645   32.2649   -2.3490 O   0  0  0  0  0  0
    8.4790   34.8470   -3.9730 N   0  0  0  0  0  0
    7.5762   30.8649    1.2848 H   0  0  0  0  0  0
    9.0687   34.3865   -2.0388 H   0  0  0  0  0  0
    6.1901   35.5651   -1.8812 H   0  0  0  0  0  0
    5.1601   37.0030    0.0980 H   0  0  0  0  0  0
    6.5512   33.6581   -2.9692 H   0  0  0  0  0  0
    7.3431   32.1490   -3.0630 H   0  0  0  0  0  0
   10.1014   32.4470   -1.4761 H   0  0  0  0  0  0
    7.6233   35.3745   -3.8122 H   0  0  0  0  0  0
    9.2231   35.5352   -3.9020 H   0  0  0  0  0  0
  1  5  1  0  0  0
  1  2  2  0  0  0
  1 20  1  0  0  0
  2  3  1  0  0  0
  2 21  1  0  0  0
  3  4  1  0  0  0
  4 10  1  0  0  0
  4  5  2  0  0  0
  5  6  1  0  0  0
  6  7  1  0  0  0
  6 12  1  0  0  0
  7  8  2  0  0  0
  7  9  1  0  0  0
  9 18  1  0  0  0
  9 10  1  0  0  0
 10 11  2  0  0  0
 12 13  1  0  0  0
 12 22  1  0  0  0
 12 23  1  0  0  0
 13 19  1  0  0  0
 13 14  1  0  0  0
 13 17  1  0  0  0
 14 15  2  0  0  0
 14 16  1  0  0  0
 16 24  1  0  0  0
 17 25  1  0  0  0
 17 26  1  0  0  0
M  END
> <s_m_entry_id>
3902

> <s_m_entry_name>
ligand_docking-pose.50

> <s_m_Source_Path>
/home/csk/Desktop/cluster/DUD-E-result/gria2

> <s_m_Source_File>
ligand_docking-pose.sdf

> <i_m_Source_File_Index>
50

> <i_lp_mmshare_version>
53161

> <r_lp_tautomer_probability>
1

> <s_lp_Force_Field>
OPLS_2005

> <r_lp_Energy>
18.608263

> <b_lp_Chiralities_Consistent>
1

> <s_lp_Variant>
469285-1

> <s_i_glide_gridfile>
glide-grid_3kgc

> <i_i_glide_lignum>
314

> <i_i_glide_rotatable_bonds>
4

> <r_i_docking_score>
-7.10980191275838

> <r_i_glide_ligand_efficiency>
-0.418223641926964

> <r_i_glide_ligand_efficiency_sa>
-1.07537075024926

> <r_i_glide_ligand_efficiency_ln>
-1.85478899153444

> <r_i_glide_gscore>
-7.10980191275838

> <r_i_glide_lipo>
-1.51455598505141

> <r_i_glide_hbond>
-0.725977310617658

> <r_i_glide_metal>
0

> <r_i_glide_rewards>
-2.03137174590169

> <r_i_glide_evdw>
-27.7018203735352

> <r_i_glide_ecoul>
-12.8221244812012

> <r_i_glide_erotb>
0.540370925277478

> <r_i_glide_esite>
-0.0698581056081692

> <r_i_glide_emodel>
-59.7995941095339

> <r_i_glide_energy>
-40.5239448547363

> <r_i_glide_einternal>
2.87019848823547

> <i_i_glide_confnum>
6

> <i_i_glide_posenum>
77

> <r_i_glide_eff_state_penalty>
0

> <s_user_duplicate_titles>
469285

> <i_f3d_flags>
0

> <s_m_subgroup_title>
dock_pv

> <s_m_subgroupid>
dock_pv1

> <b_m_subgroup_collapsed>
0

$$$$
182003
                    3D
 Schrodinger Suite 2021-1.
 23 23  0  0  1  0            999 V2000
    8.7293   31.4242   -2.3393 C   0  0  0  0  0  0
    7.9484   32.7125   -2.1066 C   0  0  0  0  0  0
    7.1017   33.0927   -1.1361 C   0  0  0  0  0  0
    6.7015   34.3483   -1.3039 O   0  0  0  0  0  0
    7.4969   34.8469   -2.3022 N   0  0  0  0  0  0
    8.0218   33.8424   -3.0065 C   0  0  0  0  0  0
    8.4785   33.9069   -4.1492 O   0  0  0  0  0  0
    6.5483   32.4188    0.1051 C   0  0  0  0  0  0
    6.8786   33.4695    1.7683 Br  0  0  0  0  0  0
   10.1445   31.5445   -1.7289 C   0  0  2  0  0  0
   11.0493   32.6045   -2.4090 C   0  0  0  0  0  0
   11.2852   32.6154   -3.6174 O   0  0  0  0  0  0
   11.5463   33.4996   -1.5020 O   0  0  0  0  0  0
   10.8790   30.2673   -1.6907 N   0  0  0  0  0  0
    8.7711   31.1842   -3.4036 H   0  0  0  0  0  0
    8.1908   30.6048   -1.8622 H   0  0  0  0  0  0
    7.1063   35.7440   -2.5821 H   0  0  0  0  0  0
    5.4692   32.2882    0.0071 H   0  0  0  0  0  0
    6.9973   31.4355    0.2390 H   0  0  0  0  0  0
    9.9857   31.8629   -0.7020 H   0  0  0  0  0  0
   11.3368   33.2465   -0.5760 H   0  0  0  0  0  0
   11.7787   30.4473   -1.2494 H   0  0  0  0  0  0
   10.3988   29.6195   -1.0814 H   0  0  0  0  0  0
  1 10  1  0  0  0
  1 15  1  0  0  0
  1 16  1  0  0  0
  1  2  1  0  0  0
  2  6  1  0  0  0
  2  3  2  0  0  0
  3  4  1  0  0  0
  3  8  1  0  0  0
  4  5  1  0  0  0
  5  6  1  0  0  0
  5 17  1  0  0  0
  6  7  2  0  0  0
  8  9  1  0  0  0
  8 18  1  0  0  0
  8 19  1  0  0  0
 10 11  1  0  0  0
 10 14  1  0  0  0
 10 20  1  0  0  0
 11 12  2  0  0  0
 11 13  1  0  0  0
 13 21  1  0  0  0
 14 22  1  0  0  0
 14 23  1  0  0  0
M  END
> <s_m_entry_id>
3903

> <s_m_entry_name>
ligand_docking-pose.51

> <s_m_Source_Path>
/home/csk/Desktop/cluster/DUD-E-result/gria2

> <s_m_Source_File>
ligand_docking-pose.sdf

> <i_m_Source_File_Index>
51

> <i_lp_mmshare_version>
53161

> <r_lp_tautomer_probability>
0.0320612824512981

> <s_lp_Force_Field>
OPLS_2005

> <r_lp_Energy>
9.665156

> <b_lp_Chiralities_Consistent>
1

> <s_lp_Variant>
182003-3

> <s_i_glide_gridfile>
glide-grid_3kgc

> <i_i_glide_lignum>
387

> <i_i_glide_rotatable_bonds>
5

> <r_i_docking_score>
-7.00819404146974

> <r_i_glide_ligand_efficiency>
-0.50058528867641

> <r_i_glide_ligand_efficiency_sa>
-1.20648176000205

> <r_i_glide_ligand_efficiency_ln>
-1.92582677509252

> <r_i_glide_gscore>
-7.00819404146974

> <r_i_glide_lipo>
-0.595744568728282

> <r_i_glide_hbond>
-0.776071529074893

> <r_i_glide_metal>
0

> <r_i_glide_rewards>
-2.44413759794419

> <r_i_glide_evdw>
-19.2177562713623

> <r_i_glide_ecoul>
-19.2014141082764

> <r_i_glide_erotb>
0.759582673606993

> <r_i_glide_esite>
-0.110723089519804

> <r_i_glide_emodel>
-56.1740199229164

> <r_i_glide_energy>
-38.4191703796387

> <r_i_glide_einternal>
3.34595894813538

> <i_i_glide_confnum>
5

> <i_i_glide_posenum>
269

> <r_i_glide_eff_state_penalty>
0

> <s_user_duplicate_titles>
182003

> <i_f3d_flags>
0

> <s_m_subgroup_title>
dock_pv

> <s_m_subgroupid>
dock_pv1

> <b_m_subgroup_collapsed>
0

$$$$
161145
                    3D
 Schrodinger Suite 2021-1.
 43 45  0  0  1  0            999 V2000
    7.0115   25.3921   -1.0815 C   0  0  0  0  0  0
    7.4532   25.8755   -2.4715 C   0  0  0  0  0  0
    7.2968   27.2834   -2.6320 O   0  0  0  0  0  0
    8.2159   28.1568   -2.1681 C   0  0  0  0  0  0
    9.2477   27.8705   -1.5580 O   0  0  0  0  0  0
    7.8534   29.6012   -2.5189 C   0  0  0  0  0  0
    8.9771   30.6184   -2.2193 C   0  0  0  0  0  0
    8.6016   32.0119   -2.5295 N   0  0  0  0  0  0
    7.8657   32.7561   -1.5608 C   0  0  0  0  0  0
    7.3937   32.2266   -0.3612 C   0  0  0  0  0  0
    6.6766   33.0283    0.5286 C   0  0  0  0  0  0
    6.4271   34.3867    0.2573 C   0  0  0  0  0  0
    6.8744   34.9030   -0.9574 C   0  0  0  0  0  0
    7.5903   34.1015   -1.8376 C   0  0  0  0  0  0
    8.0039   34.6194   -3.0478 N   0  0  0  0  0  0
    8.5983   33.9333   -4.0351 C   0  0  0  0  0  0
    8.8789   34.4486   -5.1030 O   0  0  0  0  0  0
    8.9259   32.4783   -3.7785 C   0  0  0  0  0  0
    9.4503   31.8385   -4.6998 O   0  0  0  0  0  0
    5.7251   35.2847    1.1962 N   0  3  0  0  0  0
    4.8789   36.0470    0.7411 O   0  5  0  0  0  0
    6.0793   35.2819    2.3682 O   0  0  0  0  0  0
    6.2098   32.3886    1.6684 N   0  0  0  0  0  0
    6.8170   32.3962    2.8947 C   0  0  0  0  0  0
    6.1798   31.4804    3.6980 C   0  0  0  0  0  0
    5.1096   30.9439    2.9732 C   0  0  0  0  0  0
    5.1724   31.4901    1.7119 C   0  0  0  0  0  0
    7.7658   35.5780   -3.2783 H   0  0  0  0  0  0
    7.0269   24.3039   -1.0301 H   0  0  0  0  0  0
    6.0001   25.7231   -0.8474 H   0  0  0  0  0  0
    7.6787   25.7576   -0.3030 H   0  0  0  0  0  0
    8.4802   25.5708   -2.6815 H   0  0  0  0  0  0
    6.8322   25.3913   -3.2247 H   0  0  0  0  0  0
    7.5855   29.6539   -3.5738 H   0  0  0  0  0  0
    6.9498   29.8719   -1.9735 H   0  0  0  0  0  0
    9.2771   30.5540   -1.1715 H   0  0  0  0  0  0
    9.8854   30.3378   -2.7577 H   0  0  0  0  0  0
    7.5649   31.1919   -0.1028 H   0  0  0  0  0  0
    6.6657   35.9334   -1.2092 H   0  0  0  0  0  0
    7.6788   33.0223    3.0681 H   0  0  0  0  0  0
    6.4793   31.2475    4.7087 H   0  0  0  0  0  0
    4.3839   30.2134    3.2979 H   0  0  0  0  0  0
    4.5659   31.3105    0.8362 H   0  0  0  0  0  0
  1  2  1  0  0  0
  1 29  1  0  0  0
  1 30  1  0  0  0
  1 31  1  0  0  0
  2  3  1  0  0  0
  2 32  1  0  0  0
  2 33  1  0  0  0
  3  4  1  0  0  0
  4  5  2  0  0  0
  4  6  1  0  0  0
  6  7  1  0  0  0
  6 34  1  0  0  0
  6 35  1  0  0  0
  7  8  1  0  0  0
  7 36  1  0  0  0
  7 37  1  0  0  0
  8 18  1  0  0  0
  8  9  1  0  0  0
  9 14  2  0  0  0
  9 10  1  0  0  0
 10 11  2  0  0  0
 10 38  1  0  0  0
 11 12  1  0  0  0
 11 23  1  0  0  0
 12 13  2  0  0  0
 12 20  1  0  0  0
 13 14  1  0  0  0
 13 39  1  0  0  0
 14 15  1  0  0  0
 15 28  1  0  0  0
 15 16  1  0  0  0
 16 17  2  0  0  0
 16 18  1  0  0  0
 18 19  2  0  0  0
 20 21  1  0  0  0
 20 22  2  0  0  0
 23 27  1  0  0  0
 23 24  1  0  0  0
 24 25  2  0  0  0
 24 40  1  0  0  0
 25 26  1  0  0  0
 25 41  1  0  0  0
 26 27  2  0  0  0
 26 42  1  0  0  0
 27 43  1  0  0  0
M  CHG  2  20   1  21  -1
M  END
> <s_m_entry_id>
3904

> <s_m_entry_name>
ligand_docking-pose.52

> <s_m_Source_Path>
/home/csk/Desktop/cluster/DUD-E-result/gria2

> <s_m_Source_File>
ligand_docking-pose.sdf

> <i_m_Source_File_Index>
52

> <i_lp_mmshare_version>
53161

> <r_lp_tautomer_probability>
1

> <s_lp_Force_Field>
OPLS_2005

> <r_lp_Energy>
33.064216

> <b_lp_Chiralities_Consistent>
1

> <s_lp_Variant>
161145-1

> <s_i_glide_gridfile>
glide-grid_3kgc

> <i_i_glide_lignum>
573

> <i_i_glide_rotatable_bonds>
7

> <r_i_docking_score>
-6.97366581143195

> <r_i_glide_ligand_efficiency>
-0.258283918941924

> <r_i_glide_ligand_efficiency_sa>
-0.774851755974511

> <r_i_glide_ligand_efficiency_ln>
-1.62335443103507

> <r_i_glide_gscore>
-6.97366581143195

> <r_i_glide_lipo>
-0.798096971994337

> <r_i_glide_hbond>
-0.867316025990614

> <r_i_glide_metal>
0

> <r_i_glide_rewards>
-2.35357453515238

> <r_i_glide_evdw>
-37.7458457946777

> <r_i_glide_ecoul>
-10.0552282333374

> <r_i_glide_erotb>
0.48759147510318

> <r_i_glide_esite>
-0.0466932286633063

> <r_i_glide_emodel>
-64.2167865466813

> <r_i_glide_energy>
-47.8010740280151

> <r_i_glide_einternal>
6.66513538360596

> <i_i_glide_confnum>
83

> <i_i_glide_posenum>
18

> <r_i_glide_eff_state_penalty>
0

> <s_user_duplicate_titles>
161145

> <i_f3d_flags>
0

> <s_m_subgroup_title>
dock_pv

> <s_m_subgroupid>
dock_pv1

> <b_m_subgroup_collapsed>
0

$$$$
11166
                    3D
 Schrodinger Suite 2021-1.
 51 54  0  0  1  0            999 V2000
   -0.4868   29.4939   -2.7016 C   0  0  0  0  0  0
   -0.3234   30.6121   -1.8870 C   0  0  0  0  0  0
   -0.1234   30.4458   -0.5210 C   0  0  0  0  0  0
   -0.0831   29.1621    0.0282 C   0  0  0  0  0  0
   -0.2304   28.0427   -0.7947 C   0  0  0  0  0  0
   -0.4333   28.2097   -2.1631 C   0  0  0  0  0  0
    0.1085   28.9905    1.5340 C   0  0  0  0  0  0
    1.4390   28.6177    1.8994 O   0  0  0  0  0  0
    2.3460   29.6316    1.5349 N   0  0  0  0  0  0
    3.2546   29.7187    2.4110 C   0  0  0  0  0  0
    4.3311   30.6892    2.2903 C   0  0  0  0  0  0
    5.0531   31.3264    3.3076 C   0  0  0  0  0  0
    6.0143   32.1544    2.7536 C   0  0  0  0  0  0
    5.8624   32.1261    1.3936 N   0  0  0  0  0  0
    4.8793   31.2046    1.1278 C   0  0  0  0  0  0
    6.5609   32.8457    0.4146 C   0  0  0  0  0  0
    7.2657   32.0892   -0.5280 C   0  0  0  0  0  0
    7.8026   32.6925   -1.6693 C   0  0  0  0  0  0
    7.6423   34.0792   -1.8172 C   0  0  0  0  0  0
    6.9804   34.8464   -0.8664 C   0  0  0  0  0  0
    6.4409   34.2449    0.2709 C   0  0  0  0  0  0
    5.7325   35.1033    1.2394 N   0  3  0  0  0  0
    6.0946   35.0707    2.4077 O   0  5  0  0  0  0
    4.8788   35.8708    0.8093 O   0  0  0  0  0  0
    8.0790   34.6793   -2.9875 N   0  0  0  0  0  0
    8.6159   34.0462   -4.0459 C   0  0  0  0  0  0
    8.8788   34.6080   -5.1020 O   0  0  0  0  0  0
    8.8706   32.5621   -3.9018 C   0  0  0  0  0  0
    9.4193   31.9826   -4.8457 O   0  0  0  0  0  0
    8.4561   31.9832   -2.7245 N   0  0  0  0  0  0
    8.6316   30.5065   -2.6251 C   0  0  0  0  0  0
   10.0536   30.1103   -2.1884 C   0  0  0  0  0  0
   10.6866   29.2470   -2.7540 O   0  0  0  0  0  0
   10.4886   30.8037   -1.1021 O   0  0  0  0  0  0
    7.8796   35.6639   -3.1366 H   0  0  0  0  0  0
   -0.6478   29.6223   -3.7620 H   0  0  0  0  0  0
   -0.3587   31.6078   -2.3019 H   0  0  0  0  0  0
    0.0079   31.3147    0.1083 H   0  0  0  0  0  0
   -0.1916   27.0482   -0.3753 H   0  0  0  0  0  0
   -0.5495   27.3497   -2.8059 H   0  0  0  0  0  0
   -0.5712   28.2154    1.8885 H   0  0  0  0  0  0
   -0.1866   29.8966    2.0682 H   0  0  0  0  0  0
    3.3059   29.1007    3.2980 H   0  0  0  0  0  0
    4.8654   31.2468    4.3659 H   0  0  0  0  0  0
    6.7562   32.7969    3.2061 H   0  0  0  0  0  0
    4.5894   31.0223    0.1025 H   0  0  0  0  0  0
    7.3324   31.0247   -0.3672 H   0  0  0  0  0  0
    6.8537   35.9098   -1.0252 H   0  0  0  0  0  0
    8.4467   30.0481   -3.5982 H   0  0  0  0  0  0
    7.8939   30.0216   -1.9915 H   0  0  0  0  0  0
    9.9066   31.4773   -0.7418 H   0  0  0  0  0  0
  1  6  1  0  0  0
  1  2  2  0  0  0
  1 36  1  0  0  0
  2  3  1  0  0  0
  2 37  1  0  0  0
  3  4  2  0  0  0
  3 38  1  0  0  0
  4  5  1  0  0  0
  4  7  1  0  0  0
  5  6  2  0  0  0
  5 39  1  0  0  0
  6 40  1  0  0  0
  7  8  1  0  0  0
  7 41  1  0  0  0
  7 42  1  0  0  0
  8  9  1  0  0  0
  9 10  2  0  0  0
 10 11  1  0  0  0
 10 43  1  0  0  0
 11 15  2  0  0  0
 11 12  1  0  0  0
 12 13  2  0  0  0
 12 44  1  0  0  0
 13 14  1  0  0  0
 13 45  1  0  0  0
 14 15  1  0  0  0
 14 16  1  0  0  0
 15 46  1  0  0  0
 16 21  1  0  0  0
 16 17  2  0  0  0
 17 18  1  0  0  0
 17 47  1  0  0  0
 18 30  1  0  0  0
 18 19  2  0  0  0
 19 20  1  0  0  0
 19 25  1  0  0  0
 20 21  2  0  0  0
 20 48  1  0  0  0
 21 22  1  0  0  0
 22 23  1  0  0  0
 22 24  2  0  0  0
 25 35  1  0  0  0
 25 26  1  0  0  0
 26 27  2  0  0  0
 26 28  1  0  0  0
 28 29  2  0  0  0
 28 30  1  0  0  0
 30 31  1  0  0  0
 31 32  1  0  0  0
 31 49  1  0  0  0
 31 50  1  0  0  0
 32 33  2  0  0  0
 32 34  1  0  0  0
 34 51  1  0  0  0
M  CHG  2  22   1  23  -1
M  END
> <s_m_entry_id>
3905

> <s_m_entry_name>
ligand_docking-pose.53

> <s_m_Source_Path>
/home/csk/Desktop/cluster/DUD-E-result/gria2

> <s_m_Source_File>
ligand_docking-pose.sdf

> <i_m_Source_File_Index>
53

> <i_lp_mmshare_version>
53161

> <r_lp_tautomer_probability>
1

> <s_lp_Force_Field>
OPLS_2005

> <r_lp_Energy>
42.179144

> <b_lp_Chiralities_Consistent>
1

> <s_lp_Variant>
11166-1

> <s_i_glide_gridfile>
glide-grid_3kgc

> <i_i_glide_lignum>
170

> <i_i_glide_rotatable_bonds>
9

> <r_i_docking_score>
-6.97302418928034

> <r_i_glide_ligand_efficiency>
-0.20508894674354

> <r_i_glide_ligand_efficiency_sa>
-0.664408571400958

> <r_i_glide_ligand_efficiency_ln>
-1.54053663011557

> <r_i_glide_gscore>
-6.97302418928034

> <r_i_glide_lipo>
-1.02208730546653

> <r_i_glide_hbond>
-1.06642650515798

> <r_i_glide_metal>
0

> <r_i_glide_rewards>
-1.10700502324406

> <r_i_glide_evdw>
-44.9280738830566

> <r_i_glide_ecoul>
-11.2033967971802

> <r_i_glide_erotb>
0.394133227061815

> <r_i_glide_esite>
-0.244725368743735

> <r_i_glide_emodel>
-72.9893372045738

> <r_i_glide_energy>
-56.1314706802368

> <r_i_glide_einternal>
8.95017528533936

> <i_i_glide_confnum>
17

> <i_i_glide_posenum>
17

> <r_i_glide_eff_state_penalty>
0

> <s_user_duplicate_titles>
11166

> <i_f3d_flags>
0

> <s_m_subgroup_title>
dock_pv

> <s_m_subgroupid>
dock_pv1

> <b_m_subgroup_collapsed>
0

$$$$
469283
                    3D
 Schrodinger Suite 2021-1.
 28 29  0  0  1  0            999 V2000
    6.3432   33.1631    0.9955 C   0  0  0  0  0  0
    6.9386   33.4588   -0.3692 C   0  0  0  0  0  0
    7.6788   32.4635   -0.9298 C   0  0  0  0  0  0
    8.2477   32.5988   -2.1908 N   0  0  0  0  0  0
    8.0796   33.7473   -2.9394 C   0  0  0  0  0  0
    8.4879   33.9307   -4.0890 O   0  0  0  0  0  0
    7.3731   34.7240   -2.3018 N   0  0  0  0  0  0
    6.7507   34.7026   -1.0964 C   0  0  0  0  0  0
    6.0796   35.6472   -0.6920 O   0  0  0  0  0  0
    8.8889   31.4340   -2.8440 C   0  0  0  0  0  0
   10.4339   31.2996   -2.7586 C   0  0  1  0  0  0
   11.2399   32.5993   -3.0241 C   0  0  0  0  0  0
   11.5417   32.9316   -4.1686 O   0  0  0  0  0  0
   11.5437   33.3216   -1.9018 O   0  0  0  0  0  0
   10.8757   30.6680   -1.5008 N   0  0  0  0  0  0
    7.7843   31.2162   -0.0558 C   0  0  0  0  0  0
    6.8387   31.5004    1.4447 S   0  0  0  0  0  0
    7.2237   35.5712   -2.8369 H   0  0  0  0  0  0
   10.7278   30.6454   -3.5813 H   0  0  0  0  0  0
    6.7120   33.8605    1.7484 H   0  0  0  0  0  0
    5.2533   33.2135    0.9692 H   0  0  0  0  0  0
    8.6149   31.4275   -3.9007 H   0  0  0  0  0  0
    8.4375   30.5177   -2.4655 H   0  0  0  0  0  0
   11.2755   32.9201   -1.0586 H   0  0  0  0  0  0
   11.8709   30.8060   -1.3240 H   0  0  0  0  0  0
   10.3988   31.0130   -0.6745 H   0  0  0  0  0  0
    7.3770   30.3332   -0.5477 H   0  0  0  0  0  0
    8.8128   31.0209    0.2438 H   0  0  0  0  0  0
  1 17  1  0  0  0
  1  2  1  0  0  0
  1 20  1  0  0  0
  1 21  1  0  0  0
  2  8  1  0  0  0
  2  3  2  0  0  0
  3  4  1  0  0  0
  3 16  1  0  0  0
  4  5  1  0  0  0
  4 10  1  0  0  0
  5  6  2  0  0  0
  5  7  1  0  0  0
  7 18  1  0  0  0
  7  8  1  0  0  0
  8  9  2  0  0  0
 10 11  1  0  0  0
 10 22  1  0  0  0
 10 23  1  0  0  0
 11 19  1  0  0  0
 11 12  1  0  0  0
 11 15  1  0  0  0
 12 13  2  0  0  0
 12 14  1  0  0  0
 14 24  1  0  0  0
 15 25  1  0  0  0
 15 26  1  0  0  0
 16 17  1  0  0  0
 16 27  1  0  0  0
 16 28  1  0  0  0
M  END
> <s_m_entry_id>
3906

> <s_m_entry_name>
ligand_docking-pose.54

> <s_m_Source_Path>
/home/csk/Desktop/cluster/DUD-E-result/gria2

> <s_m_Source_File>
ligand_docking-pose.sdf

> <i_m_Source_File_Index>
54

> <i_lp_mmshare_version>
53161

> <r_lp_tautomer_probability>
0.999537046341301

> <s_lp_Force_Field>
OPLS_2005

> <r_lp_Energy>
12.24705

> <b_lp_Chiralities_Consistent>
1

> <s_lp_Variant>
469283-1

> <s_i_glide_gridfile>
glide-grid_3kgc

> <i_i_glide_lignum>
16

> <i_i_glide_rotatable_bonds>
4

> <r_i_docking_score>
-6.90547934773773

> <r_i_glide_ligand_efficiency>
-0.406204667513984

> <r_i_glide_ligand_efficiency_sa>
-1.04446658263176

> <r_i_glide_ligand_efficiency_ln>
-1.80148578436037

> <r_i_glide_gscore>
-6.90547934773773

> <r_i_glide_lipo>
-0.601402205817092

> <r_i_glide_hbond>
-0.64

> <r_i_glide_metal>
0

> <r_i_glide_rewards>
-2.65202309067977

> <r_i_glide_evdw>
-27.4103755950928

> <r_i_glide_ecoul>
-13.9142761230469

> <r_i_glide_erotb>
0.533111569187189

> <r_i_glide_esite>
-0.0875054222163863

> <r_i_glide_emodel>
-59.9461704696501

> <r_i_glide_energy>
-41.3246517181396

> <r_i_glide_einternal>
4.46104955673218

> <i_i_glide_confnum>
6

> <i_i_glide_posenum>
176

> <r_i_glide_eff_state_penalty>
0

> <s_user_duplicate_titles>
469283

> <i_f3d_flags>
0

> <s_m_subgroup_title>
dock_pv

> <s_m_subgroupid>
dock_pv1

> <b_m_subgroup_collapsed>
0

$$$$
22677
                    3D
 Schrodinger Suite 2021-1.
 30 33  0  0  1  0            999 V2000
    9.9699   27.3645   -4.7020 C   0  0  0  0  0  0
   10.3847   28.3092   -5.6319 C   0  0  0  0  0  0
   10.1068   29.6617   -5.4537 C   0  0  0  0  0  0
    9.3909   30.0792   -4.3159 C   0  0  0  0  0  0
    8.9871   29.1043   -3.3459 C   0  0  0  0  0  0
    9.2783   27.7432   -3.5538 C   0  0  0  0  0  0
    8.3247   29.8711   -2.3307 C   0  0  0  0  0  0
    8.3116   31.2456   -2.6668 C   0  0  0  0  0  0
    7.8045   32.4244   -2.0806 N   0  0  0  0  0  0
    7.1700   32.6132   -0.8629 C   0  0  0  0  0  0
    6.7856   33.9569   -0.8182 C   0  0  0  0  0  0
    7.2585   34.5587   -1.9751 N   0  0  0  0  0  0
    7.8814   33.6440   -2.7675 C   0  0  0  0  0  0
    8.4972   33.6552   -4.0352 C   0  0  0  0  0  0
    9.0506   32.5259   -4.5704 N   0  0  0  0  0  0
    8.9467   31.3557   -3.9203 C   0  0  0  0  0  0
    8.4790   34.8470   -4.7020 O   0  0  0  0  0  0
    6.0794   34.6460    0.2262 C   0  0  0  0  0  0
    6.2004   34.3699    1.4170 O   0  0  0  0  0  0
    5.2786   35.6325   -0.2668 O   0  0  0  0  0  0
    7.7398   29.3911   -1.1805 N   0  0  0  0  0  0
    7.5893   28.1899   -1.1020 O   0  0  0  0  0  0
    7.1369   35.5386   -2.2063 H   0  0  0  0  0  0
   10.1962   26.3209   -4.8666 H   0  0  0  0  0  0
   10.9303   27.9873   -6.5074 H   0  0  0  0  0  0
   10.4448   30.3767   -6.1873 H   0  0  0  0  0  0
    8.9751   26.9942   -2.8361 H   0  0  0  0  0  0
    7.0137   31.8061   -0.1586 H   0  0  0  0  0  0
    7.9402   35.5145   -4.2623 H   0  0  0  0  0  0
    5.1162   35.5046   -1.2033 H   0  0  0  0  0  0
  1  6  1  0  0  0
  1  2  2  0  0  0
  1 24  1  0  0  0
  2  3  1  0  0  0
  2 25  1  0  0  0
  3  4  2  0  0  0
  3 26  1  0  0  0
  4 16  1  0  0  0
  4  5  1  0  0  0
  5  6  2  0  0  0
  5  7  1  0  0  0
  6 27  1  0  0  0
  7  8  2  0  0  0
  7 21  1  0  0  0
  8 16  1  0  0  0
  8  9  1  0  0  0
  9 13  1  0  0  0
  9 10  1  0  0  0
 10 11  2  0  0  0
 10 28  1  0  0  0
 11 12  1  0  0  0
 11 18  1  0  0  0
 12 23  1  0  0  0
 12 13  1  0  0  0
 13 14  2  0  0  0
 14 15  1  0  0  0
 14 17  1  0  0  0
 15 16  2  0  0  0
 17 29  1  0  0  0
 18 19  2  0  0  0
 18 20  1  0  0  0
 20 30  1  0  0  0
 21 22  2  0  0  0
M  END
> <s_m_entry_id>
3907

> <s_m_entry_name>
ligand_docking-pose.55

> <s_m_Source_Path>
/home/csk/Desktop/cluster/DUD-E-result/gria2

> <s_m_Source_File>
ligand_docking-pose.sdf

> <i_m_Source_File_Index>
55

> <i_lp_mmshare_version>
53161

> <r_lp_tautomer_probability>
1

> <s_lp_Force_Field>
OPLS_2005

> <r_lp_Energy>
91.351945

> <b_lp_Chiralities_Consistent>
1

> <s_lp_Variant>
22677-1

> <s_i_glide_gridfile>
glide-grid_3kgc

> <i_i_glide_lignum>
69

> <i_i_glide_rotatable_bonds>
4

> <r_i_docking_score>
-6.89739497141734

> <r_i_glide_ligand_efficiency>
-0.313517953246243

> <r_i_glide_ligand_efficiency_sa>
-0.878489634957399

> <r_i_glide_ligand_efficiency_ln>
-1.68597491960889

> <r_i_glide_gscore>
-6.89739497141734

> <r_i_glide_lipo>
-0.368505570136043

> <r_i_glide_hbond>
-0.828883105862149

> <r_i_glide_metal>
0

> <r_i_glide_rewards>
-2.414413528339

> <r_i_glide_evdw>
-30.9497661590576

> <r_i_glide_ecoul>
-12.9788484573364

> <r_i_glide_erotb>
0.208722809473194

> <r_i_glide_esite>
0

> <r_i_glide_emodel>
-62.2853868952697

> <r_i_glide_energy>
-43.928614616394

> <r_i_glide_einternal>
1.63803219795227

> <i_i_glide_confnum>
2

> <i_i_glide_posenum>
345

> <r_i_glide_eff_state_penalty>
0

> <s_user_duplicate_titles>
22677

> <i_f3d_flags>
0

> <s_m_subgroup_title>
dock_pv

> <s_m_subgroupid>
dock_pv1

> <b_m_subgroup_collapsed>
0

$$$$
34045
                    3D
 Schrodinger Suite 2021-1.
 20 20  0  0  1  0            999 V2000
    6.6659   33.7032    1.7114 C   0  0  0  0  0  0
    6.6764   32.1558    1.7846 C   0  0  1  0  0  0
    6.5049   31.6472    3.2372 C   0  0  0  0  0  0
    5.4345   31.2471    3.6978 O   0  0  0  0  0  0
    7.6696   31.7261    3.9444 O   0  0  0  0  0  0
    5.6617   31.5180    0.9171 N   0  0  0  0  0  0
    6.7610   34.2397    0.3527 N   0  0  0  0  0  0
    6.0790   35.1939   -0.3016 C   0  0  0  0  0  0
    6.6804   35.2469   -1.5019 N   0  0  0  0  0  0
    7.7177   34.4146   -1.5935 C   0  0  0  0  0  0
    8.4847   34.2181   -2.5328 O   0  0  0  0  0  0
    7.8115   33.8099   -0.4135 O   0  0  0  0  0  0
    5.1487   35.8836    0.1052 O   0  0  0  0  0  0
    7.6530   31.8098    1.4403 H   0  0  0  0  0  0
    5.7550   34.0888    2.1765 H   0  0  0  0  0  0
    7.4925   34.1112    2.2963 H   0  0  0  0  0  0
    8.4360   32.0111    3.4209 H   0  0  0  0  0  0
    4.7480   31.9500    1.0225 H   0  0  0  0  0  0
    5.8960   31.6467   -0.0568 H   0  0  0  0  0  0
    6.4174   35.8828   -2.2442 H   0  0  0  0  0  0
  1  2  1  0  0  0
  1 15  1  0  0  0
  1 16  1  0  0  0
  1  7  1  0  0  0
  2 14  1  0  0  0
  2  3  1  0  0  0
  2  6  1  0  0  0
  3  4  2  0  0  0
  3  5  1  0  0  0
  5 17  1  0  0  0
  6 18  1  0  0  0
  6 19  1  0  0  0
  7  8  1  0  0  0
  7 12  1  0  0  0
  8 13  2  0  0  0
  8  9  1  0  0  0
  9 10  1  0  0  0
  9 20  1  0  0  0
 10 12  1  0  0  0
 10 11  2  0  0  0
M  END
> <s_m_entry_id>
3909

> <s_m_entry_name>
ligand_docking-pose.57

> <s_m_Source_Path>
/home/csk/Desktop/cluster/DUD-E-result/gria2

> <s_m_Source_File>
ligand_docking-pose.sdf

> <i_m_Source_File_Index>
57

> <i_lp_mmshare_version>
53161

> <r_lp_tautomer_probability>
0.999969923314803

> <s_lp_Force_Field>
OPLS_2005

> <r_lp_Energy>
1.764602

> <b_lp_Chiralities_Consistent>
1

> <s_lp_Variant>
34045-1

> <s_i_glide_gridfile>
glide-grid_3kgc

> <i_i_glide_lignum>
522

> <i_i_glide_rotatable_bonds>
4

> <r_i_docking_score>
-6.81159084931956

> <r_i_glide_ligand_efficiency>
-0.523968526870736

> <r_i_glide_ligand_efficiency_sa>
-1.23202537145175

> <r_i_glide_ligand_efficiency_ln>
-1.91071181279552

> <r_i_glide_gscore>
-6.81159084931956

> <r_i_glide_lipo>
-0.427142671552342

> <r_i_glide_hbond>
-0.576

> <r_i_glide_metal>
0

> <r_i_glide_rewards>
-3.57266355469763

> <r_i_glide_evdw>
-23.1637802124023

> <r_i_glide_ecoul>
-12.9031562805176

> <r_i_glide_erotb>
0.896101101319158

> <r_i_glide_esite>
-0.0382232716909995

> <r_i_glide_emodel>
-52.4282474752537

> <r_i_glide_energy>
-36.0669364929199

> <r_i_glide_einternal>
1.47196841239929

> <i_i_glide_confnum>
1

> <i_i_glide_posenum>
306

> <r_i_glide_eff_state_penalty>
0

> <s_user_duplicate_titles>
34045

> <i_f3d_flags>
0

> <s_m_subgroup_title>
dock_pv

> <s_m_subgroupid>
dock_pv1

> <b_m_subgroup_collapsed>
0

$$$$
