CHEMBL2883_lig25
                    3D
 Schrodinger Suite 2021-1.
 40 41  0  0  1  0            999 V2000
   -9.9044    4.9912   36.4806 N   0  0  0  0  0  0
  -10.0552    4.4651   37.7455 C   0  0  0  0  0  0
   -9.0294    4.7741   38.5883 N   0  0  0  0  0  0
  -10.9031    4.6801   35.4682 C   0  0  2  0  0  0
   -8.7525    5.6712   36.1352 C   0  0  0  0  0  0
   -7.7621    5.9741   37.0045 C   0  0  0  0  0  0
   -7.9433    5.5726   38.3969 C   0  0  0  0  0  0
   -8.9749    4.2284   30.1922 P   0  0  0  0  0  0
  -10.3079    3.9671   34.4430 O   0  0  0  0  0  0
  -11.2677    3.8204   33.4244 C   0  0  1  0  0  0
  -11.6055    5.8334   34.7613 C   0  0  0  0  0  0
  -11.9880    5.1788   33.4227 C   0  0  2  0  0  0
  -11.0048    3.8086   38.1810 O   0  0  0  0  0  0
   -9.6793    4.4199   31.6490 O   0  0  0  0  0  0
  -10.5510    3.4198   32.1376 C   0  0  0  0  0  0
   -8.2752    2.7744   30.3005 O   0  0  0  0  0  0
  -10.2143    3.9733   29.1848 O   0  0  0  0  0  0
   -8.0444    5.3136   29.7785 O   0  0  0  0  0  0
   -7.2403    5.8775   39.3528 O   0  0  0  0  0  0
   -6.4480    6.6336   36.6137 C   0  0  0  0  0  0
  -13.8096    4.6068   31.8630 N   0  0  0  0  0  0
  -13.5099    5.0314   33.2188 C   0  0  0  0  0  0
   -9.1302    4.4206   39.5331 H   0  0  0  0  0  0
  -11.6566    4.0215   35.9225 H   0  0  0  0  0  0
   -8.6917    5.9181   35.0814 H   0  0  0  0  0  0
  -11.9438    3.0132   33.7221 H   0  0  0  0  0  0
  -10.9069    6.6513   34.5975 H   0  0  0  0  0  0
  -12.4409    6.2065   35.3585 H   0  0  0  0  0  0
  -11.6006    5.8179   32.6280 H   0  0  0  0  0  0
  -11.3045    3.1736   31.3934 H   0  0  0  0  0  0
   -9.9812    2.5145   32.3404 H   0  0  0  0  0  0
   -8.8658    2.0312   30.5834 H   0  0  0  0  0  0
  -10.6070    3.0642   29.2674 H   0  0  0  0  0  0
   -5.6027    6.0029   36.8883 H   0  0  0  0  0  0
   -6.3937    6.8018   35.5367 H   0  0  0  0  0  0
   -6.3294    7.5961   37.1123 H   0  0  0  0  0  0
  -13.4306    3.6868   31.6744 H   0  0  0  0  0  0
  -14.8084    4.5404   31.7220 H   0  0  0  0  0  0
  -13.9226    4.3109   33.9228 H   0  0  0  0  0  0
  -14.0266    5.9745   33.3966 H   0  0  0  0  0  0
  1  2  1  0  0  0
  1  4  1  0  0  0
  1  5  1  0  0  0
  2  3  1  0  0  0
  2 13  2  0  0  0
  3  7  1  0  0  0
  3 23  1  0  0  0
  4  9  1  0  0  0
  4 11  1  0  0  0
  4 24  1  0  0  0
  5  6  2  0  0  0
  5 25  1  0  0  0
  6  7  1  0  0  0
  6 20  1  0  0  0
  7 19  2  0  0  0
  8 14  1  0  0  0
  8 16  1  0  0  0
  8 17  1  0  0  0
  8 18  2  0  0  0
  9 10  1  0  0  0
 10 15  1  0  0  0
 10 12  1  0  0  0
 10 26  1  0  0  0
 11 12  1  0  0  0
 11 27  1  0  0  0
 11 28  1  0  0  0
 12 22  1  0  0  0
 12 29  1  0  0  0
 14 15  1  0  0  0
 15 30  1  0  0  0
 15 31  1  0  0  0
 16 32  1  0  0  0
 17 33  1  0  0  0
 20 34  1  0  0  0
 20 35  1  0  0  0
 20 36  1  0  0  0
 21 22  1  0  0  0
 21 37  1  0  0  0
 21 38  1  0  0  0
 22 39  1  0  0  0
 22 40  1  0  0  0
M  END
> <s_m_entry_id>
3168

> <s_m_entry_name>
dock_pv.2

> <s_m_Source_Path>
/home/csk/Desktop/cluster/DUD-E-result/kith

> <s_m_Source_File>
dock_pv.maegz

> <i_m_Source_File_Index>
2

> <chembl_id>
CHEMBL1161004

> <chembl_pref_name>
None

> <i_lp_mmshare_version>
53161

> <i_f3d_flags>
0

> <r_lp_tautomer_probability>
0.999537046341301

> <s_lp_Force_Field>
OPLS_2005

> <r_lp_Energy>
13.85905

> <b_lp_Chiralities_Consistent>
1

> <s_lp_Variant>
CHEMBL2883_lig25-1

> <s_i_glide_gridfile>
glide-grid_2b8t

> <i_i_glide_lignum>
27

> <i_i_glide_rotatable_bonds>
7

> <r_i_docking_score>
-11.7748156557652

> <r_i_glide_ligand_efficiency>
-0.535218893443871

> <r_i_glide_ligand_efficiency_sa>
-1.49970438839436

> <r_i_glide_ligand_efficiency_ln>
-2.87819444310564

> <r_i_glide_gscore>
-11.7748156557652

> <r_i_glide_lipo>
-1.74962740237403

> <r_i_glide_hbond>
-0.914575237258148

> <r_i_glide_metal>
0

> <r_i_glide_rewards>
-3.69791026383095

> <r_i_glide_evdw>
-36.6121253967285

> <r_i_glide_ecoul>
-26.3481616973877

> <r_i_glide_erotb>
0.470127772142559

> <r_i_glide_esite>
-0.1

> <r_i_glide_emodel>
-113.140645191399

> <r_i_glide_energy>
-62.9602870941162

> <r_i_glide_einternal>
3.10944867134094

> <i_i_glide_confnum>
28

> <i_i_glide_posenum>
46

> <r_i_glide_eff_state_penalty>
0

> <s_user_duplicate_titles>
CHEMBL2883_lig25

> <s_m_subgroup_title>
dock_pv

> <s_m_subgroupid>
dock_pv

> <b_m_subgroup_collapsed>
1

$$$$
CHEMBL2883_lig10
                    3D
 Schrodinger Suite 2021-1.
 31 32  0  0  1  0            999 V2000
  -11.1014    3.9741   30.9823 O   0  0  0  0  0  0
  -10.3797    3.8096   32.1826 C   0  0  0  0  0  0
  -11.2750    4.1088   33.3966 C   0  0  1  0  0  0
  -10.4392    4.0267   34.5424 O   0  0  0  0  0  0
  -11.8650    5.5345   33.4596 C   0  0  1  0  0  0
  -13.2758    5.5735   33.4832 O   0  0  0  0  0  0
  -11.2961    6.1683   34.7230 C   0  0  0  0  0  0
  -10.8703    4.9300   35.5022 C   0  0  2  0  0  0
   -9.8368    5.0859   36.5182 N   0  0  0  0  0  0
  -10.0407    4.5559   37.7762 C   0  0  0  0  0  0
  -11.0361    3.9583   38.1827 O   0  0  0  0  0  0
   -9.0039    4.7736   38.6364 N   0  0  0  0  0  0
   -7.8324    5.4454   38.4610 C   0  0  0  0  0  0
   -7.0386    5.5739   39.3890 O   0  0  0  0  0  0
   -7.6430    5.9183   37.0905 C   0  0  0  0  0  0
   -6.3141    6.5599   36.7276 C   0  0  0  0  0  0
   -8.6384    5.6956   36.2035 C   0  0  0  0  0  0
  -11.2406    3.0877   30.5828 H   0  0  0  0  0  0
   -9.9968    2.7891   32.2311 H   0  0  0  0  0  0
   -9.5217    4.4826   32.1644 H   0  0  0  0  0  0
  -12.0585    3.3529   33.4820 H   0  0  0  0  0  0
  -11.5372    6.1138   32.5946 H   0  0  0  0  0  0
  -13.5159    6.4788   33.2321 H   0  0  0  0  0  0
  -10.4405    6.7855   34.4684 H   0  0  0  0  0  0
  -11.9959    6.7725   35.3033 H   0  0  0  0  0  0
  -11.7550    4.4908   35.9750 H   0  0  0  0  0  0
   -9.1286    4.3943   39.5669 H   0  0  0  0  0  0
   -5.4791    5.9025   36.9742 H   0  0  0  0  0  0
   -6.2513    6.7784   35.6608 H   0  0  0  0  0  0
   -6.1779    7.4962   37.2694 H   0  0  0  0  0  0
   -8.5432    5.9697   35.1633 H   0  0  0  0  0  0
  1  2  1  0  0  0
  1 18  1  0  0  0
  2  3  1  0  0  0
  2 19  1  0  0  0
  2 20  1  0  0  0
  3  4  1  0  0  0
  3  5  1  0  0  0
  3 21  1  0  0  0
  4  8  1  0  0  0
  5  6  1  0  0  0
  5  7  1  0  0  0
  5 22  1  0  0  0
  6 23  1  0  0  0
  7  8  1  0  0  0
  7 24  1  0  0  0
  7 25  1  0  0  0
  8  9  1  0  0  0
  8 26  1  0  0  0
  9 10  1  0  0  0
  9 17  1  0  0  0
 10 11  2  0  0  0
 10 12  1  0  0  0
 12 13  1  0  0  0
 12 27  1  0  0  0
 13 14  2  0  0  0
 13 15  1  0  0  0
 15 16  1  0  0  0
 15 17  2  0  0  0
 16 28  1  0  0  0
 16 29  1  0  0  0
 16 30  1  0  0  0
 17 31  1  0  0  0
M  END
> <s_m_entry_id>
3169

> <s_m_entry_name>
dock_pv.3

> <s_m_Source_Path>
/home/csk/Desktop/cluster/DUD-E-result/kith

> <s_m_Source_File>
dock_pv.maegz

> <i_m_Source_File_Index>
3

> <chembl_id>
CHEMBL52609

> <chembl_pref_name>
THYMIDINE

> <i_lp_mmshare_version>
53161

> <i_f3d_flags>
0

> <r_lp_tautomer_probability>
0.999537046341301

> <s_lp_Force_Field>
OPLS_2005

> <r_lp_Energy>
24.194086

> <b_lp_Chiralities_Consistent>
1

> <s_lp_Variant>
CHEMBL2883_lig10-1

> <s_i_glide_gridfile>
glide-grid_2b8t

> <i_i_glide_lignum>
10

> <i_i_glide_rotatable_bonds>
4

> <r_i_docking_score>
-11.4613806339917

> <r_i_glide_ligand_efficiency>
-0.674198860823044

> <r_i_glide_ligand_efficiency_sa>
-1.73355511763987

> <r_i_glide_ligand_efficiency_ln>
-2.99001897501055

> <r_i_glide_gscore>
-11.4613806339917

> <r_i_glide_lipo>
-1.78176947530647

> <r_i_glide_hbond>
-1.02958278945116

> <r_i_glide_metal>
0

> <r_i_glide_rewards>
-4.7077868162159

> <r_i_glide_evdw>
-30.1961879730225

> <r_i_glide_ecoul>
-18.9746398925781

> <r_i_glide_erotb>
0.413763829519617

> <r_i_glide_esite>
0

> <r_i_glide_emodel>
-81.8431677985526

> <r_i_glide_energy>
-49.1708278656006

> <r_i_glide_einternal>
4.663161277771

> <i_i_glide_confnum>
6

> <i_i_glide_posenum>
311

> <r_i_glide_eff_state_penalty>
0

> <s_user_duplicate_titles>
CHEMBL2883_lig10,595

> <s_m_subgroup_title>
dock_pv

> <s_m_subgroupid>
dock_pv

> <b_m_subgroup_collapsed>
1

$$$$
CHEMBL2883_lig6
                    3D
 Schrodinger Suite 2021-1.
 31 32  0  0  1  0            999 V2000
   -9.6329    5.0576   36.5611 N   0  0  0  0  0  0
   -9.8964    4.5542   37.8164 C   0  0  0  0  0  0
   -8.8918    4.7741   38.7146 N   0  0  0  0  0  0
  -10.6613    4.9752   35.5359 C   0  0  2  0  0  0
   -8.4408    5.6984   36.2969 C   0  0  0  0  0  0
   -7.4849    5.9387   37.2229 C   0  0  0  0  0  0
   -7.7162    5.4510   38.5828 C   0  0  0  0  0  0
  -10.1358    4.4340   34.3771 O   0  0  0  0  0  0
  -11.2757    6.2779   35.0750 C   0  0  0  0  0  0
  -11.0583    4.6167   33.3541 C   0  0  1  0  0  0
  -11.8452    5.8804   33.7150 C   0  0  1  0  0  0
  -10.9160    3.9732   38.1830 O   0  0  0  0  0  0
   -6.9537    5.5739   39.5372 O   0  0  0  0  0  0
  -10.4165    4.8139   32.1330 O   0  0  0  0  0  0
   -6.1512    6.6004   36.9110 C   0  0  0  0  0  0
  -13.2277    5.5740   33.7501 O   0  0  0  0  0  0
   -9.7749    3.6439   31.6469 C   0  0  0  0  0  0
   -9.0470    4.3879   39.6385 H   0  0  0  0  0  0
  -11.4470    4.2950   35.8830 H   0  0  0  0  0  0
   -8.3253    5.9740   35.2581 H   0  0  0  0  0  0
  -12.0274    6.6286   35.7833 H   0  0  0  0  0  0
  -10.5019    7.0390   34.9702 H   0  0  0  0  0  0
  -11.7196    3.7451   33.2961 H   0  0  0  0  0  0
  -11.6409    6.6652   32.9840 H   0  0  0  0  0  0
   -6.0414    6.7743   35.8396 H   0  0  0  0  0  0
   -5.3129    5.9754   37.2203 H   0  0  0  0  0  0
   -6.0646    7.5613   37.4196 H   0  0  0  0  0  0
  -13.6334    6.0325   33.0049 H   0  0  0  0  0  0
   -9.5535    3.7476   30.5847 H   0  0  0  0  0  0
   -8.8421    3.4517   32.1745 H   0  0  0  0  0  0
  -10.4150    2.7741   31.7784 H   0  0  0  0  0  0
  1  2  1  0  0  0
  1  4  1  0  0  0
  1  5  1  0  0  0
  2  3  1  0  0  0
  2 12  2  0  0  0
  3  7  1  0  0  0
  3 18  1  0  0  0
  4  8  1  0  0  0
  4  9  1  0  0  0
  4 19  1  0  0  0
  5  6  2  0  0  0
  5 20  1  0  0  0
  6  7  1  0  0  0
  6 15  1  0  0  0
  7 13  2  0  0  0
  8 10  1  0  0  0
  9 11  1  0  0  0
  9 21  1  0  0  0
  9 22  1  0  0  0
 10 14  1  0  0  0
 10 11  1  0  0  0
 10 23  1  0  0  0
 11 16  1  0  0  0
 11 24  1  0  0  0
 14 17  1  0  0  0
 15 25  1  0  0  0
 15 26  1  0  0  0
 15 27  1  0  0  0
 16 28  1  0  0  0
 17 29  1  0  0  0
 17 30  1  0  0  0
 17 31  1  0  0  0
M  END
> <s_m_entry_id>
3170

> <s_m_entry_name>
dock_pv.4

> <s_m_Source_Path>
/home/csk/Desktop/cluster/DUD-E-result/kith

> <s_m_Source_File>
dock_pv.maegz

> <i_m_Source_File_Index>
4

> <chembl_id>
CHEMBL289441

> <chembl_pref_name>
None

> <i_lp_mmshare_version>
53161

> <i_f3d_flags>
0

> <r_lp_tautomer_probability>
0.999537046341301

> <s_lp_Force_Field>
OPLS_2005

> <r_lp_Energy>
15.677696

> <b_lp_Chiralities_Consistent>
1

> <s_lp_Variant>
CHEMBL2883_lig6-1

> <s_i_glide_gridfile>
glide-grid_2b8t

> <i_i_glide_lignum>
6

> <i_i_glide_rotatable_bonds>
3

> <r_i_docking_score>
-11.3672237532565

> <r_i_glide_ligand_efficiency>
-0.668660220779793

> <r_i_glide_ligand_efficiency_sa>
-1.71931371447283

> <r_i_glide_ligand_efficiency_ln>
-2.96545554159737

> <r_i_glide_gscore>
-11.3672237532565

> <r_i_glide_lipo>
-1.6402376802119

> <r_i_glide_hbond>
-0.887880161535867

> <r_i_glide_metal>
0

> <r_i_glide_rewards>
-5.44429686633811

> <r_i_glide_evdw>
-31.8171405792236

> <r_i_glide_ecoul>
-13.4055595397949

> <r_i_glide_erotb>
0.206881914759809

> <r_i_glide_esite>
0

> <r_i_glide_emodel>
-76.1875582388716

> <r_i_glide_energy>
-45.2227001190186

> <r_i_glide_einternal>
2.2423951625824

> <i_i_glide_confnum>
3

> <i_i_glide_posenum>
125

> <r_i_glide_eff_state_penalty>
0

> <s_user_duplicate_titles>
CHEMBL2883_lig6

> <s_m_subgroup_title>
dock_pv

> <s_m_subgroupid>
dock_pv

> <b_m_subgroup_collapsed>
1

$$$$
CHEMBL2883_lig8
                    3D
 Schrodinger Suite 2021-1.
 47 49  0  0  1  0            999 V2000
   -9.7351    5.1677   36.3991 N   0  0  0  0  0  0
  -10.0415    4.5887   37.6211 C   0  0  0  0  0  0
   -9.0854    4.7739   38.5837 N   0  0  0  0  0  0
  -10.8016    5.2968   35.3928 C   0  0  2  0  0  0
   -8.5238    5.8177   36.2434 C   0  0  0  0  0  0
   -7.5969    5.9738   37.2134 C   0  0  0  0  0  0
   -7.9040    5.4474   38.5394 C   0  0  0  0  0  0
  -11.5317    4.1274   35.2340 O   0  0  0  0  0  0
  -10.4359    5.6359   33.9451 C   0  0  0  0  0  0
  -12.3836    4.2718   34.1493 C   0  0  1  0  0  0
  -11.4945    4.9266   33.0937 C   0  0  1  0  0  0
  -11.0629    3.9738   37.9266 O   0  0  0  0  0  0
   -7.2085    5.5742   39.5438 O   0  0  0  0  0  0
  -12.8398    3.0067   33.7648 O   0  0  0  0  0  0
   -6.2678    6.6855   36.9999 C   0  0  0  0  0  0
  -12.2174    5.8011   32.2453 O   0  0  0  0  0  0
  -15.7141   -0.2788   33.5415 C   0  0  0  0  0  0
  -13.5483    2.8733   32.5323 C   0  0  0  0  0  0
  -14.4868    0.6099   33.3665 C   0  0  0  0  0  0
  -15.6835   -1.6028   33.0914 C   0  0  0  0  0  0
  -16.8566    0.2090   34.1872 C   0  0  0  0  0  0
  -14.7880    1.9883   32.7414 C   0  0  0  0  0  0
  -17.9630   -0.6171   34.3716 C   0  0  0  0  0  0
  -16.7915   -2.4263   33.2790 C   0  0  0  0  0  0
  -17.9261   -1.9318   33.9154 C   0  0  0  0  0  0
   -9.2896    4.3718   39.4891 H   0  0  0  0  0  0
  -11.4590    6.0594   35.8257 H   0  0  0  0  0  0
   -8.3413    6.2226   35.2686 H   0  0  0  0  0  0
  -10.4414    6.7181   33.8276 H   0  0  0  0  0  0
   -9.4564    5.2363   33.6849 H   0  0  0  0  0  0
  -13.2411    4.8874   34.4263 H   0  0  0  0  0  0
  -11.0216    4.1323   32.5097 H   0  0  0  0  0  0
   -6.0907    7.4483   37.7588 H   0  0  0  0  0  0
   -5.4418    5.9732   37.0363 H   0  0  0  0  0  0
   -6.2359    7.1730   36.0264 H   0  0  0  0  0  0
  -12.5135    6.5790   32.7362 H   0  0  0  0  0  0
  -12.8836    2.4290   31.7907 H   0  0  0  0  0  0
  -13.8800    3.8331   32.1335 H   0  0  0  0  0  0
  -14.0418    0.7431   34.3527 H   0  0  0  0  0  0
  -13.7415    0.0966   32.7551 H   0  0  0  0  0  0
  -14.8032   -2.0002   32.6073 H   0  0  0  0  0  0
  -16.8869    1.2208   34.5633 H   0  0  0  0  0  0
  -15.2872    1.8490   31.7810 H   0  0  0  0  0  0
  -15.4887    2.5300   33.3739 H   0  0  0  0  0  0
  -18.8438   -0.2403   34.8711 H   0  0  0  0  0  0
  -16.7667   -3.4538   32.9434 H   0  0  0  0  0  0
  -18.7833   -2.5751   34.0547 H   0  0  0  0  0  0
  1  2  1  0  0  0
  1  4  1  0  0  0
  1  5  1  0  0  0
  2  3  1  0  0  0
  2 12  2  0  0  0
  3  7  1  0  0  0
  3 26  1  0  0  0
  4  8  1  0  0  0
  4  9  1  0  0  0
  4 27  1  0  0  0
  5  6  2  0  0  0
  5 28  1  0  0  0
  6  7  1  0  0  0
  6 15  1  0  0  0
  7 13  2  0  0  0
  8 10  1  0  0  0
  9 11  1  0  0  0
  9 29  1  0  0  0
  9 30  1  0  0  0
 10 14  1  0  0  0
 10 11  1  0  0  0
 10 31  1  0  0  0
 11 16  1  0  0  0
 11 32  1  0  0  0
 14 18  1  0  0  0
 15 33  1  0  0  0
 15 34  1  0  0  0
 15 35  1  0  0  0
 16 36  1  0  0  0
 17 19  1  0  0  0
 17 20  1  0  0  0
 17 21  2  0  0  0
 18 22  1  0  0  0
 18 37  1  0  0  0
 18 38  1  0  0  0
 19 22  1  0  0  0
 19 39  1  0  0  0
 19 40  1  0  0  0
 20 24  2  0  0  0
 20 41  1  0  0  0
 21 23  1  0  0  0
 21 42  1  0  0  0
 22 43  1  0  0  0
 22 44  1  0  0  0
 23 25  2  0  0  0
 23 45  1  0  0  0
 24 25  1  0  0  0
 24 46  1  0  0  0
 25 47  1  0  0  0
M  END
> <s_m_entry_id>
3171

> <s_m_entry_name>
dock_pv.5

> <s_m_Source_Path>
/home/csk/Desktop/cluster/DUD-E-result/kith

> <s_m_Source_File>
dock_pv.maegz

> <i_m_Source_File_Index>
5

> <chembl_id>
CHEMBL41698

> <chembl_pref_name>
None

> <i_lp_mmshare_version>
53161

> <i_f3d_flags>
0

> <r_lp_tautomer_probability>
0.999537046341301

> <s_lp_Force_Field>
OPLS_2005

> <r_lp_Energy>
17.683839

> <b_lp_Chiralities_Consistent>
1

> <s_lp_Variant>
CHEMBL2883_lig8-1

> <s_i_glide_gridfile>
glide-grid_2b8t

> <i_i_glide_lignum>
8

> <i_i_glide_rotatable_bonds>
7

> <r_i_docking_score>
-11.1761952274693

> <r_i_glide_ligand_efficiency>
-0.447047809098773

> <r_i_glide_ligand_efficiency_sa>
-1.30717572223146

> <r_i_glide_ligand_efficiency_ln>
-2.64909319245452

> <r_i_glide_gscore>
-11.1761952274693

> <r_i_glide_lipo>
-2.80519328948731

> <r_i_glide_hbond>
-0.819429964495023

> <r_i_glide_metal>
0

> <r_i_glide_rewards>
-4.19905859864145

> <r_i_glide_evdw>
-44.0426559448242

> <r_i_glide_ecoul>
-11.3665533065796

> <r_i_glide_erotb>
0.554602418382616

> <r_i_glide_esite>
0

> <r_i_glide_emodel>
-84.2830999397391

> <r_i_glide_energy>
-55.4092092514038

> <r_i_glide_einternal>
10.4664525985718

> <i_i_glide_confnum>
136

> <i_i_glide_posenum>
126

> <r_i_glide_eff_state_penalty>
0

> <s_user_duplicate_titles>
CHEMBL2883_lig8

> <s_m_subgroup_title>
dock_pv

> <s_m_subgroupid>
dock_pv

> <b_m_subgroup_collapsed>
1

$$$$
CHEMBL2883_lig34
                    3D
 Schrodinger Suite 2021-1.
 34 35  0  0  1  0            999 V2000
  -11.8053    5.5702   33.4034 C   0  0  1  0  0  0
  -11.5641    5.8909   34.8765 C   0  0  1  0  0  0
  -10.9256    4.6183   35.4056 C   0  0  1  0  0  0
  -10.4083    3.9232   34.3146 O   0  0  0  0  0  0
  -11.0916    4.2348   33.1059 C   0  0  2  0  0  0
  -13.1877    5.5740   33.1098 O   0  0  0  0  0  0
  -10.0070    4.3075   32.0106 C   0  0  0  0  0  0
  -10.5792    4.3739   30.7177 O   0  0  0  0  0  0
   -9.9199    4.7680   36.4479 N   0  0  0  0  0  0
   -8.7157    5.3695   36.1524 C   0  0  0  0  0  0
   -7.7540    5.6406   37.0627 C   0  0  0  0  0  0
   -8.0172    5.2772   38.4550 C   0  0  0  0  0  0
   -9.2230    4.6723   38.6297 N   0  0  0  0  0  0
  -10.2113    4.3744   37.7365 C   0  0  0  0  0  0
  -11.2403    3.8293   38.1343 O   0  0  0  0  0  0
   -7.2419    5.4469   39.3945 O   0  0  0  0  0  0
   -6.3770    6.1984   36.7063 C   0  0  0  0  0  0
   -6.0007    7.5258   37.3830 C   0  0  0  0  0  0
  -10.7588    6.9375   34.9828 F   0  0  0  0  0  0
  -11.3568    6.3579   32.7957 H   0  0  0  0  0  0
  -12.4530    6.1169   35.4547 H   0  0  0  0  0  0
  -11.7202    3.9742   35.7905 H   0  0  0  0  0  0
  -11.7819    3.4139   32.9001 H   0  0  0  0  0  0
  -13.4378    6.5031   32.9836 H   0  0  0  0  0  0
   -9.3446    5.1585   32.1735 H   0  0  0  0  0  0
   -9.3846    3.4112   32.0462 H   0  0  0  0  0  0
  -10.8405    3.4760   30.4479 H   0  0  0  0  0  0
   -8.5996    5.5741   35.0974 H   0  0  0  0  0  0
   -9.3896    4.3743   39.5827 H   0  0  0  0  0  0
   -6.2874    6.3092   35.6242 H   0  0  0  0  0  0
   -5.6396    5.4440   36.9827 H   0  0  0  0  0  0
   -4.9243    7.6658   37.3836 H   0  0  0  0  0  0
   -6.3047    7.5710   38.4227 H   0  0  0  0  0  0
   -6.4411    8.3732   36.8666 H   0  0  0  0  0  0
  1  5  1  0  0  0
  1  2  1  0  0  0
  1  6  1  0  0  0
  1 20  1  0  0  0
  2  3  1  0  0  0
  2 19  1  0  0  0
  2 21  1  0  0  0
  3  4  1  0  0  0
  3  9  1  0  0  0
  3 22  1  0  0  0
  4  5  1  0  0  0
  5  7  1  0  0  0
  5 23  1  0  0  0
  6 24  1  0  0  0
  7  8  1  0  0  0
  7 25  1  0  0  0
  7 26  1  0  0  0
  8 27  1  0  0  0
  9 10  1  0  0  0
  9 14  1  0  0  0
 10 11  2  0  0  0
 10 28  1  0  0  0
 11 12  1  0  0  0
 11 17  1  0  0  0
 12 13  1  0  0  0
 12 16  2  0  0  0
 13 14  1  0  0  0
 13 29  1  0  0  0
 14 15  2  0  0  0
 17 18  1  0  0  0
 17 30  1  0  0  0
 17 31  1  0  0  0
 18 32  1  0  0  0
 18 33  1  0  0  0
 18 34  1  0  0  0
M  END
> <s_m_entry_id>
3172

> <s_m_entry_name>
dock_pv.6

> <s_m_Source_Path>
/home/csk/Desktop/cluster/DUD-E-result/kith

> <s_m_Source_File>
dock_pv.maegz

> <i_m_Source_File_Index>
6

> <chembl_id>
CHEMBL1269499

> <chembl_pref_name>
None

> <i_lp_mmshare_version>
53161

> <i_f3d_flags>
0

> <r_lp_tautomer_probability>
0.999537046341301

> <s_lp_Force_Field>
OPLS_2005

> <r_lp_Energy>
29.617309

> <b_lp_Chiralities_Consistent>
1

> <s_lp_Variant>
CHEMBL2883_lig34-1

> <s_i_glide_gridfile>
glide-grid_2b8t

> <i_i_glide_lignum>
36

> <i_i_glide_rotatable_bonds>
5

> <r_i_docking_score>
-10.7498562430764

> <r_i_glide_ligand_efficiency>
-0.565781907530338

> <r_i_glide_ligand_efficiency_sa>
-1.50973337338923

> <r_i_glide_ligand_efficiency_ln>
-2.72531944336179

> <r_i_glide_gscore>
-10.7498562430764

> <r_i_glide_lipo>
-2.08114929757471

> <r_i_glide_hbond>
-0.92916411140668

> <r_i_glide_metal>
0

> <r_i_glide_rewards>
-4.56412090468488

> <r_i_glide_evdw>
-29.7927951812744

> <r_i_glide_ecoul>
-13.4665031433105

> <r_i_glide_erotb>
0.334193301150158

> <r_i_glide_esite>
0

> <r_i_glide_emodel>
-65.0502047262137

> <r_i_glide_energy>
-43.259298324585

> <r_i_glide_einternal>
3.2598443031311

> <i_i_glide_confnum>
4

> <i_i_glide_posenum>
22

> <r_i_glide_eff_state_penalty>
0

> <s_user_duplicate_titles>
CHEMBL2883_lig34

> <s_m_subgroup_title>
dock_pv

> <s_m_subgroupid>
dock_pv

> <b_m_subgroup_collapsed>
1

$$$$
CHEMBL2883_lig35
                    3D
 Schrodinger Suite 2021-1.
 31 32  0  0  1  0            999 V2000
  -10.0409    4.3989   37.7173 C   0  0  0  0  0  0
   -9.8128    4.8059   36.4173 N   0  0  0  0  0  0
   -8.6640    5.4969   36.0892 C   0  0  0  0  0  0
   -7.7258    5.8809   36.9823 C   0  0  0  0  0  0
   -7.9452    5.5359   38.3856 C   0  0  0  0  0  0
   -7.2408    5.8580   39.3375 O   0  0  0  0  0  0
   -6.4406    6.6040   36.6077 C   0  0  0  0  0  0
  -11.0208    3.8006   38.1614 O   0  0  0  0  0  0
  -10.8519    4.6177   35.4130 C   0  0  1  0  0  0
  -11.5421    5.8645   34.8789 C   0  0  2  0  0  0
  -11.7609    5.5443   33.4037 C   0  0  1  0  0  0
  -11.0538    4.2053   33.1157 C   0  0  2  0  0  0
  -10.3599    3.9035   34.3216 O   0  0  0  0  0  0
   -9.9793    4.2704   32.0097 C   0  0  0  0  0  0
  -10.8075    6.9618   34.9825 F   0  0  0  0  0  0
   -9.0571    4.7742   38.5835 N   0  0  0  0  0  0
  -10.5616    4.3732   30.7241 O   0  0  0  0  0  0
  -13.1365    5.5739   33.0848 O   0  0  0  0  0  0
   -8.5744    5.6963   35.0287 H   0  0  0  0  0  0
   -5.5655    6.0213   36.9022 H   0  0  0  0  0  0
   -6.3746    6.7750   35.5316 H   0  0  0  0  0  0
   -6.3865    7.5744   37.1018 H   0  0  0  0  0  0
  -11.6220    3.9737   35.8435 H   0  0  0  0  0  0
  -12.4431    6.0383   35.4547 H   0  0  0  0  0  0
  -11.2884    6.3221   32.8026 H   0  0  0  0  0  0
  -11.7492    3.3862   32.9195 H   0  0  0  0  0  0
   -9.3718    3.3636   32.0281 H   0  0  0  0  0  0
   -9.3005    5.1083   32.1760 H   0  0  0  0  0  0
   -9.1963    4.4797   39.5421 H   0  0  0  0  0  0
  -10.8411    3.4849   30.4410 H   0  0  0  0  0  0
  -13.3730    6.5096   32.9821 H   0  0  0  0  0  0
  1  2  1  0  0  0
  1  8  2  0  0  0
  1 16  1  0  0  0
  2  3  1  0  0  0
  2  9  1  0  0  0
  3  4  2  0  0  0
  3 19  1  0  0  0
  4  5  1  0  0  0
  4  7  1  0  0  0
  5  6  2  0  0  0
  5 16  1  0  0  0
  7 20  1  0  0  0
  7 21  1  0  0  0
  7 22  1  0  0  0
  9 10  1  0  0  0
  9 13  1  0  0  0
  9 23  1  0  0  0
 10 11  1  0  0  0
 10 15  1  0  0  0
 10 24  1  0  0  0
 11 12  1  0  0  0
 11 18  1  0  0  0
 11 25  1  0  0  0
 12 13  1  0  0  0
 12 14  1  0  0  0
 12 26  1  0  0  0
 14 17  1  0  0  0
 14 27  1  0  0  0
 14 28  1  0  0  0
 16 29  1  0  0  0
 17 30  1  0  0  0
 18 31  1  0  0  0
M  END
> <s_m_entry_id>
3173

> <s_m_entry_name>
dock_pv.7

> <s_m_Source_Path>
/home/csk/Desktop/cluster/DUD-E-result/kith

> <s_m_Source_File>
dock_pv.maegz

> <i_m_Source_File_Index>
7

> <chembl_id>
CHEMBL475717

> <chembl_pref_name>
5-METHYL-2'-FLUOROARAURACIL

> <i_lp_mmshare_version>
53161

> <i_f3d_flags>
0

> <r_lp_tautomer_probability>
0.999537046341301

> <s_lp_Force_Field>
OPLS_2005

> <r_lp_Energy>
26.716305

> <b_lp_Chiralities_Consistent>
1

> <s_lp_Variant>
CHEMBL2883_lig35-1

> <s_i_glide_gridfile>
glide-grid_2b8t

> <i_i_glide_lignum>
37

> <i_i_glide_rotatable_bonds>
4

> <r_i_docking_score>
-10.7354497902136

> <r_i_glide_ligand_efficiency>
-0.596413877234089

> <r_i_glide_ligand_efficiency_sa>
-1.56304653464207

> <r_i_glide_ligand_efficiency_ln>
-2.75949201215133

> <r_i_glide_gscore>
-10.7354497902136

> <r_i_glide_lipo>
-1.74795550309995

> <r_i_glide_hbond>
-0.933884948811046

> <r_i_glide_metal>
0

> <r_i_glide_rewards>
-4.64961673340107

> <r_i_glide_evdw>
-33.3296546936035

> <r_i_glide_ecoul>
-14.0228786468506

> <r_i_glide_erotb>
0.365921926806234

> <r_i_glide_esite>
0

> <r_i_glide_emodel>
-75.6348722792713

> <r_i_glide_energy>
-47.3525333404541

> <r_i_glide_einternal>
4.39824199676514

> <i_i_glide_confnum>
7

> <i_i_glide_posenum>
201

> <r_i_glide_eff_state_penalty>
0

> <s_user_duplicate_titles>
CHEMBL2883_lig35

> <s_m_subgroup_title>
dock_pv

> <s_m_subgroupid>
dock_pv

> <b_m_subgroup_collapsed>
1

$$$$
CHEMBL2883_lig7
                    3D
 Schrodinger Suite 2021-1.
 29 30  0  0  1  0            999 V2000
   -9.7407    4.9341   36.4368 N   0  0  0  0  0  0
  -10.0412    4.4917   37.7082 C   0  0  0  0  0  0
   -9.0702    4.7739   38.6262 N   0  0  0  0  0  0
  -10.7194    4.7812   35.3690 C   0  0  2  0  0  0
   -8.5465    5.5760   36.1828 C   0  0  0  0  0  0
   -7.6227    5.8692   37.1242 C   0  0  0  0  0  0
   -7.8865    5.4330   38.4946 C   0  0  0  0  0  0
  -10.1597    4.0607   34.3209 O   0  0  0  0  0  0
  -11.2357    6.0623   34.7287 C   0  0  0  0  0  0
  -10.9658    4.1909   33.1589 C   0  0  2  0  0  0
  -10.0856    4.0800   31.9802 C   0  0  0  0  0  0
  -11.6284    5.5746   33.3351 C   0  0  1  0  0  0
   -9.3915    3.9741   30.9814 C   0  0  0  0  0  0
  -11.0637    3.9142   38.0751 O   0  0  0  0  0  0
   -7.1413    5.5740   39.4603 O   0  0  0  0  0  0
   -6.3058    6.5716   36.8278 C   0  0  0  0  0  0
  -13.0341    5.5740   33.1994 O   0  0  0  0  0  0
   -9.2418    4.4273   39.5620 H   0  0  0  0  0  0
  -11.5620    4.1936   35.7475 H   0  0  0  0  0  0
   -8.4051    5.8314   35.1409 H   0  0  0  0  0  0
  -10.4426    6.8056   34.6666 H   0  0  0  0  0  0
  -12.0508    6.4818   35.3199 H   0  0  0  0  0  0
  -11.7038    3.3867   33.1333 H   0  0  0  0  0  0
  -11.2413    6.2917   32.6102 H   0  0  0  0  0  0
   -8.8446    3.8046   30.0834 H   0  0  0  0  0  0
   -5.4530    5.9652   37.1350 H   0  0  0  0  0  0
   -6.1919    6.7732   35.7613 H   0  0  0  0  0  0
   -6.2492    7.5247   37.3545 H   0  0  0  0  0  0
  -13.2852    6.4872   32.9868 H   0  0  0  0  0  0
  1  2  1  0  0  0
  1  4  1  0  0  0
  1  5  1  0  0  0
  2  3  1  0  0  0
  2 14  2  0  0  0
  3  7  1  0  0  0
  3 18  1  0  0  0
  4  8  1  0  0  0
  4  9  1  0  0  0
  4 19  1  0  0  0
  5  6  2  0  0  0
  5 20  1  0  0  0
  6  7  1  0  0  0
  6 16  1  0  0  0
  7 15  2  0  0  0
  8 10  1  0  0  0
  9 12  1  0  0  0
  9 21  1  0  0  0
  9 22  1  0  0  0
 10 11  1  0  0  0
 10 12  1  0  0  0
 10 23  1  0  0  0
 11 13  3  0  0  0
 12 17  1  0  0  0
 12 24  1  0  0  0
 13 25  1  0  0  0
 16 26  1  0  0  0
 16 27  1  0  0  0
 16 28  1  0  0  0
 17 29  1  0  0  0
M  END
> <s_m_entry_id>
3174

> <s_m_entry_name>
dock_pv.8

> <s_m_Source_Path>
/home/csk/Desktop/cluster/DUD-E-result/kith

> <s_m_Source_File>
dock_pv.maegz

> <i_m_Source_File_Index>
8

> <chembl_id>
CHEMBL289100

> <chembl_pref_name>
None

> <i_lp_mmshare_version>
53161

> <i_f3d_flags>
0

> <r_lp_tautomer_probability>
0.999537046341301

> <s_lp_Force_Field>
OPLS_2005

> <r_lp_Energy>
22.709091

> <b_lp_Chiralities_Consistent>
1

> <s_lp_Variant>
CHEMBL2883_lig7-1

> <s_i_glide_gridfile>
glide-grid_2b8t

> <i_i_glide_lignum>
7

> <i_i_glide_rotatable_bonds>
3

> <r_i_docking_score>
-10.5291280308167

> <r_i_glide_ligand_efficiency>
-0.619360472400984

> <r_i_glide_ligand_efficiency_sa>
-1.59255017916203

> <r_i_glide_ligand_efficiency_ln>
-2.74681503108696

> <r_i_glide_gscore>
-10.5291280308167

> <r_i_glide_lipo>
-1.75989660031275

> <r_i_glide_hbond>
-0.85665293188484

> <r_i_glide_metal>
0

> <r_i_glide_rewards>
-4.67431793248657

> <r_i_glide_evdw>
-37.361946105957

> <r_i_glide_ecoul>
-12.0134782791138

> <r_i_glide_erotb>
0.431858481032353

> <r_i_glide_esite>
0

> <r_i_glide_emodel>
-77.2123891178732

> <r_i_glide_energy>
-49.3754243850708

> <r_i_glide_einternal>
2.16642379760742

> <i_i_glide_confnum>
2

> <i_i_glide_posenum>
101

> <r_i_glide_eff_state_penalty>
0

> <s_user_duplicate_titles>
CHEMBL2883_lig7

> <s_m_subgroup_title>
dock_pv

> <s_m_subgroupid>
dock_pv

> <b_m_subgroup_collapsed>
1

$$$$
CHEMBL2883_lig21
                    3D
 Schrodinger Suite 2021-1.
 27 28  0  0  1  0            999 V2000
   -7.7294    5.9309   37.0349 C   0  0  0  0  0  0
   -8.6494    5.5736   36.1136 C   0  0  0  0  0  0
   -9.7946    4.8620   36.3945 N   0  0  0  0  0  0
  -10.0416    4.4104   37.6771 C   0  0  0  0  0  0
   -9.0845    4.7740   38.5832 N   0  0  0  0  0  0
   -7.9589    5.5248   38.4212 C   0  0  0  0  0  0
   -7.2410    5.7858   39.3824 O   0  0  0  0  0  0
   -6.4396    6.6575   36.6956 C   0  0  0  0  0  0
  -11.0125    3.7604   38.0626 O   0  0  0  0  0  0
  -10.7515    4.5866   35.3293 C   0  0  2  0  0  0
  -10.1569    3.8157   34.3307 O   0  0  0  0  0  0
  -10.8380    3.9749   33.0879 C   0  0  0  0  0  0
  -11.8780    5.0710   33.3610 C   0  0  1  0  0  0
  -11.3565    5.7765   34.6027 C   0  0  0  0  0  0
  -12.0409    5.9737   32.2874 O   0  0  0  0  0  0
   -8.5286    5.8022   35.0635 H   0  0  0  0  0  0
   -9.2352    4.4446   39.5287 H   0  0  0  0  0  0
   -6.3189    6.7773   35.6176 H   0  0  0  0  0  0
   -5.5701    6.1062   37.0590 H   0  0  0  0  0  0
   -6.4290    7.6491   37.1458 H   0  0  0  0  0  0
  -11.5588    3.9769   35.7461 H   0  0  0  0  0  0
  -10.1207    4.3158   32.3395 H   0  0  0  0  0  0
  -11.3148    3.0499   32.7597 H   0  0  0  0  0  0
  -12.8348    4.5989   33.5950 H   0  0  0  0  0  0
  -12.1308    6.2532   35.2041 H   0  0  0  0  0  0
  -10.5865    6.5090   34.3590 H   0  0  0  0  0  0
  -12.5908    6.7125   32.5829 H   0  0  0  0  0  0
  1  2  2  0  0  0
  1  8  1  0  0  0
  1  6  1  0  0  0
  2  3  1  0  0  0
  2 16  1  0  0  0
  3 10  1  0  0  0
  3  4  1  0  0  0
  4  9  2  0  0  0
  4  5  1  0  0  0
  5  6  1  0  0  0
  5 17  1  0  0  0
  6  7  2  0  0  0
  8 18  1  0  0  0
  8 19  1  0  0  0
  8 20  1  0  0  0
 10 11  1  0  0  0
 10 14  1  0  0  0
 10 21  1  0  0  0
 11 12  1  0  0  0
 12 13  1  0  0  0
 12 22  1  0  0  0
 12 23  1  0  0  0
 13 14  1  0  0  0
 13 15  1  0  0  0
 13 24  1  0  0  0
 14 25  1  0  0  0
 14 26  1  0  0  0
 15 27  1  0  0  0
M  END
> <s_m_entry_id>
3175

> <s_m_entry_name>
dock_pv.9

> <s_m_Source_Path>
/home/csk/Desktop/cluster/DUD-E-result/kith

> <s_m_Source_File>
dock_pv.maegz

> <i_m_Source_File_Index>
9

> <chembl_id>
CHEMBL1823506

> <chembl_pref_name>
None

> <i_lp_mmshare_version>
53161

> <i_f3d_flags>
0

> <r_lp_tautomer_probability>
0.999537046341301

> <s_lp_Force_Field>
OPLS_2005

> <r_lp_Energy>
24.274977

> <b_lp_Chiralities_Consistent>
1

> <s_lp_Variant>
CHEMBL2883_lig21-1

> <s_i_glide_gridfile>
glide-grid_2b8t

> <i_i_glide_lignum>
23

> <i_i_glide_rotatable_bonds>
2

> <r_i_docking_score>
-10.4349300765894

> <r_i_glide_ligand_efficiency>
-0.695662005105957

> <r_i_glide_ligand_efficiency_sa>
-1.71565003509657

> <r_i_glide_ligand_efficiency_ln>
-2.81412858798071

> <r_i_glide_gscore>
-10.4349300765894

> <r_i_glide_lipo>
-1.71590717680591

> <r_i_glide_hbond>
-0.956469073662603

> <r_i_glide_metal>
0

> <r_i_glide_rewards>
-4.68734669018886

> <r_i_glide_evdw>
-34.9304885864258

> <r_i_glide_ecoul>
-10.5836658477783

> <r_i_glide_erotb>
0.258867170556054

> <r_i_glide_esite>
0

> <r_i_glide_emodel>
-73.0538442346898

> <r_i_glide_energy>
-45.5141544342041

> <r_i_glide_einternal>
0.860139608383179

> <i_i_glide_confnum>
2

> <i_i_glide_posenum>
355

> <r_i_glide_eff_state_penalty>
0

> <s_user_duplicate_titles>
CHEMBL2883_lig21

> <s_m_subgroup_title>
dock_pv

> <s_m_subgroupid>
dock_pv

> <b_m_subgroup_collapsed>
1

$$$$
CHEMBL2883_lig32
                    3D
 Schrodinger Suite 2021-1.
 28 29  0  0  1  0            999 V2000
   -9.9700    5.0150   36.4548 N   0  0  0  0  0  0
  -10.2254    4.5295   37.7224 C   0  0  0  0  0  0
   -9.2183    4.7734   38.6160 N   0  0  0  0  0  0
   -8.0221    5.4042   38.4539 C   0  0  0  0  0  0
   -7.7848    5.8004   37.0771 C   0  0  0  0  0  0
   -8.7482    5.5739   36.1625 C   0  0  0  0  0  0
  -11.2406    3.9545   38.1111 O   0  0  0  0  0  0
   -7.2419    5.5769   39.3869 O   0  0  0  0  0  0
  -10.9825    4.9091   35.4106 C   0  0  1  0  0  0
  -11.2950    6.1552   34.5834 C   0  0  0  0  0  0
  -11.7676    5.5395   33.2712 C   0  0  1  0  0  0
  -11.1593    4.1238   33.2114 C   0  0  2  0  0  0
  -13.1776    5.5734   33.1881 O   0  0  0  0  0  0
  -10.6093    3.9185   34.5086 O   0  0  0  0  0  0
   -9.9741    3.9556   32.2377 C   0  0  0  0  0  0
  -10.3891    3.9740   30.8879 O   0  0  0  0  0  0
   -6.0399    6.5541   36.5825 Br  0  0  0  0  0  0
   -9.3745    4.4276   39.5544 H   0  0  0  0  0  0
   -8.6116    5.7743   35.1130 H   0  0  0  0  0  0
  -11.9115    4.5641   35.8740 H   0  0  0  0  0  0
  -10.4158    6.7727   34.4288 H   0  0  0  0  0  0
  -12.0413    6.7697   35.0894 H   0  0  0  0  0  0
  -11.3934    6.1297   32.4345 H   0  0  0  0  0  0
  -11.9070    3.3496   33.0268 H   0  0  0  0  0  0
  -13.4159    6.4927   32.9886 H   0  0  0  0  0  0
   -9.4648    3.0082   32.4228 H   0  0  0  0  0  0
   -9.2413    4.7476   32.3946 H   0  0  0  0  0  0
  -10.7030    3.0865   30.6224 H   0  0  0  0  0  0
  1  2  1  0  0  0
  1  6  1  0  0  0
  1  9  1  0  0  0
  2  3  1  0  0  0
  2  7  2  0  0  0
  3  4  1  0  0  0
  3 18  1  0  0  0
  4  5  1  0  0  0
  4  8  2  0  0  0
  5  6  2  0  0  0
  5 17  1  0  0  0
  6 19  1  0  0  0
  9 10  1  0  0  0
  9 14  1  0  0  0
  9 20  1  0  0  0
 10 11  1  0  0  0
 10 21  1  0  0  0
 10 22  1  0  0  0
 11 12  1  0  0  0
 11 13  1  0  0  0
 11 23  1  0  0  0
 12 14  1  0  0  0
 12 15  1  0  0  0
 12 24  1  0  0  0
 13 25  1  0  0  0
 15 16  1  0  0  0
 15 26  1  0  0  0
 15 27  1  0  0  0
 16 28  1  0  0  0
M  END
> <s_m_entry_id>
3176

> <s_m_entry_name>
dock_pv.10

> <s_m_Source_Path>
/home/csk/Desktop/cluster/DUD-E-result/kith

> <s_m_Source_File>
dock_pv.maegz

> <i_m_Source_File_Index>
10

> <chembl_id>
CHEMBL222280

> <chembl_pref_name>
BROXURIDINE

> <i_lp_mmshare_version>
53161

> <i_f3d_flags>
0

> <r_lp_tautomer_probability>
0.999537046341301

> <s_lp_Force_Field>
OPLS_2005

> <r_lp_Energy>
25.80375

> <b_lp_Chiralities_Consistent>
1

> <s_lp_Variant>
CHEMBL2883_lig32-1

> <s_i_glide_gridfile>
glide-grid_2b8t

> <i_i_glide_lignum>
34

> <i_i_glide_rotatable_bonds>
4

> <r_i_docking_score>
-10.4242366860993

> <r_i_glide_ligand_efficiency>
-0.61319039329996

> <r_i_glide_ligand_efficiency_sa>
-1.57668516837164

> <r_i_glide_ligand_efficiency_ln>
-2.71945121506559

> <r_i_glide_gscore>
-10.4242366860993

> <r_i_glide_lipo>
-1.73193510184903

> <r_i_glide_hbond>
-0.940454526766839

> <r_i_glide_metal>
0

> <r_i_glide_rewards>
-4.05227487844564

> <r_i_glide_evdw>
-30.6166172027588

> <r_i_glide_ecoul>
-16.2873306274414

> <r_i_glide_erotb>
0.274358275216336

> <r_i_glide_esite>
0

> <r_i_glide_emodel>
-73.7697823629765

> <r_i_glide_energy>
-46.9039478302002

> <r_i_glide_einternal>
5.12243938446045

> <i_i_glide_confnum>
6

> <i_i_glide_posenum>
311

> <r_i_glide_eff_state_penalty>
0

> <s_user_duplicate_titles>
CHEMBL2883_lig32

> <s_m_subgroup_title>
dock_pv

> <s_m_subgroupid>
dock_pv

> <b_m_subgroup_collapsed>
1

$$$$
CHEMBL2883_lig29
                    3D
 Schrodinger Suite 2021-1.
 28 29  0  0  1  0            999 V2000
  -10.1074    4.5079   37.7459 C   0  0  0  0  0  0
   -7.9703    5.4067   38.6182 C   0  0  0  0  0  0
   -7.6643    5.8384   37.2736 C   0  0  0  0  0  0
   -8.5547    5.5995   36.2860 C   0  0  0  0  0  0
  -11.1441    3.9340   38.0762 O   0  0  0  0  0  0
   -9.2408    3.5741   31.6409 O   0  0  0  0  0  0
   -9.9717    4.7330   31.9908 C   0  0  0  0  0  0
  -10.9771    4.4919   33.1382 C   0  0  1  0  0  0
  -10.2652    4.1792   34.3388 O   0  0  0  0  0  0
  -10.7499    4.9231   35.4134 C   0  0  1  0  0  0
   -9.7691    4.9793   36.4914 N   0  0  0  0  0  0
   -9.1680    4.7714   38.7032 N   0  0  0  0  0  0
   -7.2410    5.5741   39.5934 O   0  0  0  0  0  0
   -5.7950    6.7730   36.9827 I   0  0  0  0  0  0
  -11.2057    6.2439   34.8168 C   0  0  0  0  0  0
  -11.7817    5.7599   33.4947 C   0  0  2  0  0  0
  -13.1768    5.5737   33.5897 O   0  0  0  0  0  0
   -8.3804    5.8710   35.2579 H   0  0  0  0  0  0
   -9.8341    2.8890   31.2978 H   0  0  0  0  0  0
   -9.2674    5.5160   32.2725 H   0  0  0  0  0  0
  -10.4968    5.0808   31.1002 H   0  0  0  0  0  0
  -11.6424    3.6702   32.8652 H   0  0  0  0  0  0
  -11.6282    4.3813   35.7791 H   0  0  0  0  0  0
   -9.3732    4.4162   39.6281 H   0  0  0  0  0  0
  -10.3548    6.8995   34.6591 H   0  0  0  0  0  0
  -11.9209    6.7450   35.4712 H   0  0  0  0  0  0
  -11.6410    6.5300   32.7357 H   0  0  0  0  0  0
  -13.5605    6.4385   33.3816 H   0  0  0  0  0  0
  1  5  2  0  0  0
  1 11  1  0  0  0
  1 12  1  0  0  0
  2  3  1  0  0  0
  2 12  1  0  0  0
  2 13  2  0  0  0
  3  4  2  0  0  0
  3 14  1  0  0  0
  4 11  1  0  0  0
  4 18  1  0  0  0
  6  7  1  0  0  0
  6 19  1  0  0  0
  7  8  1  0  0  0
  7 20  1  0  0  0
  7 21  1  0  0  0
  8  9  1  0  0  0
  8 16  1  0  0  0
  8 22  1  0  0  0
  9 10  1  0  0  0
 10 11  1  0  0  0
 10 15  1  0  0  0
 10 23  1  0  0  0
 12 24  1  0  0  0
 15 16  1  0  0  0
 15 25  1  0  0  0
 15 26  1  0  0  0
 16 17  1  0  0  0
 16 27  1  0  0  0
 17 28  1  0  0  0
M  END
> <s_m_entry_id>
3177

> <s_m_entry_name>
dock_pv.11

> <s_m_Source_Path>
/home/csk/Desktop/cluster/DUD-E-result/kith

> <s_m_Source_File>
dock_pv.maegz

> <i_m_Source_File_Index>
11

> <chembl_id>
CHEMBL788

> <chembl_pref_name>
IDOXURIDINE

> <i_lp_mmshare_version>
53161

> <i_f3d_flags>
0

> <r_lp_tautomer_probability>
0.999537046341301

> <s_lp_Force_Field>
OPLS_2005

> <r_lp_Energy>
24.516577

> <b_lp_Chiralities_Consistent>
1

> <s_lp_Variant>
CHEMBL2883_lig29-1

> <s_i_glide_gridfile>
glide-grid_2b8t

> <i_i_glide_lignum>
31

> <i_i_glide_rotatable_bonds>
4

> <r_i_docking_score>
-10.354359476662

> <r_i_glide_ligand_efficiency>
-0.609079969215412

> <r_i_glide_ligand_efficiency_sa>
-1.56611611060323

> <r_i_glide_ligand_efficiency_ln>
-2.70122180721234

> <r_i_glide_gscore>
-10.354359476662

> <r_i_glide_lipo>
-1.75411967023827

> <r_i_glide_hbond>
-0.849881416347802

> <r_i_glide_metal>
0

> <r_i_glide_rewards>
-4.31167005637521

> <r_i_glide_evdw>
-31.8345699310303

> <r_i_glide_ecoul>
-13.7351608276367

> <r_i_glide_erotb>
0.213314286996306

> <r_i_glide_esite>
0

> <r_i_glide_emodel>
-72.2964994806788

> <r_i_glide_energy>
-45.569730758667

> <r_i_glide_einternal>
3.26452684402466

> <i_i_glide_confnum>
4

> <i_i_glide_posenum>
16

> <r_i_glide_eff_state_penalty>
0

> <s_user_duplicate_titles>
CHEMBL2883_lig29

> <s_m_subgroup_title>
dock_pv

> <s_m_subgroupid>
dock_pv

> <b_m_subgroup_collapsed>
1

$$$$
CHEMBL2883_lig27
                    3D
 Schrodinger Suite 2021-1.
 30 31  0  0  1  0            999 V2000
  -10.2201    4.3740   37.7181 C   0  0  0  0  0  0
   -9.9362    4.9097   36.4770 N   0  0  0  0  0  0
   -9.2475    4.5740   38.6623 N   0  0  0  0  0  0
   -7.8174    5.7513   37.2598 C   0  0  0  0  0  0
   -8.7457    5.5742   36.3018 C   0  0  0  0  0  0
   -8.0434    5.2064   38.5802 C   0  0  0  0  0  0
  -10.9055    4.6577   35.3858 C   0  0  1  0  0  0
  -11.5895    5.9347   34.8718 C   0  0  0  0  0  0
  -10.2583    4.0717   34.1216 C   0  0  0  0  0  0
  -11.2059    4.3906   32.9575 C   0  0  1  0  0  0
  -11.9569    5.6740   33.3995 C   0  0  1  0  0  0
  -11.2408    3.7668   38.0328 O   0  0  0  0  0  0
   -7.2413    5.2951   39.5093 O   0  0  0  0  0  0
   -6.0296    6.7742   36.8875 I   0  0  0  0  0  0
  -13.3445    5.5739   33.1784 O   0  0  0  0  0  0
  -10.5044    4.5551   31.5831 C   0  0  0  0  0  0
   -9.5084    3.5741   31.3535 O   0  0  0  0  0  0
   -9.4287    4.1728   39.5730 H   0  0  0  0  0  0
   -8.6260    5.9741   35.3127 H   0  0  0  0  0  0
  -11.7068    3.9744   35.6712 H   0  0  0  0  0  0
  -10.8828    6.7667   34.9117 H   0  0  0  0  0  0
  -12.4299    6.2346   35.4995 H   0  0  0  0  0  0
  -10.0587    3.0046   34.2276 H   0  0  0  0  0  0
   -9.2944    4.5325   33.9221 H   0  0  0  0  0  0
  -11.9063    3.5571   32.8659 H   0  0  0  0  0  0
  -11.6277    6.5302   32.8123 H   0  0  0  0  0  0
  -13.6412    6.4753   32.9830 H   0  0  0  0  0  0
   -9.9985    5.5196   31.5291 H   0  0  0  0  0  0
  -11.2333    4.5287   30.7710 H   0  0  0  0  0  0
   -9.9267    2.7334   31.0977 H   0  0  0  0  0  0
  1  2  1  0  0  0
  1  3  1  0  0  0
  1 12  2  0  0  0
  2  5  1  0  0  0
  2  7  1  0  0  0
  3  6  1  0  0  0
  3 18  1  0  0  0
  4  6  1  0  0  0
  4 14  1  0  0  0
  4  5  2  0  0  0
  5 19  1  0  0  0
  6 13  2  0  0  0
  7  8  1  0  0  0
  7  9  1  0  0  0
  7 20  1  0  0  0
  8 11  1  0  0  0
  8 21  1  0  0  0
  8 22  1  0  0  0
  9 10  1  0  0  0
  9 23  1  0  0  0
  9 24  1  0  0  0
 10 16  1  0  0  0
 10 11  1  0  0  0
 10 25  1  0  0  0
 11 15  1  0  0  0
 11 26  1  0  0  0
 15 27  1  0  0  0
 16 17  1  0  0  0
 16 28  1  0  0  0
 16 29  1  0  0  0
 17 30  1  0  0  0
M  END
> <s_m_entry_id>
3178

> <s_m_entry_name>
dock_pv.12

> <s_m_Source_Path>
/home/csk/Desktop/cluster/DUD-E-result/kith

> <s_m_Source_File>
dock_pv.maegz

> <i_m_Source_File_Index>
12

> <chembl_id>
CHEMBL2311131

> <chembl_pref_name>
None

> <i_lp_mmshare_version>
53161

> <i_f3d_flags>
0

> <r_lp_tautomer_probability>
0.999537046341301

> <s_lp_Force_Field>
OPLS_2005

> <r_lp_Energy>
26.747533

> <b_lp_Chiralities_Consistent>
1

> <s_lp_Variant>
CHEMBL2883_lig27-1

> <s_i_glide_gridfile>
glide-grid_2b8t

> <i_i_glide_lignum>
29

> <i_i_glide_rotatable_bonds>
4

> <r_i_docking_score>
-10.327054143131

> <r_i_glide_ligand_efficiency>
-0.607473773125351

> <r_i_glide_ligand_efficiency_sa>
-1.56198612816977

> <r_i_glide_ligand_efficiency_ln>
-2.69409845375398

> <r_i_glide_gscore>
-10.327054143131

> <r_i_glide_lipo>
-2.21133076368499

> <r_i_glide_hbond>
-1.46716396448977

> <r_i_glide_metal>
0

> <r_i_glide_rewards>
-3.27418447697986

> <r_i_glide_evdw>
-30.9487266540527

> <r_i_glide_ecoul>
-13.6158933639526

> <r_i_glide_erotb>
0.215445399319171

> <r_i_glide_esite>
0

> <r_i_glide_emodel>
-71.6914449053654

> <r_i_glide_energy>
-44.5646200180054

> <r_i_glide_einternal>
3.82759618759155

> <i_i_glide_confnum>
12

> <i_i_glide_posenum>
45

> <r_i_glide_eff_state_penalty>
0

> <s_user_duplicate_titles>
CHEMBL2883_lig27

> <s_m_subgroup_title>
dock_pv

> <s_m_subgroupid>
dock_pv

> <b_m_subgroup_collapsed>
1

$$$$
CHEMBL2883_lig33
                    3D
 Schrodinger Suite 2021-1.
 28 29  0  0  1  0            999 V2000
  -11.9487    5.4497   33.4422 C   0  0  1  0  0  0
  -11.6443    5.8610   34.8831 C   0  0  1  0  0  0
  -10.9854    4.6135   35.4597 C   0  0  1  0  0  0
  -10.4997    3.8792   34.3819 O   0  0  0  0  0  0
  -11.3833    4.0258   33.2765 C   0  0  2  0  0  0
   -9.9626    4.7855   36.4837 N   0  0  0  0  0  0
  -10.2130    4.3740   37.7773 C   0  0  0  0  0  0
   -9.2179    4.6982   38.6597 N   0  0  0  0  0  0
   -8.0410    5.3565   38.4711 C   0  0  0  0  0  0
   -7.8428    5.7350   37.0858 C   0  0  0  0  0  0
   -8.7879    5.4273   36.1731 C   0  0  0  0  0  0
  -11.2166    3.7896   38.1830 O   0  0  0  0  0  0
   -6.0410    6.7081   36.5738 I   0  0  0  0  0  0
   -7.2448    5.5739   39.3831 O   0  0  0  0  0  0
  -10.6124    3.7461   31.9699 C   0  0  0  0  0  0
   -9.6409    4.7256   31.6458 O   0  0  0  0  0  0
  -13.3266    5.5740   33.1423 O   0  0  0  0  0  0
  -10.8410    6.9139   34.8807 F   0  0  0  0  0  0
  -11.4121    6.1238   32.7730 H   0  0  0  0  0  0
  -12.5098    6.1275   35.4769 H   0  0  0  0  0  0
  -11.7733    3.9827   35.8799 H   0  0  0  0  0  0
  -12.1574    3.2635   33.3887 H   0  0  0  0  0  0
   -9.3568    4.3800   39.6107 H   0  0  0  0  0  0
   -8.6961    5.6490   35.1194 H   0  0  0  0  0  0
  -11.3188    3.6863   31.1410 H   0  0  0  0  0  0
  -10.1241    2.7740   32.0349 H   0  0  0  0  0  0
   -9.2702    4.4847   30.7938 H   0  0  0  0  0  0
  -13.4935    6.5171   32.9829 H   0  0  0  0  0  0
  1  5  1  0  0  0
  1  2  1  0  0  0
  1 17  1  0  0  0
  1 19  1  0  0  0
  2  3  1  0  0  0
  2 18  1  0  0  0
  2 20  1  0  0  0
  3  6  1  0  0  0
  3  4  1  0  0  0
  3 21  1  0  0  0
  4  5  1  0  0  0
  5 15  1  0  0  0
  5 22  1  0  0  0
  6 11  1  0  0  0
  6  7  1  0  0  0
  7  8  1  0  0  0
  7 12  2  0  0  0
  8  9  1  0  0  0
  8 23  1  0  0  0
  9 10  1  0  0  0
  9 14  2  0  0  0
 10 11  2  0  0  0
 10 13  1  0  0  0
 11 24  1  0  0  0
 15 16  1  0  0  0
 15 25  1  0  0  0
 15 26  1  0  0  0
 16 27  1  0  0  0
 17 28  1  0  0  0
M  END
> <s_m_entry_id>
3179

> <s_m_entry_name>
dock_pv.13

> <s_m_Source_Path>
/home/csk/Desktop/cluster/DUD-E-result/kith

> <s_m_Source_File>
dock_pv.maegz

> <i_m_Source_File_Index>
13

> <chembl_id>
CHEMBL271475

> <chembl_pref_name>
FIALURIDINE

> <i_lp_mmshare_version>
53161

> <i_f3d_flags>
0

> <r_lp_tautomer_probability>
0.999537046341301

> <s_lp_Force_Field>
OPLS_2005

> <r_lp_Energy>
25.682252

> <b_lp_Chiralities_Consistent>
1

> <s_lp_Variant>
CHEMBL2883_lig33-1

> <s_i_glide_gridfile>
glide-grid_2b8t

> <i_i_glide_lignum>
35

> <i_i_glide_rotatable_bonds>
4

> <r_i_docking_score>
-10.0398131922955

> <r_i_glide_ligand_efficiency>
-0.557767399571972

> <r_i_glide_ligand_efficiency_sa>
-1.46176411099017

> <r_i_glide_ligand_efficiency_ln>
-2.58068221164674

> <r_i_glide_gscore>
-10.0398131922955

> <r_i_glide_lipo>
-1.77017537207749

> <r_i_glide_hbond>
-1.21305081296503

> <r_i_glide_metal>
0

> <r_i_glide_rewards>
-3.90058605799107

> <r_i_glide_evdw>
-31.3382778167725

> <r_i_glide_ecoul>
-11.8956775665283

> <r_i_glide_erotb>
0.195264576555974

> <r_i_glide_esite>
0

> <r_i_glide_emodel>
-69.1247217540679

> <r_i_glide_energy>
-43.2339553833008

> <r_i_glide_einternal>
1.6002471446991

> <i_i_glide_confnum>
7

> <i_i_glide_posenum>
30

> <r_i_glide_eff_state_penalty>
0

> <s_user_duplicate_titles>
CHEMBL2883_lig33

> <s_m_subgroup_title>
dock_pv

> <s_m_subgroupid>
dock_pv

> <b_m_subgroup_collapsed>
1

$$$$
CHEMBL2883_lig18
                    3D
 Schrodinger Suite 2021-1.
 62 65  0  0  1  0            999 V2000
   -9.1050    4.7740   38.5828 N   0  0  0  0  0  0
  -10.0521    4.6099   37.6042 C   0  0  0  0  0  0
   -7.9245    5.4542   38.5473 C   0  0  0  0  0  0
   -7.5938    5.9612   37.2146 C   0  0  0  0  0  0
   -9.7459    5.2084   36.3952 N   0  0  0  0  0  0
   -8.5150    5.7985   36.2398 C   0  0  0  0  0  0
  -15.0309    2.9692   31.3262 C   0  0  0  0  0  0
  -13.7343    3.4963   31.7174 O   0  0  0  0  0  0
  -11.0736    3.9720   37.8555 O   0  0  0  0  0  0
  -10.8350    5.4293   35.4184 C   0  0  0  0  0  0
   -7.2392    5.5748   39.5589 O   0  0  0  0  0  0
  -15.0468    2.8579   29.7751 C   0  0  0  0  0  0
  -15.2057    1.5642   31.9924 C   0  0  0  0  0  0
  -16.1082    4.0406   31.6754 C   0  0  0  0  0  0
  -11.4286    4.1850   34.7073 C   0  0  0  0  0  0
  -13.2247    3.3177   33.0484 C   0  0  0  0  0  0
   -6.2393    6.6177   36.9907 C   0  0  0  0  0  0
  -12.3168    4.4969   33.4713 C   0  0  1  0  0  0
  -13.1773    5.5739   33.7821 O   0  0  0  0  0  0
  -15.9084    1.3910   33.1968 C   0  0  0  0  0  0
  -14.6158    0.4364   31.4018 C   0  0  0  0  0  0
  -13.9327    3.2145   29.0002 C   0  0  0  0  0  0
  -16.1961    2.3899   29.1163 C   0  0  0  0  0  0
  -15.7494    5.3942   31.7796 C   0  0  0  0  0  0
  -17.4619    3.6974   31.8326 C   0  0  0  0  0  0
  -18.4225    4.6718   32.0884 C   0  0  0  0  0  0
  -13.9681    3.1135   27.6118 C   0  0  0  0  0  0
  -16.2407    2.3078   27.7282 C   0  0  0  0  0  0
  -16.0289    0.1329   33.7813 C   0  0  0  0  0  0
  -14.7272   -0.8223   31.9876 C   0  0  0  0  0  0
  -16.7069    6.3729   32.0328 C   0  0  0  0  0  0
  -15.4367   -0.9705   33.1745 C   0  0  0  0  0  0
  -15.1246    2.6673   26.9793 C   0  0  0  0  0  0
  -18.0416    6.0073   32.1833 C   0  0  0  0  0  0
   -9.3141    4.3629   39.4831 H   0  0  0  0  0  0
   -8.3038    6.0327   35.2087 H   0  0  0  0  0  0
  -11.6396    5.9896   35.8992 H   0  0  0  0  0  0
  -10.4647    6.1067   34.6477 H   0  0  0  0  0  0
  -10.6249    3.5122   34.4055 H   0  0  0  0  0  0
  -12.0416    3.6523   35.4326 H   0  0  0  0  0  0
  -12.6609    2.3837   33.0651 H   0  0  0  0  0  0
  -14.0236    3.2098   33.7805 H   0  0  0  0  0  0
   -6.2160    7.1534   36.0408 H   0  0  0  0  0  0
   -5.4442    5.8703   36.9757 H   0  0  0  0  0  0
   -6.0145    7.3432   37.7744 H   0  0  0  0  0  0
  -11.6841    4.7877   32.6307 H   0  0  0  0  0  0
  -12.8413    6.3913   33.3835 H   0  0  0  0  0  0
  -16.3469    2.2341   33.7080 H   0  0  0  0  0  0
  -14.0423    0.5376   30.4910 H   0  0  0  0  0  0
  -13.0178    3.5552   29.4645 H   0  0  0  0  0  0
  -17.0691    2.0940   29.6762 H   0  0  0  0  0  0
  -14.7240    5.7002   31.6391 H   0  0  0  0  0  0
  -17.7845    2.6708   31.7437 H   0  0  0  0  0  0
  -19.4574    4.3882   32.2084 H   0  0  0  0  0  0
  -13.0970    3.3777   27.0308 H   0  0  0  0  0  0
  -17.1444    1.9755   27.2394 H   0  0  0  0  0  0
  -16.5696    0.0159   34.7086 H   0  0  0  0  0  0
  -14.2519   -1.6770   31.5287 H   0  0  0  0  0  0
  -16.4130    7.4099   32.1054 H   0  0  0  0  0  0
  -15.5176   -1.9466   33.6322 H   0  0  0  0  0  0
  -15.1507    2.6007   25.9016 H   0  0  0  0  0  0
  -18.7860    6.7644   32.3801 H   0  0  0  0  0  0
  1  2  1  0  0  0
  1  3  1  0  0  0
  1 35  1  0  0  0
  2  5  1  0  0  0
  2  9  2  0  0  0
  3  4  1  0  0  0
  3 11  2  0  0  0
  4  6  2  0  0  0
  4 17  1  0  0  0
  5 10  1  0  0  0
  5  6  1  0  0  0
  6 36  1  0  0  0
  7  8  1  0  0  0
  7 12  1  0  0  0
  7 13  1  0  0  0
  7 14  1  0  0  0
  8 16  1  0  0  0
 10 15  1  0  0  0
 10 37  1  0  0  0
 10 38  1  0  0  0
 12 22  2  0  0  0
 12 23  1  0  0  0
 13 20  2  0  0  0
 13 21  1  0  0  0
 14 24  2  0  0  0
 14 25  1  0  0  0
 15 18  1  0  0  0
 15 39  1  0  0  0
 15 40  1  0  0  0
 16 18  1  0  0  0
 16 41  1  0  0  0
 16 42  1  0  0  0
 17 43  1  0  0  0
 17 44  1  0  0  0
 17 45  1  0  0  0
 18 19  1  0  0  0
 18 46  1  0  0  0
 19 47  1  0  0  0
 20 29  1  0  0  0
 20 48  1  0  0  0
 21 30  2  0  0  0
 21 49  1  0  0  0
 22 27  1  0  0  0
 22 50  1  0  0  0
 23 28  2  0  0  0
 23 51  1  0  0  0
 24 31  1  0  0  0
 24 52  1  0  0  0
 25 26  2  0  0  0
 25 53  1  0  0  0
 26 34  1  0  0  0
 26 54  1  0  0  0
 27 33  2  0  0  0
 27 55  1  0  0  0
 28 33  1  0  0  0
 28 56  1  0  0  0
 29 32  2  0  0  0
 29 57  1  0  0  0
 30 32  1  0  0  0
 30 58  1  0  0  0
 31 34  2  0  0  0
 31 59  1  0  0  0
 32 60  1  0  0  0
 33 61  1  0  0  0
 34 62  1  0  0  0
M  END
> <s_m_entry_id>
3180

> <s_m_entry_name>
dock_pv.14

> <s_m_Source_Path>
/home/csk/Desktop/cluster/DUD-E-result/kith

> <s_m_Source_File>
dock_pv.maegz

> <i_m_Source_File_Index>
14

> <chembl_id>
CHEMBL341163

> <chembl_pref_name>
None

> <i_lp_mmshare_version>
53161

> <i_f3d_flags>
0

> <r_lp_tautomer_probability>
0.999537046341301

> <s_lp_Force_Field>
OPLS_2005

> <r_lp_Energy>
36.005657

> <b_lp_Chiralities_Consistent>
1

> <s_lp_Variant>
CHEMBL2883_lig18-1

> <s_i_glide_gridfile>
glide-grid_2b8t

> <i_i_glide_lignum>
19

> <i_i_glide_rotatable_bonds>
10

> <r_i_docking_score>
-10.0372977089665

> <r_i_glide_ligand_efficiency>
-0.295214638499014

> <r_i_glide_ligand_efficiency_sa>
-0.956380825667091

> <r_i_glide_ligand_efficiency_ln>
-2.21752060057515

> <r_i_glide_gscore>
-10.0372977089665

> <r_i_glide_lipo>
-3.24247716275522

> <r_i_glide_hbond>
-0.761279502649841

> <r_i_glide_metal>
0

> <r_i_glide_rewards>
-2.52958963388453

> <r_i_glide_evdw>
-51.236572265625

> <r_i_glide_ecoul>
-10.3307943344116

> <r_i_glide_erotb>
0.607496353766094

> <r_i_glide_esite>
0

> <r_i_glide_emodel>
-92.0849836988709

> <r_i_glide_energy>
-61.5673666000366

> <r_i_glide_einternal>
8.25453567504883

> <i_i_glide_confnum>
143

> <i_i_glide_posenum>
193

> <r_i_glide_eff_state_penalty>
0

> <s_user_duplicate_titles>
CHEMBL2883_lig18

> <s_m_subgroup_title>
dock_pv

> <s_m_subgroupid>
dock_pv

> <b_m_subgroup_collapsed>
1

$$$$
CHEMBL2883_lig22
                    3D
 Schrodinger Suite 2021-1.
 24 25  0  0  1  0            999 V2000
   -7.7247    5.9739   37.0533 C   0  0  0  0  0  0
   -8.6290    5.6152   36.1196 C   0  0  0  0  0  0
   -9.7571    4.8744   36.3938 N   0  0  0  0  0  0
   -9.9956    4.4026   37.6727 C   0  0  0  0  0  0
   -9.0400    4.7740   38.5830 N   0  0  0  0  0  0
   -7.9420    5.5733   38.4304 C   0  0  0  0  0  0
   -7.2410    5.9044   39.3802 O   0  0  0  0  0  0
  -10.9551    3.7311   38.0503 O   0  0  0  0  0  0
  -10.7097    4.6011   35.3256 C   0  0  2  0  0  0
  -10.1122    3.8377   34.3234 O   0  0  0  0  0  0
  -10.8061    3.9908   33.0856 C   0  0  0  0  0  0
  -11.8532    5.0788   33.3672 C   0  0  1  0  0  0
  -11.3192    5.7903   34.6010 C   0  0  0  0  0  0
  -12.0408    5.9738   32.2896 O   0  0  0  0  0  0
   -6.8483    6.5508   36.7969 H   0  0  0  0  0  0
   -8.5248    5.8726   35.0748 H   0  0  0  0  0  0
   -9.1872    4.4384   39.5271 H   0  0  0  0  0  0
  -11.5147    3.9854   35.7389 H   0  0  0  0  0  0
  -11.2776    3.0621   32.7603 H   0  0  0  0  0  0
  -10.0973    4.3377   32.3317 H   0  0  0  0  0  0
  -12.8021    4.5976   33.6148 H   0  0  0  0  0  0
  -10.5486    6.5189   34.3471 H   0  0  0  0  0  0
  -12.0874    6.2706   35.2078 H   0  0  0  0  0  0
  -12.5964    6.7085   32.5836 H   0  0  0  0  0  0
  1  2  2  0  0  0
  1  6  1  0  0  0
  1 15  1  0  0  0
  2  3  1  0  0  0
  2 16  1  0  0  0
  3  9  1  0  0  0
  3  4  1  0  0  0
  4  8  2  0  0  0
  4  5  1  0  0  0
  5  6  1  0  0  0
  5 17  1  0  0  0
  6  7  2  0  0  0
  9 10  1  0  0  0
  9 13  1  0  0  0
  9 18  1  0  0  0
 10 11  1  0  0  0
 11 12  1  0  0  0
 11 19  1  0  0  0
 11 20  1  0  0  0
 12 13  1  0  0  0
 12 14  1  0  0  0
 12 21  1  0  0  0
 13 22  1  0  0  0
 13 23  1  0  0  0
 14 24  1  0  0  0
M  END
> <s_m_entry_id>
3181

> <s_m_entry_name>
dock_pv.15

> <s_m_Source_Path>
/home/csk/Desktop/cluster/DUD-E-result/kith

> <s_m_Source_File>
dock_pv.maegz

> <i_m_Source_File_Index>
15

> <chembl_id>
CHEMBL1823507

> <chembl_pref_name>
None

> <i_lp_mmshare_version>
53161

> <i_f3d_flags>
0

> <r_lp_tautomer_probability>
0.999537046341301

> <s_lp_Force_Field>
OPLS_2005

> <r_lp_Energy>
24.466316

> <b_lp_Chiralities_Consistent>
1

> <s_lp_Variant>
CHEMBL2883_lig22-1

> <s_i_glide_gridfile>
glide-grid_2b8t

> <i_i_glide_lignum>
24

> <i_i_glide_rotatable_bonds>
2

> <r_i_docking_score>
-9.83234887792552

> <r_i_glide_ligand_efficiency>
-0.702310634137537

> <r_i_glide_ligand_efficiency_sa>
-1.69266854042557

> <r_i_glide_ligand_efficiency_ln>
-2.70189447083128

> <r_i_glide_gscore>
-9.83234887792552

> <r_i_glide_lipo>
-1.38813213040293

> <r_i_glide_hbond>
-0.927774553740991

> <r_i_glide_metal>
0

> <r_i_glide_rewards>
-4.72029839200404

> <r_i_glide_evdw>
-30.3962993621826

> <r_i_glide_ecoul>
-10.4437170028687

> <r_i_glide_erotb>
0.290228716761861

> <r_i_glide_esite>
0

> <r_i_glide_emodel>
-64.6236034640661

> <r_i_glide_energy>
-40.8400163650513

> <r_i_glide_einternal>
0.865238130092621

> <i_i_glide_confnum>
2

> <i_i_glide_posenum>
381

> <r_i_glide_eff_state_penalty>
0

> <s_user_duplicate_titles>
CHEMBL2883_lig22

> <s_m_subgroup_title>
dock_pv

> <s_m_subgroupid>
dock_pv

> <b_m_subgroup_collapsed>
1

$$$$
CHEMBL2883_lig19
                    3D
 Schrodinger Suite 2021-1.
 40 41  0  0  1  0            999 V2000
  -10.8197    4.7205   35.3173 C   0  0  2  0  0  0
   -7.7435    5.9110   37.0474 C   0  0  0  0  0  0
   -8.6766    5.6011   36.1213 C   0  0  0  0  0  0
   -9.8414    4.9165   36.3870 N   0  0  0  0  0  0
  -10.1003    4.4503   37.6641 C   0  0  0  0  0  0
   -9.1342    4.7739   38.5817 N   0  0  0  0  0  0
   -7.9815    5.4850   38.4265 C   0  0  0  0  0  0
   -7.2410    5.6954   39.3833 O   0  0  0  0  0  0
  -11.0911    3.8207   38.0328 O   0  0  0  0  0  0
  -10.2404    4.0361   34.2421 O   0  0  0  0  0  0
  -10.9407    4.2719   33.0170 C   0  0  1  0  0  0
  -11.9149    5.4141   33.3667 C   0  0  2  0  0  0
  -11.4448    5.9666   34.7082 C   0  0  0  0  0  0
   -9.9523    4.6531   31.8917 C   0  0  0  0  0  0
   -9.1287    3.5760   31.4766 O   0  0  0  0  0  0
  -13.6399    4.8396   33.4171 S   0  0  0  0  0  0
  -14.3192    5.1510   31.5173 S   0  0  0  0  0  0
   -6.4404    6.6250   36.7243 C   0  0  0  0  0  0
  -13.7753    3.7028   30.5696 C   0  0  0  0  0  0
  -14.0754    3.8110   29.0694 C   0  0  0  0  0  0
  -13.6411    2.6113   28.3805 N   0  0  0  0  0  0
  -11.6183    4.0817   35.7034 H   0  0  0  0  0  0
   -8.5568    5.8563   35.0767 H   0  0  0  0  0  0
   -9.2825    4.4273   39.5213 H   0  0  0  0  0  0
  -11.4796    3.3701   32.7206 H   0  0  0  0  0  0
  -11.9066    6.2117   32.6216 H   0  0  0  0  0  0
  -10.6893    6.7411   34.5728 H   0  0  0  0  0  0
  -12.2467    6.3594   35.3371 H   0  0  0  0  0  0
  -10.5086    4.9893   31.0148 H   0  0  0  0  0  0
   -9.3303    5.4905   32.2079 H   0  0  0  0  0  0
   -9.6735    2.8418   31.1570 H   0  0  0  0  0  0
   -5.5806    6.0135   37.0051 H   0  0  0  0  0  0
   -6.3551    6.8351   35.6570 H   0  0  0  0  0  0
   -6.3746    7.5741   37.2565 H   0  0  0  0  0  0
  -14.2557    2.8209   30.9949 H   0  0  0  0  0  0
  -12.7027    3.5777   30.7174 H   0  0  0  0  0  0
  -13.5591    4.6731   28.6457 H   0  0  0  0  0  0
  -15.1421    3.9580   28.8977 H   0  0  0  0  0  0
  -12.6941    2.3698   28.6797 H   0  0  0  0  0  0
  -14.2027    1.8239   28.6673 H   0  0  0  0  0  0
  1 13  1  0  0  0
  1  4  1  0  0  0
  1 10  1  0  0  0
  1 22  1  0  0  0
  2  7  1  0  0  0
  2  3  2  0  0  0
  2 18  1  0  0  0
  3  4  1  0  0  0
  3 23  1  0  0  0
  4  5  1  0  0  0
  5  6  1  0  0  0
  5  9  2  0  0  0
  6  7  1  0  0  0
  6 24  1  0  0  0
  7  8  2  0  0  0
 10 11  1  0  0  0
 11 12  1  0  0  0
 11 14  1  0  0  0
 11 25  1  0  0  0
 12 13  1  0  0  0
 12 16  1  0  0  0
 12 26  1  0  0  0
 13 27  1  0  0  0
 13 28  1  0  0  0
 14 15  1  0  0  0
 14 29  1  0  0  0
 14 30  1  0  0  0
 15 31  1  0  0  0
 16 17  1  0  0  0
 17 19  1  0  0  0
 18 32  1  0  0  0
 18 33  1  0  0  0
 18 34  1  0  0  0
 19 20  1  0  0  0
 19 35  1  0  0  0
 19 36  1  0  0  0
 20 21  1  0  0  0
 20 37  1  0  0  0
 20 38  1  0  0  0
 21 39  1  0  0  0
 21 40  1  0  0  0
M  END
> <s_m_entry_id>
3182

> <s_m_entry_name>
dock_pv.16

> <s_m_Source_Path>
/home/csk/Desktop/cluster/DUD-E-result/kith

> <s_m_Source_File>
dock_pv.maegz

> <i_m_Source_File_Index>
16

> <chembl_id>
CHEMBL487410

> <chembl_pref_name>
None

> <i_lp_mmshare_version>
53161

> <i_f3d_flags>
0

> <r_lp_tautomer_probability>
0.999537046341301

> <s_lp_Force_Field>
OPLS_2005

> <r_lp_Energy>
17.845824

> <b_lp_Chiralities_Consistent>
1

> <s_lp_Variant>
CHEMBL2883_lig19-1

> <s_i_glide_gridfile>
glide-grid_2b8t

> <i_i_glide_lignum>
21

> <i_i_glide_rotatable_bonds>
7

> <r_i_docking_score>
-9.79503121596528

> <r_i_glide_ligand_efficiency>
-0.466430057903109

> <r_i_glide_ligand_efficiency_sa>
-1.28684516203379

> <r_i_glide_ligand_efficiency_ln>
-2.42180167542319

> <r_i_glide_gscore>
-9.79503121596528

> <r_i_glide_lipo>
-1.83869552584917

> <r_i_glide_hbond>
-0.946825860345169

> <r_i_glide_metal>
0

> <r_i_glide_rewards>
-3.62050325951904

> <r_i_glide_evdw>
-38.5574760437012

> <r_i_glide_ecoul>
-13.696569442749

> <r_i_glide_erotb>
0.593352648345504

> <r_i_glide_esite>
0

> <r_i_glide_emodel>
-83.1616037726806

> <r_i_glide_energy>
-52.2540454864502

> <r_i_glide_einternal>
3.01038813591003

> <i_i_glide_confnum>
92

> <i_i_glide_posenum>
35

> <r_i_glide_eff_state_penalty>
0

> <s_user_duplicate_titles>
CHEMBL2883_lig19

> <s_m_subgroup_title>
dock_pv

> <s_m_subgroupid>
dock_pv

> <b_m_subgroup_collapsed>
1

$$$$
CHEMBL2883_lig20
                    3D
 Schrodinger Suite 2021-1.
 32 33  0  0  1  0            999 V2000
   -9.1276    4.7740   38.5792 N   0  0  0  0  0  0
  -10.0774    4.4344   37.6497 C   0  0  0  0  0  0
   -9.7960    4.8778   36.3685 N   0  0  0  0  0  0
   -8.6358    5.5737   36.1138 C   0  0  0  0  0  0
   -7.7195    5.8990   37.0501 C   0  0  0  0  0  0
   -7.9731    5.4827   38.4290 C   0  0  0  0  0  0
  -11.0748    3.8121   38.0126 O   0  0  0  0  0  0
   -7.2410    5.6987   39.3894 O   0  0  0  0  0  0
   -6.4134    6.6102   36.7360 C   0  0  0  0  0  0
  -10.7546    4.6604   35.2861 C   0  0  2  0  0  0
  -10.1488    4.0054   34.2058 O   0  0  0  0  0  0
  -10.8677    4.2221   32.9855 C   0  0  1  0  0  0
  -11.8726    5.3439   33.3404 C   0  0  2  0  0  0
  -11.4055    5.8984   34.6838 C   0  0  0  0  0  0
   -9.8948    4.6350   31.8545 C   0  0  0  0  0  0
   -9.0801    3.5740   31.3852 O   0  0  0  0  0  0
  -13.2223    4.8127   33.4551 N   0  0  0  0  0  0
  -14.0171    5.1739   32.5837 N   0  3  0  0  0  0
  -14.8365    5.5594   31.8933 N   0  5  0  0  0  0
   -9.2884    4.4388   39.5206 H   0  0  0  0  0  0
   -8.5032    5.8198   35.0687 H   0  0  0  0  0  0
   -5.5571    6.0139   37.0558 H   0  0  0  0  0  0
   -6.3025    6.7862   35.6652 H   0  0  0  0  0  0
   -6.3666    7.5739   37.2417 H   0  0  0  0  0  0
  -11.5324    3.9859   35.6562 H   0  0  0  0  0  0
  -11.3853    3.3097   32.6790 H   0  0  0  0  0  0
  -11.8394    6.1512   32.5997 H   0  0  0  0  0  0
  -10.6607    6.6831   34.5458 H   0  0  0  0  0  0
  -12.1996    6.2805   35.3273 H   0  0  0  0  0  0
   -9.2660    5.4645   32.1791 H   0  0  0  0  0  0
  -10.4663    4.9926   30.9967 H   0  0  0  0  0  0
   -9.6380    2.8446   31.0736 H   0  0  0  0  0  0
  1  2  1  0  0  0
  1  6  1  0  0  0
  1 20  1  0  0  0
  2  3  1  0  0  0
  2  7  2  0  0  0
  3 10  1  0  0  0
  3  4  1  0  0  0
  4  5  2  0  0  0
  4 21  1  0  0  0
  5  6  1  0  0  0
  5  9  1  0  0  0
  6  8  2  0  0  0
  9 22  1  0  0  0
  9 23  1  0  0  0
  9 24  1  0  0  0
 10 11  1  0  0  0
 10 14  1  0  0  0
 10 25  1  0  0  0
 11 12  1  0  0  0
 12 13  1  0  0  0
 12 15  1  0  0  0
 12 26  1  0  0  0
 13 14  1  0  0  0
 13 17  1  0  0  0
 13 27  1  0  0  0
 14 28  1  0  0  0
 14 29  1  0  0  0
 15 16  1  0  0  0
 15 30  1  0  0  0
 15 31  1  0  0  0
 16 32  1  0  0  0
 17 18  2  0  0  0
 18 19  2  0  0  0
M  CHG  2  18   1  19  -1
M  END
> <s_m_entry_id>
3183

> <s_m_entry_name>
dock_pv.17

> <s_m_Source_Path>
/home/csk/Desktop/cluster/DUD-E-result/kith

> <s_m_Source_File>
dock_pv.maegz

> <i_m_Source_File_Index>
17

> <chembl_id>
CHEMBL129

> <chembl_pref_name>
ZIDOVUDINE

> <i_lp_mmshare_version>
53161

> <i_f3d_flags>
0

> <r_lp_tautomer_probability>
0.999537046341301

> <s_lp_Force_Field>
OPLS_2005

> <r_lp_Energy>
21.587007

> <b_lp_Chiralities_Consistent>
1

> <s_lp_Variant>
CHEMBL2883_lig20-1

> <s_i_glide_gridfile>
glide-grid_2b8t

> <i_i_glide_lignum>
22

> <i_i_glide_rotatable_bonds>
4

> <r_i_docking_score>
-9.74618490959817

> <r_i_glide_ligand_efficiency>
-0.512957100505167

> <r_i_glide_ligand_efficiency_sa>
-1.36877557136819

> <r_i_glide_ligand_efficiency_ln>
-2.47086720344139

> <r_i_glide_gscore>
-9.74618490959817

> <r_i_glide_lipo>
-1.75242522229815

> <r_i_glide_hbond>
-0.691218408054992

> <r_i_glide_metal>
0

> <r_i_glide_rewards>
-4.12199912367382

> <r_i_glide_evdw>
-40.9214515686035

> <r_i_glide_ecoul>
-11.0580644607544

> <r_i_glide_erotb>
0.52424009197212

> <r_i_glide_esite>
0

> <r_i_glide_emodel>
-79.8326124387404

> <r_i_glide_energy>
-51.9795160293579

> <r_i_glide_einternal>
4.06889057159424

> <i_i_glide_confnum>
92

> <i_i_glide_posenum>
95

> <r_i_glide_eff_state_penalty>
0

> <s_user_duplicate_titles>
CHEMBL2883_lig20

> <s_m_subgroup_title>
dock_pv

> <s_m_subgroupid>
dock_pv

> <b_m_subgroup_collapsed>
1

$$$$
CHEMBL2883_lig2
                    3D
 Schrodinger Suite 2021-1.
 53 55  0  0  1  0            999 V2000
   -9.1266    4.7740   38.5830 N   0  0  0  0  0  0
  -10.0265    4.3837   37.6236 C   0  0  0  0  0  0
   -7.9650    5.4777   38.4664 C   0  0  0  0  0  0
   -7.6700    5.8727   37.0930 C   0  0  0  0  0  0
   -9.7192    4.8088   36.3440 N   0  0  0  0  0  0
   -8.5472    5.5067   36.1343 C   0  0  0  0  0  0
  -11.0098    3.7220   37.9530 O   0  0  0  0  0  0
   -7.2411    5.6856   39.4375 O   0  0  0  0  0  0
  -13.6958    4.2948   31.9660 N   0  0  0  0  0  0
  -10.9398    5.4689   34.2278 C   0  0  0  0  0  0
  -12.0244    5.5714   33.4430 C   0  0  0  0  0  0
  -10.6285    4.3899   35.2531 C   0  0  0  0  0  0
  -15.0022    3.6097   32.0344 C   0  0  0  0  0  0
  -13.8350    5.4672   31.0747 C   0  0  0  0  0  0
   -6.3584    6.5890   36.8075 C   0  0  0  0  0  0
  -12.5480    5.9294   30.3863 C   0  0  0  0  0  0
  -14.9914    2.1645   32.5329 C   0  0  0  0  0  0
  -13.2272    4.6374   33.3281 C   0  0  0  0  0  0
  -11.5467    5.0192   30.0276 C   0  0  0  0  0  0
  -12.4357    7.2678   29.9971 C   0  0  0  0  0  0
  -13.9615    1.2859   32.1836 C   0  0  0  0  0  0
  -16.1266    1.6641   33.1783 C   0  0  0  0  0  0
  -11.3068    7.7030   29.3050 C   0  0  0  0  0  0
  -14.0416   -0.0613   32.5329 C   0  0  0  0  0  0
  -16.1997    0.3232   33.5450 C   0  0  0  0  0  0
  -10.4169    5.4531   29.3405 C   0  0  0  0  0  0
  -10.3002    6.7948   28.9839 C   0  0  0  0  0  0
  -15.1520   -0.5349   33.2258 C   0  0  0  0  0  0
   -9.3136    4.4405   39.5197 H   0  0  0  0  0  0
   -8.3445    5.6918   35.0895 H   0  0  0  0  0  0
  -10.2072    6.2530   34.1132 H   0  0  0  0  0  0
  -12.0410    6.4354   32.8031 H   0  0  0  0  0  0
  -10.1224    3.5858   34.7186 H   0  0  0  0  0  0
  -11.5704    3.9739   35.6133 H   0  0  0  0  0  0
  -15.7316    4.2063   32.5830 H   0  0  0  0  0  0
  -15.4135    3.5224   31.0270 H   0  0  0  0  0  0
  -14.4777    5.2093   30.2318 H   0  0  0  0  0  0
  -14.3420    6.2930   31.5772 H   0  0  0  0  0  0
   -6.2252    6.7725   35.7392 H   0  0  0  0  0  0
   -5.5082    5.9952   37.1446 H   0  0  0  0  0  0
   -6.3257    7.5538   37.3149 H   0  0  0  0  0  0
  -13.0404    3.7238   33.8935 H   0  0  0  0  0  0
  -14.0412    5.1841   33.8024 H   0  0  0  0  0  0
  -11.6415    3.9736   30.2827 H   0  0  0  0  0  0
  -13.2176    7.9748   30.2391 H   0  0  0  0  0  0
  -13.1048    1.6441   31.6299 H   0  0  0  0  0  0
  -16.9605    2.3164   33.3943 H   0  0  0  0  0  0
  -11.2177    8.7403   29.0150 H   0  0  0  0  0  0
  -13.2421   -0.7364   32.2624 H   0  0  0  0  0  0
  -17.0722   -0.0540   34.0584 H   0  0  0  0  0  0
   -9.6487    4.7419   29.0762 H   0  0  0  0  0  0
   -9.4287    7.1308   28.4414 H   0  0  0  0  0  0
  -15.2078   -1.5788   33.4971 H   0  0  0  0  0  0
  1  2  1  0  0  0
  1  3  1  0  0  0
  1 29  1  0  0  0
  2  5  1  0  0  0
  2  7  2  0  0  0
  3  4  1  0  0  0
  3  8  2  0  0  0
  4  6  2  0  0  0
  4 15  1  0  0  0
  5 12  1  0  0  0
  5  6  1  0  0  0
  6 30  1  0  0  0
  9 18  1  0  0  0
  9 13  1  0  0  0
  9 14  1  0  0  0
 10 12  1  0  0  0
 10 11  2  0  0  0
 10 31  1  0  0  0
 11 18  1  0  0  0
 11 32  1  0  0  0
 12 33  1  0  0  0
 12 34  1  0  0  0
 13 17  1  0  0  0
 13 35  1  0  0  0
 13 36  1  0  0  0
 14 16  1  0  0  0
 14 37  1  0  0  0
 14 38  1  0  0  0
 15 39  1  0  0  0
 15 40  1  0  0  0
 15 41  1  0  0  0
 16 19  1  0  0  0
 16 20  2  0  0  0
 17 21  2  0  0  0
 17 22  1  0  0  0
 18 42  1  0  0  0
 18 43  1  0  0  0
 19 26  2  0  0  0
 19 44  1  0  0  0
 20 23  1  0  0  0
 20 45  1  0  0  0
 21 24  1  0  0  0
 21 46  1  0  0  0
 22 25  2  0  0  0
 22 47  1  0  0  0
 23 27  2  0  0  0
 23 48  1  0  0  0
 24 28  2  0  0  0
 24 49  1  0  0  0
 25 28  1  0  0  0
 25 50  1  0  0  0
 26 27  1  0  0  0
 26 51  1  0  0  0
 27 52  1  0  0  0
 28 53  1  0  0  0
M  END
> <s_m_entry_id>
3184

> <s_m_entry_name>
dock_pv.18

> <s_m_Source_Path>
/home/csk/Desktop/cluster/DUD-E-result/kith

> <s_m_Source_File>
dock_pv.maegz

> <i_m_Source_File_Index>
18

> <chembl_id>
CHEMBL316971

> <chembl_pref_name>
None

> <i_lp_mmshare_version>
53161

> <i_f3d_flags>
0

> <r_lp_tautomer_probability>
0.999537046341301

> <s_lp_Force_Field>
OPLS_2005

> <r_lp_Energy>
21.19866

> <b_lp_Chiralities_Consistent>
1

> <s_lp_Variant>
CHEMBL2883_lig2-1

> <s_i_glide_gridfile>
glide-grid_2b8t

> <i_i_glide_lignum>
2

> <i_i_glide_rotatable_bonds>
8

> <r_i_docking_score>
-9.6680405125092

> <r_i_glide_ligand_efficiency>
-0.345287161161043

> <r_i_glide_ligand_efficiency_sa>
-1.04849518454728

> <r_i_glide_ligand_efficiency_ln>
-2.23166761629132

> <r_i_glide_gscore>
-9.6680405125092

> <r_i_glide_lipo>
-3.24556827681845

> <r_i_glide_hbond>
-0.656753151439115

> <r_i_glide_metal>
0

> <r_i_glide_rewards>
-3.03577916666667

> <r_i_glide_evdw>
-47.5270843505859

> <r_i_glide_ecoul>
-6.19996213912964

> <r_i_glide_erotb>
0.576408620813776

> <r_i_glide_esite>
0

> <r_i_glide_emodel>
-80.1532401665787

> <r_i_glide_energy>
-53.7270464897156

> <r_i_glide_einternal>
10.7118692398071

> <i_i_glide_confnum>
62

> <i_i_glide_posenum>
76

> <r_i_glide_eff_state_penalty>
0

> <s_user_duplicate_titles>
CHEMBL2883_lig2

> <s_m_subgroup_title>
dock_pv

> <s_m_subgroupid>
dock_pv

> <b_m_subgroup_collapsed>
1

$$$$
CHEMBL2883_lig5
                    3D
 Schrodinger Suite 2021-1.
 60 63  0  0  1  0            999 V2000
   -9.2241    4.7735   38.5600 N   0  0  0  0  0  0
  -10.1901    4.4730   37.6307 C   0  0  0  0  0  0
   -8.0338    5.4201   38.4078 C   0  0  0  0  0  0
   -7.7816    5.8340   37.0276 C   0  0  0  0  0  0
   -9.9372    4.9488   36.3574 N   0  0  0  0  0  0
   -8.7380    5.5753   36.1071 C   0  0  0  0  0  0
  -14.6487    2.8357   31.3897 C   0  0  0  0  0  0
  -11.1824    3.8321   37.9753 O   0  0  0  0  0  0
   -7.2604    5.5743   39.3547 O   0  0  0  0  0  0
  -14.7559    2.6999   29.8323 C   0  0  0  0  0  0
  -15.0286    1.4910   32.0919 C   0  0  0  0  0  0
  -15.6105    4.0234   31.7204 C   0  0  0  0  0  0
  -13.2411    3.1260   31.7708 N   0  0  1  0  0  0
  -10.5477    3.7250   34.2379 C   0  0  0  0  0  0
  -11.3428    3.0764   33.3628 C   0  0  0  0  0  0
  -10.9581    4.7346   35.3054 C   0  0  0  0  0  0
   -6.4410    6.4816   36.7001 C   0  0  0  0  0  0
  -12.8476    3.2018   33.1833 C   0  0  0  0  0  0
  -15.8942    2.1079   29.2541 C   0  0  0  0  0  0
  -13.7666    3.1986   28.9646 C   0  0  0  0  0  0
  -17.0043    3.8271   31.7567 C   0  0  0  0  0  0
  -15.1275    5.3354   31.8654 C   0  0  0  0  0  0
  -14.6037    0.2713   31.5438 C   0  0  0  0  0  0
  -15.7211    1.4600   33.3132 C   0  0  0  0  0  0
  -16.0030    6.4016   32.0555 C   0  0  0  0  0  0
  -16.0386    2.0141   27.8725 C   0  0  0  0  0  0
  -13.8993    3.0906   27.5828 C   0  0  0  0  0  0
  -14.8690   -0.9376   32.1829 C   0  0  0  0  0  0
  -16.0090    0.2538   33.9450 C   0  0  0  0  0  0
  -17.8804    4.8923   31.9447 C   0  0  0  0  0  0
  -15.5776   -0.9418   33.3795 C   0  0  0  0  0  0
  -15.0364    2.5015   27.0408 C   0  0  0  0  0  0
  -17.3750    6.1786   32.0958 C   0  0  0  0  0  0
   -9.3870    4.4233   39.4953 H   0  0  0  0  0  0
   -8.6152    5.8197   35.0604 H   0  0  0  0  0  0
  -12.6127    2.5168   31.2467 H   0  0  0  0  0  0
   -9.4924    3.5059   34.1901 H   0  0  0  0  0  0
  -10.8683    2.3756   32.6869 H   0  0  0  0  0  0
  -11.9354    4.4618   35.7078 H   0  0  0  0  0  0
  -11.1108    5.6931   34.8076 H   0  0  0  0  0  0
   -6.3620    6.7283   35.6399 H   0  0  0  0  0  0
   -5.6145    5.8120   36.9445 H   0  0  0  0  0  0
   -6.3093    7.4054   37.2651 H   0  0  0  0  0  0
  -13.2870    2.3832   33.7510 H   0  0  0  0  0  0
  -13.2052    4.1375   33.6138 H   0  0  0  0  0  0
  -16.6825    1.7150   29.8772 H   0  0  0  0  0  0
  -12.8746    3.6695   29.3504 H   0  0  0  0  0  0
  -17.4237    2.8410   31.6285 H   0  0  0  0  0  0
  -14.0691    5.5436   31.8036 H   0  0  0  0  0  0
  -14.0415    0.2682   30.6223 H   0  0  0  0  0  0
  -16.0371    2.3740   33.7884 H   0  0  0  0  0  0
  -15.6180    7.4047   32.1592 H   0  0  0  0  0  0
  -16.9282    1.5708   27.4513 H   0  0  0  0  0  0
  -13.1194    3.4645   26.9357 H   0  0  0  0  0  0
  -14.5191   -1.8677   31.7595 H   0  0  0  0  0  0
  -16.5480    0.2482   34.8810 H   0  0  0  0  0  0
  -18.9461    4.7188   31.9702 H   0  0  0  0  0  0
  -15.7833   -1.8786   33.8773 H   0  0  0  0  0  0
  -15.1385    2.4273   25.9685 H   0  0  0  0  0  0
  -18.0496    7.0093   32.2403 H   0  0  0  0  0  0
  1  2  1  0  0  0
  1  3  1  0  0  0
  1 34  1  0  0  0
  2  5  1  0  0  0
  2  8  2  0  0  0
  3  4  1  0  0  0
  3  9  2  0  0  0
  4  6  2  0  0  0
  4 17  1  0  0  0
  5 16  1  0  0  0
  5  6  1  0  0  0
  6 35  1  0  0  0
  7 13  1  0  0  0
  7 10  1  0  0  0
  7 11  1  0  0  0
  7 12  1  0  0  0
 10 19  2  0  0  0
 10 20  1  0  0  0
 11 23  2  0  0  0
 11 24  1  0  0  0
 12 21  2  0  0  0
 12 22  1  0  0  0
 13 18  1  0  0  0
 13 36  1  0  0  0
 14 16  1  0  0  0
 14 15  2  0  0  0
 14 37  1  0  0  0
 15 18  1  0  0  0
 15 38  1  0  0  0
 16 39  1  0  0  0
 16 40  1  0  0  0
 17 41  1  0  0  0
 17 42  1  0  0  0
 17 43  1  0  0  0
 18 44  1  0  0  0
 18 45  1  0  0  0
 19 26  1  0  0  0
 19 46  1  0  0  0
 20 27  2  0  0  0
 20 47  1  0  0  0
 21 30  1  0  0  0
 21 48  1  0  0  0
 22 25  2  0  0  0
 22 49  1  0  0  0
 23 28  1  0  0  0
 23 50  1  0  0  0
 24 29  2  0  0  0
 24 51  1  0  0  0
 25 33  1  0  0  0
 25 52  1  0  0  0
 26 32  2  0  0  0
 26 53  1  0  0  0
 27 32  1  0  0  0
 27 54  1  0  0  0
 28 31  2  0  0  0
 28 55  1  0  0  0
 29 31  1  0  0  0
 29 56  1  0  0  0
 30 33  2  0  0  0
 30 57  1  0  0  0
 31 58  1  0  0  0
 32 59  1  0  0  0
 33 60  1  0  0  0
M  END
> <s_m_entry_id>
3185

> <s_m_entry_name>
dock_pv.19

> <s_m_Source_Path>
/home/csk/Desktop/cluster/DUD-E-result/kith

> <s_m_Source_File>
dock_pv.maegz

> <i_m_Source_File_Index>
19

> <chembl_id>
CHEMBL322230

> <chembl_pref_name>
None

> <i_lp_mmshare_version>
53161

> <i_f3d_flags>
0

> <r_lp_tautomer_probability>
0.999537046341301

> <s_lp_Force_Field>
OPLS_2005

> <r_lp_Energy>
37.021485

> <b_lp_Chiralities_Consistent>
1

> <s_lp_Variant>
CHEMBL2883_lig5-1

> <s_i_glide_gridfile>
glide-grid_2b8t

> <i_i_glide_lignum>
5

> <i_i_glide_rotatable_bonds>
8

> <r_i_docking_score>
-9.54038073417326

> <r_i_glide_ligand_efficiency>
-0.289102446490099

> <r_i_glide_ligand_efficiency_sa>
-0.927306020921996

> <r_i_glide_ligand_efficiency_ln>
-2.12173127783239

> <r_i_glide_gscore>
-9.54038073417326

> <r_i_glide_lipo>
-3.06332792993906

> <r_i_glide_hbond>
-0.78258293580226

> <r_i_glide_metal>
0

> <r_i_glide_rewards>
-2.61517355481865

> <r_i_glide_evdw>
-50.9336547851562

> <r_i_glide_ecoul>
-7.43983936309814

> <r_i_glide_erotb>
0.583362330109242

> <r_i_glide_esite>
0

> <r_i_glide_emodel>
-87.9014249308828

> <r_i_glide_energy>
-58.3734941482544

> <r_i_glide_einternal>
9.43208694458008

> <i_i_glide_confnum>
195

> <i_i_glide_posenum>
84

> <r_i_glide_eff_state_penalty>
0

> <s_user_duplicate_titles>
CHEMBL2883_lig5

> <s_m_subgroup_title>
dock_pv

> <s_m_subgroupid>
dock_pv

> <b_m_subgroup_collapsed>
1

$$$$
CHEMBL2883_lig18
                    3D
 Schrodinger Suite 2021-1.
 62 65  0  0  1  0            999 V2000
   -9.1239    4.7740   38.5829 N   0  0  0  0  0  0
  -10.1052    4.4288   37.6901 C   0  0  0  0  0  0
   -7.9895    5.5044   38.3958 C   0  0  0  0  0  0
   -7.7793    5.8932   36.9996 C   0  0  0  0  0  0
   -9.8951    4.8697   36.3959 N   0  0  0  0  0  0
   -8.7328    5.5497   36.1036 C   0  0  0  0  0  0
  -14.7775    3.4795   31.2653 C   0  0  0  0  0  0
  -13.4898    4.0084   31.6566 O   0  0  0  0  0  0
  -11.0763    3.7896   38.0940 O   0  0  0  0  0  0
  -10.8890    4.4744   35.3741 C   0  0  0  0  0  0
   -7.2412    5.7512   39.3397 O   0  0  0  0  0  0
  -14.9578    2.1432   32.0508 C   0  0  0  0  0  0
  -15.8615    4.5840   31.4594 C   0  0  0  0  0  0
  -14.7221    3.2071   29.7374 C   0  0  0  0  0  0
  -11.4163    5.6076   34.4535 C   0  0  0  0  0  0
  -13.1748    4.2420   33.0376 C   0  0  0  0  0  0
   -6.4704    6.5797   36.6261 C   0  0  0  0  0  0
  -11.9116    5.1371   33.0597 C   0  0  2  0  0  0
  -10.8573    4.4408   32.4164 O   0  0  0  0  0  0
  -17.2294    4.2712   31.4332 C   0  0  0  0  0  0
  -15.4909    5.9300   31.6171 C   0  0  0  0  0  0
  -15.9120    1.9709   33.0645 C   0  0  0  0  0  0
  -14.1146    1.0630   31.7439 C   0  0  0  0  0  0
  -13.6927    3.7294   28.9393 C   0  0  0  0  0  0
  -15.6959    2.3952   29.1356 C   0  0  0  0  0  0
  -15.6512    2.1225   27.7712 C   0  0  0  0  0  0
  -16.0446    0.7516   33.7225 C   0  0  0  0  0  0
  -14.2431   -0.1578   32.4019 C   0  0  0  0  0  0
  -18.1928    5.2601   31.6022 C   0  0  0  0  0  0
  -16.4521    6.9216   31.7812 C   0  0  0  0  0  0
  -13.6426    3.4508   27.5755 C   0  0  0  0  0  0
  -17.8001    6.5831   31.7826 C   0  0  0  0  0  0
  -15.2140   -0.3112   33.3837 C   0  0  0  0  0  0
  -14.6229    2.6488   26.9954 C   0  0  0  0  0  0
   -9.2495    4.4359   39.5300 H   0  0  0  0  0  0
   -8.6165    5.7385   35.0450 H   0  0  0  0  0  0
  -10.3805    3.7300   34.7585 H   0  0  0  0  0  0
  -11.7543    3.9641   35.7954 H   0  0  0  0  0  0
  -12.2178    6.1440   34.9640 H   0  0  0  0  0  0
  -10.6442    6.3566   34.2860 H   0  0  0  0  0  0
  -12.9959    3.2998   33.5576 H   0  0  0  0  0  0
  -14.0075    4.7369   33.5458 H   0  0  0  0  0  0
   -6.3848    6.7259   35.5477 H   0  0  0  0  0  0
   -5.6094    5.9891   36.9471 H   0  0  0  0  0  0
   -6.4131    7.5622   37.0966 H   0  0  0  0  0  0
  -12.1169    6.0239   32.4582 H   0  0  0  0  0  0
  -11.2388    3.9312   31.6903 H   0  0  0  0  0  0
  -17.5566    3.2537   31.2825 H   0  0  0  0  0  0
  -14.4532    6.2281   31.6006 H   0  0  0  0  0  0
  -16.5607    2.7739   33.3724 H   0  0  0  0  0  0
  -13.3521    1.1750   30.9862 H   0  0  0  0  0  0
  -12.9143    4.3435   29.3693 H   0  0  0  0  0  0
  -16.4934    1.9686   29.7254 H   0  0  0  0  0  0
  -16.4126    1.5031   27.3240 H   0  0  0  0  0  0
  -16.7820    0.6313   34.5017 H   0  0  0  0  0  0
  -13.5858   -0.9790   32.1587 H   0  0  0  0  0  0
  -19.2404    5.0009   31.5867 H   0  0  0  0  0  0
  -16.1523    7.9519   31.9026 H   0  0  0  0  0  0
  -12.8382    3.8459   26.9709 H   0  0  0  0  0  0
  -18.5417    7.3568   31.9116 H   0  0  0  0  0  0
  -15.3143   -1.2554   33.8982 H   0  0  0  0  0  0
  -14.5773    2.4305   25.9391 H   0  0  0  0  0  0
  1  2  1  0  0  0
  1  3  1  0  0  0
  1 35  1  0  0  0
  2  5  1  0  0  0
  2  9  2  0  0  0
  3  4  1  0  0  0
  3 11  2  0  0  0
  4  6  2  0  0  0
  4 17  1  0  0  0
  5 10  1  0  0  0
  5  6  1  0  0  0
  6 36  1  0  0  0
  7  8  1  0  0  0
  7 12  1  0  0  0
  7 13  1  0  0  0
  7 14  1  0  0  0
  8 16  1  0  0  0
 10 15  1  0  0  0
 10 37  1  0  0  0
 10 38  1  0  0  0
 12 22  2  0  0  0
 12 23  1  0  0  0
 13 20  2  0  0  0
 13 21  1  0  0  0
 14 24  2  0  0  0
 14 25  1  0  0  0
 15 18  1  0  0  0
 15 39  1  0  0  0
 15 40  1  0  0  0
 16 18  1  0  0  0
 16 41  1  0  0  0
 16 42  1  0  0  0
 17 43  1  0  0  0
 17 44  1  0  0  0
 17 45  1  0  0  0
 18 19  1  0  0  0
 18 46  1  0  0  0
 19 47  1  0  0  0
 20 29  1  0  0  0
 20 48  1  0  0  0
 21 30  2  0  0  0
 21 49  1  0  0  0
 22 27  1  0  0  0
 22 50  1  0  0  0
 23 28  2  0  0  0
 23 51  1  0  0  0
 24 31  1  0  0  0
 24 52  1  0  0  0
 25 26  2  0  0  0
 25 53  1  0  0  0
 26 34  1  0  0  0
 26 54  1  0  0  0
 27 33  2  0  0  0
 27 55  1  0  0  0
 28 33  1  0  0  0
 28 56  1  0  0  0
 29 32  2  0  0  0
 29 57  1  0  0  0
 30 32  1  0  0  0
 30 58  1  0  0  0
 31 34  2  0  0  0
 31 59  1  0  0  0
 32 60  1  0  0  0
 33 61  1  0  0  0
 34 62  1  0  0  0
M  END
> <s_m_entry_id>
3186

> <s_m_entry_name>
dock_pv.20

> <s_m_Source_Path>
/home/csk/Desktop/cluster/DUD-E-result/kith

> <s_m_Source_File>
dock_pv.maegz

> <i_m_Source_File_Index>
20

> <chembl_id>
CHEMBL341163

> <chembl_pref_name>
None

> <i_lp_mmshare_version>
53161

> <i_f3d_flags>
0

> <r_lp_tautomer_probability>
0.999537046341301

> <s_lp_Force_Field>
OPLS_2005

> <r_lp_Energy>
38.268455

> <b_lp_Chiralities_Consistent>
1

> <s_lp_Variant>
CHEMBL2883_lig18-2

> <s_i_glide_gridfile>
glide-grid_2b8t

> <i_i_glide_lignum>
20

> <i_i_glide_rotatable_bonds>
10

> <r_i_docking_score>
-9.44273240317554

> <r_i_glide_ligand_efficiency>
-0.27772742362281

> <r_i_glide_ligand_efficiency_sa>
-0.899729038049257

> <r_i_glide_ligand_efficiency_ln>
-2.08616444753399

> <r_i_glide_gscore>
-9.44273240317554

> <r_i_glide_lipo>
-3.29241041066105

> <r_i_glide_hbond>
-0.719345347558391

> <r_i_glide_metal>
0

> <r_i_glide_rewards>
-2.45803312121212

> <r_i_glide_evdw>
-52.8298797607422

> <r_i_glide_ecoul>
-6.25963926315308

> <r_i_glide_erotb>
0.607496353766094

> <r_i_glide_esite>
0

> <r_i_glide_emodel>
-86.8332874718333

> <r_i_glide_energy>
-59.0895190238953

> <r_i_glide_einternal>
12.6907215118408

> <i_i_glide_confnum>
73

> <i_i_glide_posenum>
139

> <r_i_glide_eff_state_penalty>
0

> <s_user_duplicate_titles>
CHEMBL2883_lig18

> <s_m_subgroup_title>
dock_pv

> <s_m_subgroupid>
dock_pv

> <b_m_subgroup_collapsed>
1

$$$$
CHEMBL2883_lig3
                    3D
 Schrodinger Suite 2021-1.
 59 62  0  0  1  0            999 V2000
  -14.8349    3.1159   31.4854 C   0  0  0  0  0  0
  -15.8475    4.2553   31.7822 C   0  0  0  0  0  0
  -15.1026    1.7348   32.1592 C   0  0  0  0  0  0
  -14.8300    2.9854   29.9371 C   0  0  0  0  0  0
  -17.2313    4.0100   31.7402 C   0  0  0  0  0  0
  -18.1487    5.0374   31.9348 C   0  0  0  0  0  0
  -17.6935    6.3326   32.1583 C   0  0  0  0  0  0
  -16.3277    6.5998   32.1829 C   0  0  0  0  0  0
  -15.4080    5.5689   32.0042 C   0  0  0  0  0  0
  -16.0098    1.5509   33.2156 C   0  0  0  0  0  0
  -16.1800    0.2948   33.7926 C   0  0  0  0  0  0
  -15.4352   -0.7886   33.3332 C   0  0  0  0  0  0
  -14.5182   -0.6223   32.3004 C   0  0  0  0  0  0
  -14.3596    0.6328   31.7196 C   0  0  0  0  0  0
  -13.8196    3.5750   29.1621 C   0  0  0  0  0  0
  -13.8192    3.4403   27.7761 C   0  0  0  0  0  0
  -14.8318    2.7197   27.1483 C   0  0  0  0  0  0
  -15.8434    2.1262   27.8975 C   0  0  0  0  0  0
  -15.8368    2.2521   29.2847 C   0  0  0  0  0  0
  -13.4967    3.5188   31.8822 O   0  0  0  0  0  0
  -13.0692    3.5069   33.2544 C   0  0  0  0  0  0
  -11.5512    3.4098   33.2986 C   0  0  0  0  0  0
  -10.7005    3.9703   34.1876 C   0  0  0  0  0  0
  -11.0664    4.8228   35.3991 C   0  0  0  0  0  0
   -9.9890    4.9664   36.4016 N   0  0  0  0  0  0
   -8.7900    5.5884   36.1269 C   0  0  0  0  0  0
   -7.8031    5.8285   37.0199 C   0  0  0  0  0  0
   -8.0279    5.4143   38.4067 C   0  0  0  0  0  0
   -9.2087    4.7598   38.5824 N   0  0  0  0  0  0
  -10.2009    4.4667   37.6755 C   0  0  0  0  0  0
  -11.1747    3.8090   38.0400 O   0  0  0  0  0  0
   -7.2413    5.5740   39.3414 O   0  0  0  0  0  0
   -6.4615    6.4532   36.6607 C   0  0  0  0  0  0
  -17.6071    3.0188   31.5389 H   0  0  0  0  0  0
  -19.2076    4.8299   31.9031 H   0  0  0  0  0  0
  -18.4004    7.1364   32.2989 H   0  0  0  0  0  0
  -15.9809    7.6100   32.3315 H   0  0  0  0  0  0
  -14.3553    5.8091   32.0080 H   0  0  0  0  0  0
  -16.5718    2.3735   33.6209 H   0  0  0  0  0  0
  -16.8802    0.1613   34.6063 H   0  0  0  0  0  0
  -15.5576   -1.7598   33.7900 H   0  0  0  0  0  0
  -13.9290   -1.4590   31.9575 H   0  0  0  0  0  0
  -13.6390    0.7737   30.9281 H   0  0  0  0  0  0
  -13.0179    4.1277   29.6270 H   0  0  0  0  0  0
  -13.0284    3.8867   27.1913 H   0  0  0  0  0  0
  -14.8252    2.6179   26.0738 H   0  0  0  0  0  0
  -16.6298    1.5716   27.4091 H   0  0  0  0  0  0
  -16.6234    1.7789   29.8517 H   0  0  0  0  0  0
  -13.4319    2.6267   33.7829 H   0  0  0  0  0  0
  -13.4281    4.3866   33.7884 H   0  0  0  0  0  0
  -11.1276    2.8170   32.5001 H   0  0  0  0  0  0
   -9.6426    3.8030   34.0308 H   0  0  0  0  0  0
  -12.0061    4.4608   35.8205 H   0  0  0  0  0  0
  -11.2892    5.8244   35.0275 H   0  0  0  0  0  0
   -8.6902    5.8280   35.0775 H   0  0  0  0  0  0
   -9.3449    4.3999   39.5181 H   0  0  0  0  0  0
   -6.4115    6.7210   35.6042 H   0  0  0  0  0  0
   -5.6411    5.7611   36.8632 H   0  0  0  0  0  0
   -6.2912    7.3641   37.2386 H   0  0  0  0  0  0
  1 20  1  0  0  0
  1  3  1  0  0  0
  1  2  1  0  0  0
  1  4  1  0  0  0
  2  9  1  0  0  0
  2  5  2  0  0  0
  3 10  2  0  0  0
  3 14  1  0  0  0
  4 19  1  0  0  0
  4 15  2  0  0  0
  5  6  1  0  0  0
  5 34  1  0  0  0
  6  7  2  0  0  0
  6 35  1  0  0  0
  7  8  1  0  0  0
  7 36  1  0  0  0
  8  9  2  0  0  0
  8 37  1  0  0  0
  9 38  1  0  0  0
 10 11  1  0  0  0
 10 39  1  0  0  0
 11 12  2  0  0  0
 11 40  1  0  0  0
 12 13  1  0  0  0
 12 41  1  0  0  0
 13 14  2  0  0  0
 13 42  1  0  0  0
 14 43  1  0  0  0
 15 16  1  0  0  0
 15 44  1  0  0  0
 16 17  2  0  0  0
 16 45  1  0  0  0
 17 18  1  0  0  0
 17 46  1  0  0  0
 18 19  2  0  0  0
 18 47  1  0  0  0
 19 48  1  0  0  0
 20 21  1  0  0  0
 21 22  1  0  0  0
 21 49  1  0  0  0
 21 50  1  0  0  0
 22 23  2  0  0  0
 22 51  1  0  0  0
 23 24  1  0  0  0
 23 52  1  0  0  0
 24 25  1  0  0  0
 24 53  1  0  0  0
 24 54  1  0  0  0
 25 26  1  0  0  0
 25 30  1  0  0  0
 26 27  2  0  0  0
 26 55  1  0  0  0
 27 28  1  0  0  0
 27 33  1  0  0  0
 28 29  1  0  0  0
 28 32  2  0  0  0
 29 30  1  0  0  0
 29 56  1  0  0  0
 30 31  2  0  0  0
 33 57  1  0  0  0
 33 58  1  0  0  0
 33 59  1  0  0  0
M  END
> <s_m_entry_id>
3187

> <s_m_entry_name>
dock_pv.21

> <s_m_Source_Path>
/home/csk/Desktop/cluster/DUD-E-result/kith

> <s_m_Source_File>
dock_pv.maegz

> <i_m_Source_File_Index>
21

> <chembl_id>
CHEMBL101135

> <chembl_pref_name>
None

> <i_lp_mmshare_version>
53161

> <i_f3d_flags>
0

> <r_lp_tautomer_probability>
0.999537046341301

> <s_lp_Force_Field>
OPLS_2005

> <r_lp_Energy>
34.701203

> <b_lp_Chiralities_Consistent>
1

> <s_lp_Variant>
CHEMBL2883_lig3-1

> <s_i_glide_gridfile>
glide-grid_2b8t

> <i_i_glide_lignum>
3

> <i_i_glide_rotatable_bonds>
8

> <r_i_docking_score>
-9.36361005974953

> <r_i_glide_ligand_efficiency>
-0.283745759386349

> <r_i_glide_ligand_efficiency_sa>
-0.910124263161699

> <r_i_glide_ligand_efficiency_ln>
-2.08241839511012

> <r_i_glide_gscore>
-9.36361005974953

> <r_i_glide_lipo>
-3.20734881518735

> <r_i_glide_hbond>
-0.712341108601768

> <r_i_glide_metal>
0

> <r_i_glide_rewards>
-2.60744521539829

> <r_i_glide_evdw>
-51.3682632446289

> <r_i_glide_ecoul>
-5.66033124923706

> <r_i_glide_erotb>
0.580987929054876

> <r_i_glide_esite>
0

> <r_i_glide_emodel>
-84.0777342760281

> <r_i_glide_energy>
-57.028594493866

> <r_i_glide_einternal>
9.48099136352539

> <i_i_glide_confnum>
70

> <i_i_glide_posenum>
82

> <r_i_glide_eff_state_penalty>
0

> <s_user_duplicate_titles>
CHEMBL2883_lig3,CHEMBL2883_lig9,168389,223007

> <s_m_subgroup_title>
dock_pv

> <s_m_subgroupid>
dock_pv

> <b_m_subgroup_collapsed>
1

$$$$
CHEMBL2883_lig15
                    3D
 Schrodinger Suite 2021-1.
 61 64  0  0  1  0            999 V2000
   -9.0473    4.7745   38.4526 N   0  0  0  0  0  0
  -10.0706    4.4769   37.6173 C   0  0  0  0  0  0
   -7.9663    5.5737   38.3108 C   0  0  0  0  0  0
   -9.9622    4.9488   36.3340 N   0  0  0  0  0  0
   -7.7595    6.1175   36.8741 C   0  0  2  0  0  0
  -14.8189    2.9116   31.4445 C   0  0  0  0  0  0
   -8.6401    5.3752   35.8246 C   0  0  0  0  0  0
  -11.0098    3.8220   38.0677 O   0  0  0  0  0  0
   -7.2414    5.8349   39.2688 O   0  0  0  0  0  0
  -14.8465    2.7762   29.8944 C   0  0  0  0  0  0
  -15.1826    1.5579   32.1276 C   0  0  0  0  0  0
  -15.7494    4.1230   31.7289 C   0  0  0  0  0  0
  -10.7030    3.7906   34.1916 C   0  0  0  0  0  0
  -11.5448    3.1854   33.3233 C   0  0  0  0  0  0
  -11.0502    4.7268   35.3501 C   0  0  0  0  0  0
  -13.4598    3.2240   31.8467 O   0  0  0  0  0  0
   -6.2579    6.0773   36.5137 C   0  0  0  0  0  0
  -13.0622    3.2800   33.2294 C   0  0  0  0  0  0
  -14.6662    0.3634   31.6029 C   0  0  0  0  0  0
  -15.9735    2.2337   29.2544 C   0  0  0  0  0  0
  -13.7605    3.1804   29.1033 C   0  0  0  0  0  0
  -17.1453    3.9673   31.7834 C   0  0  0  0  0  0
  -15.2163    5.4177   31.8427 C   0  0  0  0  0  0
  -15.9777    1.4835   33.2817 C   0  0  0  0  0  0
  -16.2571    0.2580   33.8807 C   0  0  0  0  0  0
  -14.9357   -0.8641   32.2005 C   0  0  0  0  0  0
  -17.9832    5.0656   31.9588 C   0  0  0  0  0  0
  -16.0539    6.5166   32.0111 C   0  0  0  0  0  0
  -16.0237    2.1137   27.8684 C   0  0  0  0  0  0
  -13.7974    3.0424   27.7181 C   0  0  0  0  0  0
  -15.7328   -0.9113   33.3378 C   0  0  0  0  0  0
  -14.9303    2.5138   27.1062 C   0  0  0  0  0  0
  -17.4333    6.3380   32.0705 C   0  0  0  0  0  0
   -9.1577    4.4099   39.3938 H   0  0  0  0  0  0
   -8.0610    7.1651   36.8716 H   0  0  0  0  0  0
   -8.6777    5.8135   34.8278 H   0  0  0  0  0  0
   -8.1186    4.4298   35.6952 H   0  0  0  0  0  0
   -9.6497    3.5912   34.0539 H   0  0  0  0  0  0
  -11.1038    2.5466   32.5691 H   0  0  0  0  0  0
  -11.9821    4.4005   35.8150 H   0  0  0  0  0  0
  -11.2753    5.7023   34.9131 H   0  0  0  0  0  0
   -5.6681    6.7160   37.1768 H   0  0  0  0  0  0
   -6.0897    6.4324   35.4957 H   0  0  0  0  0  0
   -5.8354    5.0734   36.5834 H   0  0  0  0  0  0
  -13.4378    2.4212   33.7818 H   0  0  0  0  0  0
  -13.4278    4.1836   33.7169 H   0  0  0  0  0  0
  -14.0404    0.3896   30.7246 H   0  0  0  0  0  0
  -16.8261    1.9109   29.8317 H   0  0  0  0  0  0
  -12.8668    3.5821   29.5562 H   0  0  0  0  0  0
  -17.5938    2.9914   31.6765 H   0  0  0  0  0  0
  -14.1500    5.5836   31.7756 H   0  0  0  0  0  0
  -16.3709    2.3742   33.7448 H   0  0  0  0  0  0
  -16.8695    0.2147   34.7687 H   0  0  0  0  0  0
  -14.5214   -1.7723   31.7876 H   0  0  0  0  0  0
  -19.0537    4.9280   31.9988 H   0  0  0  0  0  0
  -15.6392    7.5091   32.0887 H   0  0  0  0  0  0
  -16.9064    1.7143   27.3908 H   0  0  0  0  0  0
  -12.9455    3.3384   27.1245 H   0  0  0  0  0  0
  -15.9411   -1.8627   33.8043 H   0  0  0  0  0  0
  -14.9562    2.4147   26.0310 H   0  0  0  0  0  0
  -18.0780    7.1950   32.1983 H   0  0  0  0  0  0
  1  2  1  0  0  0
  1  3  1  0  0  0
  1 34  1  0  0  0
  2  4  1  0  0  0
  2  8  2  0  0  0
  3  5  1  0  0  0
  3  9  2  0  0  0
  4 15  1  0  0  0
  4  7  1  0  0  0
  5  7  1  0  0  0
  5 17  1  0  0  0
  5 35  1  0  0  0
  6 16  1  0  0  0
  6 10  1  0  0  0
  6 11  1  0  0  0
  6 12  1  0  0  0
  7 36  1  0  0  0
  7 37  1  0  0  0
 10 20  2  0  0  0
 10 21  1  0  0  0
 11 19  1  0  0  0
 11 24  2  0  0  0
 12 22  2  0  0  0
 12 23  1  0  0  0
 13 15  1  0  0  0
 13 14  2  0  0  0
 13 38  1  0  0  0
 14 18  1  0  0  0
 14 39  1  0  0  0
 15 40  1  0  0  0
 15 41  1  0  0  0
 16 18  1  0  0  0
 17 42  1  0  0  0
 17 43  1  0  0  0
 17 44  1  0  0  0
 18 45  1  0  0  0
 18 46  1  0  0  0
 19 26  2  0  0  0
 19 47  1  0  0  0
 20 29  1  0  0  0
 20 48  1  0  0  0
 21 30  2  0  0  0
 21 49  1  0  0  0
 22 27  1  0  0  0
 22 50  1  0  0  0
 23 28  2  0  0  0
 23 51  1  0  0  0
 24 25  1  0  0  0
 24 52  1  0  0  0
 25 31  2  0  0  0
 25 53  1  0  0  0
 26 31  1  0  0  0
 26 54  1  0  0  0
 27 33  2  0  0  0
 27 55  1  0  0  0
 28 33  1  0  0  0
 28 56  1  0  0  0
 29 32  2  0  0  0
 29 57  1  0  0  0
 30 32  1  0  0  0
 30 58  1  0  0  0
 31 59  1  0  0  0
 32 60  1  0  0  0
 33 61  1  0  0  0
M  END
> <s_m_entry_id>
3188

> <s_m_entry_name>
dock_pv.22

> <s_m_Source_Path>
/home/csk/Desktop/cluster/DUD-E-result/kith

> <s_m_Source_File>
dock_pv.maegz

> <i_m_Source_File_Index>
22

> <chembl_id>
CHEMBL134857

> <chembl_pref_name>
None

> <i_lp_mmshare_version>
53161

> <i_f3d_flags>
0

> <r_lp_tautomer_probability>
0.9999999999615

> <s_lp_Force_Field>
OPLS_2005

> <r_lp_Energy>
43.920074

> <b_lp_Chiralities_Consistent>
1

> <s_lp_Variant>
CHEMBL2883_lig15-1

> <s_i_glide_gridfile>
glide-grid_2b8t

> <i_i_glide_lignum>
15

> <i_i_glide_rotatable_bonds>
8

> <r_i_docking_score>
-8.93511096034013

> <r_i_glide_ligand_efficiency>
-0.270760938192125

> <r_i_glide_ligand_efficiency_sa>
-0.86847500346091

> <r_i_glide_ligand_efficiency_ln>
-1.98712241405106

> <r_i_glide_gscore>
-8.93511096034013

> <r_i_glide_lipo>
-2.75426686659322

> <r_i_glide_hbond>
-0.701970905290937

> <r_i_glide_metal>
0

> <r_i_glide_rewards>
-2.81035445301731

> <r_i_glide_evdw>
-47.3885841369629

> <r_i_glide_ecoul>
-5.83508014678955

> <r_i_glide_erotb>
0.576172493427916

> <r_i_glide_esite>
0

> <r_i_glide_emodel>
-75.8517632074389

> <r_i_glide_energy>
-53.2236642837524

> <r_i_glide_einternal>
9.13426685333252

> <i_i_glide_confnum>
80

> <i_i_glide_posenum>
244

> <r_i_glide_eff_state_penalty>
0

> <s_user_duplicate_titles>
CHEMBL2883_lig15

> <s_m_subgroup_title>
dock_pv

> <s_m_subgroupid>
dock_pv

> <b_m_subgroup_collapsed>
1

$$$$
CHEMBL2883_lig17
                    3D
 Schrodinger Suite 2021-1.
 51 53  0  0  1  0            999 V2000
   -9.0544    4.7742   38.5878 N   0  0  0  0  0  0
  -10.0411    4.3782   37.7364 C   0  0  0  0  0  0
   -7.9654    5.5622   38.3741 C   0  0  0  0  0  0
   -7.7894    5.9261   36.9727 C   0  0  0  0  0  0
   -9.8853    4.8271   36.4423 N   0  0  0  0  0  0
   -8.7524    5.5409   36.1023 C   0  0  0  0  0  0
   -9.6690    4.6752   30.0943 C   0  0  0  0  0  0
  -10.3979    4.6155   28.7239 C   0  0  0  0  0  0
  -10.9717    3.7064   38.1803 O   0  0  0  0  0  0
   -7.2411    5.8865   39.3112 O   0  0  0  0  0  0
   -8.4410    4.7740   30.1824 O   0  0  0  0  0  0
   -9.5529    5.2407   27.6039 C   0  0  0  0  0  0
  -11.8338    5.1762   28.7827 C   0  0  0  0  0  0
  -11.3999    5.4496   34.5342 C   0  0  0  0  0  0
  -11.0559    5.5739   33.2428 C   0  0  0  0  0  0
  -10.8975    4.3748   35.4749 C   0  0  0  0  0  0
   -6.5020    6.6380   36.5785 C   0  0  0  0  0  0
  -10.5166    4.5700   31.1430 O   0  0  0  0  0  0
  -10.0781    4.7004   32.4822 C   0  0  0  0  0  0
  -12.1255    6.4309   29.3419 C   0  0  0  0  0  0
   -9.2901    6.6166   27.5777 C   0  0  0  0  0  0
   -9.0782    4.4272   26.5700 C   0  0  0  0  0  0
  -12.8760    4.3932   28.2771 C   0  0  0  0  0  0
   -8.5983    7.1743   26.5080 C   0  0  0  0  0  0
   -8.3788    4.9883   25.5036 C   0  0  0  0  0  0
  -14.1893    4.8561   28.3184 C   0  0  0  0  0  0
  -13.4376    6.8915   29.3905 C   0  0  0  0  0  0
  -14.4642    6.1031   28.8766 C   0  0  0  0  0  0
   -8.1493    6.3597   25.4726 C   0  0  0  0  0  0
   -9.1618    4.4595   39.5444 H   0  0  0  0  0  0
   -8.6822    5.7261   35.0391 H   0  0  0  0  0  0
  -10.4834    3.5478   28.5181 H   0  0  0  0  0  0
  -12.0904    6.1616   34.9631 H   0  0  0  0  0  0
  -11.5097    6.3733   32.6740 H   0  0  0  0  0  0
  -10.4510    3.5606   34.9092 H   0  0  0  0  0  0
  -11.7836    3.9736   35.9658 H   0  0  0  0  0  0
   -6.4338    6.7765   35.4972 H   0  0  0  0  0  0
   -5.6261    6.0657   36.8873 H   0  0  0  0  0  0
   -6.4440    7.6227   37.0407 H   0  0  0  0  0  0
   -9.0984    5.1741   32.5461 H   0  0  0  0  0  0
   -9.9943    3.7083   32.9243 H   0  0  0  0  0  0
  -11.3456    7.0507   29.7572 H   0  0  0  0  0  0
   -9.6423    7.2631   28.3679 H   0  0  0  0  0  0
   -9.2846    3.3647   26.5752 H   0  0  0  0  0  0
  -12.6682    3.4182   27.8582 H   0  0  0  0  0  0
   -8.4414    8.2416   26.4698 H   0  0  0  0  0  0
   -8.0427    4.3744   24.6830 H   0  0  0  0  0  0
  -14.9894    4.2483   27.9235 H   0  0  0  0  0  0
  -13.6580    7.8543   29.8296 H   0  0  0  0  0  0
  -15.4835    6.4604   28.9180 H   0  0  0  0  0  0
   -7.6403    6.8027   24.6300 H   0  0  0  0  0  0
  1  2  1  0  0  0
  1  3  1  0  0  0
  1 30  1  0  0  0
  2  5  1  0  0  0
  2  9  2  0  0  0
  3  4  1  0  0  0
  3 10  2  0  0  0
  4  6  2  0  0  0
  4 17  1  0  0  0
  5 16  1  0  0  0
  5  6  1  0  0  0
  6 31  1  0  0  0
  7 18  1  0  0  0
  7  8  1  0  0  0
  7 11  2  0  0  0
  8 12  1  0  0  0
  8 13  1  0  0  0
  8 32  1  0  0  0
 12 21  2  0  0  0
 12 22  1  0  0  0
 13 20  1  0  0  0
 13 23  2  0  0  0
 14 16  1  0  0  0
 14 15  2  0  0  0
 14 33  1  0  0  0
 15 19  1  0  0  0
 15 34  1  0  0  0
 16 35  1  0  0  0
 16 36  1  0  0  0
 17 37  1  0  0  0
 17 38  1  0  0  0
 17 39  1  0  0  0
 18 19  1  0  0  0
 19 40  1  0  0  0
 19 41  1  0  0  0
 20 27  2  0  0  0
 20 42  1  0  0  0
 21 24  1  0  0  0
 21 43  1  0  0  0
 22 25  2  0  0  0
 22 44  1  0  0  0
 23 26  1  0  0  0
 23 45  1  0  0  0
 24 29  2  0  0  0
 24 46  1  0  0  0
 25 29  1  0  0  0
 25 47  1  0  0  0
 26 28  2  0  0  0
 26 48  1  0  0  0
 27 28  1  0  0  0
 27 49  1  0  0  0
 28 50  1  0  0  0
 29 51  1  0  0  0
M  END
> <s_m_entry_id>
3189

> <s_m_entry_name>
dock_pv.23

> <s_m_Source_Path>
/home/csk/Desktop/cluster/DUD-E-result/kith

> <s_m_Source_File>
dock_pv.maegz

> <i_m_Source_File_Index>
23

> <chembl_id>
CHEMBL335866

> <chembl_pref_name>
None

> <i_lp_mmshare_version>
53161

> <i_f3d_flags>
0

> <r_lp_tautomer_probability>
0.999537046341301

> <s_lp_Force_Field>
OPLS_2005

> <r_lp_Energy>
16.226094

> <b_lp_Chiralities_Consistent>
1

> <s_lp_Variant>
CHEMBL2883_lig17-1

> <s_i_glide_gridfile>
glide-grid_2b8t

> <i_i_glide_lignum>
18

> <i_i_glide_rotatable_bonds>
8

> <r_i_docking_score>
-8.67874523671766

> <r_i_glide_ligand_efficiency>
-0.299267077128195

> <r_i_glide_ligand_efficiency_sa>
-0.919443275402765

> <r_i_glide_ligand_efficiency_ln>
-1.98721258521764

> <r_i_glide_gscore>
-8.67874523671766

> <r_i_glide_lipo>
-2.13358709369702

> <r_i_glide_hbond>
-0.800156222577249

> <r_i_glide_metal>
0

> <r_i_glide_rewards>
-2.44128113410135

> <r_i_glide_evdw>
-50.491870880127

> <r_i_glide_ecoul>
-9.39944934844971

> <r_i_glide_erotb>
0.716523347038298

> <r_i_glide_esite>
-0.0857331871065318

> <r_i_glide_emodel>
-88.8147356050523

> <r_i_glide_energy>
-59.8913202285767

> <r_i_glide_einternal>
5.76490783691406

> <i_i_glide_confnum>
76

> <i_i_glide_posenum>
198

> <r_i_glide_eff_state_penalty>
0

> <s_user_duplicate_titles>
CHEMBL2883_lig17

> <s_m_subgroup_title>
dock_pv

> <s_m_subgroupid>
dock_pv

> <b_m_subgroup_collapsed>
1

$$$$
CHEMBL2883_lig14
                    3D
 Schrodinger Suite 2021-1.
 61 64  0  0  1  0            999 V2000
   -9.1000    4.7742   38.5829 N   0  0  0  0  0  0
   -9.9835    4.4975   37.5707 C   0  0  0  0  0  0
   -7.9136    5.4440   38.5460 C   0  0  0  0  0  0
   -7.5640    5.9256   37.2086 C   0  0  0  0  0  0
   -9.6075    4.9880   36.3311 N   0  0  0  0  0  0
   -8.4234    5.6639   36.2019 C   0  0  0  0  0  0
  -13.6103    5.1202   30.3879 C   0  0  0  0  0  0
  -11.0136    3.8691   37.8202 O   0  0  0  0  0  0
   -7.2399    5.5747   39.5641 O   0  0  0  0  0  0
  -12.3682    5.8233   29.7479 C   0  0  0  0  0  0
  -14.1231    3.9311   29.5305 C   0  0  0  0  0  0
  -14.8501    6.0362   30.6124 C   0  0  0  0  0  0
  -13.1991    4.5743   31.6679 O   0  0  0  0  0  0
   -6.2212    6.6052   36.9987 C   0  0  0  0  0  0
  -10.4525    4.6578   35.1708 C   0  0  0  0  0  0
  -15.2917    6.9114   29.6070 C   0  0  0  0  0  0
  -15.5833    5.9732   31.8075 C   0  0  0  0  0  0
  -14.4416    2.6973   30.1201 C   0  0  0  0  0  0
  -14.2492    4.0625   28.1383 C   0  0  0  0  0  0
  -11.3728    5.0526   29.1295 C   0  0  0  0  0  0
  -12.1982    7.2193   29.7954 C   0  0  0  0  0  0
  -12.3279    5.3034   32.5373 C   0  0  0  0  0  0
  -11.6988    5.5518   35.0339 C   0  0  0  0  0  0
  -12.7113    5.0238   33.9978 C   0  0  0  0  0  0
  -14.8666    1.6264   29.3401 C   0  0  0  0  0  0
  -14.6781    2.9945   27.3576 C   0  0  0  0  0  0
  -16.4174    7.7105   29.7971 C   0  0  0  0  0  0
  -16.7050    6.7732   32.0048 C   0  0  0  0  0  0
  -10.2561    5.6540   28.5557 C   0  0  0  0  0  0
  -11.0835    7.8241   29.2237 C   0  0  0  0  0  0
  -14.9841    1.7782   27.9609 C   0  0  0  0  0  0
  -10.1179    7.0374   28.6009 C   0  0  0  0  0  0
  -17.1166    7.6432   30.9976 C   0  0  0  0  0  0
   -9.3357    4.4006   39.4936 H   0  0  0  0  0  0
   -8.2295    5.9724   35.1847 H   0  0  0  0  0  0
   -6.0259    6.7757   35.9385 H   0  0  0  0  0  0
   -5.4080    5.9882   37.3788 H   0  0  0  0  0  0
   -6.1892    7.5709   37.5056 H   0  0  0  0  0  0
   -9.8746    4.6895   34.2464 H   0  0  0  0  0  0
  -10.7679    3.6173   35.2497 H   0  0  0  0  0  0
  -14.7642    6.9704   28.6665 H   0  0  0  0  0  0
  -15.3001    5.2800   32.5831 H   0  0  0  0  0  0
  -14.3477    2.5521   31.1849 H   0  0  0  0  0  0
  -13.9995    4.9959   27.6529 H   0  0  0  0  0  0
  -11.4610    3.9741   29.0986 H   0  0  0  0  0  0
  -12.9163    7.8470   30.3002 H   0  0  0  0  0  0
  -12.3888    6.3739   32.3615 H   0  0  0  0  0  0
  -11.3022    4.9964   32.3311 H   0  0  0  0  0  0
  -12.1885    5.6105   36.0023 H   0  0  0  0  0  0
  -11.4085    6.5756   34.7826 H   0  0  0  0  0  0
  -12.8654    3.9536   34.1411 H   0  0  0  0  0  0
  -13.6741    5.4956   34.1829 H   0  0  0  0  0  0
  -15.0915    0.6781   29.8034 H   0  0  0  0  0  0
  -14.7608    3.1057   26.2867 H   0  0  0  0  0  0
  -16.7467    8.3760   29.0131 H   0  0  0  0  0  0
  -17.2594    6.7161   32.9296 H   0  0  0  0  0  0
   -9.5070    5.0415   28.0753 H   0  0  0  0  0  0
  -10.9674    8.8962   29.2687 H   0  0  0  0  0  0
  -15.3026    0.9416   27.3585 H   0  0  0  0  0  0
   -9.2541    7.5075   28.1545 H   0  0  0  0  0  0
  -17.9876    8.2628   31.1482 H   0  0  0  0  0  0
  1  2  1  0  0  0
  1  3  1  0  0  0
  1 34  1  0  0  0
  2  5  1  0  0  0
  2  8  2  0  0  0
  3  4  1  0  0  0
  3  9  2  0  0  0
  4  6  2  0  0  0
  4 14  1  0  0  0
  5 15  1  0  0  0
  5  6  1  0  0  0
  6 35  1  0  0  0
  7 13  1  0  0  0
  7 10  1  0  0  0
  7 11  1  0  0  0
  7 12  1  0  0  0
 10 20  2  0  0  0
 10 21  1  0  0  0
 11 18  2  0  0  0
 11 19  1  0  0  0
 12 16  2  0  0  0
 12 17  1  0  0  0
 13 22  1  0  0  0
 14 36  1  0  0  0
 14 37  1  0  0  0
 14 38  1  0  0  0
 15 23  1  0  0  0
 15 39  1  0  0  0
 15 40  1  0  0  0
 16 27  1  0  0  0
 16 41  1  0  0  0
 17 28  2  0  0  0
 17 42  1  0  0  0
 18 25  1  0  0  0
 18 43  1  0  0  0
 19 26  2  0  0  0
 19 44  1  0  0  0
 20 29  1  0  0  0
 20 45  1  0  0  0
 21 30  2  0  0  0
 21 46  1  0  0  0
 22 24  1  0  0  0
 22 47  1  0  0  0
 22 48  1  0  0  0
 23 24  1  0  0  0
 23 49  1  0  0  0
 23 50  1  0  0  0
 24 51  1  0  0  0
 24 52  1  0  0  0
 25 31  2  0  0  0
 25 53  1  0  0  0
 26 31  1  0  0  0
 26 54  1  0  0  0
 27 33  2  0  0  0
 27 55  1  0  0  0
 28 33  1  0  0  0
 28 56  1  0  0  0
 29 32  2  0  0  0
 29 57  1  0  0  0
 30 32  1  0  0  0
 30 58  1  0  0  0
 31 59  1  0  0  0
 32 60  1  0  0  0
 33 61  1  0  0  0
M  END
> <s_m_entry_id>
3190

> <s_m_entry_name>
dock_pv.24

> <s_m_Source_Path>
/home/csk/Desktop/cluster/DUD-E-result/kith

> <s_m_Source_File>
dock_pv.maegz

> <i_m_Source_File_Index>
24

> <chembl_id>
CHEMBL134471

> <chembl_pref_name>
None

> <i_lp_mmshare_version>
53161

> <i_f3d_flags>
0

> <r_lp_tautomer_probability>
0.999537046341301

> <s_lp_Force_Field>
OPLS_2005

> <r_lp_Energy>
35.490318

> <b_lp_Chiralities_Consistent>
1

> <s_lp_Variant>
CHEMBL2883_lig14-1

> <s_i_glide_gridfile>
glide-grid_2b8t

> <i_i_glide_lignum>
14

> <i_i_glide_rotatable_bonds>
9

> <r_i_docking_score>
-8.59019950077979

> <r_i_glide_ligand_efficiency>
-0.260309075781206

> <r_i_glide_ligand_efficiency_sa>
-0.834950296004566

> <r_i_glide_ligand_efficiency_ln>
-1.9104158913008

> <r_i_glide_gscore>
-8.59019950077979

> <r_i_glide_lipo>
-2.93979659411901

> <r_i_glide_hbond>
-0.652051026038168

> <r_i_glide_metal>
0

> <r_i_glide_rewards>
-2.45810210809992

> <r_i_glide_evdw>
-51.1963958740234

> <r_i_glide_ecoul>
-4.19082689285278

> <r_i_glide_erotb>
0.648194055106406

> <r_i_glide_esite>
0

> <r_i_glide_emodel>
-80.2359423164291

> <r_i_glide_energy>
-55.3872227668762

> <r_i_glide_einternal>
7.79278039932251

> <i_i_glide_confnum>
28

> <i_i_glide_posenum>
4

> <r_i_glide_eff_state_penalty>
0

> <s_user_duplicate_titles>
CHEMBL2883_lig14

> <s_m_subgroup_title>
dock_pv

> <s_m_subgroupid>
dock_pv

> <b_m_subgroup_collapsed>
1

$$$$
CHEMBL2883_lig15
                    3D
 Schrodinger Suite 2021-1.
 61 64  0  0  1  0            999 V2000
   -8.7758    4.8746   38.5831 N   0  0  0  0  0  0
   -9.6437    4.5598   37.6002 C   0  0  0  0  0  0
   -7.5630    5.4544   38.5703 C   0  0  0  0  0  0
   -9.2949    4.9560   36.3321 N   0  0  0  0  0  0
   -7.0451    5.7703   37.1422 C   0  0  1  0  0  0
  -13.2579    5.2373   30.5454 C   0  0  0  0  0  0
   -8.2014    5.9275   36.1106 C   0  0  0  0  0  0
  -10.6781    3.9735   37.9135 O   0  0  0  0  0  0
   -6.9142    5.5739   39.6033 O   0  0  0  0  0  0
  -14.5064    6.1605   30.6050 C   0  0  0  0  0  0
  -12.0097    5.8718   29.8425 C   0  0  0  0  0  0
  -13.7843    3.9539   29.8480 C   0  0  0  0  0  0
  -11.5473    5.1840   35.1805 C   0  0  0  0  0  0
  -12.2706    5.5910   34.1214 C   0  0  0  0  0  0
  -10.1430    4.5936   35.1808 C   0  0  0  0  0  0
  -12.8750    4.8480   31.8940 O   0  0  0  0  0  0
   -6.0408    6.9328   37.1193 C   0  0  0  0  0  0
  -11.9111    5.5967   32.6475 C   0  0  0  0  0  0
  -11.8803    7.2593   29.6601 C   0  0  0  0  0  0
  -15.2599    6.2969   31.7793 C   0  0  0  0  0  0
  -14.9503    6.8154   29.4424 C   0  0  0  0  0  0
  -14.3572    2.9188   30.6062 C   0  0  0  0  0  0
  -13.7090    3.8019   28.4527 C   0  0  0  0  0  0
  -10.9650    5.0424   29.4098 C   0  0  0  0  0  0
   -9.8425    5.5739   28.7822 C   0  0  0  0  0  0
  -10.7579    7.7955   29.0290 C   0  0  0  0  0  0
  -14.8413    1.7669   29.9892 C   0  0  0  0  0  0
  -14.1918    2.6508   27.8348 C   0  0  0  0  0  0
  -16.4208    7.0684   31.7897 C   0  0  0  0  0  0
  -16.1028    7.5946   29.4576 C   0  0  0  0  0  0
   -9.7451    6.9488   28.5887 C   0  0  0  0  0  0
  -16.8346    7.7223   30.6332 C   0  0  0  0  0  0
  -14.7542    1.6374   28.6057 C   0  0  0  0  0  0
   -9.0683    4.5778   39.5062 H   0  0  0  0  0  0
   -6.4420    4.9097   36.8518 H   0  0  0  0  0  0
   -8.6406    6.9045   36.3155 H   0  0  0  0  0  0
   -7.8877    5.9741   35.0659 H   0  0  0  0  0  0
  -12.0129    5.2699   36.1524 H   0  0  0  0  0  0
  -13.2501    5.9740   34.3162 H   0  0  0  0  0  0
   -9.6367    4.8092   34.2403 H   0  0  0  0  0  0
  -10.2599    3.5114   35.2077 H   0  0  0  0  0  0
   -5.1974    6.7486   37.7826 H   0  0  0  0  0  0
   -6.4411    7.9067   37.3829 H   0  0  0  0  0  0
   -5.6412    7.0089   36.1110 H   0  0  0  0  0  0
  -11.8851    6.6411   32.3385 H   0  0  0  0  0  0
  -10.9149    5.1859   32.4729 H   0  0  0  0  0  0
  -12.6360    7.9446   30.0215 H   0  0  0  0  0  0
  -14.9638    5.7863   32.6834 H   0  0  0  0  0  0
  -14.4059    6.7078   28.5153 H   0  0  0  0  0  0
  -14.4336    3.0038   31.6800 H   0  0  0  0  0  0
  -13.2771    4.5770   27.8376 H   0  0  0  0  0  0
  -11.0274    3.9741   29.5621 H   0  0  0  0  0  0
   -9.0581    4.9141   28.4440 H   0  0  0  0  0  0
  -10.6772    8.8645   28.8897 H   0  0  0  0  0  0
  -15.2747    0.9756   30.5835 H   0  0  0  0  0  0
  -14.1179    2.5405   26.7639 H   0  0  0  0  0  0
  -16.9956    7.1618   32.6995 H   0  0  0  0  0  0
  -16.4295    8.0938   28.5558 H   0  0  0  0  0  0
   -8.8789    7.3649   28.0959 H   0  0  0  0  0  0
  -17.7303    8.3258   30.6460 H   0  0  0  0  0  0
  -15.1155    0.7390   28.1274 H   0  0  0  0  0  0
  1  2  1  0  0  0
  1  3  1  0  0  0
  1 34  1  0  0  0
  2  4  1  0  0  0
  2  8  2  0  0  0
  3  5  1  0  0  0
  3  9  2  0  0  0
  4 15  1  0  0  0
  4  7  1  0  0  0
  5  7  1  0  0  0
  5 17  1  0  0  0
  5 35  1  0  0  0
  6 16  1  0  0  0
  6 10  1  0  0  0
  6 11  1  0  0  0
  6 12  1  0  0  0
  7 36  1  0  0  0
  7 37  1  0  0  0
 10 20  2  0  0  0
 10 21  1  0  0  0
 11 19  1  0  0  0
 11 24  2  0  0  0
 12 22  2  0  0  0
 12 23  1  0  0  0
 13 15  1  0  0  0
 13 14  2  0  0  0
 13 38  1  0  0  0
 14 18  1  0  0  0
 14 39  1  0  0  0
 15 40  1  0  0  0
 15 41  1  0  0  0
 16 18  1  0  0  0
 17 42  1  0  0  0
 17 43  1  0  0  0
 17 44  1  0  0  0
 18 45  1  0  0  0
 18 46  1  0  0  0
 19 26  2  0  0  0
 19 47  1  0  0  0
 20 29  1  0  0  0
 20 48  1  0  0  0
 21 30  2  0  0  0
 21 49  1  0  0  0
 22 27  1  0  0  0
 22 50  1  0  0  0
 23 28  2  0  0  0
 23 51  1  0  0  0
 24 25  1  0  0  0
 24 52  1  0  0  0
 25 31  2  0  0  0
 25 53  1  0  0  0
 26 31  1  0  0  0
 26 54  1  0  0  0
 27 33  2  0  0  0
 27 55  1  0  0  0
 28 33  1  0  0  0
 28 56  1  0  0  0
 29 32  2  0  0  0
 29 57  1  0  0  0
 30 32  1  0  0  0
 30 58  1  0  0  0
 31 59  1  0  0  0
 32 60  1  0  0  0
 33 61  1  0  0  0
M  END
> <s_m_entry_id>
3191

> <s_m_entry_name>
dock_pv.25

> <s_m_Source_Path>
/home/csk/Desktop/cluster/DUD-E-result/kith

> <s_m_Source_File>
dock_pv.maegz

> <i_m_Source_File_Index>
25

> <chembl_id>
CHEMBL134857

> <chembl_pref_name>
None

> <i_lp_mmshare_version>
53161

> <i_f3d_flags>
0

> <r_lp_tautomer_probability>
0.9999999999615

> <s_lp_Force_Field>
OPLS_2005

> <r_lp_Energy>
43.8182

> <b_lp_Chiralities_Consistent>
1

> <s_lp_Variant>
CHEMBL2883_lig15-2

> <s_i_glide_gridfile>
glide-grid_2b8t

> <i_i_glide_lignum>
16

> <i_i_glide_rotatable_bonds>
8

> <r_i_docking_score>
-8.56132157276978

> <r_i_glide_ligand_efficiency>
-0.25943398705363

> <r_i_glide_ligand_efficiency_sa>
-0.832143418872345

> <r_i_glide_ligand_efficiency_ln>
-1.90399358963329

> <r_i_glide_gscore>
-8.56132157276978

> <r_i_glide_lipo>
-2.40247850843317

> <r_i_glide_hbond>
-0.66689828577727

> <r_i_glide_metal>
0

> <r_i_glide_rewards>
-3.14905296477443

> <r_i_glide_evdw>
-43.6210327148438

> <r_i_glide_ecoul>
-4.92008447647095

> <r_i_glide_erotb>
0.576172493427916

> <r_i_glide_esite>
0

> <r_i_glide_emodel>
-65.9953041175819

> <r_i_glide_energy>
-48.5411171913147

> <r_i_glide_einternal>
10.7582883834839

> <i_i_glide_confnum>
237

> <i_i_glide_posenum>
212

> <r_i_glide_eff_state_penalty>
0

> <s_user_duplicate_titles>
CHEMBL2883_lig15

> <s_m_subgroup_title>
dock_pv

> <s_m_subgroupid>
dock_pv

> <b_m_subgroup_collapsed>
1

$$$$
CHEMBL2883_lig36
                    3D
 Schrodinger Suite 2021-1.
 28 29  0  0  1  0            999 V2000
   -9.9145    5.0395   35.2834 N   0  0  0  0  0  0
  -10.0475    5.0431   33.8214 C   0  0  2  0  0  0
  -10.9615    4.5816   36.0685 C   0  0  0  0  0  0
  -10.9941    5.9740   33.3995 O   0  0  0  0  0  0
  -10.7051    4.3716   37.4441 N   0  0  0  0  0  0
  -10.3531    3.7237   33.0987 C   0  0  0  0  0  0
   -8.7687    5.4906   35.9101 C   0  0  0  0  0  0
  -11.9863    5.3722   32.6366 C   0  0  2  0  0  0
   -8.5681    5.4101   37.2473 C   0  0  0  0  0  0
  -11.3466    4.1415   32.0183 C   0  0  2  0  0  0
   -9.6176    4.7740   38.0020 C   0  0  0  0  0  0
  -12.0410    4.3740   35.5287 O   0  0  0  0  0  0
   -7.1217    5.9740   38.1153 S   0  0  0  0  0  0
  -12.4385    6.1817   31.6239 O   0  0  0  0  0  0
  -12.3506    3.1740   31.7830 O   0  0  0  0  0  0
   -5.9515    6.4285   36.8144 C   0  0  0  0  0  0
   -9.1078    5.4480   33.4465 H   0  0  0  0  0  0
   -9.4496    3.2770   32.6823 H   0  0  0  0  0  0
  -10.7969    3.0003   33.7830 H   0  0  0  0  0  0
   -8.0531    5.9254   35.2287 H   0  0  0  0  0  0
  -12.8099    5.1025   33.3015 H   0  0  0  0  0  0
  -10.8159    4.4187   31.1036 H   0  0  0  0  0  0
   -9.5152    4.6010   39.0690 H   0  0  0  0  0  0
  -12.8410    6.9572   32.0398 H   0  0  0  0  0  0
  -12.0164    2.5564   31.1077 H   0  0  0  0  0  0
   -5.0286    6.7740   37.2782 H   0  0  0  0  0  0
   -6.3597    7.2260   36.1949 H   0  0  0  0  0  0
   -5.7136    5.5740   36.1830 H   0  0  0  0  0  0
  1  2  1  0  0  0
  1  3  1  0  0  0
  1  7  1  0  0  0
  2  4  1  0  0  0
  2  6  1  0  0  0
  2 17  1  0  0  0
  3  5  1  0  0  0
  3 12  2  0  0  0
  4  8  1  0  0  0
  5 11  2  0  0  0
  6 10  1  0  0  0
  6 18  1  0  0  0
  6 19  1  0  0  0
  7  9  2  0  0  0
  7 20  1  0  0  0
  8 14  1  0  0  0
  8 10  1  0  0  0
  8 21  1  0  0  0
  9 11  1  0  0  0
  9 13  1  0  0  0
 10 15  1  0  0  0
 10 22  1  0  0  0
 11 23  1  0  0  0
 13 16  1  0  0  0
 14 24  1  0  0  0
 15 25  1  0  0  0
 16 26  1  0  0  0
 16 27  1  0  0  0
 16 28  1  0  0  0
M  END
> <s_m_entry_id>
3193

> <s_m_entry_name>
dock_pv.27

> <s_m_Source_Path>
/home/csk/Desktop/cluster/DUD-E-result/kith

> <s_m_Source_File>
dock_pv.maegz

> <i_m_Source_File_Index>
27

> <chembl_id>
CHEMBL268232

> <chembl_pref_name>
None

> <i_lp_mmshare_version>
53161

> <i_f3d_flags>
0

> <r_lp_tautomer_probability>
1

> <s_lp_Force_Field>
OPLS_2005

> <r_lp_Energy>
22.395355

> <b_lp_Chiralities_Consistent>
1

> <s_lp_Variant>
CHEMBL2883_lig36-7

> <s_i_glide_gridfile>
glide-grid_2b8t

> <i_i_glide_lignum>
44

> <i_i_glide_rotatable_bonds>
4

> <r_i_docking_score>
-7.88394708575683

> <r_i_glide_ligand_efficiency>
-0.492746692859802

> <r_i_glide_ligand_efficiency_sa>
-1.24164386005277

> <r_i_glide_ligand_efficiency_ln>
-2.08979766049773

> <r_i_glide_gscore>
-7.88394708575683

> <r_i_glide_lipo>
-1.58793108245942

> <r_i_glide_hbond>
0

> <r_i_glide_metal>
0

> <r_i_glide_rewards>
-3.86980971584814

> <r_i_glide_evdw>
-26.9333782196045

> <r_i_glide_ecoul>
-9.13918685913086

> <r_i_glide_erotb>
0.291340652400579

> <r_i_glide_esite>
0

> <r_i_glide_emodel>
-54.3108285812976

> <r_i_glide_energy>
-36.0725650787354

> <r_i_glide_einternal>
3.86956739425659

> <i_i_glide_confnum>
4

> <i_i_glide_posenum>
50

> <r_i_glide_eff_state_penalty>
0

> <s_user_duplicate_titles>
CHEMBL2883_lig36

> <s_m_subgroup_title>
dock_pv

> <s_m_subgroupid>
dock_pv

> <b_m_subgroup_collapsed>
1

$$$$
CHEMBL2883_lig23
                    3D
 Schrodinger Suite 2021-1.
 27 29  0  0  1  0            999 V2000
  -10.3311    4.8802   36.2917 N   0  0  0  0  0  0
  -11.0745    4.9878   34.9660 C   0  0  2  0  0  0
  -12.0315    3.9738   34.8289 O   0  0  0  0  0  0
  -12.2494    3.6301   33.4562 C   0  0  0  0  0  0
  -11.2888    4.5403   32.6857 C   0  0  1  0  0  0
  -10.2322    4.8466   33.7218 C   0  0  0  0  0  0
  -10.6563    3.9745   31.5525 O   0  0  0  0  0  0
   -9.9596    4.4756   38.4556 N   0  0  0  0  0  0
  -10.7948    4.3741   37.4502 C   0  0  0  0  0  0
   -8.8894    5.1028   37.9343 C   0  0  0  0  0  0
   -9.0844    5.3694   36.5904 C   0  0  0  0  0  0
   -8.1844    5.9736   35.7838 N   0  0  0  0  0  0
   -7.0524    6.2981   36.4220 C   0  0  0  0  0  0
   -6.7210    6.0815   37.6973 N   0  0  0  0  0  0
   -7.6412    5.4840   38.4922 C   0  0  0  0  0  0
   -7.2414    5.1736   39.7830 N   0  0  0  0  0  0
  -11.5935    5.9496   34.9742 H   0  0  0  0  0  0
  -13.2800    3.8090   33.1474 H   0  0  0  0  0  0
  -11.9781    2.5841   33.3030 H   0  0  0  0  0  0
  -11.8091    5.4596   32.4067 H   0  0  0  0  0  0
   -9.5764    3.9910   33.8649 H   0  0  0  0  0  0
   -9.6519    5.7445   33.5135 H   0  0  0  0  0  0
  -11.2412    3.3628   31.0848 H   0  0  0  0  0  0
  -11.7817    3.9428   37.4958 H   0  0  0  0  0  0
   -6.2973    6.7768   35.8154 H   0  0  0  0  0  0
   -7.8983    4.6089   40.3255 H   0  0  0  0  0  0
   -6.2588    5.0190   39.8945 H   0  0  0  0  0  0
  1  9  1  0  0  0
  1  2  1  0  0  0
  1 11  1  0  0  0
  2  3  1  0  0  0
  2  6  1  0  0  0
  2 17  1  0  0  0
  3  4  1  0  0  0
  4  5  1  0  0  0
  4 18  1  0  0  0
  4 19  1  0  0  0
  5  6  1  0  0  0
  5  7  1  0  0  0
  5 20  1  0  0  0
  6 21  1  0  0  0
  6 22  1  0  0  0
  7 23  1  0  0  0
  8 10  1  0  0  0
  8  9  2  0  0  0
  9 24  1  0  0  0
 10 11  2  0  0  0
 10 15  1  0  0  0
 11 12  1  0  0  0
 12 13  2  0  0  0
 13 14  1  0  0  0
 13 25  1  0  0  0
 14 15  2  0  0  0
 15 16  1  0  0  0
 16 26  1  0  0  0
 16 27  1  0  0  0
M  END
> <s_m_entry_id>
3194

> <s_m_entry_name>
dock_pv.28

> <s_m_Source_Path>
/home/csk/Desktop/cluster/DUD-E-result/kith

> <s_m_Source_File>
dock_pv.maegz

> <i_m_Source_File_Index>
28

> <chembl_id>
CHEMBL1823508

> <chembl_pref_name>
None

> <i_lp_mmshare_version>
53161

> <i_f3d_flags>
0

> <r_lp_tautomer_probability>
0.999997216410988

> <s_lp_Force_Field>
OPLS_2005

> <r_lp_Energy>
30.235272

> <b_lp_Chiralities_Consistent>
1

> <s_lp_Variant>
CHEMBL2883_lig23-1

> <s_i_glide_gridfile>
glide-grid_2b8t

> <i_i_glide_lignum>
25

> <i_i_glide_rotatable_bonds>
2

> <r_i_docking_score>
-7.8009418350822

> <r_i_glide_ligand_efficiency>
-0.487558864692638

> <r_i_glide_ligand_efficiency_sa>
-1.22857135224276

> <r_i_glide_ligand_efficiency_ln>
-2.0677954607389

> <r_i_glide_gscore>
-7.8009418350822

> <r_i_glide_lipo>
-0.86307396508406

> <r_i_glide_hbond>
-0.491597990401657

> <r_i_glide_metal>
0

> <r_i_glide_rewards>
-4.49580040909091

> <r_i_glide_evdw>
-29.8615379333496

> <r_i_glide_ecoul>
-4.65829610824585

> <r_i_glide_erotb>
0.241351842398782

> <r_i_glide_esite>
0

> <r_i_glide_emodel>
-47.4224189999658

> <r_i_glide_energy>
-34.5198340415955

> <r_i_glide_einternal>
4.59349918365479

> <i_i_glide_confnum>
6

> <i_i_glide_posenum>
223

> <r_i_glide_eff_state_penalty>
0

> <s_user_duplicate_titles>
CHEMBL2883_lig23

> <s_m_subgroup_title>
dock_pv

> <s_m_subgroupid>
dock_pv

> <b_m_subgroup_collapsed>
1

$$$$
CHEMBL2883_lig36
                    3D
 Schrodinger Suite 2021-1.
 28 29  0  0  1  0            999 V2000
  -10.3020    4.6619   36.1968 N   0  0  0  0  0  0
  -11.2575    4.4580   35.1105 C   0  0  1  0  0  0
  -10.5206    4.2355   37.5041 C   0  0  0  0  0  0
  -11.6773    5.7101   34.6366 O   0  0  0  0  0  0
   -9.5481    4.5908   38.4686 N   0  0  0  0  0  0
  -10.7484    3.6798   33.8809 C   0  0  0  0  0  0
   -9.1303    5.3057   35.9020 C   0  0  0  0  0  0
  -11.7984    5.6823   33.2502 C   0  0  1  0  0  0
   -8.1646    5.5740   36.7892 C   0  0  0  0  0  0
  -10.6539    4.7762   32.8171 C   0  0  2  0  0  0
   -8.4411    5.1743   38.1563 C   0  0  0  0  0  0
  -11.5152    3.5741   37.7833 O   0  0  0  0  0  0
   -6.7037    6.3754   36.1830 S   0  0  0  0  0  0
  -13.0051    5.1739   32.8120 O   0  0  0  0  0  0
  -10.6981    4.3695   31.4626 O   0  0  0  0  0  0
   -5.8258    6.8842   37.6422 C   0  0  0  0  0  0
  -12.1391    3.9726   35.5274 H   0  0  0  0  0  0
   -9.7986    3.1775   34.0708 H   0  0  0  0  0  0
  -11.4912    2.9269   33.6097 H   0  0  0  0  0  0
   -9.0313    5.5884   34.8691 H   0  0  0  0  0  0
  -11.6415    6.6956   32.8744 H   0  0  0  0  0  0
   -9.7360    5.3503   32.9377 H   0  0  0  0  0  0
   -7.7398    5.3608   38.9638 H   0  0  0  0  0  0
  -13.6366    5.8979   32.7952 H   0  0  0  0  0  0
  -11.3998    3.7200   31.3442 H   0  0  0  0  0  0
   -4.8752    7.3417   37.3870 H   0  0  0  0  0  0
   -5.6409    5.9740   38.1834 H   0  0  0  0  0  0
   -6.4205    7.5721   38.2338 H   0  0  0  0  0  0
  1  2  1  0  0  0
  1  3  1  0  0  0
  1  7  1  0  0  0
  2  4  1  0  0  0
  2  6  1  0  0  0
  2 17  1  0  0  0
  3  5  1  0  0  0
  3 12  2  0  0  0
  4  8  1  0  0  0
  5 11  2  0  0  0
  6 10  1  0  0  0
  6 18  1  0  0  0
  6 19  1  0  0  0
  7  9  2  0  0  0
  7 20  1  0  0  0
  8 14  1  0  0  0
  8 10  1  0  0  0
  8 21  1  0  0  0
  9 11  1  0  0  0
  9 13  1  0  0  0
 10 15  1  0  0  0
 10 22  1  0  0  0
 11 23  1  0  0  0
 13 16  1  0  0  0
 14 24  1  0  0  0
 15 25  1  0  0  0
 16 26  1  0  0  0
 16 27  1  0  0  0
 16 28  1  0  0  0
M  END
> <s_m_entry_id>
3195

> <s_m_entry_name>
dock_pv.29

> <s_m_Source_Path>
/home/csk/Desktop/cluster/DUD-E-result/kith

> <s_m_Source_File>
dock_pv.maegz

> <i_m_Source_File_Index>
29

> <chembl_id>
CHEMBL268232

> <chembl_pref_name>
None

> <i_lp_mmshare_version>
53161

> <i_f3d_flags>
0

> <r_lp_tautomer_probability>
1

> <s_lp_Force_Field>
OPLS_2005

> <r_lp_Energy>
30.35939

> <b_lp_Chiralities_Consistent>
1

> <s_lp_Variant>
CHEMBL2883_lig36-6

> <s_i_glide_gridfile>
glide-grid_2b8t

> <i_i_glide_lignum>
43

> <i_i_glide_rotatable_bonds>
4

> <r_i_docking_score>
-7.53685548526541

> <r_i_glide_ligand_efficiency>
-0.471053467829088

> <r_i_glide_ligand_efficiency_sa>
-1.18698035839069

> <r_i_glide_ligand_efficiency_ln>
-1.99779409847538

> <r_i_glide_gscore>
-7.53685548526541

> <r_i_glide_lipo>
-1.77485664075057

> <r_i_glide_hbond>
-0.166910090202764

> <r_i_glide_metal>
0

> <r_i_glide_rewards>
-3.87745919377625

> <r_i_glide_evdw>
-29.7253894805908

> <r_i_glide_ecoul>
-3.4846715927124

> <r_i_glide_erotb>
0.291340652400579

> <r_i_glide_esite>
0

> <r_i_glide_emodel>
-47.2500202429724

> <r_i_glide_energy>
-33.2100610733032

> <r_i_glide_einternal>
4.28604698181152

> <i_i_glide_confnum>
4

> <i_i_glide_posenum>
53

> <r_i_glide_eff_state_penalty>
0

> <s_user_duplicate_titles>
CHEMBL2883_lig36

> <s_m_subgroup_title>
dock_pv

> <s_m_subgroupid>
dock_pv

> <b_m_subgroup_collapsed>
1

$$$$
CHEMBL2883_lig36
                    3D
 Schrodinger Suite 2021-1.
 28 29  0  0  1  0            999 V2000
   -9.9484    5.1408   35.2422 N   0  0  0  0  0  0
  -10.0270    5.0929   33.7753 C   0  0  1  0  0  0
  -10.9768    4.6168   36.0093 C   0  0  0  0  0  0
  -10.0410    3.7780   33.3246 O   0  0  0  0  0  0
  -10.7220    4.3740   37.3801 N   0  0  0  0  0  0
  -11.2031    5.6942   33.0147 C   0  0  0  0  0  0
   -8.7946    5.5540   35.8845 C   0  0  0  0  0  0
  -10.3011    3.7717   31.9528 C   0  0  1  0  0  0
   -8.5895    5.4267   37.2168 C   0  0  0  0  0  0
  -10.8878    5.1573   31.6192 C   0  0  1  0  0  0
   -9.6405    4.7735   37.9515 C   0  0  0  0  0  0
  -12.0410    4.3740   35.4620 O   0  0  0  0  0  0
   -7.1494    5.9740   38.1085 S   0  0  0  0  0  0
   -9.1774    3.5740   31.1850 O   0  0  0  0  0  0
  -12.0241    5.0264   30.7890 O   0  0  0  0  0  0
   -6.1029    6.7739   36.8690 C   0  0  0  0  0  0
   -9.1061    5.5740   33.4334 H   0  0  0  0  0  0
  -12.1621    5.2996   33.3420 H   0  0  0  0  0  0
  -11.2410    6.7740   33.1066 H   0  0  0  0  0  0
   -8.0665    5.9874   35.2176 H   0  0  0  0  0  0
  -11.0255    2.9697   31.7832 H   0  0  0  0  0  0
  -10.1289    5.7786   31.1364 H   0  0  0  0  0  0
   -9.5432    4.5802   39.0156 H   0  0  0  0  0  0
   -9.1567    2.6255   30.9830 H   0  0  0  0  0  0
  -11.7787    4.5018   30.0207 H   0  0  0  0  0  0
   -5.2410    7.2093   37.3738 H   0  0  0  0  0  0
   -6.6462    7.5716   36.3615 H   0  0  0  0  0  0
   -5.7486    6.0525   36.1320 H   0  0  0  0  0  0
  1  2  1  0  0  0
  1  3  1  0  0  0
  1  7  1  0  0  0
  2  4  1  0  0  0
  2  6  1  0  0  0
  2 17  1  0  0  0
  3  5  1  0  0  0
  3 12  2  0  0  0
  4  8  1  0  0  0
  5 11  2  0  0  0
  6 10  1  0  0  0
  6 18  1  0  0  0
  6 19  1  0  0  0
  7  9  2  0  0  0
  7 20  1  0  0  0
  8 14  1  0  0  0
  8 10  1  0  0  0
  8 21  1  0  0  0
  9 11  1  0  0  0
  9 13  1  0  0  0
 10 15  1  0  0  0
 10 22  1  0  0  0
 11 23  1  0  0  0
 13 16  1  0  0  0
 14 24  1  0  0  0
 15 25  1  0  0  0
 16 26  1  0  0  0
 16 27  1  0  0  0
 16 28  1  0  0  0
M  END
> <s_m_entry_id>
3196

> <s_m_entry_name>
dock_pv.30

> <s_m_Source_Path>
/home/csk/Desktop/cluster/DUD-E-result/kith

> <s_m_Source_File>
dock_pv.maegz

> <i_m_Source_File_Index>
30

> <chembl_id>
CHEMBL268232

> <chembl_pref_name>
None

> <i_lp_mmshare_version>
53161

> <i_f3d_flags>
0

> <r_lp_tautomer_probability>
1

> <s_lp_Force_Field>
OPLS_2005

> <r_lp_Energy>
24.505096

> <b_lp_Chiralities_Consistent>
1

> <s_lp_Variant>
CHEMBL2883_lig36-2

> <s_i_glide_gridfile>
glide-grid_2b8t

> <i_i_glide_lignum>
39

> <i_i_glide_rotatable_bonds>
4

> <r_i_docking_score>
-7.52342544635175

> <r_i_glide_ligand_efficiency>
-0.470214090396984

> <r_i_glide_ligand_efficiency_sa>
-1.18486525980161

> <r_i_glide_ligand_efficiency_ln>
-1.9942341983902

> <r_i_glide_gscore>
-7.52342544635175

> <r_i_glide_lipo>
-1.71016301996191

> <r_i_glide_hbond>
0

> <r_i_glide_metal>
0

> <r_i_glide_rewards>
-3.38455582066691

> <r_i_glide_evdw>
-31.2029209136963

> <r_i_glide_ecoul>
-7.14013004302979

> <r_i_glide_erotb>
0.291340652400579

> <r_i_glide_esite>
-0.0888817059842172

> <r_i_glide_emodel>
-56.5294813801181

> <r_i_glide_energy>
-38.3430509567261

> <r_i_glide_einternal>
2.39020085334778

> <i_i_glide_confnum>
7

> <i_i_glide_posenum>
67

> <r_i_glide_eff_state_penalty>
0

> <s_user_duplicate_titles>
CHEMBL2883_lig36

> <s_m_subgroup_title>
dock_pv

> <s_m_subgroupid>
dock_pv

> <b_m_subgroup_collapsed>
1

$$$$
CHEMBL2883_lig24
                    3D
 Schrodinger Suite 2021-1.
 25 26  0  0  1  0            999 V2000
  -10.0040    4.8846   36.2420 N   0  0  0  0  0  0
  -10.9258    4.5898   35.1477 C   0  0  2  0  0  0
  -10.2921    3.8057   34.1822 O   0  0  0  0  0  0
  -10.9047    3.9627   32.9040 C   0  0  0  0  0  0
  -11.9521    5.0640   33.1181 C   0  0  1  0  0  0
  -11.5008    5.7710   34.3850 C   0  0  0  0  0  0
  -12.0470    5.9740   32.0430 O   0  0  0  0  0  0
  -10.2325    4.4169   37.5306 C   0  0  0  0  0  0
   -9.2657    4.7671   38.4986 N   0  0  0  0  0  0
   -8.1768    5.3806   38.2015 C   0  0  0  0  0  0
   -7.9172    5.8476   36.8743 C   0  0  0  0  0  0
   -8.8494    5.5733   35.9509 C   0  0  0  0  0  0
  -11.2408    3.7556   37.7844 O   0  0  0  0  0  0
   -7.2416    5.5739   39.1304 N   0  0  0  0  0  0
  -11.7469    3.9797   35.5321 H   0  0  0  0  0  0
  -11.3685    3.0389   32.5537 H   0  0  0  0  0  0
  -10.1465    4.2962   32.1937 H   0  0  0  0  0  0
  -12.9233    4.5968   33.2965 H   0  0  0  0  0  0
  -10.7286    6.5136   34.1831 H   0  0  0  0  0  0
  -12.3110    6.2415   34.9425 H   0  0  0  0  0  0
  -12.6020    6.7136   32.3215 H   0  0  0  0  0  0
   -7.0195    6.3837   36.6020 H   0  0  0  0  0  0
   -8.7510    5.8547   34.9130 H   0  0  0  0  0  0
   -6.3977    6.0758   38.9044 H   0  0  0  0  0  0
   -7.3977    5.1919   40.0523 H   0  0  0  0  0  0
  1  8  1  0  0  0
  1 12  1  0  0  0
  1  2  1  0  0  0
  2  3  1  0  0  0
  2  6  1  0  0  0
  2 15  1  0  0  0
  3  4  1  0  0  0
  4  5  1  0  0  0
  4 16  1  0  0  0
  4 17  1  0  0  0
  5  7  1  0  0  0
  5  6  1  0  0  0
  5 18  1  0  0  0
  6 19  1  0  0  0
  6 20  1  0  0  0
  7 21  1  0  0  0
  8  9  1  0  0  0
  8 13  2  0  0  0
  9 10  2  0  0  0
 10 11  1  0  0  0
 10 14  1  0  0  0
 11 12  2  0  0  0
 11 22  1  0  0  0
 12 23  1  0  0  0
 14 24  1  0  0  0
 14 25  1  0  0  0
M  END
> <s_m_entry_id>
3197

> <s_m_entry_name>
dock_pv.31

> <s_m_Source_Path>
/home/csk/Desktop/cluster/DUD-E-result/kith

> <s_m_Source_File>
dock_pv.maegz

> <i_m_Source_File_Index>
31

> <chembl_id>
CHEMBL1821745

> <chembl_pref_name>
None

> <i_lp_mmshare_version>
53161

> <i_f3d_flags>
0

> <r_lp_tautomer_probability>
0.999959729267721

> <s_lp_Force_Field>
OPLS_2005

> <r_lp_Energy>
24.139693

> <b_lp_Chiralities_Consistent>
1

> <s_lp_Variant>
CHEMBL2883_lig24-1

> <s_i_glide_gridfile>
glide-grid_2b8t

> <i_i_glide_lignum>
26

> <i_i_glide_rotatable_bonds>
2

> <r_i_docking_score>
-7.51602762984557

> <r_i_glide_ligand_efficiency>
-0.53685911641754

> <r_i_glide_ligand_efficiency_sa>
-1.29390684524745

> <r_i_glide_ligand_efficiency_ln>
-2.06537763741145

> <r_i_glide_gscore>
-7.51602762984557

> <r_i_glide_lipo>
-1.30616298192163

> <r_i_glide_hbond>
-0.512151607656857

> <r_i_glide_metal>
0

> <r_i_glide_rewards>
-3.83946000451002

> <r_i_glide_evdw>
-30.6248626708984

> <r_i_glide_ecoul>
-4.9671573638916

> <r_i_glide_erotb>
0.418063702371597

> <r_i_glide_esite>
0

> <r_i_glide_emodel>
-49.4878661264565

> <r_i_glide_energy>
-35.59202003479

> <r_i_glide_einternal>
4.22817850112915

> <i_i_glide_confnum>
4

> <i_i_glide_posenum>
325

> <r_i_glide_eff_state_penalty>
0

> <s_user_duplicate_titles>
CHEMBL2883_lig24

> <s_m_subgroup_title>
dock_pv

> <s_m_subgroupid>
dock_pv

> <b_m_subgroup_collapsed>
1

$$$$
CHEMBL2883_lig36
                    3D
 Schrodinger Suite 2021-1.
 28 29  0  0  1  0            999 V2000
   -9.9420    5.1193   35.3852 N   0  0  0  0  0  0
  -10.0757    5.1405   33.9254 C   0  0  1  0  0  0
  -10.9608    4.6047   36.1704 C   0  0  0  0  0  0
  -10.0687    3.8538   33.3801 O   0  0  0  0  0  0
  -10.6806    4.3739   37.5394 N   0  0  0  0  0  0
  -11.2516    5.8474   33.2501 C   0  0  0  0  0  0
   -8.7803    5.5440   36.0033 C   0  0  0  0  0  0
  -10.7297    3.8557   32.1428 C   0  0  2  0  0  0
   -8.5491    5.4204   37.3304 C   0  0  0  0  0  0
  -11.0214    5.3358   31.8347 C   0  0  1  0  0  0
   -9.5870    4.7738   38.0889 C   0  0  0  0  0  0
  -12.0410    4.3740   35.6447 O   0  0  0  0  0  0
   -7.0908    5.9740   38.1821 S   0  0  0  0  0  0
  -11.9214    3.1681   32.1830 O   0  0  0  0  0  0
  -12.0999    5.5562   30.9454 O   0  0  0  0  0  0
   -6.0833    6.7738   36.9093 C   0  0  0  0  0  0
   -9.1410    5.5746   33.5711 H   0  0  0  0  0  0
  -12.2157    5.4963   33.6115 H   0  0  0  0  0  0
  -11.2408    6.9245   33.3831 H   0  0  0  0  0  0
   -8.0701    5.9874   35.3234 H   0  0  0  0  0  0
  -10.0789    3.4143   31.3836 H   0  0  0  0  0  0
  -10.1152    5.7653   31.4034 H   0  0  0  0  0  0
   -9.4729    4.5911   39.1529 H   0  0  0  0  0  0
  -11.8458    2.4415   31.5473 H   0  0  0  0  0  0
  -12.8005    4.9498   31.2035 H   0  0  0  0  0  0
   -5.2142    7.2264   37.3834 H   0  0  0  0  0  0
   -6.6474    7.5599   36.4067 H   0  0  0  0  0  0
   -5.7393    6.0485   36.1712 H   0  0  0  0  0  0
  1  2  1  0  0  0
  1  3  1  0  0  0
  1  7  1  0  0  0
  2  4  1  0  0  0
  2  6  1  0  0  0
  2 17  1  0  0  0
  3  5  1  0  0  0
  3 12  2  0  0  0
  4  8  1  0  0  0
  5 11  2  0  0  0
  6 10  1  0  0  0
  6 18  1  0  0  0
  6 19  1  0  0  0
  7  9  2  0  0  0
  7 20  1  0  0  0
  8 14  1  0  0  0
  8 10  1  0  0  0
  8 21  1  0  0  0
  9 11  1  0  0  0
  9 13  1  0  0  0
 10 15  1  0  0  0
 10 22  1  0  0  0
 11 23  1  0  0  0
 13 16  1  0  0  0
 14 24  1  0  0  0
 15 25  1  0  0  0
 16 26  1  0  0  0
 16 27  1  0  0  0
 16 28  1  0  0  0
M  END
> <s_m_entry_id>
3198

> <s_m_entry_name>
dock_pv.32

> <s_m_Source_Path>
/home/csk/Desktop/cluster/DUD-E-result/kith

> <s_m_Source_File>
dock_pv.maegz

> <i_m_Source_File_Index>
32

> <chembl_id>
CHEMBL268232

> <chembl_pref_name>
None

> <i_lp_mmshare_version>
53161

> <i_f3d_flags>
0

> <r_lp_tautomer_probability>
1

> <s_lp_Force_Field>
OPLS_2005

> <r_lp_Energy>
30.018903

> <b_lp_Chiralities_Consistent>
1

> <s_lp_Variant>
CHEMBL2883_lig36-4

> <s_i_glide_gridfile>
glide-grid_2b8t

> <i_i_glide_lignum>
41

> <i_i_glide_rotatable_bonds>
4

> <r_i_docking_score>
-7.45723070633941

> <r_i_glide_ligand_efficiency>
-0.466076919146213

> <r_i_glide_ligand_efficiency_sa>
-1.17444024151952

> <r_i_glide_ligand_efficiency_ln>
-1.97668796027998

> <r_i_glide_gscore>
-7.45723070633941

> <r_i_glide_lipo>
-1.71442603981263

> <r_i_glide_hbond>
0

> <r_i_glide_metal>
0

> <r_i_glide_rewards>
-3.59425412762482

> <r_i_glide_evdw>
-29.1015892028809

> <r_i_glide_ecoul>
-6.07774686813354

> <r_i_glide_erotb>
0.291340652400579

> <r_i_glide_esite>
-0.0731497009384719

> <r_i_glide_emodel>
-52.377371755166

> <r_i_glide_energy>
-35.1793360710144

> <r_i_glide_einternal>
4.01356649398804

> <i_i_glide_confnum>
1

> <i_i_glide_posenum>
370

> <r_i_glide_eff_state_penalty>
0

> <s_user_duplicate_titles>
CHEMBL2883_lig36

> <s_m_subgroup_title>
dock_pv

> <s_m_subgroupid>
dock_pv

> <b_m_subgroup_collapsed>
1

$$$$
CHEMBL2883_lig36
                    3D
 Schrodinger Suite 2021-1.
 28 29  0  0  1  0            999 V2000
   -9.9433    5.0800   35.2148 N   0  0  0  0  0  0
  -10.0158    5.0502   33.7520 C   0  0  2  0  0  0
  -11.0065    4.5950   35.9609 C   0  0  0  0  0  0
  -11.0182    5.8964   33.2726 O   0  0  0  0  0  0
  -10.7855    4.3698   37.3398 N   0  0  0  0  0  0
  -10.1968    3.6893   33.0597 C   0  0  0  0  0  0
   -8.8128    5.5193   35.8755 C   0  0  0  0  0  0
  -11.8720    5.1975   32.4258 C   0  0  2  0  0  0
   -8.6459    5.4123   37.2150 C   0  0  0  0  0  0
  -11.0433    4.0465   31.8463 C   0  0  1  0  0  0
   -9.7121    4.7643   37.9310 C   0  0  0  0  0  0
  -12.0660    4.3741   35.3834 O   0  0  0  0  0  0
   -7.2365    5.9739   38.1394 S   0  0  0  0  0  0
  -12.4009    5.9741   31.4264 O   0  0  0  0  0  0
  -10.2390    4.3747   30.7235 O   0  0  0  0  0  0
   -6.0506    6.5334   36.8866 C   0  0  0  0  0  0
   -9.0949    5.5176   33.4005 H   0  0  0  0  0  0
   -9.2414    3.2314   32.8032 H   0  0  0  0  0  0
  -10.7352    2.9928   33.7043 H   0  0  0  0  0  0
   -8.0829    5.9722   35.2201 H   0  0  0  0  0  0
  -12.6898    4.8044   33.0325 H   0  0  0  0  0  0
  -11.7210    3.2292   31.5928 H   0  0  0  0  0  0
   -9.6361    4.5719   38.9967 H   0  0  0  0  0  0
  -12.8408    6.7197   31.8508 H   0  0  0  0  0  0
  -10.3330    3.6395   30.1043 H   0  0  0  0  0  0
   -5.1555    6.9068   37.3830 H   0  0  0  0  0  0
   -6.4714    7.3392   36.2844 H   0  0  0  0  0  0
   -5.7594    5.7126   36.2307 H   0  0  0  0  0  0
  1  2  1  0  0  0
  1  3  1  0  0  0
  1  7  1  0  0  0
  2  4  1  0  0  0
  2  6  1  0  0  0
  2 17  1  0  0  0
  3  5  1  0  0  0
  3 12  2  0  0  0
  4  8  1  0  0  0
  5 11  2  0  0  0
  6 10  1  0  0  0
  6 18  1  0  0  0
  6 19  1  0  0  0
  7  9  2  0  0  0
  7 20  1  0  0  0
  8 14  1  0  0  0
  8 10  1  0  0  0
  8 21  1  0  0  0
  9 11  1  0  0  0
  9 13  1  0  0  0
 10 15  1  0  0  0
 10 22  1  0  0  0
 11 23  1  0  0  0
 13 16  1  0  0  0
 14 24  1  0  0  0
 15 25  1  0  0  0
 16 26  1  0  0  0
 16 27  1  0  0  0
 16 28  1  0  0  0
M  END
> <s_m_entry_id>
3199

> <s_m_entry_name>
dock_pv.33

> <s_m_Source_Path>
/home/csk/Desktop/cluster/DUD-E-result/kith

> <s_m_Source_File>
dock_pv.maegz

> <i_m_Source_File_Index>
33

> <chembl_id>
CHEMBL268232

> <chembl_pref_name>
None

> <i_lp_mmshare_version>
53161

> <i_f3d_flags>
0

> <r_lp_tautomer_probability>
1

> <s_lp_Force_Field>
OPLS_2005

> <r_lp_Energy>
30.362271

> <b_lp_Chiralities_Consistent>
1

> <s_lp_Variant>
CHEMBL2883_lig36-3

> <s_i_glide_gridfile>
glide-grid_2b8t

> <i_i_glide_lignum>
40

> <i_i_glide_rotatable_bonds>
4

> <r_i_docking_score>
-7.42631404326742

> <r_i_glide_ligand_efficiency>
-0.464144627704214

> <r_i_glide_ligand_efficiency_sa>
-1.1695711721994

> <r_i_glide_ligand_efficiency_ln>
-1.96849288115839

> <r_i_glide_gscore>
-7.42631404326742

> <r_i_glide_lipo>
-1.59534030331591

> <r_i_glide_hbond>
0

> <r_i_glide_metal>
0

> <r_i_glide_rewards>
-3.55847917678355

> <r_i_glide_evdw>
-31.3451175689697

> <r_i_glide_ecoul>
-6.64386224746704

> <r_i_glide_erotb>
0.291340652400579

> <r_i_glide_esite>
0

> <r_i_glide_emodel>
-54.8035282076305

> <r_i_glide_energy>
-37.9889798164368

> <r_i_glide_einternal>
2.57947039604187

> <i_i_glide_confnum>
7

> <i_i_glide_posenum>
247

> <r_i_glide_eff_state_penalty>
0

> <s_user_duplicate_titles>
CHEMBL2883_lig36

> <s_m_subgroup_title>
dock_pv

> <s_m_subgroupid>
dock_pv

> <b_m_subgroup_collapsed>
1

$$$$
CHEMBL2883_lig36
                    3D
 Schrodinger Suite 2021-1.
 28 29  0  0  1  0            999 V2000
   -9.9182    5.0848   35.1997 N   0  0  0  0  0  0
  -10.0392    5.1173   33.7392 C   0  0  2  0  0  0
  -10.9731    4.5967   35.9586 C   0  0  0  0  0  0
  -11.0786    5.9611   33.3642 O   0  0  0  0  0  0
  -10.7353    4.3737   37.3357 N   0  0  0  0  0  0
  -10.2851    3.7952   33.0095 C   0  0  0  0  0  0
   -8.7815    5.5279   35.8492 C   0  0  0  0  0  0
  -11.5657    5.6196   32.1058 C   0  0  1  0  0  0
   -8.5956    5.4166   37.1857 C   0  0  0  0  0  0
  -11.0026    4.2378   31.7381 C   0  0  1  0  0  0
   -9.6567    4.7733   37.9151 C   0  0  0  0  0  0
  -12.0414    4.3741   35.3956 O   0  0  0  0  0  0
   -7.1682    5.9740   38.0904 S   0  0  0  0  0  0
  -12.9359    5.5738   32.0911 O   0  0  0  0  0  0
  -10.1203    4.3387   30.6338 O   0  0  0  0  0  0
   -6.1084    6.7635   36.8550 C   0  0  0  0  0  0
   -9.1201    5.5739   33.3690 H   0  0  0  0  0  0
   -9.3493    3.2649   32.8218 H   0  0  0  0  0  0
  -10.9309    3.1352   33.5868 H   0  0  0  0  0  0
   -8.0569    5.9726   35.1838 H   0  0  0  0  0  0
  -11.2423    6.3739   31.3897 H   0  0  0  0  0  0
  -11.8091    3.5397   31.4947 H   0  0  0  0  0  0
   -9.5724    4.5905   38.9827 H   0  0  0  0  0  0
  -13.2436    6.4471   32.3659 H   0  0  0  0  0  0
  -10.1575    3.4808   30.1842 H   0  0  0  0  0  0
   -5.2411    7.1852   37.3619 H   0  0  0  0  0  0
   -6.6420    7.5676   36.3472 H   0  0  0  0  0  0
   -5.7611    6.0381   36.1185 H   0  0  0  0  0  0
  1  2  1  0  0  0
  1  3  1  0  0  0
  1  7  1  0  0  0
  2  4  1  0  0  0
  2  6  1  0  0  0
  2 17  1  0  0  0
  3  5  1  0  0  0
  3 12  2  0  0  0
  4  8  1  0  0  0
  5 11  2  0  0  0
  6 10  1  0  0  0
  6 18  1  0  0  0
  6 19  1  0  0  0
  7  9  2  0  0  0
  7 20  1  0  0  0
  8 14  1  0  0  0
  8 10  1  0  0  0
  8 21  1  0  0  0
  9 11  1  0  0  0
  9 13  1  0  0  0
 10 15  1  0  0  0
 10 22  1  0  0  0
 11 23  1  0  0  0
 13 16  1  0  0  0
 14 24  1  0  0  0
 15 25  1  0  0  0
 16 26  1  0  0  0
 16 27  1  0  0  0
 16 28  1  0  0  0
M  END
> <s_m_entry_id>
3200

> <s_m_entry_name>
dock_pv.34

> <s_m_Source_Path>
/home/csk/Desktop/cluster/DUD-E-result/kith

> <s_m_Source_File>
dock_pv.maegz

> <i_m_Source_File_Index>
34

> <chembl_id>
CHEMBL268232

> <chembl_pref_name>
None

> <i_lp_mmshare_version>
53161

> <i_f3d_flags>
0

> <r_lp_tautomer_probability>
1

> <s_lp_Force_Field>
OPLS_2005

> <r_lp_Energy>
24.696818

> <b_lp_Chiralities_Consistent>
1

> <s_lp_Variant>
CHEMBL2883_lig36-1

> <s_i_glide_gridfile>
glide-grid_2b8t

> <i_i_glide_lignum>
38

> <i_i_glide_rotatable_bonds>
4

> <r_i_docking_score>
-7.40082644512261

> <r_i_glide_ligand_efficiency>
-0.462551652820163

> <r_i_glide_ligand_efficiency_sa>
-1.16555712702637

> <r_i_glide_ligand_efficiency_ln>
-1.96173688414377

> <r_i_glide_gscore>
-7.40082644512261

> <r_i_glide_lipo>
-1.56806266311348

> <r_i_glide_hbond>
0

> <r_i_glide_metal>
0

> <r_i_glide_rewards>
-3.47792428151664

> <r_i_glide_evdw>
-31.0078468322754

> <r_i_glide_ecoul>
-7.30525207519531

> <r_i_glide_erotb>
0.291340652400579

> <r_i_glide_esite>
0

> <r_i_glide_emodel>
-53.5683287217713

> <r_i_glide_energy>
-38.3130989074707

> <r_i_glide_einternal>
1.82089471817017

> <i_i_glide_confnum>
1

> <i_i_glide_posenum>
146

> <r_i_glide_eff_state_penalty>
0

> <s_user_duplicate_titles>
CHEMBL2883_lig36

> <s_m_subgroup_title>
dock_pv

> <s_m_subgroupid>
dock_pv

> <b_m_subgroup_collapsed>
1

$$$$
CHEMBL2883_lig36
                    3D
 Schrodinger Suite 2021-1.
 28 29  0  0  1  0            999 V2000
   -9.9946    5.0879   35.1210 N   0  0  0  0  0  0
  -10.1496    5.0901   33.6599 C   0  0  2  0  0  0
  -11.0220    4.5980   35.9143 C   0  0  0  0  0  0
  -11.2416    5.8690   33.2933 O   0  0  0  0  0  0
  -10.7385    4.3740   37.2841 N   0  0  0  0  0  0
  -10.3541    3.7418   32.9555 C   0  0  0  0  0  0
   -8.8386    5.5296   35.7358 C   0  0  0  0  0  0
  -11.6303    5.5520   32.0008 C   0  0  1  0  0  0
   -8.6053    5.4176   37.0647 C   0  0  0  0  0  0
  -11.3230    4.0551   31.8059 C   0  0  2  0  0  0
   -9.6410    4.7733   37.8288 C   0  0  0  0  0  0
  -12.1051    4.3740   35.3828 O   0  0  0  0  0  0
   -7.1408    5.9740   37.9128 S   0  0  0  0  0  0
  -12.9546    5.8326   31.7693 O   0  0  0  0  0  0
  -12.4387    3.1740   31.7834 O   0  0  0  0  0  0
   -6.1354    6.7594   36.6332 C   0  0  0  0  0  0
   -9.2550    5.5744   33.2644 H   0  0  0  0  0  0
   -9.4037    3.3462   32.5954 H   0  0  0  0  0  0
  -10.7794    3.0070   33.6394 H   0  0  0  0  0  0
   -8.1366    5.9731   35.0461 H   0  0  0  0  0  0
  -11.0289    6.1274   31.2999 H   0  0  0  0  0  0
  -10.7975    3.9667   30.8532 H   0  0  0  0  0  0
   -9.5204    4.5905   38.8934 H   0  0  0  0  0  0
  -13.1373    6.6989   32.1529 H   0  0  0  0  0  0
  -12.2197    2.4783   31.1424 H   0  0  0  0  0  0
   -5.2421    7.1709   37.1003 H   0  0  0  0  0  0
   -6.6884    7.5704   36.1584 H   0  0  0  0  0  0
   -5.8298    6.0369   35.8762 H   0  0  0  0  0  0
  1  2  1  0  0  0
  1  3  1  0  0  0
  1  7  1  0  0  0
  2  4  1  0  0  0
  2  6  1  0  0  0
  2 17  1  0  0  0
  3  5  1  0  0  0
  3 12  2  0  0  0
  4  8  1  0  0  0
  5 11  2  0  0  0
  6 10  1  0  0  0
  6 18  1  0  0  0
  6 19  1  0  0  0
  7  9  2  0  0  0
  7 20  1  0  0  0
  8 14  1  0  0  0
  8 10  1  0  0  0
  8 21  1  0  0  0
  9 11  1  0  0  0
  9 13  1  0  0  0
 10 15  1  0  0  0
 10 22  1  0  0  0
 11 23  1  0  0  0
 13 16  1  0  0  0
 14 24  1  0  0  0
 15 25  1  0  0  0
 16 26  1  0  0  0
 16 27  1  0  0  0
 16 28  1  0  0  0
M  END
> <s_m_entry_id>
3201

> <s_m_entry_name>
dock_pv.35

> <s_m_Source_Path>
/home/csk/Desktop/cluster/DUD-E-result/kith

> <s_m_Source_File>
dock_pv.maegz

> <i_m_Source_File_Index>
35

> <chembl_id>
CHEMBL268232

> <chembl_pref_name>
None

> <i_lp_mmshare_version>
53161

> <i_f3d_flags>
0

> <r_lp_tautomer_probability>
1

> <s_lp_Force_Field>
OPLS_2005

> <r_lp_Energy>
28.145886

> <b_lp_Chiralities_Consistent>
1

> <s_lp_Variant>
CHEMBL2883_lig36-5

> <s_i_glide_gridfile>
glide-grid_2b8t

> <i_i_glide_lignum>
42

> <i_i_glide_rotatable_bonds>
4

> <r_i_docking_score>
-7.34703318349083

> <r_i_glide_ligand_efficiency>
-0.459189573968177

> <r_i_glide_ligand_efficiency_sa>
-1.15708521920016

> <r_i_glide_ligand_efficiency_ln>
-1.94747790560348

> <r_i_glide_gscore>
-7.34703318349083

> <r_i_glide_lipo>
-1.56079469585549

> <r_i_glide_hbond>
0

> <r_i_glide_metal>
0

> <r_i_glide_rewards>
-3.48254299101095

> <r_i_glide_evdw>
-28.2748374938965

> <r_i_glide_ecoul>
-7.87529516220093

> <r_i_glide_erotb>
0.291340652400579

> <r_i_glide_esite>
0

> <r_i_glide_emodel>
-51.4065380136504

> <r_i_glide_energy>
-36.1501326560974

> <r_i_glide_einternal>
1.82533252239227

> <i_i_glide_confnum>
1

> <i_i_glide_posenum>
178

> <r_i_glide_eff_state_penalty>
0

> <s_user_duplicate_titles>
CHEMBL2883_lig36

> <s_m_subgroup_title>
dock_pv

> <s_m_subgroupid>
dock_pv

> <b_m_subgroup_collapsed>
1

$$$$
CHEMBL2883_lig31
                    3D
 Schrodinger Suite 2021-1.
 34 35  0  0  1  0            999 V2000
  -12.0410    5.4526   31.0478 C   0  0  0  0  0  0
  -10.7253    5.1974   31.4030 N   0  0  0  0  0  0
  -12.9287    5.3761   32.0764 N   0  0  0  0  0  0
  -11.3066    4.9288   33.7424 C   0  0  0  0  0  0
  -10.4185    4.9673   32.7240 C   0  0  0  0  0  0
  -12.7063    5.1512   33.3957 C   0  0  0  0  0  0
   -9.6695    5.2193   30.3705 C   0  0  2  0  0  0
   -9.4931    6.5470   29.5896 C   0  0  0  0  0  0
   -9.8546    4.1354   29.3046 C   0  0  0  0  0  0
   -9.0664    4.6277   28.0995 C   0  0  2  0  0  0
   -9.1753    6.1605   28.1370 C   0  0  2  0  0  0
  -10.9502    4.7156   35.1410 C   0  0  0  0  0  0
  -12.4593    5.7514   29.9291 O   0  0  0  0  0  0
  -13.6410    5.1740   34.1830 O   0  0  0  0  0  0
   -9.8115    5.1348   35.7190 C   0  0  0  0  0  0
   -9.4500    4.7740   37.6256 Br  0  0  0  0  0  0
   -8.0410    6.7740   27.5649 O   0  0  0  0  0  0
   -9.5510    4.0022   26.7811 C   0  0  0  0  0  0
   -8.4410    3.5740   26.0287 O   0  0  0  0  0  0
   -8.6935    4.9965   30.8029 H   0  0  0  0  0  0
  -13.8882    5.5560   31.8267 H   0  0  0  0  0  0
   -9.3581    4.8338   32.8762 H   0  0  0  0  0  0
  -10.3901    7.1665   29.6057 H   0  0  0  0  0  0
   -8.7087    7.1529   30.0382 H   0  0  0  0  0  0
   -9.5060    3.1740   29.6791 H   0  0  0  0  0  0
  -10.9006    3.9740   29.0390 H   0  0  0  0  0  0
   -8.0410    4.3238   28.2826 H   0  0  0  0  0  0
  -10.0435    6.4540   27.5425 H   0  0  0  0  0  0
  -11.6490    4.1735   35.7629 H   0  0  0  0  0  0
   -9.0274    5.6870   35.2202 H   0  0  0  0  0  0
   -8.0655    6.5904   26.6208 H   0  0  0  0  0  0
  -10.1658    3.1243   26.9830 H   0  0  0  0  0  0
  -10.1728    4.6716   26.1855 H   0  0  0  0  0  0
   -8.6782    2.6614   25.7830 H   0  0  0  0  0  0
  1  2  1  0  0  0
  1  3  1  0  0  0
  1 13  2  0  0  0
  2  5  1  0  0  0
  2  7  1  0  0  0
  3  6  1  0  0  0
  3 21  1  0  0  0
  4  6  1  0  0  0
  4 12  1  0  0  0
  4  5  2  0  0  0
  5 22  1  0  0  0
  6 14  2  0  0  0
  7  8  1  0  0  0
  7  9  1  0  0  0
  7 20  1  0  0  0
  8 11  1  0  0  0
  8 23  1  0  0  0
  8 24  1  0  0  0
  9 10  1  0  0  0
  9 25  1  0  0  0
  9 26  1  0  0  0
 10 18  1  0  0  0
 10 11  1  0  0  0
 10 27  1  0  0  0
 11 17  1  0  0  0
 11 28  1  0  0  0
 12 15  2  0  0  0
 12 29  1  0  0  0
 15 16  1  0  0  0
 15 30  1  0  0  0
 17 31  1  0  0  0
 18 19  1  0  0  0
 18 32  1  0  0  0
 18 33  1  0  0  0
 19 34  1  0  0  0
M  END
> <s_m_entry_id>
3202

> <s_m_entry_name>
dock_pv.36

> <s_m_Source_Path>
/home/csk/Desktop/cluster/DUD-E-result/kith

> <s_m_Source_File>
dock_pv.maegz

> <i_m_Source_File_Index>
36

> <chembl_id>
CHEMBL341644

> <chembl_pref_name>
None

> <i_lp_mmshare_version>
53161

> <i_f3d_flags>
0

> <r_lp_tautomer_probability>
1

> <s_lp_Force_Field>
OPLS_2005

> <r_lp_Energy>
29.887511

> <b_lp_Chiralities_Consistent>
1

> <s_lp_Variant>
CHEMBL2883_lig31-1

> <s_i_glide_gridfile>
glide-grid_2b8t

> <i_i_glide_lignum>
33

> <i_i_glide_rotatable_bonds>
5

> <r_i_docking_score>
-7.16972025032836

> <r_i_glide_ligand_efficiency>
-0.377353697385703

> <r_i_glide_ligand_efficiency_sa>
-1.00693122726705

> <r_i_glide_ligand_efficiency_ln>
-1.81767807492956

> <r_i_glide_gscore>
-7.16972025032836

> <r_i_glide_lipo>
-1.43020321134346

> <r_i_glide_hbond>
-1.28

> <r_i_glide_metal>
0

> <r_i_glide_rewards>
-1.87145825106268

> <r_i_glide_evdw>
-20.6202182769775

> <r_i_glide_ecoul>
-13.6113777160645

> <r_i_glide_erotb>
0.514760489478527

> <r_i_glide_esite>
-0.0301017061422003

> <r_i_glide_emodel>
-46.3653273898633

> <r_i_glide_energy>
-34.231595993042

> <r_i_glide_einternal>
8.54436874389648

> <i_i_glide_confnum>
52

> <i_i_glide_posenum>
370

> <r_i_glide_eff_state_penalty>
0

> <s_user_duplicate_titles>
CHEMBL2883_lig31,245505

> <s_m_subgroup_title>
dock_pv

> <s_m_subgroupid>
dock_pv

> <b_m_subgroup_collapsed>
1

$$$$
CHEMBL2883_lig36
                    3D
 Schrodinger Suite 2021-1.
 28 29  0  0  1  0            999 V2000
  -10.0376    5.0099   35.2116 N   0  0  0  0  0  0
  -10.1553    5.0581   33.7566 C   0  0  1  0  0  0
  -11.0235    4.3852   35.9618 C   0  0  0  0  0  0
  -10.0418    3.7877   33.1995 O   0  0  0  0  0  0
  -10.7790    4.2266   37.3498 N   0  0  0  0  0  0
  -11.3718    5.7252   33.1148 C   0  0  0  0  0  0
   -8.9090    5.4878   35.8468 C   0  0  0  0  0  0
  -10.9641    3.6251   32.1708 C   0  0  2  0  0  0
   -8.6846    5.3620   37.1738 C   0  0  0  0  0  0
  -11.4331    5.0228   31.7704 C   0  0  2  0  0  0
   -9.7086    4.6717   37.9163 C   0  0  0  0  0  0
  -12.0410    4.0039   35.3853 O   0  0  0  0  0  0
   -7.2405    5.9740   38.0288 S   0  0  0  0  0  0
  -12.0609    2.8885   32.5535 O   0  0  0  0  0  0
  -10.5646    5.5643   30.7860 O   0  0  0  0  0  0
   -6.2357    6.7531   36.7375 C   0  0  0  0  0  0
   -9.2525    5.5514   33.4021 H   0  0  0  0  0  0
  -12.2933    5.5499   33.6639 H   0  0  0  0  0  0
  -11.2426    6.7919   33.0613 H   0  0  0  0  0  0
   -8.2174    5.9742   35.1768 H   0  0  0  0  0  0
  -10.4401    3.1529   31.3456 H   0  0  0  0  0  0
  -12.4557    4.9912   31.3839 H   0  0  0  0  0  0
   -9.6051    4.4995   38.9836 H   0  0  0  0  0  0
  -11.8773    1.9737   32.3203 H   0  0  0  0  0  0
  -10.7412    5.1098   29.9566 H   0  0  0  0  0  0
   -5.3364    7.1720   37.1870 H   0  0  0  0  0  0
   -6.7889    7.5586   36.2522 H   0  0  0  0  0  0
   -5.9323    6.0234   35.9859 H   0  0  0  0  0  0
  1  2  1  0  0  0
  1  3  1  0  0  0
  1  7  1  0  0  0
  2  4  1  0  0  0
  2  6  1  0  0  0
  2 17  1  0  0  0
  3  5  1  0  0  0
  3 12  2  0  0  0
  4  8  1  0  0  0
  5 11  2  0  0  0
  6 10  1  0  0  0
  6 18  1  0  0  0
  6 19  1  0  0  0
  7  9  2  0  0  0
  7 20  1  0  0  0
  8 14  1  0  0  0
  8 10  1  0  0  0
  8 21  1  0  0  0
  9 11  1  0  0  0
  9 13  1  0  0  0
 10 15  1  0  0  0
 10 22  1  0  0  0
 11 23  1  0  0  0
 13 16  1  0  0  0
 14 24  1  0  0  0
 15 25  1  0  0  0
 16 26  1  0  0  0
 16 27  1  0  0  0
 16 28  1  0  0  0
M  END
> <s_m_entry_id>
3203

> <s_m_entry_name>
dock_pv.37

> <s_m_Source_Path>
/home/csk/Desktop/cluster/DUD-E-result/kith

> <s_m_Source_File>
dock_pv.maegz

> <i_m_Source_File_Index>
37

> <chembl_id>
CHEMBL268232

> <chembl_pref_name>
None

> <i_lp_mmshare_version>
53161

> <i_f3d_flags>
0

> <r_lp_tautomer_probability>
1

> <s_lp_Force_Field>
OPLS_2005

> <r_lp_Energy>
23.518373

> <b_lp_Chiralities_Consistent>
1

> <s_lp_Variant>
CHEMBL2883_lig36-8

> <s_i_glide_gridfile>
glide-grid_2b8t

> <i_i_glide_lignum>
45

> <i_i_glide_rotatable_bonds>
4

> <r_i_docking_score>
-7.11383651860331

> <r_i_glide_ligand_efficiency>
-0.444614782412707

> <r_i_glide_ligand_efficiency_sa>
-1.12035904587696

> <r_i_glide_ligand_efficiency_ln>
-1.88566447136592

> <r_i_glide_gscore>
-7.11383651860331

> <r_i_glide_lipo>
-1.74687775685852

> <r_i_glide_hbond>
0

> <r_i_glide_metal>
0

> <r_i_glide_rewards>
-3.43153666311745

> <r_i_glide_evdw>
-27.3370552062988

> <r_i_glide_ecoul>
-5.17140436172485

> <r_i_glide_erotb>
0.291340652400579

> <r_i_glide_esite>
-0.0841993364542495

> <r_i_glide_emodel>
-48.738216495241

> <r_i_glide_energy>
-32.5084595680237

> <r_i_glide_einternal>
2.23862648010254

> <i_i_glide_confnum>
9

> <i_i_glide_posenum>
263

> <r_i_glide_eff_state_penalty>
0

> <s_user_duplicate_titles>
CHEMBL2883_lig36

> <s_m_subgroup_title>
dock_pv

> <s_m_subgroupid>
dock_pv

> <b_m_subgroup_collapsed>
1

$$$$
CHEMBL2883_lig12
                    3D
 Schrodinger Suite 2021-1.
 64 68  0  0  1  0            999 V2000
  -15.0215    3.9810   29.2171 C   0  0  0  0  0  0
  -10.3351    5.1693   33.2573 C   0  0  1  0  0  0
   -9.1565    5.5395   35.3921 C   0  0  0  0  0  0
  -10.9317    4.1662   31.2279 C   0  0  2  0  0  0
  -10.0408    4.5240   38.6837 O   0  0  0  0  0  0
  -10.2701    3.8267   32.5528 C   0  0  0  0  0  0
  -11.3524    4.5852   35.3873 C   0  0  0  0  0  0
  -10.0411    3.9779   30.1393 O   0  0  0  0  0  0
  -11.4770    5.7968   32.7534 O   0  0  0  0  0  0
   -8.9770    5.4010   36.7208 C   0  0  0  0  0  0
  -12.9616    5.7655   30.7979 C   0  0  0  0  0  0
  -10.0415    4.7424   37.4772 C   0  0  0  0  0  0
  -13.8238    4.7180   31.2533 O   0  0  0  0  0  0
  -11.5272    5.5740   31.3477 C   0  0  2  0  0  0
  -10.2956    5.1610   34.7126 N   0  0  0  0  0  0
  -11.1098    4.3769   36.7170 N   0  0  0  0  0  0
  -12.4327    4.2399   34.9095 O   0  0  0  0  0  0
  -15.1356    4.5182   30.6763 C   0  0  0  0  0  0
  -15.8968    5.8739   30.8222 C   0  0  0  0  0  0
  -15.7889    3.3632   31.4852 C   0  0  0  0  0  0
  -17.1817    3.1765   31.4593 C   0  0  0  0  0  0
  -17.7751    2.1488   32.1872 C   0  0  0  0  0  0
  -16.9810    1.2925   32.9461 C   0  0  0  0  0  0
  -15.5998    1.4585   32.9832 C   0  0  0  0  0  0
  -15.0067    2.4889   32.2583 C   0  0  0  0  0  0
  -15.9828    6.7899   29.7610 C   0  0  0  0  0  0
  -16.7031    7.9742   29.8976 C   0  0  0  0  0  0
  -17.3328    8.2640   31.1049 C   0  0  0  0  0  0
  -17.2413    7.3817   32.1787 C   0  0  0  0  0  0
  -16.5137    6.2039   32.0372 C   0  0  0  0  0  0
  -13.8319    3.4059   28.7423 C   0  0  0  0  0  0
  -13.7398    2.9165   27.4421 C   0  0  0  0  0  0
  -14.8429    2.9893   26.5967 C   0  0  0  0  0  0
  -16.0400    3.5387   27.0501 C   0  0  0  0  0  0
  -16.1285    4.0245   28.3516 C   0  0  0  0  0  0
   -7.7279    5.8857   37.4573 C   0  0  0  0  0  0
   -9.4939    5.7892   32.9496 H   0  0  0  0  0  0
   -8.3860    5.9740   34.7805 H   0  0  0  0  0  0
  -11.7512    3.4633   31.1280 H   0  0  0  0  0  0
  -10.8616    3.0817   33.0875 H   0  0  0  0  0  0
   -9.2430    3.4680   32.4797 H   0  0  0  0  0  0
  -10.2048    3.0656   29.8353 H   0  0  0  0  0  0
  -12.9219    5.7800   29.7085 H   0  0  0  0  0  0
  -13.3423    6.7399   31.1097 H   0  0  0  0  0  0
  -10.8738    6.2996   30.8651 H   0  0  0  0  0  0
  -11.8604    3.9352   37.2205 H   0  0  0  0  0  0
  -17.8108    3.8339   30.8755 H   0  0  0  0  0  0
  -18.8473    2.0140   32.1629 H   0  0  0  0  0  0
  -17.4404    0.4934   33.5110 H   0  0  0  0  0  0
  -14.9886    0.7943   33.5757 H   0  0  0  0  0  0
  -13.9333    2.5978   32.3044 H   0  0  0  0  0  0
  -15.4886    6.5931   28.8210 H   0  0  0  0  0  0
  -16.7633    8.6688   29.0724 H   0  0  0  0  0  0
  -17.8878    9.1869   31.2128 H   0  0  0  0  0  0
  -17.7169    7.6162   33.1197 H   0  0  0  0  0  0
  -16.4297    5.5438   32.8844 H   0  0  0  0  0  0
  -12.9691    3.3114   29.3796 H   0  0  0  0  0  0
  -12.8146    2.4738   27.1011 H   0  0  0  0  0  0
  -14.7654    2.6087   25.5875 H   0  0  0  0  0  0
  -16.8979    3.5842   26.3968 H   0  0  0  0  0  0
  -17.0721    4.4336   28.6855 H   0  0  0  0  0  0
   -7.9738    6.7674   38.0492 H   0  0  0  0  0  0
   -7.3328    5.1422   38.1470 H   0  0  0  0  0  0
   -6.9308    6.1633   36.7647 H   0  0  0  0  0  0
  1 18  1  0  0  0
  1 31  2  0  0  0
  1 35  1  0  0  0
  2 15  1  0  0  0
  2  9  1  0  0  0
  2  6  1  0  0  0
  2 37  1  0  0  0
  3 10  2  0  0  0
  3 15  1  0  0  0
  3 38  1  0  0  0
  4 14  1  0  0  0
  4  8  1  0  0  0
  4  6  1  0  0  0
  4 39  1  0  0  0
  5 12  2  0  0  0
  6 40  1  0  0  0
  6 41  1  0  0  0
  7 17  2  0  0  0
  7 16  1  0  0  0
  7 15  1  0  0  0
  8 42  1  0  0  0
  9 14  1  0  0  0
 10 12  1  0  0  0
 10 36  1  0  0  0
 11 13  1  0  0  0
 11 14  1  0  0  0
 11 43  1  0  0  0
 11 44  1  0  0  0
 12 16  1  0  0  0
 13 18  1  0  0  0
 14 45  1  0  0  0
 16 46  1  0  0  0
 18 19  1  0  0  0
 18 20  1  0  0  0
 19 26  2  0  0  0
 19 30  1  0  0  0
 20 21  2  0  0  0
 20 25  1  0  0  0
 21 22  1  0  0  0
 21 47  1  0  0  0
 22 23  2  0  0  0
 22 48  1  0  0  0
 23 24  1  0  0  0
 23 49  1  0  0  0
 24 25  2  0  0  0
 24 50  1  0  0  0
 25 51  1  0  0  0
 26 27  1  0  0  0
 26 52  1  0  0  0
 27 28  2  0  0  0
 27 53  1  0  0  0
 28 29  1  0  0  0
 28 54  1  0  0  0
 29 30  2  0  0  0
 29 55  1  0  0  0
 30 56  1  0  0  0
 31 32  1  0  0  0
 31 57  1  0  0  0
 32 33  2  0  0  0
 32 58  1  0  0  0
 33 34  1  0  0  0
 33 59  1  0  0  0
 34 35  2  0  0  0
 34 60  1  0  0  0
 35 61  1  0  0  0
 36 62  1  0  0  0
 36 63  1  0  0  0
 36 64  1  0  0  0
M  END
> <s_m_entry_id>
3204

> <s_m_entry_name>
dock_pv.38

> <s_m_Source_Path>
/home/csk/Desktop/cluster/DUD-E-result/kith

> <s_m_Source_File>
dock_pv.maegz

> <i_m_Source_File_Index>
38

> <chembl_id>
CHEMBL2403290

> <chembl_pref_name>
None

> <i_lp_mmshare_version>
53161

> <i_f3d_flags>
0

> <r_lp_tautomer_probability>
0.999537046341301

> <s_lp_Force_Field>
OPLS_2005

> <r_lp_Energy>
50.7927

> <b_lp_Chiralities_Consistent>
1

> <s_lp_Variant>
CHEMBL2883_lig12-1

> <s_i_glide_gridfile>
glide-grid_2b8t

> <i_i_glide_lignum>
12

> <i_i_glide_rotatable_bonds>
8

> <r_i_docking_score>
-7.00904279611476

> <r_i_glide_ligand_efficiency>
-0.19469563322541

> <r_i_glide_ligand_efficiency_sa>
-0.642870815819862

> <r_i_glide_ligand_efficiency_ln>
-1.52918377565942

> <r_i_glide_gscore>
-7.00904279611476

> <r_i_glide_lipo>
-2.31640631713744

> <r_i_glide_hbond>
-0.246641061380814

> <r_i_glide_metal>
0

> <r_i_glide_rewards>
-2.03221113602732

> <r_i_glide_evdw>
-40.4854507446289

> <r_i_glide_ecoul>
-6.63342237472534

> <r_i_glide_erotb>
0.60550161187106

> <r_i_glide_esite>
0

> <r_i_glide_emodel>
-68.0997752592128

> <r_i_glide_energy>
-47.1188731193542

> <r_i_glide_einternal>
1.90979945659637

> <i_i_glide_confnum>
167

> <i_i_glide_posenum>
96

> <r_i_glide_eff_state_penalty>
0

> <s_user_duplicate_titles>
CHEMBL2883_lig12

> <s_m_subgroup_title>
dock_pv

> <s_m_subgroupid>
dock_pv

> <b_m_subgroup_collapsed>
1

$$$$
56460
                    3D
 Schrodinger Suite 2021-1.
 31 32  0  0  1  0            999 V2000
   -6.2946    6.6067   36.9264 C   0  0  0  0  0  0
   -7.6409    5.9375   37.1636 C   0  0  0  0  0  0
   -8.5417    5.6952   36.1844 C   0  0  0  0  0  0
   -9.7394    5.0381   36.3680 N   0  0  0  0  0  0
  -10.0643    4.5248   37.6111 C   0  0  0  0  0  0
  -11.0827    3.9015   37.9070 O   0  0  0  0  0  0
   -9.1303    4.7740   38.5824 N   0  0  0  0  0  0
   -7.9489    5.4490   38.5091 C   0  0  0  0  0  0
   -7.2406    5.5741   39.5045 O   0  0  0  0  0  0
  -10.6248    4.8071   35.2233 C   0  0  1  0  0  0
  -11.3022    6.0151   34.5714 C   0  0  1  0  0  0
  -11.6185    5.4083   33.2040 C   0  0  2  0  0  0
  -10.2879    4.7288   32.9047 C   0  0  1  0  0  0
   -9.9024    4.2158   34.1830 O   0  0  0  0  0  0
  -10.3497    3.6130   31.8589 C   0  0  0  0  0  0
   -9.0383    3.1740   31.5711 O   0  0  0  0  0  0
  -12.0410    6.3004   32.1840 O   0  0  0  0  0  0
  -12.4080    6.3744   35.2139 F   0  0  0  0  0  0
   -9.3280    4.3894   39.4977 H   0  0  0  0  0  0
  -12.3936    4.6467   33.3247 H   0  0  0  0  0  0
   -6.2476    7.5735   37.4281 H   0  0  0  0  0  0
   -5.4744    5.9904   37.2965 H   0  0  0  0  0  0
   -6.1153    6.7737   35.8633 H   0  0  0  0  0  0
   -8.3624    5.9747   35.1560 H   0  0  0  0  0  0
  -11.3824    4.0789   35.5254 H   0  0  0  0  0  0
  -10.6242    6.8683   34.5249 H   0  0  0  0  0  0
   -9.5626    5.4772   32.5783 H   0  0  0  0  0  0
  -10.7964    3.9750   30.9319 H   0  0  0  0  0  0
  -10.9694    2.7813   32.1963 H   0  0  0  0  0  0
   -9.1294    2.2139   31.3829 H   0  0  0  0  0  0
  -12.6085    6.9859   32.5824 H   0  0  0  0  0  0
  1  2  1  0  0  0
  1 21  1  0  0  0
  1 22  1  0  0  0
  1 23  1  0  0  0
  2  8  1  0  0  0
  2  3  2  0  0  0
  3  4  1  0  0  0
  3 24  1  0  0  0
  4  5  1  0  0  0
  4 10  1  0  0  0
  5  6  2  0  0  0
  5  7  1  0  0  0
  7 19  1  0  0  0
  7  8  1  0  0  0
  8  9  2  0  0  0
 10 14  1  0  0  0
 10 11  1  0  0  0
 10 25  1  0  0  0
 11 12  1  0  0  0
 11 18  1  0  0  0
 11 26  1  0  0  0
 12 20  1  0  0  0
 12 13  1  0  0  0
 12 17  1  0  0  0
 13 14  1  0  0  0
 13 15  1  0  0  0
 13 27  1  0  0  0
 15 16  1  0  0  0
 15 28  1  0  0  0
 15 29  1  0  0  0
 16 30  1  0  0  0
 17 31  1  0  0  0
M  END
> <s_m_entry_id>
3213

> <s_m_entry_name>
ligand_docking-pose.2

> <s_m_Source_Path>
/home/csk/Desktop/cluster/DUD-E-result/kith

> <s_m_Source_File>
ligand_docking-pose.sdf

> <i_m_Source_File_Index>
2

> <i_lp_mmshare_version>
53161

> <r_lp_tautomer_probability>
0.999537046341301

> <s_lp_Force_Field>
OPLS_2005

> <r_lp_Energy>
26.154179

> <b_lp_Chiralities_Consistent>
1

> <s_lp_Variant>
56460-2

> <s_i_glide_gridfile>
glide-grid_2b8t

> <i_i_glide_lignum>
81

> <i_i_glide_rotatable_bonds>
4

> <r_i_docking_score>
-11.4229940615702

> <r_i_glide_ligand_efficiency>
-0.634610781198344

> <r_i_glide_ligand_efficiency_sa>
-1.66315074189537

> <r_i_glide_ligand_efficiency_ln>
-2.93622172184067

> <r_i_glide_gscore>
-11.4229940615702

> <r_i_glide_lipo>
-1.83886966847142

> <r_i_glide_hbond>
-1.07310079164305

> <r_i_glide_metal>
0

> <r_i_glide_rewards>
-4.62579272674829

> <r_i_glide_evdw>
-25.6150360107422

> <r_i_glide_ecoul>
-19.8026733398438

> <r_i_glide_erotb>
0.365921926806234

> <r_i_glide_esite>
0

> <r_i_glide_emodel>
-74.8919001403067

> <r_i_glide_energy>
-45.4177093505859

> <r_i_glide_einternal>
1.537961602211

> <i_i_glide_confnum>
12

> <i_i_glide_posenum>
85

> <r_i_glide_eff_state_penalty>
0

> <i_f3d_flags>
0

> <s_user_duplicate_titles>
56460

> <s_m_subgroup_title>
dock_pv

> <s_m_subgroupid>
dock_pv1

> <b_m_subgroup_collapsed>
0

$$$$
594
                    3D
 Schrodinger Suite 2021-1.
 28 29  0  0  1  0            999 V2000
   -8.5247    5.6542   36.3969 C   0  0  0  0  0  0
   -7.6121    5.8720   37.3643 C   0  0  0  0  0  0
   -7.8966    5.4230   38.7107 C   0  0  0  0  0  0
   -7.1694    5.5740   39.6865 O   0  0  0  0  0  0
   -9.0857    4.7740   38.8062 N   0  0  0  0  0  0
  -10.0410    4.5246   37.8620 C   0  0  0  0  0  0
  -11.0553    3.9074   38.1830 O   0  0  0  0  0  0
   -9.7395    5.0456   36.6202 N   0  0  0  0  0  0
  -10.7228    4.9606   35.5530 C   0  0  1  0  0  0
  -11.0503    6.2261   34.7780 C   0  0  0  0  0  0
  -11.6824    5.6164   33.5374 C   0  0  1  0  0  0
  -10.9483    4.2688   33.3517 C   0  0  1  0  0  0
  -10.3223    4.0228   34.6067 O   0  0  0  0  0  0
  -11.7916    3.0233   33.0182 C   0  0  0  0  0  0
  -12.4517    3.1740   31.7830 O   0  0  0  0  0  0
  -13.0877    5.5740   33.6841 O   0  0  0  0  0  0
   -5.7430    6.7739   36.9830 I   0  0  0  0  0  0
   -9.2628    4.3872   39.7252 H   0  0  0  0  0  0
   -8.3534    5.9333   35.3718 H   0  0  0  0  0  0
  -11.6561    4.5797   35.9807 H   0  0  0  0  0  0
  -10.1457    6.7740   34.5407 H   0  0  0  0  0  0
  -11.7118    6.8759   35.3531 H   0  0  0  0  0  0
  -11.4781    6.2489   32.6727 H   0  0  0  0  0  0
  -10.1556    4.3905   32.6117 H   0  0  0  0  0  0
  -12.5433    2.8535   33.7900 H   0  0  0  0  0  0
  -11.1595    2.1353   32.9830 H   0  0  0  0  0  0
  -12.0061    2.6262   31.1121 H   0  0  0  0  0  0
  -13.4011    6.4405   33.3830 H   0  0  0  0  0  0
  1  8  1  0  0  0
  1  2  2  0  0  0
  1 19  1  0  0  0
  2  3  1  0  0  0
  2 17  1  0  0  0
  3  4  2  0  0  0
  3  5  1  0  0  0
  5 18  1  0  0  0
  5  6  1  0  0  0
  6  7  2  0  0  0
  6  8  1  0  0  0
  8  9  1  0  0  0
  9 13  1  0  0  0
  9 10  1  0  0  0
  9 20  1  0  0  0
 10 11  1  0  0  0
 10 21  1  0  0  0
 10 22  1  0  0  0
 11 12  1  0  0  0
 11 16  1  0  0  0
 11 23  1  0  0  0
 12 13  1  0  0  0
 12 14  1  0  0  0
 12 24  1  0  0  0
 14 15  1  0  0  0
 14 25  1  0  0  0
 14 26  1  0  0  0
 15 27  1  0  0  0
 16 28  1  0  0  0
M  END
> <s_m_entry_id>
3214

> <s_m_entry_name>
ligand_docking-pose.3

> <s_m_Source_Path>
/home/csk/Desktop/cluster/DUD-E-result/kith

> <s_m_Source_File>
ligand_docking-pose.sdf

> <i_m_Source_File_Index>
3

> <i_lp_mmshare_version>
53161

> <r_lp_tautomer_probability>
0.999537046341301

> <s_lp_Force_Field>
OPLS_2005

> <r_lp_Energy>
28.059521

> <b_lp_Chiralities_Consistent>
1

> <s_lp_Variant>
594-2

> <s_i_glide_gridfile>
glide-grid_2b8t

> <i_i_glide_lignum>
45

> <i_i_glide_rotatable_bonds>
4

> <r_i_docking_score>
-11.0836916481858

> <r_i_glide_ligand_efficiency>
-0.651981861657988

> <r_i_glide_ligand_efficiency_sa>
-1.67642895674104

> <r_i_glide_ligand_efficiency_ln>
-2.89148832933397

> <r_i_glide_gscore>
-11.0836916481858

> <r_i_glide_lipo>
-1.84120485847789

> <r_i_glide_hbond>
-0.920421830797907

> <r_i_glide_metal>
0

> <r_i_glide_rewards>
-4.70283234420343

> <r_i_glide_evdw>
-28.4874992370605

> <r_i_glide_ecoul>
-16.054479598999

> <r_i_glide_erotb>
0.213314286996306

> <r_i_glide_esite>
0

> <r_i_glide_emodel>
-74.3175685619123

> <r_i_glide_energy>
-44.5419788360596

> <r_i_glide_einternal>
4.83531904220581

> <i_i_glide_confnum>
38

> <i_i_glide_posenum>
189

> <r_i_glide_eff_state_penalty>
0

> <i_f3d_flags>
0

> <s_user_duplicate_titles>
594

> <s_m_subgroup_title>
dock_pv

> <s_m_subgroupid>
dock_pv1

> <b_m_subgroup_collapsed>
0

$$$$
283533
                    3D
 Schrodinger Suite 2021-1.
 28 29  0  0  1  0            999 V2000
   -8.5484    5.5740   36.1661 C   0  0  0  0  0  0
   -7.6411    5.7529   37.1462 C   0  0  0  0  0  0
   -7.9877    5.3817   38.5046 C   0  0  0  0  0  0
   -7.2591    5.5725   39.4768 O   0  0  0  0  0  0
   -9.2077    4.7740   38.5830 N   0  0  0  0  0  0
  -10.1504    4.5472   37.6102 C   0  0  0  0  0  0
  -11.1978    3.9739   37.9086 O   0  0  0  0  0  0
   -9.7926    5.0202   36.3600 N   0  0  0  0  0  0
  -10.6710    4.8068   35.2091 C   0  0  1  0  0  0
  -11.3338    6.0282   34.5716 C   0  0  1  0  0  0
  -11.6487    5.4522   33.1911 C   0  0  2  0  0  0
  -10.3301    4.7509   32.8909 C   0  0  1  0  0  0
   -9.9487    4.2261   34.1642 O   0  0  0  0  0  0
  -10.4095    3.6288   31.8560 C   0  0  0  0  0  0
   -9.1019    3.1740   31.5798 O   0  0  0  0  0  0
  -12.0410    6.3736   32.1831 O   0  0  0  0  0  0
  -12.4410    6.3740   35.2162 F   0  0  0  0  0  0
   -5.6448    6.3740   36.7353 I   0  0  0  0  0  0
   -9.4390    4.4373   39.5084 H   0  0  0  0  0  0
  -12.4401    4.7045   33.2916 H   0  0  0  0  0  0
   -8.3320    5.7871   35.1316 H   0  0  0  0  0  0
  -11.4323    4.0768   35.4989 H   0  0  0  0  0  0
  -10.6507    6.8787   34.5479 H   0  0  0  0  0  0
   -9.5937    5.4871   32.5614 H   0  0  0  0  0  0
  -10.8507    3.9876   30.9251 H   0  0  0  0  0  0
  -11.0378    2.8087   32.2070 H   0  0  0  0  0  0
   -9.2016    2.2156   31.3826 H   0  0  0  0  0  0
  -12.6269    7.0435   32.5826 H   0  0  0  0  0  0
  1  8  1  0  0  0
  1  2  2  0  0  0
  1 21  1  0  0  0
  2  3  1  0  0  0
  2 18  1  0  0  0
  3  4  2  0  0  0
  3  5  1  0  0  0
  5 19  1  0  0  0
  5  6  1  0  0  0
  6  7  2  0  0  0
  6  8  1  0  0  0
  8  9  1  0  0  0
  9 13  1  0  0  0
  9 10  1  0  0  0
  9 22  1  0  0  0
 10 11  1  0  0  0
 10 17  1  0  0  0
 10 23  1  0  0  0
 11 20  1  0  0  0
 11 12  1  0  0  0
 11 16  1  0  0  0
 12 13  1  0  0  0
 12 14  1  0  0  0
 12 24  1  0  0  0
 14 15  1  0  0  0
 14 25  1  0  0  0
 14 26  1  0  0  0
 15 27  1  0  0  0
 16 28  1  0  0  0
M  END
> <s_m_entry_id>
3215

> <s_m_entry_name>
ligand_docking-pose.4

> <s_m_Source_Path>
/home/csk/Desktop/cluster/DUD-E-result/kith

> <s_m_Source_File>
ligand_docking-pose.sdf

> <i_m_Source_File_Index>
4

> <i_lp_mmshare_version>
53161

> <r_lp_tautomer_probability>
0.999537046341301

> <s_lp_Force_Field>
OPLS_2005

> <r_lp_Energy>
26.472475

> <b_lp_Chiralities_Consistent>
1

> <s_lp_Variant>
283533-2

> <s_i_glide_gridfile>
glide-grid_2b8t

> <i_i_glide_lignum>
72

> <i_i_glide_rotatable_bonds>
4

> <r_i_docking_score>
-10.8083928130984

> <r_i_glide_ligand_efficiency>
-0.600466267394356

> <r_i_glide_ligand_efficiency_sa>
-1.57366680127034

> <r_i_glide_ligand_efficiency_ln>
-2.77824164005945

> <r_i_glide_gscore>
-10.8083928130984

> <r_i_glide_lipo>
-1.81394292857505

> <r_i_glide_hbond>
-1.06522789259221

> <r_i_glide_metal>
0

> <r_i_glide_rewards>
-3.88170960239215

> <r_i_glide_evdw>
-23.222261428833

> <r_i_glide_ecoul>
-20.5444259643555

> <r_i_glide_erotb>
0.195264576555974

> <r_i_glide_esite>
0

> <r_i_glide_emodel>
-70.0130598552488

> <r_i_glide_energy>
-43.7666873931885

> <r_i_glide_einternal>
1.53176534175873

> <i_i_glide_confnum>
13

> <i_i_glide_posenum>
13

> <r_i_glide_eff_state_penalty>
0

> <i_f3d_flags>
0

> <s_user_duplicate_titles>
283533

> <s_m_subgroup_title>
dock_pv

> <s_m_subgroupid>
dock_pv1

> <b_m_subgroup_collapsed>
0

$$$$
56546
                    3D
 Schrodinger Suite 2021-1.
 34 35  0  0  1  0            999 V2000
   -5.8140    7.9924   37.5363 C   0  0  0  0  0  0
   -5.9158    6.5246   37.1565 C   0  0  0  0  0  0
   -7.3027    5.9352   37.3145 C   0  0  0  0  0  0
   -8.1083    5.7115   36.2623 C   0  0  0  0  0  0
   -9.3300    5.0909   36.3323 N   0  0  0  0  0  0
   -9.7574    4.5274   37.5245 C   0  0  0  0  0  0
  -10.7728    3.8603   37.7236 O   0  0  0  0  0  0
   -8.9217    4.7743   38.5830 N   0  0  0  0  0  0
   -7.7396    5.4535   38.6240 C   0  0  0  0  0  0
   -7.1287    5.5742   39.6817 O   0  0  0  0  0  0
  -10.1628    5.0446   35.1352 C   0  0  2  0  0  0
  -11.6423    5.3759   35.2120 C   0  0  2  0  0  0
  -12.2355    4.4824   34.1158 C   0  0  2  0  0  0
  -11.0626    3.7105   33.4715 C   0  0  2  0  0  0
  -10.0407    3.8345   34.4588 O   0  0  0  0  0  0
  -10.5603    4.2410   32.1017 C   0  0  0  0  0  0
   -9.3975    3.5746   31.6472 O   0  0  0  0  0  0
  -13.0878    5.1740   33.2172 O   0  0  0  0  0  0
  -11.8043    6.6799   34.9829 F   0  0  0  0  0  0
   -9.2057    4.3796   39.4712 H   0  0  0  0  0  0
  -12.8406    3.7356   34.6294 H   0  0  0  0  0  0
   -4.8230    8.3740   37.3836 H   0  0  0  0  0  0
   -6.0410    8.1617   38.5828 H   0  0  0  0  0  0
   -6.4410    8.6096   36.9099 H   0  0  0  0  0  0
   -5.5721    6.3805   36.1303 H   0  0  0  0  0  0
   -5.2327    5.9745   37.7826 H   0  0  0  0  0  0
   -7.8048    5.9738   35.2622 H   0  0  0  0  0  0
   -9.7098    5.7729   34.4572 H   0  0  0  0  0  0
  -12.0418    5.1555   36.1899 H   0  0  0  0  0  0
  -11.3514    2.6619   33.3792 H   0  0  0  0  0  0
  -11.3412    4.1349   31.3472 H   0  0  0  0  0  0
  -10.3301    5.3045   32.1693 H   0  0  0  0  0  0
   -9.6375    2.6710   31.3786 H   0  0  0  0  0  0
  -12.8406    6.1076   33.2071 H   0  0  0  0  0  0
  1  2  1  0  0  0
  1 22  1  0  0  0
  1 23  1  0  0  0
  1 24  1  0  0  0
  2  3  1  0  0  0
  2 25  1  0  0  0
  2 26  1  0  0  0
  3  9  1  0  0  0
  3  4  2  0  0  0
  4  5  1  0  0  0
  4 27  1  0  0  0
  5  6  1  0  0  0
  5 11  1  0  0  0
  6  7  2  0  0  0
  6  8  1  0  0  0
  8 20  1  0  0  0
  8  9  1  0  0  0
  9 10  2  0  0  0
 11 15  1  0  0  0
 11 12  1  0  0  0
 11 28  1  0  0  0
 12 13  1  0  0  0
 12 19  1  0  0  0
 12 29  1  0  0  0
 13 21  1  0  0  0
 13 14  1  0  0  0
 13 18  1  0  0  0
 14 15  1  0  0  0
 14 16  1  0  0  0
 14 30  1  0  0  0
 16 17  1  0  0  0
 16 31  1  0  0  0
 16 32  1  0  0  0
 17 33  1  0  0  0
 18 34  1  0  0  0
M  END
> <s_m_entry_id>
3216

> <s_m_entry_name>
ligand_docking-pose.5

> <s_m_Source_Path>
/home/csk/Desktop/cluster/DUD-E-result/kith

> <s_m_Source_File>
ligand_docking-pose.sdf

> <i_m_Source_File_Index>
5

> <i_lp_mmshare_version>
53161

> <r_lp_tautomer_probability>
0.999537046341301

> <s_lp_Force_Field>
OPLS_2005

> <r_lp_Energy>
30.469398

> <b_lp_Chiralities_Consistent>
1

> <s_lp_Variant>
56546-7

> <s_i_glide_gridfile>
glide-grid_2b8t

> <i_i_glide_lignum>
58

> <i_i_glide_rotatable_bonds>
5

> <r_i_docking_score>
-10.7808404560633

> <r_i_glide_ligand_efficiency>
-0.567412655582279

> <r_i_glide_ligand_efficiency_sa>
-1.51408486417541

> <r_i_glide_ligand_efficiency_ln>
-2.73317460683384

> <r_i_glide_gscore>
-10.7808404560633

> <r_i_glide_lipo>
-1.95241965334162

> <r_i_glide_hbond>
-0.865811541025173

> <r_i_glide_metal>
0

> <r_i_glide_rewards>
-5.03630585111571

> <r_i_glide_evdw>
-30.3809108734131

> <r_i_glide_ecoul>
-11.6096744537354

> <r_i_glide_erotb>
0.334193301150158

> <r_i_glide_esite>
0

> <r_i_glide_emodel>
-64.8795228984259

> <r_i_glide_energy>
-41.9905853271484

> <r_i_glide_einternal>
5.14277362823486

> <i_i_glide_confnum>
25

> <i_i_glide_posenum>
164

> <r_i_glide_eff_state_penalty>
0

> <i_f3d_flags>
0

> <s_user_duplicate_titles>
56546

> <s_m_subgroup_title>
dock_pv

> <s_m_subgroupid>
dock_pv1

> <b_m_subgroup_collapsed>
0

$$$$
65533
                    3D
 Schrodinger Suite 2021-1.
 54 56  0  0  1  0            999 V2000
   -5.8914    7.6629   37.4319 C   0  0  0  0  0  0
   -6.2174    6.3399   36.7374 C   0  0  0  0  0  0
   -7.5873    5.7847   37.0997 C   0  0  0  0  0  0
   -8.5685    5.5723   36.1960 C   0  0  0  0  0  0
   -9.7803    4.9939   36.4969 N   0  0  0  0  0  0
  -10.0424    4.5321   37.7717 C   0  0  0  0  0  0
  -11.0607    3.9734   38.1786 O   0  0  0  0  0  0
   -9.0364    4.7740   38.6573 N   0  0  0  0  0  0
   -7.8399    5.3935   38.4893 C   0  0  0  0  0  0
   -7.0855    5.5529   39.4445 O   0  0  0  0  0  0
  -10.8168    4.9355   35.4810 C   0  0  1  0  0  0
  -11.3118    6.2561   34.9329 C   0  0  0  0  0  0
  -11.9550    5.7751   33.6447 C   0  0  1  0  0  0
  -11.2242    4.4801   33.2434 C   0  0  2  0  0  0
  -10.3791    4.2231   34.3651 O   0  0  0  0  0  0
  -10.3399    4.6027   31.9831 C   0  0  0  0  0  0
  -11.1464    4.3740   30.7846 N   0  0  0  0  0  0
  -11.8702    5.2946   30.1292 C   0  0  0  0  0  0
  -11.7635    6.5041   30.3214 O   0  0  0  0  0  0
  -12.9028    4.7557   29.1318 C   0  0  0  0  0  0
  -14.0924    4.0785   29.8317 C   0  0  0  0  0  0
  -14.3046    2.7124   29.6117 C   0  0  0  0  0  0
  -15.3496    2.0415   30.2403 C   0  0  0  0  0  0
  -16.2057    2.7325   31.0915 C   0  0  0  0  0  0
  -16.0193    4.0958   31.3074 C   0  0  0  0  0  0
  -14.9689    4.7884   30.6784 C   0  0  0  0  0  0
  -14.7523    6.1431   30.8496 O   0  0  0  0  0  0
  -15.7078    6.9239   31.5583 C   0  0  0  0  0  0
  -13.3456    5.5732   33.7811 O   0  0  0  0  0  0
   -9.2012    4.4399   39.5990 H   0  0  0  0  0  0
  -11.6645    4.3763   35.8914 H   0  0  0  0  0  0
  -11.8016    6.5437   32.8886 H   0  0  0  0  0  0
  -11.8464    3.5841   33.1845 H   0  0  0  0  0  0
   -4.8411    7.8993   37.3832 H   0  0  0  0  0  0
   -6.4404    8.4848   36.9830 H   0  0  0  0  0  0
   -6.1104    7.6354   38.4925 H   0  0  0  0  0  0
   -5.4631    5.5926   36.9881 H   0  0  0  0  0  0
   -6.1428    6.4724   35.6562 H   0  0  0  0  0  0
   -8.4627    5.8110   35.1467 H   0  0  0  0  0  0
  -10.4722    6.9210   34.7316 H   0  0  0  0  0  0
  -11.9993    6.7426   35.6261 H   0  0  0  0  0  0
   -9.5490    3.8514   32.0139 H   0  0  0  0  0  0
   -9.8414    5.5728   31.9400 H   0  0  0  0  0  0
  -11.2405    3.4016   30.4892 H   0  0  0  0  0  0
  -12.4092    4.0741   28.4362 H   0  0  0  0  0  0
  -13.2787    5.5869   28.5341 H   0  0  0  0  0  0
  -13.6418    2.1542   28.9663 H   0  0  0  0  0  0
  -15.4884    0.9840   30.0719 H   0  0  0  0  0  0
  -17.0147    2.2129   31.5831 H   0  0  0  0  0  0
  -16.7037    4.5988   31.9723 H   0  0  0  0  0  0
  -15.4315    7.9737   31.4853 H   0  0  0  0  0  0
  -16.7073    6.8233   31.1331 H   0  0  0  0  0  0
  -15.7380    6.6600   32.6155 H   0  0  0  0  0  0
  -13.7314    5.6413   32.8984 H   0  0  0  0  0  0
  1  2  1  0  0  0
  1 34  1  0  0  0
  1 35  1  0  0  0
  1 36  1  0  0  0
  2  3  1  0  0  0
  2 37  1  0  0  0
  2 38  1  0  0  0
  3  9  1  0  0  0
  3  4  2  0  0  0
  4  5  1  0  0  0
  4 39  1  0  0  0
  5  6  1  0  0  0
  5 11  1  0  0  0
  6  7  2  0  0  0
  6  8  1  0  0  0
  8 30  1  0  0  0
  8  9  1  0  0  0
  9 10  2  0  0  0
 11 31  1  0  0  0
 11 15  1  0  0  0
 11 12  1  0  0  0
 12 13  1  0  0  0
 12 40  1  0  0  0
 12 41  1  0  0  0
 13 32  1  0  0  0
 13 14  1  0  0  0
 13 29  1  0  0  0
 14 33  1  0  0  0
 14 15  1  0  0  0
 14 16  1  0  0  0
 16 17  1  0  0  0
 16 42  1  0  0  0
 16 43  1  0  0  0
 17 18  1  0  0  0
 17 44  1  0  0  0
 18 19  2  0  0  0
 18 20  1  0  0  0
 20 21  1  0  0  0
 20 45  1  0  0  0
 20 46  1  0  0  0
 21 26  1  0  0  0
 21 22  2  0  0  0
 22 23  1  0  0  0
 22 47  1  0  0  0
 23 24  2  0  0  0
 23 48  1  0  0  0
 24 25  1  0  0  0
 24 49  1  0  0  0
 25 26  2  0  0  0
 25 50  1  0  0  0
 26 27  1  0  0  0
 27 28  1  0  0  0
 28 51  1  0  0  0
 28 52  1  0  0  0
 28 53  1  0  0  0
 29 54  1  0  0  0
M  END
> <s_m_entry_id>
3217

> <s_m_entry_name>
ligand_docking-pose.6

> <s_m_Source_Path>
/home/csk/Desktop/cluster/DUD-E-result/kith

> <s_m_Source_File>
ligand_docking-pose.sdf

> <i_m_Source_File_Index>
6

> <i_lp_mmshare_version>
53161

> <r_lp_tautomer_probability>
0.999537046341301

> <s_lp_Force_Field>
OPLS_2005

> <r_lp_Energy>
28.833723

> <b_lp_Chiralities_Consistent>
1

> <s_lp_Variant>
65533-1

> <s_i_glide_gridfile>
glide-grid_2b8t

> <i_i_glide_lignum>
111

> <i_i_glide_rotatable_bonds>
9

> <r_i_docking_score>
-10.7433311654538

> <r_i_glide_ligand_efficiency>
-0.370459695360477

> <r_i_glide_ligand_efficiency_sa>
-1.13816955401693

> <r_i_glide_ligand_efficiency_ln>
-2.45995040951625

> <r_i_glide_gscore>
-10.7433311654538

> <r_i_glide_lipo>
-2.19580401678346

> <r_i_glide_hbond>
-1.03650891756089

> <r_i_glide_metal>
0

> <r_i_glide_rewards>
-3.91381196166147

> <r_i_glide_evdw>
-37.7814025878906

> <r_i_glide_ecoul>
-13.973108291626

> <r_i_glide_erotb>
0.506652315255965

> <r_i_glide_esite>
-0.118822211565569

> <r_i_glide_emodel>
-83.2350304879986

> <r_i_glide_energy>
-51.7545108795166

> <r_i_glide_einternal>
9.63571453094482

> <i_i_glide_confnum>
96

> <i_i_glide_posenum>
11

> <r_i_glide_eff_state_penalty>
0

> <i_f3d_flags>
0

> <s_user_duplicate_titles>
65533

> <s_m_subgroup_title>
dock_pv

> <s_m_subgroupid>
dock_pv1

> <b_m_subgroup_collapsed>
0

$$$$
61217
                    3D
 Schrodinger Suite 2021-1.
 30 31  0  0  1  0            999 V2000
   -8.7776    5.4879   36.1705 C   0  0  0  0  0  0
   -7.8382    5.7929   37.0886 C   0  0  0  0  0  0
   -8.0410    5.3981   38.4660 C   0  0  0  0  0  0
   -7.2410    5.5740   39.3830 O   0  0  0  0  0  0
   -9.2346    4.7740   38.6445 N   0  0  0  0  0  0
  -10.2194    4.4611   37.7471 C   0  0  0  0  0  0
  -11.2410    3.9175   38.1658 O   0  0  0  0  0  0
   -9.9590    4.8341   36.4375 N   0  0  0  0  0  0
  -10.8951    4.3292   35.3936 C   0  0  2  0  0  0
  -10.2196    3.7102   34.1544 C   0  0  0  0  0  0
  -10.1767    4.8119   33.0728 C   0  0  2  0  0  0
  -11.3052    5.8044   33.4615 C   0  0  2  0  0  0
  -11.8609    5.3740   34.8294 C   0  0  0  0  0  0
  -12.3298    5.9740   32.5008 O   0  0  0  0  0  0
  -10.2490    4.2664   31.6239 C   0  0  0  0  0  0
   -9.0642    3.5740   31.2828 O   0  0  0  0  0  0
   -6.0410    6.7740   36.5830 I   0  0  0  0  0  0
   -9.3931    4.4592   39.5929 H   0  0  0  0  0  0
   -8.6804    5.7724   35.1403 H   0  0  0  0  0  0
  -11.5080    3.5740   35.8774 H   0  0  0  0  0  0
  -10.8405    2.8903   33.7868 H   0  0  0  0  0  0
   -9.2526    3.2601   34.3814 H   0  0  0  0  0  0
   -9.2350    5.3516   33.1349 H   0  0  0  0  0  0
  -10.8410    6.7740   33.6316 H   0  0  0  0  0  0
  -12.0725    6.1982   35.5129 H   0  0  0  0  0  0
  -12.8118    4.8634   34.6628 H   0  0  0  0  0  0
  -12.7293    6.8522   32.6358 H   0  0  0  0  0  0
  -10.3672    5.0849   30.9128 H   0  0  0  0  0  0
  -11.1099    3.6092   31.4889 H   0  0  0  0  0  0
   -9.3128    2.6608   31.0596 H   0  0  0  0  0  0
  1  8  1  0  0  0
  1  2  2  0  0  0
  1 19  1  0  0  0
  2  3  1  0  0  0
  2 17  1  0  0  0
  3  4  2  0  0  0
  3  5  1  0  0  0
  5 18  1  0  0  0
  5  6  1  0  0  0
  6  7  2  0  0  0
  6  8  1  0  0  0
  8  9  1  0  0  0
  9 13  1  0  0  0
  9 10  1  0  0  0
  9 20  1  0  0  0
 10 11  1  0  0  0
 10 21  1  0  0  0
 10 22  1  0  0  0
 11 12  1  0  0  0
 11 15  1  0  0  0
 11 23  1  0  0  0
 12 13  1  0  0  0
 12 14  1  0  0  0
 12 24  1  0  0  0
 13 25  1  0  0  0
 13 26  1  0  0  0
 14 27  1  0  0  0
 15 16  1  0  0  0
 15 28  1  0  0  0
 15 29  1  0  0  0
 16 30  1  0  0  0
M  END
> <s_m_entry_id>
3218

> <s_m_entry_name>
ligand_docking-pose.7

> <s_m_Source_Path>
/home/csk/Desktop/cluster/DUD-E-result/kith

> <s_m_Source_File>
ligand_docking-pose.sdf

> <i_m_Source_File_Index>
7

> <i_lp_mmshare_version>
53161

> <r_lp_tautomer_probability>
0.999537046341301

> <s_lp_Force_Field>
OPLS_2005

> <r_lp_Energy>
28.998567

> <b_lp_Chiralities_Consistent>
1

> <s_lp_Variant>
61217-7

> <s_i_glide_gridfile>
glide-grid_2b8t

> <i_i_glide_lignum>
96

> <i_i_glide_rotatable_bonds>
4

> <r_i_docking_score>
-10.5509135161602

> <r_i_glide_ligand_efficiency>
-0.620641971538836

> <r_i_glide_ligand_efficiency_sa>
-1.59584527430052

> <r_i_glide_ligand_efficiency_ln>
-2.75249837907417

> <r_i_glide_gscore>
-10.5509135161602

> <r_i_glide_lipo>
-2.33979756701097

> <r_i_glide_hbond>
-1.25937760193764

> <r_i_glide_metal>
0

> <r_i_glide_rewards>
-3.36816340847231

> <r_i_glide_evdw>
-28.940071105957

> <r_i_glide_ecoul>
-15.6801118850708

> <r_i_glide_erotb>
0.215445399319171

> <r_i_glide_esite>
0

> <r_i_glide_emodel>
-71.7822089042642

> <r_i_glide_energy>
-44.6201829910278

> <r_i_glide_einternal>
4.34609174728394

> <i_i_glide_confnum>
17

> <i_i_glide_posenum>
354

> <r_i_glide_eff_state_penalty>
0

> <i_f3d_flags>
0

> <s_user_duplicate_titles>
61217

> <s_m_subgroup_title>
dock_pv

> <s_m_subgroupid>
dock_pv1

> <b_m_subgroup_collapsed>
0

$$$$
65346
                    3D
 Schrodinger Suite 2021-1.
 61 65  0  0  1  0            999 V2000
   -5.2827    5.8678   36.5114 C   0  0  0  0  0  0
   -6.5801    6.6939   36.4388 C   0  0  0  0  0  0
   -7.8292    5.9465   36.9021 C   0  0  0  0  0  0
   -8.8019    5.5606   36.0503 C   0  0  0  0  0  0
   -9.9099    4.8259   36.4069 N   0  0  0  0  0  0
  -10.0605    4.3790   37.7071 C   0  0  0  0  0  0
  -10.9867    3.7003   38.1520 O   0  0  0  0  0  0
   -9.0590    4.7762   38.5524 N   0  0  0  0  0  0
   -7.9773    5.5737   38.3115 C   0  0  0  0  0  0
   -7.2409    5.9140   39.2330 O   0  0  0  0  0  0
  -10.8268    4.3733   35.3629 C   0  0  1  0  0  0
  -11.5929    5.4023   34.5373 C   0  0  2  0  0  0
  -11.9122    4.5864   33.2872 C   0  0  1  0  0  0
  -10.7458    3.5841   33.1505 C   0  0  2  0  0  0
  -10.1382    3.5739   34.4429 O   0  0  0  0  0  0
   -9.6351    3.9559   32.1434 C   0  0  0  0  0  0
  -10.1032    3.9742   30.7669 N   0  0  0  0  0  0
   -9.5457    4.6151   29.7254 C   0  0  0  0  0  0
   -8.4412    5.1647   29.7838 O   0  0  0  0  0  0
  -10.3983    4.6329   28.4303 C   0  0  0  0  0  0
   -9.6506    5.3126   27.2714 C   0  0  0  0  0  0
   -8.8997    4.5599   26.3588 C   0  0  0  0  0  0
   -8.1938    5.1722   25.3250 C   0  0  0  0  0  0
   -8.2082    6.5585   25.1978 C   0  0  0  0  0  0
   -8.9395    7.3274   26.0920 C   0  0  0  0  0  0
   -9.6763    6.7098   27.1030 C   0  0  0  0  0  0
  -10.5468    7.7689   28.2379 S   0  0  0  0  0  0
   -9.6704    8.0314   29.3826 O   0  0  0  0  0  0
  -11.0948    8.9041   27.4867 O   0  0  0  0  0  0
  -11.8910    6.7008   28.7401 C   0  0  0  0  0  0
  -11.7461    5.2997   28.7562 C   0  0  0  0  0  0
  -12.8547    4.5337   29.1469 C   0  0  0  0  0  0
  -14.0432    5.1304   29.5624 C   0  0  0  0  0  0
  -14.1494    6.5171   29.5904 C   0  0  0  0  0  0
  -13.0728    7.2988   29.1832 C   0  0  0  0  0  0
  -13.1711    3.9418   33.4036 O   0  0  0  0  0  0
  -10.8408    6.4332   34.1835 F   0  0  0  0  0  0
   -9.1492    4.4606   39.5113 H   0  0  0  0  0  0
  -11.5820    3.7531   35.8472 H   0  0  0  0  0  0
  -12.4598    5.7849   35.0716 H   0  0  0  0  0  0
  -11.9662    5.2469   32.4182 H   0  0  0  0  0  0
  -11.1064    2.5785   32.9230 H   0  0  0  0  0  0
   -4.6662    5.9779   35.6198 H   0  0  0  0  0  0
   -4.6982    6.1609   37.3798 H   0  0  0  0  0  0
   -5.4861    4.7987   36.5829 H   0  0  0  0  0  0
   -6.7255    7.0075   35.4045 H   0  0  0  0  0  0
   -6.4675    7.6166   37.0085 H   0  0  0  0  0  0
   -8.7519    5.7721   34.9926 H   0  0  0  0  0  0
   -8.8321    3.2218   32.1881 H   0  0  0  0  0  0
   -9.2396    4.9426   32.3943 H   0  0  0  0  0  0
  -10.8234    3.2909   30.5425 H   0  0  0  0  0  0
  -10.5939    3.5914   28.1627 H   0  0  0  0  0  0
   -8.8749    3.4833   26.4512 H   0  0  0  0  0  0
   -7.6413    4.5770   24.6167 H   0  0  0  0  0  0
   -7.6678    7.0485   24.4026 H   0  0  0  0  0  0
   -8.9510    8.4033   25.9907 H   0  0  0  0  0  0
  -12.7862    3.4568   29.1602 H   0  0  0  0  0  0
  -14.8763    4.5175   29.8709 H   0  0  0  0  0  0
  -15.0641    6.9851   29.9228 H   0  0  0  0  0  0
  -13.1605    8.3736   29.2021 H   0  0  0  0  0  0
  -13.2824    3.3423   32.6610 H   0  0  0  0  0  0
  1  2  1  0  0  0
  1 43  1  0  0  0
  1 44  1  0  0  0
  1 45  1  0  0  0
  2  3  1  0  0  0
  2 46  1  0  0  0
  2 47  1  0  0  0
  3  9  1  0  0  0
  3  4  2  0  0  0
  4  5  1  0  0  0
  4 48  1  0  0  0
  5  6  1  0  0  0
  5 11  1  0  0  0
  6  7  2  0  0  0
  6  8  1  0  0  0
  8 38  1  0  0  0
  8  9  1  0  0  0
  9 10  2  0  0  0
 11 39  1  0  0  0
 11 15  1  0  0  0
 11 12  1  0  0  0
 12 40  1  0  0  0
 12 13  1  0  0  0
 12 37  1  0  0  0
 13 41  1  0  0  0
 13 14  1  0  0  0
 13 36  1  0  0  0
 14 42  1  0  0  0
 14 15  1  0  0  0
 14 16  1  0  0  0
 16 17  1  0  0  0
 16 49  1  0  0  0
 16 50  1  0  0  0
 17 18  1  0  0  0
 17 51  1  0  0  0
 18 19  2  0  0  0
 18 20  1  0  0  0
 20 31  1  0  0  0
 20 21  1  0  0  0
 20 52  1  0  0  0
 21 26  2  0  0  0
 21 22  1  0  0  0
 22 23  2  0  0  0
 22 53  1  0  0  0
 23 24  1  0  0  0
 23 54  1  0  0  0
 24 25  2  0  0  0
 24 55  1  0  0  0
 25 26  1  0  0  0
 25 56  1  0  0  0
 26 27  1  0  0  0
 27 28  2  0  0  0
 27 29  2  0  0  0
 27 30  1  0  0  0
 30 35  2  0  0  0
 30 31  1  0  0  0
 31 32  2  0  0  0
 32 33  1  0  0  0
 32 57  1  0  0  0
 33 34  2  0  0  0
 33 58  1  0  0  0
 34 35  1  0  0  0
 34 59  1  0  0  0
 35 60  1  0  0  0
 36 61  1  0  0  0
M  END
> <s_m_entry_id>
3219

> <s_m_entry_name>
ligand_docking-pose.8

> <s_m_Source_Path>
/home/csk/Desktop/cluster/DUD-E-result/kith

> <s_m_Source_File>
ligand_docking-pose.sdf

> <i_m_Source_File_Index>
8

> <i_lp_mmshare_version>
53161

> <r_lp_tautomer_probability>
0.999537046341301

> <s_lp_Force_Field>
OPLS_2005

> <r_lp_Energy>
44.181837

> <b_lp_Chiralities_Consistent>
1

> <s_lp_Variant>
65346-1

> <s_i_glide_gridfile>
glide-grid_2b8t

> <i_i_glide_lignum>
8

> <i_i_glide_rotatable_bonds>
7

> <r_i_docking_score>
-10.5162970119602

> <r_i_glide_ligand_efficiency>
-0.284224243566491

> <r_i_glide_ligand_efficiency_sa>
-0.947098234039838

> <r_i_glide_ligand_efficiency_ln>
-2.28073828491329

> <r_i_glide_gscore>
-10.5162970119602

> <r_i_glide_lipo>
-1.85000174987684

> <r_i_glide_hbond>
-0.852387742216772

> <r_i_glide_metal>
0

> <r_i_glide_rewards>
-2.92712207022595

> <r_i_glide_evdw>
-55.1531829833984

> <r_i_glide_ecoul>
-14.2883472442627

> <r_i_glide_erotb>
0.205780627283682

> <r_i_glide_esite>
-0.191654841114963

> <r_i_glide_emodel>
-102.900203912691

> <r_i_glide_energy>
-69.4415302276611

> <r_i_glide_einternal>
10.2648019790649

> <i_i_glide_confnum>
7

> <i_i_glide_posenum>
97

> <r_i_glide_eff_state_penalty>
0

> <i_f3d_flags>
0

> <s_user_duplicate_titles>
65346

> <s_m_subgroup_title>
dock_pv

> <s_m_subgroupid>
dock_pv1

> <b_m_subgroup_collapsed>
0

$$$$
66134
                    3D
 Schrodinger Suite 2021-1.
 50 52  0  0  1  0            999 V2000
   -5.9840    7.5024   37.4057 C   0  0  0  0  0  0
   -6.3892    6.1959   36.7144 C   0  0  0  0  0  0
   -7.7840    5.6899   37.0737 C   0  0  0  0  0  0
   -8.7932    5.5805   36.1800 C   0  0  0  0  0  0
  -10.0251    5.0386   36.4695 N   0  0  0  0  0  0
  -10.2493    4.4395   37.6946 C   0  0  0  0  0  0
  -11.2411    3.8067   38.0494 O   0  0  0  0  0  0
   -9.2306    4.6078   38.5837 N   0  0  0  0  0  0
   -8.0234    5.2107   38.4385 C   0  0  0  0  0  0
   -7.2407    5.3048   39.3827 O   0  0  0  0  0  0
  -11.0579    4.9513   35.4470 C   0  0  1  0  0  0
  -11.3580    6.1370   34.5466 C   0  0  0  0  0  0
  -12.0802    5.4258   33.4003 C   0  0  1  0  0  0
  -11.6933    3.9426   33.4994 C   0  0  2  0  0  0
  -10.7651    3.9154   34.5758 O   0  0  0  0  0  0
  -11.0831    3.3140   32.2368 C   0  0  0  0  0  0
   -9.9335    3.9738   31.6010 N   0  0  0  0  0  0
  -10.0266    4.7359   30.4964 C   0  0  0  0  0  0
  -11.0949    5.1865   30.0811 O   0  0  0  0  0  0
   -8.7219    4.9331   29.7041 C   0  0  0  0  0  0
   -8.7994    5.9532   28.5554 C   0  0  0  0  0  0
   -9.2447    7.2621   28.7901 C   0  0  0  0  0  0
   -9.3675    8.1718   27.7404 C   0  0  0  0  0  0
   -9.0361    7.7868   26.4425 C   0  0  0  0  0  0
   -8.5601    6.4998   26.1998 C   0  0  0  0  0  0
   -8.4408    5.5868   27.2478 C   0  0  0  0  0  0
   -7.9678    4.3476   26.9793 F   0  0  0  0  0  0
  -13.4804    5.5737   33.4520 O   0  0  0  0  0  0
   -9.3787    4.2177   39.5060 H   0  0  0  0  0  0
  -11.9918    4.6922   35.9595 H   0  0  0  0  0  0
  -11.7396    5.8621   32.4627 H   0  0  0  0  0  0
  -12.5297    3.3117   33.8114 H   0  0  0  0  0  0
   -4.9077    7.6381   37.3835 H   0  0  0  0  0  0
   -6.4411    8.3666   36.9299 H   0  0  0  0  0  0
   -6.2606    7.5061   38.4554 H   0  0  0  0  0  0
   -5.6665    5.4192   36.9715 H   0  0  0  0  0  0
   -6.3061    6.3249   35.6335 H   0  0  0  0  0  0
   -8.6818    5.8742   35.1476 H   0  0  0  0  0  0
  -10.4410    6.5994   34.1899 H   0  0  0  0  0  0
  -11.9572    6.8858   35.0672 H   0  0  0  0  0  0
  -11.8864    3.1747   31.5089 H   0  0  0  0  0  0
  -10.7673    2.3111   32.5138 H   0  0  0  0  0  0
   -9.0289    3.6180   31.8680 H   0  0  0  0  0  0
   -8.4936    3.9484   29.2932 H   0  0  0  0  0  0
   -7.9050    5.1740   30.3803 H   0  0  0  0  0  0
   -9.5299    7.5729   29.7827 H   0  0  0  0  0  0
   -9.7312    9.1717   27.9329 H   0  0  0  0  0  0
   -9.1430    8.4880   25.6276 H   0  0  0  0  0  0
   -8.2987    6.2025   25.1949 H   0  0  0  0  0  0
  -13.6569    6.4741   33.1364 H   0  0  0  0  0  0
  1  2  1  0  0  0
  1 33  1  0  0  0
  1 34  1  0  0  0
  1 35  1  0  0  0
  2  3  1  0  0  0
  2 36  1  0  0  0
  2 37  1  0  0  0
  3  9  1  0  0  0
  3  4  2  0  0  0
  4  5  1  0  0  0
  4 38  1  0  0  0
  5  6  1  0  0  0
  5 11  1  0  0  0
  6  7  2  0  0  0
  6  8  1  0  0  0
  8 29  1  0  0  0
  8  9  1  0  0  0
  9 10  2  0  0  0
 11 30  1  0  0  0
 11 15  1  0  0  0
 11 12  1  0  0  0
 12 13  1  0  0  0
 12 39  1  0  0  0
 12 40  1  0  0  0
 13 31  1  0  0  0
 13 14  1  0  0  0
 13 28  1  0  0  0
 14 32  1  0  0  0
 14 15  1  0  0  0
 14 16  1  0  0  0
 16 17  1  0  0  0
 16 41  1  0  0  0
 16 42  1  0  0  0
 17 18  1  0  0  0
 17 43  1  0  0  0
 18 19  2  0  0  0
 18 20  1  0  0  0
 20 21  1  0  0  0
 20 44  1  0  0  0
 20 45  1  0  0  0
 21 26  1  0  0  0
 21 22  2  0  0  0
 22 23  1  0  0  0
 22 46  1  0  0  0
 23 24  2  0  0  0
 23 47  1  0  0  0
 24 25  1  0  0  0
 24 48  1  0  0  0
 25 26  2  0  0  0
 25 49  1  0  0  0
 26 27  1  0  0  0
 28 50  1  0  0  0
M  END
> <s_m_entry_id>
3220

> <s_m_entry_name>
ligand_docking-pose.9

> <s_m_Source_Path>
/home/csk/Desktop/cluster/DUD-E-result/kith

> <s_m_Source_File>
ligand_docking-pose.sdf

> <i_m_Source_File_Index>
9

> <i_lp_mmshare_version>
53161

> <r_lp_tautomer_probability>
0.999537046341301

> <s_lp_Force_Field>
OPLS_2005

> <r_lp_Energy>
31.183951

> <b_lp_Chiralities_Consistent>
1

> <s_lp_Variant>
66134-1

> <s_i_glide_gridfile>
glide-grid_2b8t

> <i_i_glide_lignum>
130

> <i_i_glide_rotatable_bonds>
8

> <r_i_docking_score>
-10.0363841962112

> <r_i_glide_ligand_efficiency>
-0.358442292721829

> <r_i_glide_ligand_efficiency_sa>
-1.08844191192396

> <r_i_glide_ligand_efficiency_ln>
-2.31669215353024

> <r_i_glide_gscore>
-10.0363841962112

> <r_i_glide_lipo>
-2.06630147772829

> <r_i_glide_hbond>
-0.743730302064596

> <r_i_glide_metal>
0

> <r_i_glide_rewards>
-3.43244373129356

> <r_i_glide_evdw>
-44.7819175720215

> <r_i_glide_ecoul>
-11.55979347229

> <r_i_glide_erotb>
0.445852438449774

> <r_i_glide_esite>
-0.266696224129959

> <r_i_glide_emodel>
-82.7290096951363

> <r_i_glide_energy>
-56.3417110443115

> <r_i_glide_einternal>
9.33598136901855

> <i_i_glide_confnum>
39

> <i_i_glide_posenum>
123

> <r_i_glide_eff_state_penalty>
0

> <i_f3d_flags>
0

> <s_user_duplicate_titles>
66134

> <s_m_subgroup_title>
dock_pv

> <s_m_subgroupid>
dock_pv1

> <b_m_subgroup_collapsed>
0

$$$$
66120
                    3D
 Schrodinger Suite 2021-1.
 63 67  0  0  1  0            999 V2000
   -5.2373    5.9576   36.3288 C   0  0  0  0  0  0
   -6.4719    6.8418   36.4930 C   0  0  0  0  0  0
   -7.7043    6.0762   36.9365 C   0  0  0  0  0  0
   -8.7546    5.8368   36.1248 C   0  0  0  0  0  0
   -9.8928    5.1793   36.5030 N   0  0  0  0  0  0
   -9.9804    4.6180   37.7616 C   0  0  0  0  0  0
  -10.9284    3.9630   38.1831 O   0  0  0  0  0  0
   -8.8963    4.8616   38.5657 N   0  0  0  0  0  0
   -7.7599    5.5738   38.3065 C   0  0  0  0  0  0
   -6.8760    5.6799   39.1543 O   0  0  0  0  0  0
  -11.0168    5.0366   35.5821 C   0  0  1  0  0  0
  -11.4439    6.1768   34.6742 C   0  0  0  0  0  0
  -12.2560    5.3921   33.6405 C   0  0  1  0  0  0
  -11.9465    3.9052   33.8640 C   0  0  2  0  0  0
  -10.8072    3.9741   34.7101 O   0  0  0  0  0  0
  -11.6478    3.1058   32.5815 C   0  0  0  0  0  0
  -12.8413    2.7737   31.7831 N   0  0  0  0  0  0
  -13.9191    2.0872   32.2094 C   0  0  0  0  0  0
  -14.0415    1.7519   33.3831 O   0  0  0  0  0  0
  -15.0387    1.7195   31.1845 C   0  0  0  0  0  0
  -16.1105    2.8386   31.1964 C   0  0  0  0  0  0
  -15.7811    4.2073   31.2674 C   0  0  0  0  0  0
  -16.7538    5.1947   31.3803 C   0  0  0  0  0  0
  -18.0937    4.8367   31.4190 C   0  0  0  0  0  0
  -18.4505    3.5002   31.2808 C   0  0  0  0  0  0
  -17.4810    2.4991   31.0803 C   0  0  0  0  0  0
  -17.8495    1.1513   30.9712 N   0  0  0  0  0  0
  -17.0347    0.1290   31.4727 C   0  0  0  0  0  0
  -15.6401    0.3398   31.5642 C   0  0  0  0  0  0
  -14.8409   -0.7394   31.9948 C   0  0  0  0  0  0
  -15.3994   -1.9040   32.5108 C   0  0  0  0  0  0
  -16.7792   -2.0263   32.5831 C   0  0  0  0  0  0
  -17.5886   -1.0171   32.0717 C   0  0  0  0  0  0
  -19.2214    0.8231   30.5548 C   0  0  0  0  0  0
  -13.6408    5.5738   33.7828 O   0  0  0  0  0  0
   -8.9401    4.4548   39.4929 H   0  0  0  0  0  0
  -11.8877    4.7963   36.2039 H   0  0  0  0  0  0
  -11.9553    5.7200   32.6444 H   0  0  0  0  0  0
  -12.6685    3.3783   34.4883 H   0  0  0  0  0  0
   -4.8624    5.9730   35.3056 H   0  0  0  0  0  0
   -4.4380    6.2971   36.9827 H   0  0  0  0  0  0
   -5.4334    4.9162   36.5829 H   0  0  0  0  0  0
   -6.6810    7.3418   35.5481 H   0  0  0  0  0  0
   -6.2631    7.6398   37.2082 H   0  0  0  0  0  0
   -8.7636    6.1424   35.0937 H   0  0  0  0  0  0
  -10.5894    6.6550   34.2023 H   0  0  0  0  0  0
  -12.0164    6.9236   35.2257 H   0  0  0  0  0  0
  -11.0964    2.1951   32.8192 H   0  0  0  0  0  0
  -10.9923    3.6849   31.9295 H   0  0  0  0  0  0
  -12.6770    2.7892   30.7820 H   0  0  0  0  0  0
  -14.5221    1.6586   30.2254 H   0  0  0  0  0  0
  -14.7498    4.5249   31.2593 H   0  0  0  0  0  0
  -16.4648    6.2317   31.4647 H   0  0  0  0  0  0
  -18.8552    5.5911   31.5426 H   0  0  0  0  0  0
  -19.5015    3.2553   31.3084 H   0  0  0  0  0  0
  -13.7637   -0.6497   31.9870 H   0  0  0  0  0  0
  -14.7657   -2.6987   32.8790 H   0  0  0  0  0  0
  -17.2227   -2.9147   33.0100 H   0  0  0  0  0  0
  -18.6579   -1.1537   32.1280 H   0  0  0  0  0  0
  -19.2845   -0.1759   30.1215 H   0  0  0  0  0  0
  -19.9056    0.8692   31.4038 H   0  0  0  0  0  0
  -19.5793    1.5130   29.7879 H   0  0  0  0  0  0
  -14.0883    4.9158   33.2439 H   0  0  0  0  0  0
  1  2  1  0  0  0
  1 40  1  0  0  0
  1 41  1  0  0  0
  1 42  1  0  0  0
  2  3  1  0  0  0
  2 43  1  0  0  0
  2 44  1  0  0  0
  3  9  1  0  0  0
  3  4  2  0  0  0
  4  5  1  0  0  0
  4 45  1  0  0  0
  5  6  1  0  0  0
  5 11  1  0  0  0
  6  7  2  0  0  0
  6  8  1  0  0  0
  8 36  1  0  0  0
  8  9  1  0  0  0
  9 10  2  0  0  0
 11 37  1  0  0  0
 11 15  1  0  0  0
 11 12  1  0  0  0
 12 13  1  0  0  0
 12 46  1  0  0  0
 12 47  1  0  0  0
 13 38  1  0  0  0
 13 14  1  0  0  0
 13 35  1  0  0  0
 14 39  1  0  0  0
 14 15  1  0  0  0
 14 16  1  0  0  0
 16 17  1  0  0  0
 16 48  1  0  0  0
 16 49  1  0  0  0
 17 18  1  0  0  0
 17 50  1  0  0  0
 18 19  2  0  0  0
 18 20  1  0  0  0
 20 29  1  0  0  0
 20 21  1  0  0  0
 20 51  1  0  0  0
 21 26  2  0  0  0
 21 22  1  0  0  0
 22 23  2  0  0  0
 22 52  1  0  0  0
 23 24  1  0  0  0
 23 53  1  0  0  0
 24 25  2  0  0  0
 24 54  1  0  0  0
 25 26  1  0  0  0
 25 55  1  0  0  0
 26 27  1  0  0  0
 27 28  1  0  0  0
 27 34  1  0  0  0
 28 33  2  0  0  0
 28 29  1  0  0  0
 29 30  2  0  0  0
 30 31  1  0  0  0
 30 56  1  0  0  0
 31 32  2  0  0  0
 31 57  1  0  0  0
 32 33  1  0  0  0
 32 58  1  0  0  0
 33 59  1  0  0  0
 34 60  1  0  0  0
 34 61  1  0  0  0
 34 62  1  0  0  0
 35 63  1  0  0  0
M  END
> <s_m_entry_id>
3221

> <s_m_entry_name>
ligand_docking-pose.10

> <s_m_Source_Path>
/home/csk/Desktop/cluster/DUD-E-result/kith

> <s_m_Source_File>
ligand_docking-pose.sdf

> <i_m_Source_File_Index>
10

> <i_lp_mmshare_version>
53161

> <r_lp_tautomer_probability>
0.999537046341301

> <s_lp_Force_Field>
OPLS_2005

> <r_lp_Energy>
36.462253

> <b_lp_Chiralities_Consistent>
1

> <s_lp_Variant>
66120-1

> <s_i_glide_gridfile>
glide-grid_2b8t

> <i_i_glide_lignum>
36

> <i_i_glide_rotatable_bonds>
7

> <r_i_docking_score>
-9.94164412061289

> <r_i_glide_ligand_efficiency>
-0.284046974874654

> <r_i_glide_ligand_efficiency_sa>
-0.929136488922331

> <r_i_glide_ligand_efficiency_ln>
-2.18241152737786

> <r_i_glide_gscore>
-9.94164412061289

> <r_i_glide_lipo>
-2.33067401688236

> <r_i_glide_hbond>
-0.884170804019983

> <r_i_glide_metal>
0

> <r_i_glide_rewards>
-2.30457895165876

> <r_i_glide_evdw>
-46.804759979248

> <r_i_glide_ecoul>
-15.1804609298706

> <r_i_glide_erotb>
0.312127063269086

> <r_i_glide_esite>
-0.117040272877887

> <r_i_glide_emodel>
-82.6834193087299

> <r_i_glide_energy>
-61.9852209091187

> <r_i_glide_einternal>
9.53718948364258

> <i_i_glide_confnum>
26

> <i_i_glide_posenum>
387

> <r_i_glide_eff_state_penalty>
0

> <i_f3d_flags>
0

> <s_user_duplicate_titles>
66120

> <s_m_subgroup_title>
dock_pv

> <s_m_subgroupid>
dock_pv1

> <b_m_subgroup_collapsed>
0

$$$$
66058
                    3D
 Schrodinger Suite 2021-1.
 67 71  0  0  1  0            999 V2000
   -6.0363    7.5343   37.3461 C   0  0  0  0  0  0
   -6.3814    6.1966   36.6831 C   0  0  0  0  0  0
   -7.7549    5.6456   37.0454 C   0  0  0  0  0  0
   -8.7290    5.4192   36.1390 C   0  0  0  0  0  0
   -9.9338    4.8235   36.4354 N   0  0  0  0  0  0
  -10.2185    4.4074   37.7191 C   0  0  0  0  0  0
  -11.2407    3.8518   38.1157 O   0  0  0  0  0  0
   -9.2248    4.6814   38.6112 N   0  0  0  0  0  0
   -8.0137    5.2722   38.4379 C   0  0  0  0  0  0
   -7.2413    5.4300   39.3817 O   0  0  0  0  0  0
  -10.8850    4.5644   35.3699 C   0  0  1  0  0  0
  -11.6465    5.7481   34.8129 C   0  0  2  0  0  0
  -12.0843    5.1575   33.4833 C   0  0  1  0  0  0
  -10.9170    4.2510   33.0504 C   0  0  2  0  0  0
  -10.2401    3.9797   34.2756 O   0  0  0  0  0  0
   -9.8782    4.9300   32.1419 C   0  0  0  0  0  0
  -10.3811    4.9939   30.7789 N   0  0  0  0  0  0
   -9.6690    4.9019   29.6451 C   0  0  0  0  0  0
   -8.4412    4.7790   29.6580 O   0  0  0  0  0  0
  -10.4596    4.9177   28.3000 C   0  0  0  0  0  0
   -9.6638    5.6791   27.2414 C   0  0  0  0  0  0
   -8.6313    5.0226   26.5569 C   0  0  0  0  0  0
   -7.8318    5.6955   25.6448 C   0  0  0  0  0  0
   -8.0415    7.0459   25.4106 C   0  0  0  0  0  0
   -9.0697    7.7037   26.0750 C   0  0  0  0  0  0
   -9.9423    7.0383   26.9573 C   0  0  0  0  0  0
  -11.0762    7.8052   27.6943 C   0  0  0  0  0  0
  -12.1678    6.8341   28.2284 C   0  0  0  0  0  0
  -11.8790    5.4716   28.4778 C   0  0  0  0  0  0
  -12.8880    4.6230   28.9572 C   0  0  0  0  0  0
  -14.1530    5.1039   29.2686 C   0  0  0  0  0  0
  -14.4227    6.4550   29.1166 C   0  0  0  0  0  0
  -13.4387    7.3022   28.6171 C   0  0  0  0  0  0
  -11.6873    8.9111   26.7832 C   0  0  0  0  0  0
  -10.4077    8.4107   28.9561 C   0  0  0  0  0  0
  -13.2854    4.4261   33.6106 O   0  0  0  0  0  0
  -10.8406    6.7772   34.5876 F   0  0  0  0  0  0
   -9.3895    4.3732   39.5610 H   0  0  0  0  0  0
  -11.6173    3.8465   35.7401 H   0  0  0  0  0  0
  -12.4433    6.0714   35.4791 H   0  0  0  0  0  0
  -12.2560    5.9590   32.7610 H   0  0  0  0  0  0
  -11.2106    3.2787   32.6466 H   0  0  0  0  0  0
   -4.9604    7.6708   37.3848 H   0  0  0  0  0  0
   -6.4432    8.3716   36.7904 H   0  0  0  0  0  0
   -6.4144    7.5739   38.3619 H   0  0  0  0  0  0
   -5.6407    5.4516   36.9755 H   0  0  0  0  0  0
   -6.2856    6.2944   35.6005 H   0  0  0  0  0  0
   -8.6142    5.6528   35.0887 H   0  0  0  0  0  0
   -8.9282    4.3960   32.1853 H   0  0  0  0  0  0
   -9.6859    5.9520   32.4797 H   0  0  0  0  0  0
  -11.3762    5.1318   30.6699 H   0  0  0  0  0  0
  -10.5387    3.8744   27.9843 H   0  0  0  0  0  0
   -8.4465    3.9751   26.7493 H   0  0  0  0  0  0
   -7.0530    5.1734   25.1165 H   0  0  0  0  0  0
   -7.4221    7.5864   24.7097 H   0  0  0  0  0  0
   -9.1885    8.7543   25.8668 H   0  0  0  0  0  0
  -12.6718    3.5765   29.1250 H   0  0  0  0  0  0
  -14.9111    4.4349   29.6488 H   0  0  0  0  0  0
  -15.3920    6.8482   29.3857 H   0  0  0  0  0  0
  -13.6947    8.3461   28.5338 H   0  0  0  0  0  0
  -12.0945    8.4829   25.8652 H   0  0  0  0  0  0
  -12.4861    9.4708   27.2604 H   0  0  0  0  0  0
  -10.9609    9.6718   26.5033 H   0  0  0  0  0  0
   -9.9419    7.6630   29.5957 H   0  0  0  0  0  0
   -9.6303    9.1283   28.6891 H   0  0  0  0  0  0
  -11.1318    8.9482   29.5694 H   0  0  0  0  0  0
  -13.4237    3.9118   32.8096 H   0  0  0  0  0  0
  1  2  1  0  0  0
  1 43  1  0  0  0
  1 44  1  0  0  0
  1 45  1  0  0  0
  2  3  1  0  0  0
  2 46  1  0  0  0
  2 47  1  0  0  0
  3  9  1  0  0  0
  3  4  2  0  0  0
  4  5  1  0  0  0
  4 48  1  0  0  0
  5  6  1  0  0  0
  5 11  1  0  0  0
  6  7  2  0  0  0
  6  8  1  0  0  0
  8 38  1  0  0  0
  8  9  1  0  0  0
  9 10  2  0  0  0
 11 39  1  0  0  0
 11 15  1  0  0  0
 11 12  1  0  0  0
 12 40  1  0  0  0
 12 13  1  0  0  0
 12 37  1  0  0  0
 13 41  1  0  0  0
 13 14  1  0  0  0
 13 36  1  0  0  0
 14 42  1  0  0  0
 14 15  1  0  0  0
 14 16  1  0  0  0
 16 17  1  0  0  0
 16 49  1  0  0  0
 16 50  1  0  0  0
 17 18  1  0  0  0
 17 51  1  0  0  0
 18 19  2  0  0  0
 18 20  1  0  0  0
 20 29  1  0  0  0
 20 21  1  0  0  0
 20 52  1  0  0  0
 21 26  2  0  0  0
 21 22  1  0  0  0
 22 23  2  0  0  0
 22 53  1  0  0  0
 23 24  1  0  0  0
 23 54  1  0  0  0
 24 25  2  0  0  0
 24 55  1  0  0  0
 25 26  1  0  0  0
 25 56  1  0  0  0
 26 27  1  0  0  0
 27 28  1  0  0  0
 27 34  1  0  0  0
 27 35  1  0  0  0
 28 33  2  0  0  0
 28 29  1  0  0  0
 29 30  2  0  0  0
 30 31  1  0  0  0
 30 57  1  0  0  0
 31 32  2  0  0  0
 31 58  1  0  0  0
 32 33  1  0  0  0
 32 59  1  0  0  0
 33 60  1  0  0  0
 34 61  1  0  0  0
 34 62  1  0  0  0
 34 63  1  0  0  0
 35 64  1  0  0  0
 35 65  1  0  0  0
 35 66  1  0  0  0
 36 67  1  0  0  0
M  END
> <s_m_entry_id>
3222

> <s_m_entry_name>
ligand_docking-pose.11

> <s_m_Source_Path>
/home/csk/Desktop/cluster/DUD-E-result/kith

> <s_m_Source_File>
ligand_docking-pose.sdf

> <i_m_Source_File_Index>
11

> <i_lp_mmshare_version>
53161

> <r_lp_tautomer_probability>
0.999537046341301

> <s_lp_Force_Field>
OPLS_2005

> <r_lp_Energy>
38.962926

> <b_lp_Chiralities_Consistent>
1

> <s_lp_Variant>
66058-1

> <s_i_glide_gridfile>
glide-grid_2b8t

> <i_i_glide_lignum>
13

> <i_i_glide_rotatable_bonds>
7

> <r_i_docking_score>
-9.87158080580244

> <r_i_glide_ligand_efficiency>
-0.266799481237904

> <r_i_glide_ligand_efficiency_sa>
-0.88903506031867

> <r_i_glide_ligand_efficiency_ln>
-2.14091445408998

> <r_i_glide_gscore>
-9.87158080580244

> <r_i_glide_lipo>
-2.54076003917589

> <r_i_glide_hbond>
-0.826492305273597

> <r_i_glide_metal>
0

> <r_i_glide_rewards>
-2.3958143188546

> <r_i_glide_evdw>
-51.129150390625

> <r_i_glide_ecoul>
-11.3234949111938

> <r_i_glide_erotb>
0.278078930245366

> <r_i_glide_esite>
-0.131611316533393

> <r_i_glide_emodel>
-86.847966918541

> <r_i_glide_energy>
-62.4526453018188

> <r_i_glide_einternal>
14.7874212265015

> <i_i_glide_confnum>
74

> <i_i_glide_posenum>
24

> <r_i_glide_eff_state_penalty>
0

> <i_f3d_flags>
0

> <s_user_duplicate_titles>
66058

> <s_m_subgroup_title>
dock_pv

> <s_m_subgroupid>
dock_pv1

> <b_m_subgroup_collapsed>
0

$$$$
65582
                    3D
 Schrodinger Suite 2021-1.
 50 52  0  0  1  0            999 V2000
   -6.0251    7.5168   37.3850 C   0  0  0  0  0  0
   -6.3813    6.1857   36.7199 C   0  0  0  0  0  0
   -7.7648    5.6492   37.0688 C   0  0  0  0  0  0
   -8.7341    5.4913   36.1446 C   0  0  0  0  0  0
   -9.9487    4.9042   36.3864 N   0  0  0  0  0  0
  -10.2286    4.3752   37.6363 C   0  0  0  0  0  0
  -11.2411    3.7656   37.9695 O   0  0  0  0  0  0
   -9.2491    4.5910   38.5727 N   0  0  0  0  0  0
   -8.0298    5.1798   38.4353 C   0  0  0  0  0  0
   -7.2450    5.2790   39.3794 O   0  0  0  0  0  0
  -10.9332    4.8359   35.3063 C   0  0  1  0  0  0
  -11.3478    6.1276   34.6300 C   0  0  0  0  0  0
  -11.9596    5.5746   33.3423 C   0  0  1  0  0  0
  -11.3837    4.1546   33.1392 C   0  0  2  0  0  0
  -10.4857    4.0342   34.2511 O   0  0  0  0  0  0
  -10.6365    3.8861   31.8019 C   0  0  0  0  0  0
   -9.8418    4.9827   31.2182 N   0  0  0  0  0  0
   -9.9134    5.3652   29.9235 C   0  0  0  0  0  0
  -10.6888    4.8582   29.1156 O   0  0  0  0  0  0
   -8.9279    6.4509   29.4499 C   0  0  0  0  0  0
   -9.3037    7.1379   28.1264 C   0  0  0  0  0  0
  -10.4080    8.0119   28.0797 C   0  0  0  0  0  0
  -10.7595    8.6400   26.8853 C   0  0  0  0  0  0
  -10.0187    8.4168   25.7284 C   0  0  0  0  0  0
   -8.9104    7.5754   25.7669 C   0  0  0  0  0  0
   -8.5393    6.9475   26.9565 C   0  0  0  0  0  0
   -7.1092    5.9724   26.9293 Cl  0  0  0  0  0  0
  -11.3414    8.3728   29.4931 Cl  0  0  0  0  0  0
  -13.3701    5.5740   33.3996 O   0  0  0  0  0  0
   -9.4267    4.2299   39.5013 H   0  0  0  0  0  0
  -11.8277    4.3537   35.7147 H   0  0  0  0  0  0
  -11.6754    6.2306   32.5188 H   0  0  0  0  0  0
  -12.0816    3.3336   33.3212 H   0  0  0  0  0  0
   -4.9482    7.6534   37.3913 H   0  0  0  0  0  0
   -6.4414    8.3621   36.8447 H   0  0  0  0  0  0
   -6.3811    7.5604   38.4109 H   0  0  0  0  0  0
   -5.6417    5.4313   36.9896 H   0  0  0  0  0  0
   -6.2873    6.2984   35.6377 H   0  0  0  0  0  0
   -8.5982    5.7722   35.1094 H   0  0  0  0  0  0
  -10.4769    6.7447   34.4166 H   0  0  0  0  0  0
  -12.0343    6.6958   35.2599 H   0  0  0  0  0  0
  -11.4033    3.5739   31.0905 H   0  0  0  0  0  0
   -9.9744    3.0277   31.9201 H   0  0  0  0  0  0
   -9.1588    5.4064   31.8253 H   0  0  0  0  0  0
   -7.9544    5.9755   29.3931 H   0  0  0  0  0  0
   -8.8392    7.2444   30.1834 H   0  0  0  0  0  0
  -11.6093    9.3067   26.8582 H   0  0  0  0  0  0
  -10.2972    8.9048   24.8059 H   0  0  0  0  0  0
   -8.3315    7.4198   24.8680 H   0  0  0  0  0  0
  -13.6414    6.4702   33.1482 H   0  0  0  0  0  0
  1  2  1  0  0  0
  1 34  1  0  0  0
  1 35  1  0  0  0
  1 36  1  0  0  0
  2  3  1  0  0  0
  2 37  1  0  0  0
  2 38  1  0  0  0
  3  9  1  0  0  0
  3  4  2  0  0  0
  4  5  1  0  0  0
  4 39  1  0  0  0
  5  6  1  0  0  0
  5 11  1  0  0  0
  6  7  2  0  0  0
  6  8  1  0  0  0
  8 30  1  0  0  0
  8  9  1  0  0  0
  9 10  2  0  0  0
 11 31  1  0  0  0
 11 15  1  0  0  0
 11 12  1  0  0  0
 12 13  1  0  0  0
 12 40  1  0  0  0
 12 41  1  0  0  0
 13 32  1  0  0  0
 13 14  1  0  0  0
 13 29  1  0  0  0
 14 33  1  0  0  0
 14 15  1  0  0  0
 14 16  1  0  0  0
 16 17  1  0  0  0
 16 42  1  0  0  0
 16 43  1  0  0  0
 17 18  1  0  0  0
 17 44  1  0  0  0
 18 19  2  0  0  0
 18 20  1  0  0  0
 20 21  1  0  0  0
 20 45  1  0  0  0
 20 46  1  0  0  0
 21 26  1  0  0  0
 21 22  2  0  0  0
 22 23  1  0  0  0
 22 28  1  0  0  0
 23 24  2  0  0  0
 23 47  1  0  0  0
 24 25  1  0  0  0
 24 48  1  0  0  0
 25 26  2  0  0  0
 25 49  1  0  0  0
 26 27  1  0  0  0
 29 50  1  0  0  0
M  END
> <s_m_entry_id>
3223

> <s_m_entry_name>
ligand_docking-pose.12

> <s_m_Source_Path>
/home/csk/Desktop/cluster/DUD-E-result/kith

> <s_m_Source_File>
ligand_docking-pose.sdf

> <i_m_Source_File_Index>
12

> <i_lp_mmshare_version>
53161

> <r_lp_tautomer_probability>
0.999537046341301

> <s_lp_Force_Field>
OPLS_2005

> <r_lp_Energy>
23.564691

> <b_lp_Chiralities_Consistent>
1

> <s_lp_Variant>
65582-1

> <s_i_glide_gridfile>
glide-grid_2b8t

> <i_i_glide_lignum>
12

> <i_i_glide_rotatable_bonds>
8

> <r_i_docking_score>
-9.7316912358303

> <r_i_glide_ligand_efficiency>
-0.335575559856217

> <r_i_glide_ligand_efficiency_sa>
-1.03099443767798

> <r_i_glide_ligand_efficiency_ln>
-2.22831051860768

> <r_i_glide_gscore>
-9.7316912358303

> <r_i_glide_lipo>
-2.35699243403029

> <r_i_glide_hbond>
-0.7233876531302

> <r_i_glide_metal>
0

> <r_i_glide_rewards>
-3.0936287413389

> <r_i_glide_evdw>
-47.4013595581055

> <r_i_glide_ecoul>
-9.6840877532959

> <r_i_glide_erotb>
0.357512214552086

> <r_i_glide_esite>
-0.092513480983342

> <r_i_glide_emodel>
-82.9271698296259

> <r_i_glide_energy>
-57.0854473114014

> <r_i_glide_einternal>
7.96678590774536

> <i_i_glide_confnum>
18

> <i_i_glide_posenum>
325

> <r_i_glide_eff_state_penalty>
0

> <i_f3d_flags>
0

> <s_user_duplicate_titles>
65582

> <s_m_subgroup_title>
dock_pv

> <s_m_subgroupid>
dock_pv1

> <b_m_subgroup_collapsed>
0

$$$$
65899
                    3D
 Schrodinger Suite 2021-1.
 62 66  0  0  1  0            999 V2000
   -6.0072    7.5277   37.3833 C   0  0  0  0  0  0
   -6.3912    6.2073   36.7075 C   0  0  0  0  0  0
   -7.7725    5.6782   37.0786 C   0  0  0  0  0  0
   -8.7562    5.4445   36.1809 C   0  0  0  0  0  0
   -9.9599    4.8513   36.4943 N   0  0  0  0  0  0
  -10.2256    4.4364   37.7820 C   0  0  0  0  0  0
  -11.2404    3.8698   38.1830 O   0  0  0  0  0  0
   -9.2277    4.7262   38.6653 N   0  0  0  0  0  0
   -8.0191    5.3142   38.4749 C   0  0  0  0  0  0
   -7.2411    5.4756   39.4135 O   0  0  0  0  0  0
  -10.9313    4.5822   35.4462 C   0  0  1  0  0  0
  -11.6575    5.7657   34.8340 C   0  0  2  0  0  0
  -12.1055    5.1583   33.5133 C   0  0  1  0  0  0
  -10.9862    4.1560   33.1575 C   0  0  2  0  0  0
  -10.3295    3.8912   34.3905 O   0  0  0  0  0  0
   -9.9127    4.6659   32.1817 C   0  0  0  0  0  0
  -10.4899    5.1741   30.9444 N   0  0  0  0  0  0
   -9.7975    5.5280   29.8527 C   0  0  0  0  0  0
   -8.5671    5.4070   29.7832 O   0  0  0  0  0  0
  -10.6180    6.1363   28.6779 C   0  0  1  0  0  0
   -9.7562    6.0299   27.4248 C   0  0  0  0  0  0
   -8.8761    7.0331   27.0062 C   0  0  0  0  0  0
   -7.9804    6.7886   25.9680 C   0  0  0  0  0  0
   -7.9580    5.5385   25.3538 C   0  0  0  0  0  0
   -8.8561    4.5457   25.7282 C   0  0  0  0  0  0
   -9.7615    4.8012   26.7472 C   0  0  0  0  0  0
  -10.6642    3.8104   27.0742 O   0  0  0  0  0  0
  -11.8573    4.1786   27.6685 C   0  0  0  0  0  0
  -11.9140    5.3393   28.4620 C   0  0  0  0  0  0
  -13.1406    5.7033   29.0284 C   0  0  0  0  0  0
  -14.2816    4.9337   28.8059 C   0  0  0  0  0  0
  -14.2127    3.7912   28.0095 C   0  0  0  0  0  0
  -13.0024    3.4080   27.4260 C   0  0  0  0  0  0
  -12.9440    2.1426   26.5857 C   0  0  0  0  0  0
  -13.3663    4.5336   33.6387 O   0  0  0  0  0  0
  -10.8409    6.7742   34.5829 F   0  0  0  0  0  0
   -9.3811    4.4139   39.6160 H   0  0  0  0  0  0
  -11.6960    3.9220   35.8551 H   0  0  0  0  0  0
  -12.4423    6.1301   35.4893 H   0  0  0  0  0  0
  -12.2076    5.9464   32.7658 H   0  0  0  0  0  0
  -11.4222    3.2462   32.7378 H   0  0  0  0  0  0
   -4.9300    7.6607   37.3908 H   0  0  0  0  0  0
   -6.4411    8.3748   36.8608 H   0  0  0  0  0  0
   -6.3349    7.5737   38.4169 H   0  0  0  0  0  0
   -5.6587    5.4463   36.9821 H   0  0  0  0  0  0
   -6.3074    6.3181   35.6245 H   0  0  0  0  0  0
   -8.6518    5.6610   35.1259 H   0  0  0  0  0  0
   -9.2110    3.8578   31.9615 H   0  0  0  0  0  0
   -9.3571    5.4841   32.6439 H   0  0  0  0  0  0
  -11.4966    5.1999   30.8828 H   0  0  0  0  0  0
  -10.8483    7.1788   28.9005 H   0  0  0  0  0  0
   -8.8656    7.9872   27.5134 H   0  0  0  0  0  0
   -7.2932    7.5602   25.6539 H   0  0  0  0  0  0
   -7.2413    5.3310   24.5829 H   0  0  0  0  0  0
   -8.8412    3.5744   25.2639 H   0  0  0  0  0  0
  -13.2103    6.5878   29.6448 H   0  0  0  0  0  0
  -15.2223    5.2222   29.2515 H   0  0  0  0  0  0
  -15.1031    3.2006   27.8489 H   0  0  0  0  0  0
  -13.1272    2.3750   25.5374 H   0  0  0  0  0  0
  -11.9763    1.6502   26.6785 H   0  0  0  0  0  0
  -13.6828    1.4138   26.9194 H   0  0  0  0  0  0
  -13.5350    4.0059   32.8530 H   0  0  0  0  0  0
  1  2  1  0  0  0
  1 42  1  0  0  0
  1 43  1  0  0  0
  1 44  1  0  0  0
  2  3  1  0  0  0
  2 45  1  0  0  0
  2 46  1  0  0  0
  3  9  1  0  0  0
  3  4  2  0  0  0
  4  5  1  0  0  0
  4 47  1  0  0  0
  5  6  1  0  0  0
  5 11  1  0  0  0
  6  7  2  0  0  0
  6  8  1  0  0  0
  8 37  1  0  0  0
  8  9  1  0  0  0
  9 10  2  0  0  0
 11 38  1  0  0  0
 11 15  1  0  0  0
 11 12  1  0  0  0
 12 39  1  0  0  0
 12 13  1  0  0  0
 12 36  1  0  0  0
 13 40  1  0  0  0
 13 14  1  0  0  0
 13 35  1  0  0  0
 14 41  1  0  0  0
 14 15  1  0  0  0
 14 16  1  0  0  0
 16 17  1  0  0  0
 16 48  1  0  0  0
 16 49  1  0  0  0
 17 18  1  0  0  0
 17 50  1  0  0  0
 18 19  2  0  0  0
 18 20  1  0  0  0
 20 29  1  0  0  0
 20 21  1  0  0  0
 20 51  1  0  0  0
 21 26  2  0  0  0
 21 22  1  0  0  0
 22 23  2  0  0  0
 22 52  1  0  0  0
 23 24  1  0  0  0
 23 53  1  0  0  0
 24 25  2  0  0  0
 24 54  1  0  0  0
 25 26  1  0  0  0
 25 55  1  0  0  0
 26 27  1  0  0  0
 27 28  1  0  0  0
 28 33  2  0  0  0
 28 29  1  0  0  0
 29 30  2  0  0  0
 30 31  1  0  0  0
 30 56  1  0  0  0
 31 32  2  0  0  0
 31 57  1  0  0  0
 32 33  1  0  0  0
 32 58  1  0  0  0
 33 34  1  0  0  0
 34 59  1  0  0  0
 34 60  1  0  0  0
 34 61  1  0  0  0
 35 62  1  0  0  0
M  END
> <s_m_entry_id>
3225

> <s_m_entry_name>
ligand_docking-pose.14

> <s_m_Source_Path>
/home/csk/Desktop/cluster/DUD-E-result/kith

> <s_m_Source_File>
ligand_docking-pose.sdf

> <i_m_Source_File_Index>
14

> <i_lp_mmshare_version>
53161

> <r_lp_tautomer_probability>
0.999537046341301

> <s_lp_Force_Field>
OPLS_2005

> <r_lp_Energy>
39.639461

> <b_lp_Chiralities_Consistent>
1

> <s_lp_Variant>
65899-2

> <s_i_glide_gridfile>
glide-grid_2b8t

> <i_i_glide_lignum>
17

> <i_i_glide_rotatable_bonds>
7

> <r_i_docking_score>
-8.81147945601336

> <r_i_glide_ligand_efficiency>
-0.244763318222593

> <r_i_glide_ligand_efficiency_sa>
-0.808190669003659

> <r_i_glide_ligand_efficiency_ln>
-1.92242675863828

> <r_i_glide_gscore>
-8.81147945601336

> <r_i_glide_lipo>
-2.11024398022101

> <r_i_glide_hbond>
-0.72346107819605

> <r_i_glide_metal>
0

> <r_i_glide_rewards>
-2.43593197206763

> <r_i_glide_evdw>
-50.3556289672852

> <r_i_glide_ecoul>
-8.19599533081055

> <r_i_glide_erotb>
0.29060925286075

> <r_i_glide_esite>
-0.0852709304035832

> <r_i_glide_emodel>
-79.8931809553322

> <r_i_glide_energy>
-58.5516242980957

> <r_i_glide_einternal>
7.83088684082031

> <i_i_glide_confnum>
43

> <i_i_glide_posenum>
81

> <r_i_glide_eff_state_penalty>
0

> <i_f3d_flags>
0

> <s_user_duplicate_titles>
65899

> <s_m_subgroup_title>
dock_pv

> <s_m_subgroupid>
dock_pv1

> <b_m_subgroup_collapsed>
0

$$$$
65615
                    3D
 Schrodinger Suite 2021-1.
 58 60  0  0  1  0            999 V2000
   -5.3217    5.8463   36.5121 C   0  0  0  0  0  0
   -6.6078    6.6758   36.4466 C   0  0  0  0  0  0
   -7.8447    5.9223   36.9168 C   0  0  0  0  0  0
   -8.8122    5.5159   36.0712 C   0  0  0  0  0  0
   -9.9261    4.8109   36.4437 N   0  0  0  0  0  0
  -10.0758    4.3738   37.7441 C   0  0  0  0  0  0
  -11.0139    3.7115   38.1829 O   0  0  0  0  0  0
   -9.0698    4.7742   38.5828 N   0  0  0  0  0  0
   -7.9876    5.5697   38.3308 C   0  0  0  0  0  0
   -7.2410    5.9152   39.2415 O   0  0  0  0  0  0
  -10.9962    4.6078   35.4772 C   0  0  1  0  0  0
  -11.6990    5.8261   34.9122 C   0  0  2  0  0  0
  -12.2372    5.2685   33.5966 C   0  0  1  0  0  0
  -11.5803    3.8848   33.3871 C   0  0  2  0  0  0
  -10.5424    3.9061   34.3632 O   0  0  0  0  0  0
  -10.9492    3.5759   32.0124 C   0  0  0  0  0  0
  -10.2547    4.6497   31.2944 N   0  0  0  0  0  0
  -10.8354    5.4477   30.3790 C   0  0  0  0  0  0
  -12.0523    5.4620   30.1826 O   0  0  0  0  0  0
   -9.8947    6.3524   29.5539 C   0  0  2  0  0  0
  -10.6011    7.5326   28.8316 C   0  0  0  0  0  0
   -9.0324    5.5313   28.7325 O   0  0  0  0  0  0
   -9.4069    5.3147   27.4214 C   0  0  0  0  0  0
  -10.6264    4.7019   27.1103 C   0  0  0  0  0  0
  -11.0798    4.6183   25.7840 C   0  0  0  0  0  0
  -10.2874    5.1741   24.7721 C   0  0  0  0  0  0
   -9.0407    5.7186   25.0684 C   0  0  0  0  0  0
   -8.5831    5.7626   26.3839 C   0  0  0  0  0  0
   -6.9996    6.3742   26.7089 Cl  0  0  0  0  0  0
  -10.8159    5.1626   23.1274 Cl  0  0  0  0  0  0
  -12.2662    4.0121   25.4133 O   0  0  0  0  0  0
  -13.0089    3.2847   26.3882 C   0  0  0  0  0  0
  -13.6410    5.1740   33.6044 O   0  0  0  0  0  0
  -10.8411    6.7974   34.6276 F   0  0  0  0  0  0
   -9.1573    4.4666   39.5437 H   0  0  0  0  0  0
  -11.7506    3.9750   35.9517 H   0  0  0  0  0  0
  -12.4410    6.2171   35.6067 H   0  0  0  0  0  0
  -11.9703    5.9695   32.8072 H   0  0  0  0  0  0
  -12.1872    3.0304   33.6976 H   0  0  0  0  0  0
   -9.2320    6.8182   30.2728 H   0  0  0  0  0  0
   -4.7055    5.9739   35.6226 H   0  0  0  0  0  0
   -4.7324    6.1305   37.3804 H   0  0  0  0  0  0
   -5.5308    4.7787   36.5832 H   0  0  0  0  0  0
   -6.7621    6.9898   35.4136 H   0  0  0  0  0  0
   -6.4888    7.5957   37.0188 H   0  0  0  0  0  0
   -8.7745    5.6947   35.0069 H   0  0  0  0  0  0
  -11.7430    3.1740   31.3835 H   0  0  0  0  0  0
  -10.2233    2.7740   32.1368 H   0  0  0  0  0  0
   -9.2512    4.6672   31.3860 H   0  0  0  0  0  0
  -11.1388    8.1643   29.5405 H   0  0  0  0  0  0
   -9.8768    8.1660   28.3189 H   0  0  0  0  0  0
  -11.3285    7.1940   28.0933 H   0  0  0  0  0  0
  -11.2260    4.3056   27.9145 H   0  0  0  0  0  0
   -8.4405    6.1151   24.2663 H   0  0  0  0  0  0
  -13.8656    2.8124   25.9079 H   0  0  0  0  0  0
  -13.3901    3.9407   27.1725 H   0  0  0  0  0  0
  -12.4098    2.4926   26.8431 H   0  0  0  0  0  0
  -13.9289    4.8996   32.7280 H   0  0  0  0  0  0
  1  2  1  0  0  0
  1 41  1  0  0  0
  1 42  1  0  0  0
  1 43  1  0  0  0
  2  3  1  0  0  0
  2 44  1  0  0  0
  2 45  1  0  0  0
  3  9  1  0  0  0
  3  4  2  0  0  0
  4  5  1  0  0  0
  4 46  1  0  0  0
  5  6  1  0  0  0
  5 11  1  0  0  0
  6  7  2  0  0  0
  6  8  1  0  0  0
  8 35  1  0  0  0
  8  9  1  0  0  0
  9 10  2  0  0  0
 11 36  1  0  0  0
 11 15  1  0  0  0
 11 12  1  0  0  0
 12 37  1  0  0  0
 12 13  1  0  0  0
 12 34  1  0  0  0
 13 38  1  0  0  0
 13 14  1  0  0  0
 13 33  1  0  0  0
 14 39  1  0  0  0
 14 15  1  0  0  0
 14 16  1  0  0  0
 16 17  1  0  0  0
 16 47  1  0  0  0
 16 48  1  0  0  0
 17 18  1  0  0  0
 17 49  1  0  0  0
 18 19  2  0  0  0
 18 20  1  0  0  0
 20 40  1  0  0  0
 20 21  1  0  0  0
 20 22  1  0  0  0
 21 50  1  0  0  0
 21 51  1  0  0  0
 21 52  1  0  0  0
 22 23  1  0  0  0
 23 28  1  0  0  0
 23 24  2  0  0  0
 24 25  1  0  0  0
 24 53  1  0  0  0
 25 26  2  0  0  0
 25 31  1  0  0  0
 26 27  1  0  0  0
 26 30  1  0  0  0
 27 28  2  0  0  0
 27 54  1  0  0  0
 28 29  1  0  0  0
 31 32  1  0  0  0
 32 55  1  0  0  0
 32 56  1  0  0  0
 32 57  1  0  0  0
 33 58  1  0  0  0
M  END
> <s_m_entry_id>
3226

> <s_m_entry_name>
ligand_docking-pose.15

> <s_m_Source_Path>
/home/csk/Desktop/cluster/DUD-E-result/kith

> <s_m_Source_File>
ligand_docking-pose.sdf

> <i_m_Source_File_Index>
15

> <i_lp_mmshare_version>
53161

> <r_lp_tautomer_probability>
0.999537046341301

> <s_lp_Force_Field>
OPLS_2005

> <r_lp_Energy>
39.393132

> <b_lp_Chiralities_Consistent>
1

> <s_lp_Variant>
65615-1

> <s_i_glide_gridfile>
glide-grid_2b8t

> <i_i_glide_lignum>
20

> <i_i_glide_rotatable_bonds>
10

> <r_i_docking_score>
-8.7646575145957

> <r_i_glide_ligand_efficiency>
-0.257784044546932

> <r_i_glide_ligand_efficiency_sa>
-0.835120231913637

> <r_i_glide_ligand_efficiency_ln>
-1.93635868529031

> <r_i_glide_gscore>
-8.7646575145957

> <r_i_glide_lipo>
-1.8400779579522

> <r_i_glide_hbond>
-0.668553566420284

> <r_i_glide_metal>
0

> <r_i_glide_rewards>
-2.39903894638418

> <r_i_glide_evdw>
-51.5960235595703

> <r_i_glide_ecoul>
-10.3716077804565

> <r_i_glide_erotb>
0.371922880303639

> <r_i_glide_esite>
-0.0933675790956781

> <r_i_glide_emodel>
-81.912990037324

> <r_i_glide_energy>
-61.9676313400269

> <r_i_glide_einternal>
18.8152847290039

> <i_i_glide_confnum>
55

> <i_i_glide_posenum>
47

> <r_i_glide_eff_state_penalty>
0

> <i_f3d_flags>
0

> <s_user_duplicate_titles>
65615

> <s_m_subgroup_title>
dock_pv

> <s_m_subgroupid>
dock_pv1

> <b_m_subgroup_collapsed>
0

$$$$
65729
                    3D
 Schrodinger Suite 2021-1.
 56 58  0  0  1  0            999 V2000
   -5.5808    6.0260   36.9238 C   0  0  0  0  0  0
   -6.8935    6.7280   36.7067 C   0  0  0  0  0  0
   -8.1036    5.8705   37.0318 C   0  0  0  0  0  0
   -9.0436    5.5738   36.1154 C   0  0  0  0  0  0
  -10.1762    4.8474   36.3765 N   0  0  0  0  0  0
  -10.3754    4.2897   37.6254 C   0  0  0  0  0  0
  -11.3073    3.5740   37.9784 O   0  0  0  0  0  0
   -9.4077    4.6060   38.5407 N   0  0  0  0  0  0
   -8.2869    5.3631   38.3981 C   0  0  0  0  0  0
   -7.5541    5.5784   39.3638 O   0  0  0  0  0  0
  -11.1940    4.7380   35.3402 C   0  0  1  0  0  0
  -11.7099    6.0345   34.7318 C   0  0  0  0  0  0
  -12.2732    5.5107   33.4216 C   0  0  1  0  0  0
  -11.4031    4.2937   33.0473 C   0  0  2  0  0  0
  -10.7037    4.0025   34.2608 O   0  0  0  0  0  0
  -10.3078    4.5564   31.9902 C   0  0  0  0  0  0
  -10.8060    4.3740   30.6258 N   0  0  0  0  0  0
  -11.3352    5.3277   29.8441 C   0  0  0  0  0  0
  -11.4055    6.5072   30.1829 O   0  0  0  0  0  0
  -11.8670    4.8824   28.4742 C   0  0  0  0  0  0
  -13.3499    5.2401   28.2693 C   0  0  0  0  0  0
  -14.3627    4.3561   28.7046 C   0  0  0  0  0  0
  -15.7076    4.6911   28.5241 C   0  0  0  0  0  0
  -16.0626    5.8931   27.9231 C   0  0  0  0  0  0
  -15.0737    6.7730   27.4967 C   0  0  0  0  0  0
  -13.7213    6.4607   27.6617 C   0  0  0  0  0  0
  -12.6899    7.4688   27.1679 C   0  0  0  0  0  0
  -14.0410    3.0268   29.3756 C   0  0  0  0  0  0
  -13.6410    5.1740   33.5421 O   0  0  0  0  0  0
   -9.5299    4.2240   39.4696 H   0  0  0  0  0  0
  -12.0376    4.1753   35.7514 H   0  0  0  0  0  0
  -12.1887    6.2928   32.6655 H   0  0  0  0  0  0
  -11.9464    3.3730   32.8235 H   0  0  0  0  0  0
   -4.8006    6.7651   36.9831 H   0  0  0  0  0  0
   -5.6410    5.5740   37.8948 H   0  0  0  0  0  0
   -5.3405    5.2673   36.1828 H   0  0  0  0  0  0
   -6.9443    7.1300   35.6957 H   0  0  0  0  0  0
   -6.8646    7.5740   37.3803 H   0  0  0  0  0  0
   -8.9711    5.9042   35.0889 H   0  0  0  0  0  0
  -10.8972    6.7358   34.5444 H   0  0  0  0  0  0
  -12.4410    6.5147   35.3831 H   0  0  0  0  0  0
   -9.4814    3.8581   32.1350 H   0  0  0  0  0  0
   -9.8840    5.5546   32.1181 H   0  0  0  0  0  0
  -10.8409    3.4115   30.2867 H   0  0  0  0  0  0
  -11.7201    3.8113   28.3288 H   0  0  0  0  0  0
  -11.2468    5.3312   27.7004 H   0  0  0  0  0  0
  -16.4880    4.0176   28.8481 H   0  0  0  0  0  0
  -17.1047    6.1411   27.7869 H   0  0  0  0  0  0
  -15.3660    7.7030   27.0315 H   0  0  0  0  0  0
  -12.1057    7.0457   26.3505 H   0  0  0  0  0  0
  -13.1492    8.3935   26.8165 H   0  0  0  0  0  0
  -11.9994    7.7378   27.9660 H   0  0  0  0  0  0
  -13.5564    2.3524   28.6690 H   0  0  0  0  0  0
  -14.9302    2.5317   29.7671 H   0  0  0  0  0  0
  -13.3604    3.1738   30.2138 H   0  0  0  0  0  0
  -13.9420    4.8270   32.6975 H   0  0  0  0  0  0
  1  2  1  0  0  0
  1 34  1  0  0  0
  1 35  1  0  0  0
  1 36  1  0  0  0
  2  3  1  0  0  0
  2 37  1  0  0  0
  2 38  1  0  0  0
  3  9  1  0  0  0
  3  4  2  0  0  0
  4  5  1  0  0  0
  4 39  1  0  0  0
  5  6  1  0  0  0
  5 11  1  0  0  0
  6  7  2  0  0  0
  6  8  1  0  0  0
  8 30  1  0  0  0
  8  9  1  0  0  0
  9 10  2  0  0  0
 11 31  1  0  0  0
 11 15  1  0  0  0
 11 12  1  0  0  0
 12 13  1  0  0  0
 12 40  1  0  0  0
 12 41  1  0  0  0
 13 32  1  0  0  0
 13 14  1  0  0  0
 13 29  1  0  0  0
 14 33  1  0  0  0
 14 15  1  0  0  0
 14 16  1  0  0  0
 16 17  1  0  0  0
 16 42  1  0  0  0
 16 43  1  0  0  0
 17 18  1  0  0  0
 17 44  1  0  0  0
 18 19  2  0  0  0
 18 20  1  0  0  0
 20 21  1  0  0  0
 20 45  1  0  0  0
 20 46  1  0  0  0
 21 26  1  0  0  0
 21 22  2  0  0  0
 22 23  1  0  0  0
 22 28  1  0  0  0
 23 24  2  0  0  0
 23 47  1  0  0  0
 24 25  1  0  0  0
 24 48  1  0  0  0
 25 26  2  0  0  0
 25 49  1  0  0  0
 26 27  1  0  0  0
 27 50  1  0  0  0
 27 51  1  0  0  0
 27 52  1  0  0  0
 28 53  1  0  0  0
 28 54  1  0  0  0
 28 55  1  0  0  0
 29 56  1  0  0  0
M  END
> <s_m_entry_id>
3227

> <s_m_entry_name>
ligand_docking-pose.16

> <s_m_Source_Path>
/home/csk/Desktop/cluster/DUD-E-result/kith

> <s_m_Source_File>
ligand_docking-pose.sdf

> <i_m_Source_File_Index>
16

> <i_lp_mmshare_version>
53161

> <r_lp_tautomer_probability>
0.999537046341301

> <s_lp_Force_Field>
OPLS_2005

> <r_lp_Energy>
32.381073

> <b_lp_Chiralities_Consistent>
1

> <s_lp_Variant>
65729-1

> <s_i_glide_gridfile>
glide-grid_2b8t

> <i_i_glide_lignum>
42

> <i_i_glide_rotatable_bonds>
8

> <r_i_docking_score>
-8.52190324537218

> <r_i_glide_ligand_efficiency>
-0.293858732599041

> <r_i_glide_ligand_efficiency_sa>
-0.902827127525389

> <r_i_glide_ligand_efficiency_ln>
-1.95129974636927

> <r_i_glide_gscore>
-8.52190324537218

> <r_i_glide_lipo>
-1.83467889065648

> <r_i_glide_hbond>
-0.649719161205076

> <r_i_glide_metal>
0

> <r_i_glide_rewards>
-2.9861370419914

> <r_i_glide_evdw>
-36.2513580322266

> <r_i_glide_ecoul>
-10.7899894714355

> <r_i_glide_erotb>
0.511145143676417

> <r_i_glide_esite>
-0.131446972868982

> <r_i_glide_emodel>
-68.6060471728241

> <r_i_glide_energy>
-47.0413475036621

> <r_i_glide_einternal>
9.70377540588379

> <i_i_glide_confnum>
103

> <i_i_glide_posenum>
41

> <r_i_glide_eff_state_penalty>
0

> <i_f3d_flags>
0

> <s_user_duplicate_titles>
65729

> <s_m_subgroup_title>
dock_pv

> <s_m_subgroupid>
dock_pv1

> <b_m_subgroup_collapsed>
0

$$$$
66022
                    3D
 Schrodinger Suite 2021-1.
 59 63  0  0  1  0            999 V2000
   -5.3230    5.8654   36.5246 C   0  0  0  0  0  0
   -6.5771    6.7431   36.5515 C   0  0  0  0  0  0
   -7.8135    5.9669   36.9700 C   0  0  0  0  0  0
   -8.7570    5.5742   36.0929 C   0  0  0  0  0  0
   -9.8610    4.8293   36.4228 N   0  0  0  0  0  0
  -10.0428    4.3795   37.7164 C   0  0  0  0  0  0
  -10.9942    3.7227   38.1378 O   0  0  0  0  0  0
   -9.0597    4.7739   38.5827 N   0  0  0  0  0  0
   -7.9730    5.5704   38.3702 C   0  0  0  0  0  0
   -7.2414    5.8910   39.3023 O   0  0  0  0  0  0
  -10.9307    4.6770   35.4464 C   0  0  1  0  0  0
  -11.7008    5.9202   35.0690 C   0  0  2  0  0  0
  -12.2755    5.4967   33.7246 C   0  0  1  0  0  0
  -11.4905    4.2673   33.2443 C   0  0  2  0  0  0
  -10.4631    4.1538   34.2330 O   0  0  0  0  0  0
  -10.8974    4.4359   31.8321 C   0  0  0  0  0  0
  -11.8384    3.9740   30.8061 N   0  0  0  0  0  0
  -12.6830    4.6504   29.9954 C   0  0  0  0  0  0
  -13.3481    4.0023   29.1918 O   0  0  0  0  0  0
  -12.8241    6.2008   30.0326 C   0  0  0  0  0  0
  -14.3134    6.5962   29.9134 C   0  0  0  0  0  0
  -15.0995    6.7766   31.0597 C   0  0  0  0  0  0
  -16.4515    7.1051   30.9841 C   0  0  0  0  0  0
  -17.0577    7.2474   29.7415 C   0  0  0  0  0  0
  -16.3029    7.0720   28.5857 C   0  0  0  0  0  0
  -14.9415    6.7718   28.6635 C   0  0  0  0  0  0
  -14.0598    6.5291   27.1558 S   0  0  0  0  0  0
  -12.4357    7.0339   27.6179 C   0  0  0  0  0  0
  -11.9516    6.8283   28.9262 C   0  0  0  0  0  0
  -10.6361    7.2296   29.1976 C   0  0  0  0  0  0
   -9.8333    7.8257   28.2272 C   0  0  0  0  0  0
  -10.3213    8.0028   26.9376 C   0  0  0  0  0  0
  -11.6164    7.5939   26.6332 C   0  0  0  0  0  0
  -13.6412    5.1731   33.7848 O   0  0  0  0  0  0
  -10.8739    6.9491   34.9082 F   0  0  0  0  0  0
   -9.1689    4.4538   39.5372 H   0  0  0  0  0  0
  -11.6418    3.9538   35.8506 H   0  0  0  0  0  0
  -12.4401    6.1947   35.8162 H   0  0  0  0  0  0
  -12.1444    6.3388   33.0506 H   0  0  0  0  0  0
  -11.9898    3.2977   33.3267 H   0  0  0  0  0  0
   -4.7593    5.9756   35.5981 H   0  0  0  0  0  0
   -4.6707    6.1179   37.3573 H   0  0  0  0  0  0
   -5.5623    4.8035   36.5984 H   0  0  0  0  0  0
   -6.7371    7.1617   35.5561 H   0  0  0  0  0  0
   -6.4290    7.5979   37.2115 H   0  0  0  0  0  0
   -8.7076    5.8082   35.0381 H   0  0  0  0  0  0
   -9.9994    3.8214   31.7480 H   0  0  0  0  0  0
  -10.5695    5.4592   31.6545 H   0  0  0  0  0  0
  -11.7683    2.9741   30.5823 H   0  0  0  0  0  0
  -12.4745    6.5877   30.9828 H   0  0  0  0  0  0
  -14.6559    6.6730   32.0346 H   0  0  0  0  0  0
  -17.0254    7.2428   31.8888 H   0  0  0  0  0  0
  -18.1072    7.4909   29.6711 H   0  0  0  0  0  0
  -16.7787    7.1763   27.6218 H   0  0  0  0  0  0
  -10.2252    7.0904   30.1824 H   0  0  0  0  0  0
   -8.8388    8.1552   28.4813 H   0  0  0  0  0  0
   -9.7042    8.4613   26.1777 H   0  0  0  0  0  0
  -11.9959    7.7284   25.6310 H   0  0  0  0  0  0
  -13.8673    4.6494   33.0146 H   0  0  0  0  0  0
  1  2  1  0  0  0
  1 41  1  0  0  0
  1 42  1  0  0  0
  1 43  1  0  0  0
  2  3  1  0  0  0
  2 44  1  0  0  0
  2 45  1  0  0  0
  3  9  1  0  0  0
  3  4  2  0  0  0
  4  5  1  0  0  0
  4 46  1  0  0  0
  5  6  1  0  0  0
  5 11  1  0  0  0
  6  7  2  0  0  0
  6  8  1  0  0  0
  8 36  1  0  0  0
  8  9  1  0  0  0
  9 10  2  0  0  0
 11 37  1  0  0  0
 11 15  1  0  0  0
 11 12  1  0  0  0
 12 38  1  0  0  0
 12 13  1  0  0  0
 12 35  1  0  0  0
 13 39  1  0  0  0
 13 14  1  0  0  0
 13 34  1  0  0  0
 14 40  1  0  0  0
 14 15  1  0  0  0
 14 16  1  0  0  0
 16 17  1  0  0  0
 16 47  1  0  0  0
 16 48  1  0  0  0
 17 18  1  0  0  0
 17 49  1  0  0  0
 18 19  2  0  0  0
 18 20  1  0  0  0
 20 29  1  0  0  0
 20 21  1  0  0  0
 20 50  1  0  0  0
 21 26  2  0  0  0
 21 22  1  0  0  0
 22 23  2  0  0  0
 22 51  1  0  0  0
 23 24  1  0  0  0
 23 52  1  0  0  0
 24 25  2  0  0  0
 24 53  1  0  0  0
 25 26  1  0  0  0
 25 54  1  0  0  0
 26 27  1  0  0  0
 27 28  1  0  0  0
 28 33  2  0  0  0
 28 29  1  0  0  0
 29 30  2  0  0  0
 30 31  1  0  0  0
 30 55  1  0  0  0
 31 32  2  0  0  0
 31 56  1  0  0  0
 32 33  1  0  0  0
 32 57  1  0  0  0
 33 58  1  0  0  0
 34 59  1  0  0  0
M  END
> <s_m_entry_id>
3228

> <s_m_entry_name>
ligand_docking-pose.17

> <s_m_Source_Path>
/home/csk/Desktop/cluster/DUD-E-result/kith

> <s_m_Source_File>
ligand_docking-pose.sdf

> <i_m_Source_File_Index>
17

> <i_lp_mmshare_version>
53161

> <r_lp_tautomer_probability>
0.999537046341301

> <s_lp_Force_Field>
OPLS_2005

> <r_lp_Energy>
36.922964

> <b_lp_Chiralities_Consistent>
1

> <s_lp_Variant>
66022-1

> <s_i_glide_gridfile>
glide-grid_2b8t

> <i_i_glide_lignum>
26

> <i_i_glide_rotatable_bonds>
7

> <r_i_docking_score>
-8.4176528333609

> <r_i_glide_ligand_efficiency>
-0.240504366667454

> <r_i_glide_ligand_efficiency_sa>
-0.786705730326816

> <r_i_glide_ligand_efficiency_ln>
-1.84786161666177

> <r_i_glide_gscore>
-8.4176528333609

> <r_i_glide_lipo>
-2.27180086106696

> <r_i_glide_hbond>
-0.92259698703271

> <r_i_glide_metal>
0

> <r_i_glide_rewards>
-1.59859497225354

> <r_i_glide_evdw>
-42.8489837646484

> <r_i_glide_ecoul>
-10.6264190673828

> <r_i_glide_erotb>
0.230743688247441

> <r_i_glide_esite>
-0.118991652915289

> <r_i_glide_emodel>
-67.5874623477383

> <r_i_glide_energy>
-53.4754028320312

> <r_i_glide_einternal>
11.875054359436

> <i_i_glide_confnum>
1

> <i_i_glide_posenum>
43

> <r_i_glide_eff_state_penalty>
0

> <i_f3d_flags>
0

> <s_user_duplicate_titles>
66022

> <s_m_subgroup_title>
dock_pv

> <s_m_subgroupid>
dock_pv1

> <b_m_subgroup_collapsed>
0

$$$$
549183
                    3D
 Schrodinger Suite 2021-1.
 64 68  0  0  1  0            999 V2000
   -6.2783    6.4690   37.6711 C   0  0  0  0  0  0
   -6.4467    6.4350   36.3001 C   0  0  0  0  0  0
   -7.6432    5.9740   35.7830 C   0  0  0  0  0  0
   -8.6676    5.4955   36.5980 C   0  0  0  0  0  0
   -8.4410    5.4811   37.9864 C   0  0  0  0  0  0
   -7.2572    5.9739   38.5241 C   0  0  0  0  0  0
   -9.9971    5.0117   35.9600 C   0  0  0  0  0  0
  -10.9175    6.1953   35.5843 C   0  0  0  0  0  0
  -12.1779    5.7561   34.8080 C   0  0  0  0  0  0
  -11.8174    5.0602   33.5731 N   0  0  1  0  0  0
  -11.0970    3.8251   33.8956 C   0  0  0  0  0  0
   -9.8051    4.1684   34.6636 C   0  0  0  0  0  0
  -12.9636    4.7902   32.6912 C   0  0  0  0  0  0
  -12.6377    5.1623   31.2244 C   0  0  0  0  0  0
  -12.6808    6.6890   30.9830 C   0  0  0  0  0  0
  -12.3469    7.2068   29.5655 C   0  0  0  0  0  0
  -11.0566    6.7251   29.0372 N   0  0  0  0  0  0
   -9.8538    7.3324   29.1251 C   0  0  0  0  0  0
   -8.8925    6.6641   28.5229 N   0  0  0  0  0  0
   -9.5177    5.5850   28.0102 C   0  0  0  0  0  0
  -10.8518    5.5936   28.3078 C   0  0  0  0  0  0
  -11.7903    4.6676   27.9670 N   0  0  0  0  0  0
  -11.3098    3.6473   27.3318 C   0  0  0  0  0  0
   -9.9663    3.5740   26.9830 N   0  0  0  0  0  0
   -8.9742    4.4973   27.2168 C   0  0  0  0  0  0
   -7.8279    4.3605   26.7842 O   0  0  0  0  0  0
  -12.0410    2.5607   26.9830 N   0  0  0  0  0  0
  -13.4005    2.2942   27.1881 C   0  0  0  0  0  0
  -13.7578    0.9594   27.3830 C   0  0  0  0  0  0
  -15.0868    0.6231   27.6201 C   0  0  0  0  0  0
  -16.0564    1.6236   27.6436 C   0  0  0  0  0  0
  -15.7120    2.9549   27.4211 C   0  0  0  0  0  0
  -14.3808    3.2942   27.1920 C   0  0  0  0  0  0
  -10.7038    4.1984   36.9713 C   0  0  0  0  0  0
  -11.2410    3.5740   37.7830 N   0  0  0  0  0  0
   -5.3637    6.8808   38.0607 H   0  0  0  0  0  0
   -5.6666    6.7740   35.6360 H   0  0  0  0  0  0
   -7.7485    5.9740   34.7120 H   0  0  0  0  0  0
   -9.1889    5.1205   38.6762 H   0  0  0  0  0  0
   -7.1144    5.9740   39.5938 H   0  0  0  0  0  0
  -11.2369    6.7042   36.4898 H   0  0  0  0  0  0
  -10.3856    6.9522   35.0065 H   0  0  0  0  0  0
  -12.8027    5.0769   35.3830 H   0  0  0  0  0  0
  -12.7628    6.6435   34.5830 H   0  0  0  0  0  0
  -11.7651    3.1740   34.4561 H   0  0  0  0  0  0
  -10.8367    3.2999   32.9737 H   0  0  0  0  0  0
   -9.2410    4.7371   33.9337 H   0  0  0  0  0  0
   -9.2422    3.2594   34.8785 H   0  0  0  0  0  0
  -13.3165    3.7594   32.7638 H   0  0  0  0  0  0
  -13.8092    5.4045   33.0065 H   0  0  0  0  0  0
  -11.6462    4.7858   30.9679 H   0  0  0  0  0  0
  -13.3433    4.6691   30.5547 H   0  0  0  0  0  0
  -13.6865    7.0375   31.2211 H   0  0  0  0  0  0
  -12.0410    7.1768   31.7116 H   0  0  0  0  0  0
  -13.1032    6.9044   28.8392 H   0  0  0  0  0  0
  -12.2934    8.2966   29.5477 H   0  0  0  0  0  0
   -9.7456    8.2719   29.6491 H   0  0  0  0  0  0
   -9.6719    2.7385   26.4824 H   0  0  0  0  0  0
  -11.5147    1.7627   26.6515 H   0  0  0  0  0  0
  -13.0055    0.1818   27.3830 H   0  0  0  0  0  0
  -15.3565   -0.4092   27.7855 H   0  0  0  0  0  0
  -17.0899    1.3691   27.8284 H   0  0  0  0  0  0
  -16.4757    3.7194   27.4300 H   0  0  0  0  0  0
  -14.1251    4.3278   27.0163 H   0  0  0  0  0  0
  1  6  1  0  0  0
  1  2  2  0  0  0
  1 36  1  0  0  0
  2  3  1  0  0  0
  2 37  1  0  0  0
  3  4  2  0  0  0
  3 38  1  0  0  0
  4  5  1  0  0  0
  4  7  1  0  0  0
  5  6  2  0  0  0
  5 39  1  0  0  0
  6 40  1  0  0  0
  7 12  1  0  0  0
  7  8  1  0  0  0
  7 34  1  0  0  0
  8  9  1  0  0  0
  8 41  1  0  0  0
  8 42  1  0  0  0
  9 10  1  0  0  0
  9 43  1  0  0  0
  9 44  1  0  0  0
 10 11  1  0  0  0
 10 13  1  0  0  0
 11 12  1  0  0  0
 11 45  1  0  0  0
 11 46  1  0  0  0
 12 47  1  0  0  0
 12 48  1  0  0  0
 13 14  1  0  0  0
 13 49  1  0  0  0
 13 50  1  0  0  0
 14 15  1  0  0  0
 14 51  1  0  0  0
 14 52  1  0  0  0
 15 16  1  0  0  0
 15 53  1  0  0  0
 15 54  1  0  0  0
 16 55  1  0  0  0
 16 56  1  0  0  0
 16 17  1  0  0  0
 17 18  1  0  0  0
 17 21  1  0  0  0
 18 57  1  0  0  0
 18 19  2  0  0  0
 19 20  1  0  0  0
 20 25  1  0  0  0
 20 21  2  0  0  0
 21 22  1  0  0  0
 22 23  2  0  0  0
 23 27  1  0  0  0
 23 24  1  0  0  0
 24 58  1  0  0  0
 24 25  1  0  0  0
 25 26  2  0  0  0
 27 28  1  0  0  0
 27 59  1  0  0  0
 28 33  1  0  0  0
 28 29  2  0  0  0
 29 30  1  0  0  0
 29 60  1  0  0  0
 30 31  2  0  0  0
 30 61  1  0  0  0
 31 32  1  0  0  0
 31 62  1  0  0  0
 32 33  2  0  0  0
 32 63  1  0  0  0
 33 64  1  0  0  0
 34 35  3  0  0  0
M  END
> <s_m_entry_id>
3230

> <s_m_entry_name>
ligand_docking-pose.19

> <s_m_Source_Path>
/home/csk/Desktop/cluster/DUD-E-result/kith

> <s_m_Source_File>
ligand_docking-pose.sdf

> <i_m_Source_File_Index>
19

> <i_lp_mmshare_version>
53161

> <r_lp_tautomer_probability>
0.999940409345307

> <s_lp_Force_Field>
OPLS_2005

> <r_lp_Energy>
30.821722

> <b_lp_Chiralities_Consistent>
1

> <s_lp_Variant>
549183-1

> <s_i_glide_gridfile>
glide-grid_2b8t

> <i_i_glide_lignum>
115

> <i_i_glide_rotatable_bonds>
8

> <r_i_docking_score>
-7.92683032409178

> <r_i_glide_ligand_efficiency>
-0.226480866402622

> <r_i_glide_ligand_efficiency_sa>
-0.740833931113966

> <r_i_glide_ligand_efficiency_ln>
-1.74011518265852

> <r_i_glide_gscore>
-7.92683032409178

> <r_i_glide_lipo>
-3.12926074789534

> <r_i_glide_hbond>
-0.648513106197816

> <r_i_glide_metal>
0

> <r_i_glide_rewards>
-0.214030446532731

> <r_i_glide_evdw>
-40.1136894226074

> <r_i_glide_ecoul>
-16.0328960418701

> <r_i_glide_erotb>
0.738580252861006

> <r_i_glide_esite>
-0.262987398916009

> <r_i_glide_emodel>
-79.7916580485198

> <r_i_glide_energy>
-56.1465854644775

> <r_i_glide_einternal>
6.17485094070435

> <i_i_glide_confnum>
74

> <i_i_glide_posenum>
21

> <r_i_glide_eff_state_penalty>
0

> <i_f3d_flags>
0

> <s_user_duplicate_titles>
549183

> <s_m_subgroup_title>
dock_pv

> <s_m_subgroupid>
dock_pv1

> <b_m_subgroup_collapsed>
0

$$$$
66851
                    3D
 Schrodinger Suite 2021-1.
 50 52  0  0  1  0            999 V2000
   -6.4423    6.3956   37.0531 C   0  0  0  0  0  0
   -7.6132    5.7836   37.8416 C   0  0  0  0  0  0
   -8.8403    5.3616   37.0267 C   0  0  0  0  0  0
   -8.9870    5.5219   35.6899 C   0  0  0  0  0  0
  -10.1130    5.1471   34.9889 N   0  0  0  0  0  0
  -11.2137    4.6498   35.6490 C   0  0  0  0  0  0
  -12.2983    4.3742   35.1486 O   0  0  0  0  0  0
  -11.0183    4.4387   36.9796 N   0  0  0  0  0  0
   -9.9633    4.7740   37.7619 C   0  0  0  0  0  0
  -10.0409    4.6389   38.9779 O   0  0  0  0  0  0
  -10.1338    5.0955   33.5349 C   0  0  1  0  0  0
  -10.2223    3.7059   32.8979 C   0  0  0  0  0  0
  -10.8471    4.0407   31.5656 C   0  0  1  0  0  0
  -11.7455    5.2598   31.8489 C   0  0  2  0  0  0
  -11.1966    5.8544   33.0182 O   0  0  0  0  0  0
  -13.2790    5.0252   32.0251 C   0  0  0  0  0  0
  -13.8535    3.8614   31.3297 N   0  0  0  0  0  0
  -14.0182    2.6427   31.8816 C   0  0  0  0  0  0
  -13.7108    2.3952   33.0469 O   0  0  0  0  0  0
  -14.5233    1.5266   30.9532 C   0  0  0  0  0  0
  -15.1474    0.3305   31.6844 C   0  0  0  0  0  0
  -14.3044   -0.6441   32.2354 C   0  0  0  0  0  0
  -14.8272   -1.7690   32.8707 C   0  0  0  0  0  0
  -16.2061   -1.9366   32.9612 C   0  0  0  0  0  0
  -17.0602   -0.9759   32.4206 C   0  0  0  0  0  0
  -16.5407    0.1535   31.7809 C   0  0  0  0  0  0
  -17.6544    1.3035   31.1218 Cl  0  0  0  0  0  0
   -9.8604    4.2429   30.5683 O   0  0  0  0  0  0
  -11.8164    4.0627   37.4657 H   0  0  0  0  0  0
   -9.2126    5.5742   33.2048 H   0  0  0  0  0  0
  -11.4386    3.1836   31.2799 H   0  0  0  0  0  0
  -11.6367    5.8664   30.9471 H   0  0  0  0  0  0
   -5.6388    6.6956   37.7264 H   0  0  0  0  0  0
   -6.0248    5.6853   36.3391 H   0  0  0  0  0  0
   -6.7535    7.2823   36.5005 H   0  0  0  0  0  0
   -7.9387    6.5002   38.5961 H   0  0  0  0  0  0
   -7.2515    4.9205   38.4031 H   0  0  0  0  0  0
   -8.2263    5.9669   35.0651 H   0  0  0  0  0  0
  -10.8882    3.0546   33.4657 H   0  0  0  0  0  0
   -9.2494    3.2196   32.8264 H   0  0  0  0  0  0
  -13.8044    5.9164   31.6873 H   0  0  0  0  0  0
  -13.5250    4.9694   33.0838 H   0  0  0  0  0  0
  -14.1132    3.9905   30.3630 H   0  0  0  0  0  0
  -13.6710    1.1745   30.3701 H   0  0  0  0  0  0
  -15.2091    1.9341   30.2122 H   0  0  0  0  0  0
  -13.2329   -0.5226   32.1828 H   0  0  0  0  0  0
  -14.1656   -2.5112   33.2945 H   0  0  0  0  0  0
  -16.6108   -2.8112   33.4516 H   0  0  0  0  0  0
  -18.1301   -1.1105   32.4969 H   0  0  0  0  0  0
   -9.8115    3.4119   30.0784 H   0  0  0  0  0  0
  1  2  1  0  0  0
  1 33  1  0  0  0
  1 34  1  0  0  0
  1 35  1  0  0  0
  2  3  1  0  0  0
  2 36  1  0  0  0
  2 37  1  0  0  0
  3  9  1  0  0  0
  3  4  2  0  0  0
  4  5  1  0  0  0
  4 38  1  0  0  0
  5  6  1  0  0  0
  5 11  1  0  0  0
  6  7  2  0  0  0
  6  8  1  0  0  0
  8 29  1  0  0  0
  8  9  1  0  0  0
  9 10  2  0  0  0
 11 30  1  0  0  0
 11 15  1  0  0  0
 11 12  1  0  0  0
 12 13  1  0  0  0
 12 39  1  0  0  0
 12 40  1  0  0  0
 13 31  1  0  0  0
 13 14  1  0  0  0
 13 28  1  0  0  0
 14 32  1  0  0  0
 14 15  1  0  0  0
 14 16  1  0  0  0
 16 17  1  0  0  0
 16 41  1  0  0  0
 16 42  1  0  0  0
 17 18  1  0  0  0
 17 43  1  0  0  0
 18 19  2  0  0  0
 18 20  1  0  0  0
 20 21  1  0  0  0
 20 44  1  0  0  0
 20 45  1  0  0  0
 21 26  1  0  0  0
 21 22  2  0  0  0
 22 23  1  0  0  0
 22 46  1  0  0  0
 23 24  2  0  0  0
 23 47  1  0  0  0
 24 25  1  0  0  0
 24 48  1  0  0  0
 25 26  2  0  0  0
 25 49  1  0  0  0
 26 27  1  0  0  0
 28 50  1  0  0  0
M  END
> <s_m_entry_id>
3231

> <s_m_entry_name>
ligand_docking-pose.20

> <s_m_Source_Path>
/home/csk/Desktop/cluster/DUD-E-result/kith

> <s_m_Source_File>
ligand_docking-pose.sdf

> <i_m_Source_File_Index>
20

> <i_lp_mmshare_version>
53161

> <r_lp_tautomer_probability>
0.999537046341301

> <s_lp_Force_Field>
OPLS_2005

> <r_lp_Energy>
25.904342

> <b_lp_Chiralities_Consistent>
1

> <s_lp_Variant>
66851-1

> <s_i_glide_gridfile>
glide-grid_2b8t

> <i_i_glide_lignum>
70

> <i_i_glide_rotatable_bonds>
8

> <r_i_docking_score>
-7.82546640294033

> <r_i_glide_ligand_efficiency>
-0.279480942962155

> <r_i_glide_ligand_efficiency_sa>
-0.848668748305644

> <r_i_glide_ligand_efficiency_ln>
-1.80634741147616

> <r_i_glide_gscore>
-7.82546640294033

> <r_i_glide_lipo>
-2.40772101418355

> <r_i_glide_hbond>
-0.307368300412788

> <r_i_glide_metal>
0

> <r_i_glide_rewards>
-2.65347744228784

> <r_i_glide_evdw>
-42.5269470214844

> <r_i_glide_ecoul>
-5.72187232971191

> <r_i_glide_erotb>
0.591431467439244

> <r_i_glide_esite>
-0.0637029129643951

> <r_i_glide_emodel>
-68.5885232886235

> <r_i_glide_energy>
-48.2488193511963

> <r_i_glide_einternal>
11.091742515564

> <i_i_glide_confnum>
64

> <i_i_glide_posenum>
91

> <r_i_glide_eff_state_penalty>
0

> <i_f3d_flags>
0

> <s_user_duplicate_titles>
66851

> <s_m_subgroup_title>
dock_pv

> <s_m_subgroupid>
dock_pv1

> <b_m_subgroup_collapsed>
0

$$$$
6699
                    3D
 Schrodinger Suite 2021-1.
 32 33  0  0  1  0            999 V2000
   -9.2861    5.5158   35.2581 C   0  0  0  0  0  0
   -9.1253    5.3721   36.5902 C   0  0  0  0  0  0
  -10.2111    4.7194   37.3196 C   0  0  0  0  0  0
  -10.2350    4.4770   38.5262 O   0  0  0  0  0  0
  -11.2629    4.3740   36.5248 N   0  0  0  0  0  0
  -11.4292    4.4860   35.1702 C   0  0  0  0  0  0
  -12.4410    4.0162   34.6552 O   0  0  0  0  0  0
  -10.3843    5.1177   34.5353 N   0  0  0  0  0  0
  -10.3707    5.2495   33.0832 C   0  0  2  0  0  0
  -11.6067    5.6553   32.2776 C   0  0  0  0  0  0
  -11.1336    5.2846   30.8805 C   0  0  1  0  0  0
  -10.2014    4.0841   31.1096 C   0  0  2  0  0  0
   -9.8731    4.1055   32.4906 O   0  0  0  0  0  0
   -8.9387    4.0686   30.2224 C   0  0  0  0  0  0
   -8.0416    3.0379   30.5828 O   0  0  0  0  0  0
  -12.2293    4.9894   30.0333 O   0  0  0  0  0  0
   -7.9686    5.8948   37.3085 C   0  0  0  0  0  0
   -7.1252    6.7977   36.7801 C   0  0  0  0  0  0
   -5.6411    7.5738   37.7830 Br  0  0  0  0  0  0
  -12.0232    3.9213   37.0041 H   0  0  0  0  0  0
   -8.5312    5.9739   34.6447 H   0  0  0  0  0  0
   -9.5889    5.9740   32.8829 H   0  0  0  0  0  0
  -12.4812    5.0690   32.5493 H   0  0  0  0  0  0
  -11.8318    6.7175   32.3926 H   0  0  0  0  0  0
  -10.5619    6.1156   30.4633 H   0  0  0  0  0  0
  -10.7665    3.1744   30.9989 H   0  0  0  0  0  0
   -9.2239    3.9436   29.1768 H   0  0  0  0  0  0
   -8.4055    5.0168   30.3003 H   0  0  0  0  0  0
   -8.5595    2.2185   30.6751 H   0  0  0  0  0  0
  -12.0186    4.2165   29.4986 H   0  0  0  0  0  0
   -7.7862    5.5577   38.3189 H   0  0  0  0  0  0
   -7.1904    7.2044   35.7831 H   0  0  0  0  0  0
  1  8  1  0  0  0
  1  2  2  0  0  0
  1 21  1  0  0  0
  2  3  1  0  0  0
  2 17  1  0  0  0
  3  4  2  0  0  0
  3  5  1  0  0  0
  5 20  1  0  0  0
  5  6  1  0  0  0
  6  7  2  0  0  0
  6  8  1  0  0  0
  8  9  1  0  0  0
  9 13  1  0  0  0
  9 10  1  0  0  0
  9 22  1  0  0  0
 10 11  1  0  0  0
 10 23  1  0  0  0
 10 24  1  0  0  0
 11 12  1  0  0  0
 11 16  1  0  0  0
 11 25  1  0  0  0
 12 13  1  0  0  0
 12 14  1  0  0  0
 12 26  1  0  0  0
 14 15  1  0  0  0
 14 27  1  0  0  0
 14 28  1  0  0  0
 15 29  1  0  0  0
 16 30  1  0  0  0
 17 18  2  0  0  0
 17 31  1  0  0  0
 18 19  1  0  0  0
 18 32  1  0  0  0
M  END
> <s_m_entry_id>
3232

> <s_m_entry_name>
ligand_docking-pose.21

> <s_m_Source_Path>
/home/csk/Desktop/cluster/DUD-E-result/kith

> <s_m_Source_File>
ligand_docking-pose.sdf

> <i_m_Source_File_Index>
21

> <i_lp_mmshare_version>
53161

> <r_lp_tautomer_probability>
1

> <s_lp_Force_Field>
OPLS_2005

> <r_lp_Energy>
30.60831

> <b_lp_Chiralities_Consistent>
1

> <s_lp_Variant>
6699-5

> <s_i_glide_gridfile>
glide-grid_2b8t

> <i_i_glide_lignum>
64

> <i_i_glide_rotatable_bonds>
5

> <r_i_docking_score>
-7.73778276204952

> <r_i_glide_ligand_efficiency>
-0.407251724318396

> <r_i_glide_ligand_efficiency_sa>
-1.08671117154948

> <r_i_glide_ligand_efficiency_ln>
-1.96169412251491

> <r_i_glide_gscore>
-7.73778276204952

> <r_i_glide_lipo>
-1.65705278084041

> <r_i_glide_hbond>
-0.300669532766496

> <r_i_glide_metal>
0

> <r_i_glide_rewards>
-3.26705500797979

> <r_i_glide_evdw>
-26.0545749664307

> <r_i_glide_ecoul>
-10.4456243515015

> <r_i_glide_erotb>
0.356566960583927

> <r_i_glide_esite>
0

> <r_i_glide_emodel>
-55.7716419604754

> <r_i_glide_energy>
-36.5001993179321

> <r_i_glide_einternal>
1.93226313591003

> <i_i_glide_confnum>
75

> <i_i_glide_posenum>
179

> <r_i_glide_eff_state_penalty>
0

> <i_f3d_flags>
0

> <s_user_duplicate_titles>
6699

> <s_m_subgroup_title>
dock_pv

> <s_m_subgroupid>
dock_pv1

> <b_m_subgroup_collapsed>
0

$$$$
66133
                    3D
 Schrodinger Suite 2021-1.
 53 55  0  0  1  0            999 V2000
   -6.6483    6.2790   36.8586 C   0  0  0  0  0  0
   -7.8496    5.6455   37.5834 C   0  0  0  0  0  0
   -9.0363    5.2127   36.7127 C   0  0  0  0  0  0
   -9.1286    5.3507   35.3703 C   0  0  0  0  0  0
  -10.2347    4.9951   34.6211 N   0  0  0  0  0  0
  -11.3818    4.5523   35.2408 C   0  0  0  0  0  0
  -12.4598    4.3043   34.7016 O   0  0  0  0  0  0
  -11.2418    4.3748   36.5852 N   0  0  0  0  0  0
  -10.1838    4.6262   37.3958 C   0  0  0  0  0  0
  -10.2592    4.3744   38.5898 O   0  0  0  0  0  0
  -10.2220    5.0224   33.1651 C   0  0  1  0  0  0
  -10.3852    3.7086   32.4098 C   0  0  0  0  0  0
  -10.7298    4.2521   31.0308 C   0  0  1  0  0  0
  -11.4803    5.5688   31.2856 C   0  0  2  0  0  0
  -11.2291    5.8489   32.6623 O   0  0  0  0  0  0
  -13.0107    5.4983   31.0789 C   0  0  0  0  0  0
  -13.6890    4.4880   31.8975 N   0  0  0  0  0  0
  -14.4661    3.4897   31.4412 C   0  0  0  0  0  0
  -14.6578    3.2669   30.2471 O   0  0  0  0  0  0
  -15.2085    2.6871   32.5160 C   0  0  0  0  0  0
  -15.3056    1.1711   32.3015 C   0  0  0  0  0  0
  -14.1230    0.4259   32.2106 C   0  0  0  0  0  0
  -14.1596   -0.9672   32.1830 C   0  0  0  0  0  0
  -15.3801   -1.6330   32.2128 C   0  0  0  0  0  0
  -16.5662   -0.9065   32.2668 C   0  0  0  0  0  0
  -16.5428    0.4919   32.3182 C   0  0  0  0  0  0
  -17.8709    1.2334   32.3960 C   0  0  0  0  0  0
   -9.5681    4.3749   30.2308 O   0  0  0  0  0  0
  -12.0597    4.0197   37.0524 H   0  0  0  0  0  0
   -9.2671    5.4813   32.8942 H   0  0  0  0  0  0
  -11.4142    3.5740   30.5288 H   0  0  0  0  0  0
  -11.0876    6.3716   30.6593 H   0  0  0  0  0  0
   -5.8899    6.6022   37.5730 H   0  0  0  0  0  0
   -6.1701    5.5742   36.1804 H   0  0  0  0  0  0
   -6.9473    7.1559   36.2829 H   0  0  0  0  0  0
   -8.2158    6.3675   38.3129 H   0  0  0  0  0  0
   -7.5097    4.7977   38.1812 H   0  0  0  0  0  0
   -8.3268    5.7674   34.7801 H   0  0  0  0  0  0
  -11.2145    3.1261   32.8113 H   0  0  0  0  0  0
   -9.4778    3.1051   32.4480 H   0  0  0  0  0  0
  -13.2129    5.3511   30.0153 H   0  0  0  0  0  0
  -13.4465    6.4689   31.3195 H   0  0  0  0  0  0
  -13.5352    4.5652   32.8970 H   0  0  0  0  0  0
  -16.1896    3.1489   32.5925 H   0  0  0  0  0  0
  -14.7174    2.8287   33.4764 H   0  0  0  0  0  0
  -13.1661    0.9269   32.1849 H   0  0  0  0  0  0
  -13.2402   -1.5310   32.1400 H   0  0  0  0  0  0
  -15.4044   -2.7134   32.1973 H   0  0  0  0  0  0
  -17.5062   -1.4391   32.2896 H   0  0  0  0  0  0
  -17.9700    1.7407   33.3570 H   0  0  0  0  0  0
  -17.9236    1.9877   31.6103 H   0  0  0  0  0  0
  -18.7284    0.5716   32.2610 H   0  0  0  0  0  0
   -9.3924    3.4865   29.8990 H   0  0  0  0  0  0
  1  2  1  0  0  0
  1 33  1  0  0  0
  1 34  1  0  0  0
  1 35  1  0  0  0
  2  3  1  0  0  0
  2 36  1  0  0  0
  2 37  1  0  0  0
  3  9  1  0  0  0
  3  4  2  0  0  0
  4  5  1  0  0  0
  4 38  1  0  0  0
  5  6  1  0  0  0
  5 11  1  0  0  0
  6  7  2  0  0  0
  6  8  1  0  0  0
  8 29  1  0  0  0
  8  9  1  0  0  0
  9 10  2  0  0  0
 11 30  1  0  0  0
 11 15  1  0  0  0
 11 12  1  0  0  0
 12 13  1  0  0  0
 12 39  1  0  0  0
 12 40  1  0  0  0
 13 31  1  0  0  0
 13 14  1  0  0  0
 13 28  1  0  0  0
 14 32  1  0  0  0
 14 15  1  0  0  0
 14 16  1  0  0  0
 16 17  1  0  0  0
 16 41  1  0  0  0
 16 42  1  0  0  0
 17 18  1  0  0  0
 17 43  1  0  0  0
 18 19  2  0  0  0
 18 20  1  0  0  0
 20 21  1  0  0  0
 20 44  1  0  0  0
 20 45  1  0  0  0
 21 26  1  0  0  0
 21 22  2  0  0  0
 22 23  1  0  0  0
 22 46  1  0  0  0
 23 24  2  0  0  0
 23 47  1  0  0  0
 24 25  1  0  0  0
 24 48  1  0  0  0
 25 26  2  0  0  0
 25 49  1  0  0  0
 26 27  1  0  0  0
 27 50  1  0  0  0
 27 51  1  0  0  0
 27 52  1  0  0  0
 28 53  1  0  0  0
M  END
> <s_m_entry_id>
3233

> <s_m_entry_name>
ligand_docking-pose.22

> <s_m_Source_Path>
/home/csk/Desktop/cluster/DUD-E-result/kith

> <s_m_Source_File>
ligand_docking-pose.sdf

> <i_m_Source_File_Index>
22

> <i_lp_mmshare_version>
53161

> <r_lp_tautomer_probability>
0.999537046341301

> <s_lp_Force_Field>
OPLS_2005

> <r_lp_Energy>
27.991732

> <b_lp_Chiralities_Consistent>
1

> <s_lp_Variant>
66133-1

> <s_i_glide_gridfile>
glide-grid_2b8t

> <i_i_glide_lignum>
88

> <i_i_glide_rotatable_bonds>
8

> <r_i_docking_score>
-7.56468228270696

> <r_i_glide_ligand_efficiency>
-0.270167224382391

> <r_i_glide_ligand_efficiency_sa>
-0.820386813210595

> <r_i_glide_ligand_efficiency_ln>
-1.74615077957181

> <r_i_glide_gscore>
-7.56468228270696

> <r_i_glide_lipo>
-2.48525020928459

> <r_i_glide_hbond>
-0.32

> <r_i_glide_metal>
0

> <r_i_glide_rewards>
-2.89726733419685

> <r_i_glide_evdw>
-40.4569435119629

> <r_i_glide_ecoul>
-3.9992048740387

> <r_i_glide_erotb>
0.778417583670164

> <r_i_glide_esite>
-0.0178544161917385

> <r_i_glide_emodel>
-65.0709508631525

> <r_i_glide_energy>
-44.4561483860016

> <r_i_glide_einternal>
7.76782131195068

> <i_i_glide_confnum>
48

> <i_i_glide_posenum>
264

> <r_i_glide_eff_state_penalty>
0

> <i_f3d_flags>
0

> <s_user_duplicate_titles>
66133

> <s_m_subgroup_title>
dock_pv

> <s_m_subgroupid>
dock_pv1

> <b_m_subgroup_collapsed>
0

$$$$
66019
                    3D
 Schrodinger Suite 2021-1.
 61 65  0  0  1  0            999 V2000
   -7.1185    6.4705   36.1288 C   0  0  0  0  0  0
   -8.2001    5.7229   36.9266 C   0  0  0  0  0  0
   -9.4581    5.2587   36.1775 C   0  0  0  0  0  0
   -9.7083    5.3921   34.8498 C   0  0  0  0  0  0
  -10.9014    5.0601   34.2314 N   0  0  0  0  0  0
  -11.9475    4.5749   34.9765 C   0  0  0  0  0  0
  -13.0856    4.3475   34.5828 O   0  0  0  0  0  0
  -11.6404    4.3773   36.2926 N   0  0  0  0  0  0
  -10.5014    4.6417   36.9874 C   0  0  0  0  0  0
  -10.4265    4.3754   38.1851 O   0  0  0  0  0  0
  -11.0770    5.3108   32.7996 C   0  0  1  0  0  0
  -10.1214    4.6315   31.8401 C   0  0  2  0  0  0
  -10.8756    4.6029   30.5173 C   0  0  1  0  0  0
  -12.3367    4.9484   30.8590 C   0  0  2  0  0  0
  -12.3670    5.1649   32.2642 O   0  0  0  0  0  0
  -13.3603    3.8745   30.4133 C   0  0  0  0  0  0
  -14.7645    4.3234   30.3484 N   0  0  0  0  0  0
  -15.2527    5.1689   29.4136 C   0  0  0  0  0  0
  -14.5128    5.7136   28.5898 O   0  0  0  0  0  0
  -16.7834    5.4337   29.3059 C   0  0  1  0  0  0
  -17.6553    4.5658   30.2242 C   0  0  0  0  0  0
  -18.1189    3.3097   29.8094 C   0  0  0  0  0  0
  -18.9270    2.5264   30.6317 C   0  0  0  0  0  0
  -19.2718    2.9801   31.8997 C   0  0  0  0  0  0
  -18.8243    4.2229   32.3339 C   0  0  0  0  0  0
  -18.0360    5.0188   31.4963 C   0  0  0  0  0  0
  -17.4219    6.5707   32.1266 S   0  0  0  0  0  0
  -16.0445    6.3605   32.5827 O   0  0  0  0  0  0
  -18.4246    7.0995   33.0597 O   0  0  0  0  0  0
  -17.3694    7.5679   30.6314 C   0  0  0  0  0  0
  -17.0802    6.9416   29.4005 C   0  0  0  0  0  0
  -17.0395    7.7374   28.2485 C   0  0  0  0  0  0
  -17.2688    9.1076   28.2988 C   0  0  0  0  0  0
  -17.5314    9.7159   29.5186 C   0  0  0  0  0  0
  -17.5707    8.9621   30.6880 C   0  0  0  0  0  0
  -17.8234    9.8226   32.1673 Cl  0  0  0  0  0  0
  -10.2941    5.4871   29.5681 O   0  0  0  0  0  0
   -9.7633    3.4132   32.2453 F   0  0  0  0  0  0
  -12.3949    4.0014   36.8429 H   0  0  0  0  0  0
  -10.9049    6.3739   32.7838 H   0  0  0  0  0  0
   -9.2390    5.2330   31.7761 H   0  0  0  0  0  0
  -10.7866    3.5896   30.1196 H   0  0  0  0  0  0
  -12.5706    5.8779   30.3355 H   0  0  0  0  0  0
   -6.2065    6.5772   36.7190 H   0  0  0  0  0  0
   -6.8533    5.9727   35.1985 H   0  0  0  0  0  0
   -7.4497    7.4771   35.8758 H   0  0  0  0  0  0
   -8.4997    6.3732   37.7448 H   0  0  0  0  0  0
   -7.7721    4.8738   37.4513 H   0  0  0  0  0  0
   -8.9912    5.8015   34.1616 H   0  0  0  0  0  0
  -13.2766    2.9990   31.0584 H   0  0  0  0  0  0
  -13.0969    3.5255   29.4131 H   0  0  0  0  0  0
  -15.3802    4.0037   31.0829 H   0  0  0  0  0  0
  -17.0426    5.1360   28.2891 H   0  0  0  0  0  0
  -17.8607    2.9393   28.8275 H   0  0  0  0  0  0
  -19.2822    1.5664   30.2880 H   0  0  0  0  0  0
  -19.8901    2.3705   32.5421 H   0  0  0  0  0  0
  -19.0885    4.5681   33.3235 H   0  0  0  0  0  0
  -16.8104    7.2847   27.2949 H   0  0  0  0  0  0
  -17.2224    9.6976   27.3962 H   0  0  0  0  0  0
  -17.6857   10.7848   29.5596 H   0  0  0  0  0  0
  -10.8400    5.4793   28.7755 H   0  0  0  0  0  0
  1  2  1  0  0  0
  1 44  1  0  0  0
  1 45  1  0  0  0
  1 46  1  0  0  0
  2  3  1  0  0  0
  2 47  1  0  0  0
  2 48  1  0  0  0
  3  9  1  0  0  0
  3  4  2  0  0  0
  4  5  1  0  0  0
  4 49  1  0  0  0
  5  6  1  0  0  0
  5 11  1  0  0  0
  6  7  2  0  0  0
  6  8  1  0  0  0
  8 39  1  0  0  0
  8  9  1  0  0  0
  9 10  2  0  0  0
 11 40  1  0  0  0
 11 15  1  0  0  0
 11 12  1  0  0  0
 12 41  1  0  0  0
 12 13  1  0  0  0
 12 38  1  0  0  0
 13 42  1  0  0  0
 13 14  1  0  0  0
 13 37  1  0  0  0
 14 43  1  0  0  0
 14 15  1  0  0  0
 14 16  1  0  0  0
 16 17  1  0  0  0
 16 50  1  0  0  0
 16 51  1  0  0  0
 17 18  1  0  0  0
 17 52  1  0  0  0
 18 19  2  0  0  0
 18 20  1  0  0  0
 20 31  1  0  0  0
 20 21  1  0  0  0
 20 53  1  0  0  0
 21 26  2  0  0  0
 21 22  1  0  0  0
 22 23  2  0  0  0
 22 54  1  0  0  0
 23 24  1  0  0  0
 23 55  1  0  0  0
 24 25  2  0  0  0
 24 56  1  0  0  0
 25 26  1  0  0  0
 25 57  1  0  0  0
 26 27  1  0  0  0
 27 28  2  0  0  0
 27 29  2  0  0  0
 27 30  1  0  0  0
 30 35  2  0  0  0
 30 31  1  0  0  0
 31 32  2  0  0  0
 32 33  1  0  0  0
 32 58  1  0  0  0
 33 34  2  0  0  0
 33 59  1  0  0  0
 34 35  1  0  0  0
 34 60  1  0  0  0
 35 36  1  0  0  0
 37 61  1  0  0  0
M  END
> <s_m_entry_id>
3234

> <s_m_entry_name>
ligand_docking-pose.23

> <s_m_Source_Path>
/home/csk/Desktop/cluster/DUD-E-result/kith

> <s_m_Source_File>
ligand_docking-pose.sdf

> <i_m_Source_File_Index>
23

> <i_lp_mmshare_version>
53161

> <r_lp_tautomer_probability>
0.999537046341301

> <s_lp_Force_Field>
OPLS_2005

> <r_lp_Energy>
43.035252

> <b_lp_Chiralities_Consistent>
1

> <s_lp_Variant>
66019-2

> <s_i_glide_gridfile>
glide-grid_2b8t

> <i_i_glide_lignum>
2

> <i_i_glide_rotatable_bonds>
7

> <r_i_docking_score>
-7.43763248938845

> <r_i_glide_ligand_efficiency>
-0.19572717077338

> <r_i_glide_ligand_efficiency_sa>
-0.658029933784565

> <r_i_glide_ligand_efficiency_ln>
-1.60377235769292

> <r_i_glide_gscore>
-7.43763248938845

> <r_i_glide_lipo>
-2.23335610432031

> <r_i_glide_hbond>
-0.24340060989138

> <r_i_glide_metal>
0

> <r_i_glide_rewards>
-1.95281864819668

> <r_i_glide_evdw>
-40.0763320922852

> <r_i_glide_ecoul>
-7.26568269729614

> <r_i_glide_erotb>
0.177977757467366

> <r_i_glide_esite>
-0.0923658752387705

> <r_i_glide_emodel>
-64.3222081055394

> <r_i_glide_energy>
-47.3420147895813

> <r_i_glide_einternal>
16.7725238800049

> <i_i_glide_confnum>
8

> <i_i_glide_posenum>
159

> <r_i_glide_eff_state_penalty>
0

> <i_f3d_flags>
0

> <s_user_duplicate_titles>
66019

> <s_m_subgroup_title>
dock_pv

> <s_m_subgroupid>
dock_pv1

> <b_m_subgroup_collapsed>
0

$$$$
552895
                    3D
 Schrodinger Suite 2021-1.
 63 67  0  0  1  0            999 V2000
  -10.5123    5.0726   35.6906 C   0  0  0  0  0  0
  -10.0379    3.9752   34.9775 C   0  0  0  0  0  0
  -10.6499    3.6005   33.7831 C   0  0  0  0  0  0
  -11.7574    4.3114   33.3157 C   0  0  0  0  0  0
  -12.2346    5.4074   34.0454 C   0  0  0  0  0  0
  -11.6074    5.7942   35.2254 C   0  0  0  0  0  0
  -12.4714    3.8418   32.0399 C   0  0  1  0  0  0
  -13.4802    2.7260   32.4229 C   0  0  0  0  0  0
  -14.2975    2.2064   31.2378 C   0  0  0  0  0  0
  -14.9515    3.3902   30.5285 C   0  0  0  0  0  0
  -13.9062    4.4345   30.1071 C   0  0  0  0  0  0
  -13.0874    4.9218   31.2310 N   0  0  2  0  0  0
  -12.0767    5.8807   30.7456 C   0  0  0  0  0  0
  -12.6771    7.2685   30.4120 C   0  0  0  0  0  0
  -13.0032    7.5142   28.9212 C   0  0  0  0  0  0
  -11.9041    8.2275   28.1092 C   0  0  0  0  0  0
  -10.6348    7.4935   27.9770 N   0  0  0  0  0  0
   -9.4044    8.0027   28.1972 C   0  0  0  0  0  0
   -8.4410    7.1735   27.8731 N   0  0  0  0  0  0
   -9.0811    6.0880   27.4085 C   0  0  0  0  0  0
  -10.4384    6.2367   27.4817 C   0  0  0  0  0  0
  -11.3916    5.3214   27.1516 N   0  0  0  0  0  0
  -10.9056    4.1754   26.7968 C   0  0  0  0  0  0
   -9.5413    3.9741   26.6355 N   0  0  0  0  0  0
   -8.5233    4.8700   26.8522 C   0  0  0  0  0  0
   -7.3475    4.6179   26.5829 O   0  0  0  0  0  0
  -11.6422    3.0646   26.5829 N   0  0  0  0  0  0
  -13.0192    2.8480   26.6969 C   0  0  0  0  0  0
  -13.9752    3.8566   26.5223 C   0  0  0  0  0  0
  -15.3281    3.5589   26.6679 C   0  0  0  0  0  0
  -15.7189    2.2597   26.9835 C   0  0  0  0  0  0
  -14.7727    1.2491   27.1368 C   0  0  0  0  0  0
  -13.4207    1.5426   26.9827 C   0  0  0  0  0  0
  -10.0286    5.3689   36.6106 H   0  0  0  0  0  0
   -9.1936    3.4152   35.3508 H   0  0  0  0  0  0
  -10.2786    2.7471   33.2330 H   0  0  0  0  0  0
  -13.0864    5.9673   33.6878 H   0  0  0  0  0  0
  -11.9737    6.6442   35.7822 H   0  0  0  0  0  0
  -11.6982    3.3887   31.4148 H   0  0  0  0  0  0
  -14.1609    3.0979   33.1916 H   0  0  0  0  0  0
  -12.9444    1.8928   32.8756 H   0  0  0  0  0  0
  -15.0512    1.4938   31.5719 H   0  0  0  0  0  0
  -13.6424    1.6712   30.5468 H   0  0  0  0  0  0
  -15.7097    3.8614   31.1573 H   0  0  0  0  0  0
  -15.4852    3.0363   29.6476 H   0  0  0  0  0  0
  -14.4256    5.2675   29.6380 H   0  0  0  0  0  0
  -13.2478    4.0068   29.3476 H   0  0  0  0  0  0
  -11.5675    5.4549   29.8814 H   0  0  0  0  0  0
  -11.2924    6.0283   31.4883 H   0  0  0  0  0  0
  -12.0481    8.0638   30.8128 H   0  0  0  0  0  0
  -13.6265    7.3634   30.9426 H   0  0  0  0  0  0
  -13.8910    8.1475   28.8750 H   0  0  0  0  0  0
  -13.2995    6.5942   28.4186 H   0  0  0  0  0  0
  -11.6406    9.1741   28.5736 H   0  0  0  0  0  0
  -12.2290    8.4307   27.0877 H   0  0  0  0  0  0
   -9.2755    9.0082   28.5745 H   0  0  0  0  0  0
   -9.2519    3.0579   26.3157 H   0  0  0  0  0  0
  -11.1135    2.2176   26.3926 H   0  0  0  0  0  0
  -13.6893    4.8658   26.2700 H   0  0  0  0  0  0
  -16.0699    4.3356   26.5465 H   0  0  0  0  0  0
  -16.7692    2.0397   27.1111 H   0  0  0  0  0  0
  -15.0759    0.2424   27.3832 H   0  0  0  0  0  0
  -12.6890    0.7557   27.1136 H   0  0  0  0  0  0
  1  6  1  0  0  0
  1  2  2  0  0  0
  1 34  1  0  0  0
  2  3  1  0  0  0
  2 35  1  0  0  0
  3  4  2  0  0  0
  3 36  1  0  0  0
  4  5  1  0  0  0
  4  7  1  0  0  0
  5  6  2  0  0  0
  5 37  1  0  0  0
  6 38  1  0  0  0
  7 12  1  0  0  0
  7  8  1  0  0  0
  7 39  1  0  0  0
  8  9  1  0  0  0
  8 40  1  0  0  0
  8 41  1  0  0  0
  9 10  1  0  0  0
  9 42  1  0  0  0
  9 43  1  0  0  0
 10 11  1  0  0  0
 10 44  1  0  0  0
 10 45  1  0  0  0
 11 12  1  0  0  0
 11 46  1  0  0  0
 11 47  1  0  0  0
 12 13  1  0  0  0
 13 14  1  0  0  0
 13 48  1  0  0  0
 13 49  1  0  0  0
 14 15  1  0  0  0
 14 50  1  0  0  0
 14 51  1  0  0  0
 15 16  1  0  0  0
 15 52  1  0  0  0
 15 53  1  0  0  0
 16 54  1  0  0  0
 16 55  1  0  0  0
 16 17  1  0  0  0
 17 18  1  0  0  0
 17 21  1  0  0  0
 18 56  1  0  0  0
 18 19  2  0  0  0
 19 20  1  0  0  0
 20 25  1  0  0  0
 20 21  2  0  0  0
 21 22  1  0  0  0
 22 23  2  0  0  0
 23 27  1  0  0  0
 23 24  1  0  0  0
 24 57  1  0  0  0
 24 25  1  0  0  0
 25 26  2  0  0  0
 27 28  1  0  0  0
 27 58  1  0  0  0
 28 33  1  0  0  0
 28 29  2  0  0  0
 29 30  1  0  0  0
 29 59  1  0  0  0
 30 31  2  0  0  0
 30 60  1  0  0  0
 31 32  1  0  0  0
 31 61  1  0  0  0
 32 33  2  0  0  0
 32 62  1  0  0  0
 33 63  1  0  0  0
M  END
> <s_m_entry_id>
3235

> <s_m_entry_name>
ligand_docking-pose.24

> <s_m_Source_Path>
/home/csk/Desktop/cluster/DUD-E-result/kith

> <s_m_Source_File>
ligand_docking-pose.sdf

> <i_m_Source_File_Index>
24

> <i_lp_mmshare_version>
53161

> <r_lp_tautomer_probability>
0.999940409345307

> <s_lp_Force_Field>
OPLS_2005

> <r_lp_Energy>
31.450636

> <b_lp_Chiralities_Consistent>
1

> <s_lp_Variant>
552895-2

> <s_i_glide_gridfile>
glide-grid_2b8t

> <i_i_glide_lignum>
122

> <i_i_glide_rotatable_bonds>
8

> <r_i_docking_score>
-7.21448585230798

> <r_i_glide_ligand_efficiency>
-0.218620783403272

> <r_i_glide_ligand_efficiency_sa>
-0.701233667199288

> <r_i_glide_ligand_efficiency_ln>
-1.60446429894473

> <r_i_glide_gscore>
-7.21448585230798

> <r_i_glide_lipo>
-1.51597210852893

> <r_i_glide_hbond>
-0.996638015818124

> <r_i_glide_metal>
0

> <r_i_glide_rewards>
-0.74944237850784

> <r_i_glide_evdw>
-39.598217010498

> <r_i_glide_ecoul>
-17.1211757659912

> <r_i_glide_erotb>
0.816287728434569

> <r_i_glide_esite>
-0.220633862464068

> <r_i_glide_emodel>
-79.1048425456306

> <r_i_glide_energy>
-56.7193927764893

> <r_i_glide_einternal>
6.77127599716187

> <i_i_glide_confnum>
145

> <i_i_glide_posenum>
161

> <r_i_glide_eff_state_penalty>
0

> <i_f3d_flags>
0

> <s_user_duplicate_titles>
552895

> <s_m_subgroup_title>
dock_pv

> <s_m_subgroupid>
dock_pv1

> <b_m_subgroup_collapsed>
0

$$$$
294574
                    3D
 Schrodinger Suite 2021-1.
 58 62  0  0  1  0            999 V2000
   -6.6521    6.2799   36.8757 C   0  0  0  0  0  0
   -7.8597    5.6574   37.5977 C   0  0  0  0  0  0
   -9.0523    5.2464   36.7212 C   0  0  0  0  0  0
   -9.1487    5.4162   35.3828 C   0  0  0  0  0  0
  -10.2484    5.0599   34.6220 N   0  0  0  0  0  0
  -11.3802    4.5663   35.2269 C   0  0  0  0  0  0
  -12.4413    4.2722   34.6770 O   0  0  0  0  0  0
  -11.2412    4.3743   36.5699 N   0  0  0  0  0  0
  -10.1950    4.6366   37.3912 C   0  0  0  0  0  0
  -10.2760    4.3739   38.5830 O   0  0  0  0  0  0
  -10.1976    5.0498   33.1657 C   0  0  1  0  0  0
  -10.2526    3.7117   32.4447 C   0  0  0  0  0  0
  -10.6877    4.1628   31.0551 C   0  0  1  0  0  0
  -11.1355    5.6266   31.1683 C   0  0  2  0  0  0
  -11.2230    5.8027   32.5827 O   0  0  0  0  0  0
  -12.5159    5.9798   30.5708 C   0  0  0  0  0  0
  -12.4444    6.1740   29.1185 N   0  0  0  0  0  0
  -11.7884    7.1800   28.5082 C   0  0  0  0  0  0
  -11.2802    8.1162   29.1292 O   0  0  0  0  0  0
  -11.6178    7.0563   26.9806 C   0  0  0  0  0  0
  -11.2475    8.3458   26.2609 C   0  0  0  0  0  0
  -11.9354    9.5602   26.1823 C   0  0  0  0  0  0
  -11.4108   10.6121   25.4293 C   0  0  0  0  0  0
  -10.2020   10.4519   24.7506 C   0  0  0  0  0  0
   -9.5129    9.2406   24.8238 C   0  0  0  0  0  0
  -10.0408    8.1903   25.5783 C   0  0  0  0  0  0
   -9.5357    6.8287   25.8229 C   0  0  0  0  0  0
  -10.4462    6.1527   26.6357 C   0  0  0  0  0  0
  -10.1941    4.8277   27.0072 C   0  0  0  0  0  0
   -9.0284    4.1955   26.5805 C   0  0  0  0  0  0
   -8.1241    4.8748   25.7653 C   0  0  0  0  0  0
   -8.3750    6.1926   25.3827 C   0  0  0  0  0  0
   -9.6451    3.9743   30.1170 O   0  0  0  0  0  0
  -12.0496    3.9876   37.0272 H   0  0  0  0  0  0
   -9.2593    5.5571   32.9184 H   0  0  0  0  0  0
  -11.5517    3.5740   30.7557 H   0  0  0  0  0  0
  -10.3856    6.3352   30.8175 H   0  0  0  0  0  0
   -5.8848    6.5761   37.5907 H   0  0  0  0  0  0
   -6.1939    5.5742   36.1831 H   0  0  0  0  0  0
   -6.9373    7.1705   36.3162 H   0  0  0  0  0  0
   -8.2183    6.3737   38.3356 H   0  0  0  0  0  0
   -7.5308    4.7978   38.1833 H   0  0  0  0  0  0
   -8.3509    5.8546   34.8041 H   0  0  0  0  0  0
  -11.0039    3.0585   32.8883 H   0  0  0  0  0  0
   -9.2881    3.2057   32.4803 H   0  0  0  0  0  0
  -12.9163    6.8783   31.0436 H   0  0  0  0  0  0
  -13.2318    5.1824   30.7745 H   0  0  0  0  0  0
  -12.8335    5.4369   28.5501 H   0  0  0  0  0  0
  -12.5559    6.6590   26.5929 H   0  0  0  0  0  0
  -12.8729    9.6922   26.7019 H   0  0  0  0  0  0
  -11.9444   11.5491   25.3730 H   0  0  0  0  0  0
   -9.8000   11.2667   24.1672 H   0  0  0  0  0  0
   -8.5823    9.1278   24.2880 H   0  0  0  0  0  0
  -10.8858    4.2792   27.6298 H   0  0  0  0  0  0
   -8.8437    3.1713   26.8691 H   0  0  0  0  0  0
   -7.2410    4.3695   25.4176 H   0  0  0  0  0  0
   -7.6752    6.7086   24.7444 H   0  0  0  0  0  0
   -9.7503    3.0642   29.7982 H   0  0  0  0  0  0
  1  2  1  0  0  0
  1 38  1  0  0  0
  1 39  1  0  0  0
  1 40  1  0  0  0
  2  3  1  0  0  0
  2 41  1  0  0  0
  2 42  1  0  0  0
  3  9  1  0  0  0
  3  4  2  0  0  0
  4  5  1  0  0  0
  4 43  1  0  0  0
  5  6  1  0  0  0
  5 11  1  0  0  0
  6  7  2  0  0  0
  6  8  1  0  0  0
  8 34  1  0  0  0
  8  9  1  0  0  0
  9 10  2  0  0  0
 11 35  1  0  0  0
 11 15  1  0  0  0
 11 12  1  0  0  0
 12 13  1  0  0  0
 12 44  1  0  0  0
 12 45  1  0  0  0
 13 36  1  0  0  0
 13 14  1  0  0  0
 13 33  1  0  0  0
 14 37  1  0  0  0
 14 15  1  0  0  0
 14 16  1  0  0  0
 16 17  1  0  0  0
 16 46  1  0  0  0
 16 47  1  0  0  0
 17 18  1  0  0  0
 17 48  1  0  0  0
 18 19  2  0  0  0
 18 20  1  0  0  0
 20 28  1  0  0  0
 20 21  1  0  0  0
 20 49  1  0  0  0
 21 26  2  0  0  0
 21 22  1  0  0  0
 22 23  2  0  0  0
 22 50  1  0  0  0
 23 24  1  0  0  0
 23 51  1  0  0  0
 24 25  2  0  0  0
 24 52  1  0  0  0
 25 26  1  0  0  0
 25 53  1  0  0  0
 26 27  1  0  0  0
 27 32  2  0  0  0
 27 28  1  0  0  0
 28 29  2  0  0  0
 29 30  1  0  0  0
 29 54  1  0  0  0
 30 31  2  0  0  0
 30 55  1  0  0  0
 31 32  1  0  0  0
 31 56  1  0  0  0
 32 57  1  0  0  0
 33 58  1  0  0  0
M  END
> <s_m_entry_id>
3236

> <s_m_entry_name>
ligand_docking-pose.25

> <s_m_Source_Path>
/home/csk/Desktop/cluster/DUD-E-result/kith

> <s_m_Source_File>
ligand_docking-pose.sdf

> <i_m_Source_File_Index>
25

> <i_lp_mmshare_version>
53161

> <r_lp_tautomer_probability>
0.999537046341301

> <s_lp_Force_Field>
OPLS_2005

> <r_lp_Energy>
53.080913

> <b_lp_Chiralities_Consistent>
1

> <s_lp_Variant>
294574-1

> <s_i_glide_gridfile>
glide-grid_2b8t

> <i_i_glide_lignum>
37

> <i_i_glide_rotatable_bonds>
7

> <r_i_docking_score>
-7.20942840124872

> <r_i_glide_ligand_efficiency>
-0.218467527310567

> <r_i_glide_ligand_efficiency_sa>
-0.700742093021229

> <r_i_glide_ligand_efficiency_ln>
-1.60333954801523

> <r_i_glide_gscore>
-7.20942840124872

> <r_i_glide_lipo>
-1.76342316781524

> <r_i_glide_hbond>
-0.309487666499021

> <r_i_glide_metal>
0

> <r_i_glide_rewards>
-2.53103622290447

> <r_i_glide_evdw>
-42.4921722412109

> <r_i_glide_ecoul>
-5.8596715927124

> <r_i_glide_erotb>
0.400017250073497

> <r_i_glide_esite>
-0.00193924313608262

> <r_i_glide_emodel>
-65.4866569690354

> <r_i_glide_energy>
-48.3518438339233

> <r_i_glide_einternal>
8.97228240966797

> <i_i_glide_confnum>
4

> <i_i_glide_posenum>
193

> <r_i_glide_eff_state_penalty>
0

> <i_f3d_flags>
0

> <s_user_duplicate_titles>
294574

> <s_m_subgroup_title>
dock_pv

> <s_m_subgroupid>
dock_pv1

> <b_m_subgroup_collapsed>
0

$$$$
256027
                    3D
 Schrodinger Suite 2021-1.
 32 34  0  0  1  0            999 V2000
  -12.7885    4.1383   33.5746 C   0  0  0  0  0  0
  -12.0286    4.7490   34.5721 C   0  0  0  0  0  0
  -10.7069    5.1260   34.3269 C   0  0  0  0  0  0
  -10.1588    4.9195   33.0566 C   0  0  0  0  0  0
  -10.9160    4.2996   32.0616 C   0  0  0  0  0  0
  -12.2276    3.9003   32.3207 C   0  0  0  0  0  0
  -10.3434    3.9740   30.8353 N   0  0  0  0  0  0
   -9.9289    4.8142   29.8654 C   0  0  0  0  0  0
   -9.3050    4.1980   28.7869 N   0  0  0  0  0  0
   -8.7405    4.7967   27.6860 C   0  0  0  0  0  0
   -9.0212    6.2185   27.7244 C   0  0  0  0  0  0
   -8.7241    7.1740   26.8250 N   0  0  0  0  0  0
   -9.2410    8.2694   27.3360 C   0  0  0  0  0  0
   -9.7888    8.0706   28.5478 N   0  0  0  0  0  0
   -9.6560    6.7471   28.8123 C   0  0  0  0  0  0
  -10.1053    6.0957   29.9163 N   0  0  0  0  0  0
   -8.0752    4.1688   26.8619 O   0  0  0  0  0  0
   -9.8580    5.6980   35.4550 C   0  0  0  0  0  0
   -9.6558    4.7172   36.6275 C   0  0  0  0  0  0
   -8.7396    5.1767   37.4780 F   0  0  0  0  0  0
   -9.2411    3.5333   36.1829 F   0  0  0  0  0  0
  -10.7710    4.5075   37.3277 F   0  0  0  0  0  0
   -9.2527    3.1893   28.7960 H   0  0  0  0  0  0
  -13.7991    3.8218   33.7801 H   0  0  0  0  0  0
  -12.4410    4.8977   35.5554 H   0  0  0  0  0  0
   -9.1386    5.2008   32.8500 H   0  0  0  0  0  0
  -12.8040    3.3958   31.5572 H   0  0  0  0  0  0
  -10.2455    8.7591   29.1284 H   0  0  0  0  0  0
   -9.2403    9.2492   26.8798 H   0  0  0  0  0  0
  -10.4439    2.9874   30.5829 H   0  0  0  0  0  0
  -10.3122    6.6237   35.8074 H   0  0  0  0  0  0
   -8.8788    5.9739   35.0637 H   0  0  0  0  0  0
  1  6  1  0  0  0
  1  2  2  0  0  0
  1 24  1  0  0  0
  2  3  1  0  0  0
  2 25  1  0  0  0
  3  4  2  0  0  0
  3 18  1  0  0  0
  4  5  1  0  0  0
  4 26  1  0  0  0
  5  6  2  0  0  0
  5  7  1  0  0  0
  6 27  1  0  0  0
  7  8  1  0  0  0
  7 30  1  0  0  0
  8 16  2  0  0  0
  8  9  1  0  0  0
  9 23  1  0  0  0
  9 10  1  0  0  0
 10 17  2  0  0  0
 10 11  1  0  0  0
 11 15  2  0  0  0
 11 12  1  0  0  0
 12 13  2  0  0  0
 13 29  1  0  0  0
 13 14  1  0  0  0
 14 28  1  0  0  0
 14 15  1  0  0  0
 15 16  1  0  0  0
 18 19  1  0  0  0
 18 31  1  0  0  0
 18 32  1  0  0  0
 19 20  1  0  0  0
 19 21  1  0  0  0
 19 22  1  0  0  0
M  END
> <s_m_entry_id>
3238

> <s_m_entry_name>
ligand_docking-pose.27

> <s_m_Source_Path>
/home/csk/Desktop/cluster/DUD-E-result/kith

> <s_m_Source_File>
ligand_docking-pose.sdf

> <i_m_Source_File_Index>
27

> <i_lp_mmshare_version>
53161

> <r_lp_tautomer_probability>
0.882445856688025

> <s_lp_Force_Field>
OPLS_2005

> <r_lp_Energy>
11.372891

> <b_lp_Chiralities_Consistent>
1

> <s_lp_Variant>
256027-1

> <s_i_glide_gridfile>
glide-grid_2b8t

> <i_i_glide_lignum>
116

> <i_i_glide_rotatable_bonds>
4

> <r_i_docking_score>
-7.14930891214573

> <r_i_glide_ligand_efficiency>
-0.324968586915715

> <r_i_glide_ligand_efficiency_sa>
-0.910574760827129

> <r_i_glide_ligand_efficiency_ln>
-1.74755187550716

> <r_i_glide_gscore>
-7.14930891214573

> <r_i_glide_lipo>
-1.52011314082983

> <r_i_glide_hbond>
-0.16

> <r_i_glide_metal>
0

> <r_i_glide_rewards>
-2.59654501082069

> <r_i_glide_evdw>
-30.3601093292236

> <r_i_glide_ecoul>
-10.7425365447998

> <r_i_glide_erotb>
0.58076081147647

> <r_i_glide_esite>
-0.324025623790528

> <r_i_glide_emodel>
-58.2347064791757

> <r_i_glide_energy>
-41.1026458740234

> <r_i_glide_einternal>
4.34111928939819

> <i_i_glide_confnum>
18

> <i_i_glide_posenum>
307

> <r_i_glide_eff_state_penalty>
0

> <i_f3d_flags>
0

> <s_user_duplicate_titles>
256027

> <s_m_subgroup_title>
dock_pv

> <s_m_subgroupid>
dock_pv1

> <b_m_subgroup_collapsed>
0

$$$$
65580
                    3D
 Schrodinger Suite 2021-1.
 64 68  0  0  1  0            999 V2000
   -6.5052    6.3500   36.7767 C   0  0  0  0  0  0
   -7.7169    5.8072   37.5508 C   0  0  0  0  0  0
   -8.9353    5.3735   36.7274 C   0  0  0  0  0  0
   -9.0896    5.5224   35.3910 C   0  0  0  0  0  0
  -10.2217    5.1502   34.6915 N   0  0  0  0  0  0
  -11.3311    4.6701   35.3569 C   0  0  0  0  0  0
  -12.4222    4.3763   34.8662 O   0  0  0  0  0  0
  -11.1281    4.4847   36.6921 N   0  0  0  0  0  0
  -10.0409    4.7605   37.4593 C   0  0  0  0  0  0
  -10.0491    4.5023   38.6572 O   0  0  0  0  0  0
  -10.2449    5.1227   33.2353 C   0  0  1  0  0  0
  -10.4060    3.7690   32.5463 C   0  0  0  0  0  0
  -11.0349    4.1723   31.2227 C   0  0  1  0  0  0
  -11.5584    5.6095   31.3817 C   0  0  2  0  0  0
  -11.2402    5.9573   32.7252 O   0  0  0  0  0  0
  -13.0806    5.7492   31.1912 C   0  0  0  0  0  0
  -13.4796    5.3829   29.8302 N   0  0  0  0  0  0
  -14.6471    4.8122   29.4857 C   0  0  0  0  0  0
  -15.5399    4.6055   30.3103 O   0  0  0  0  0  0
  -14.8042    4.3788   27.9970 C   0  0  0  0  0  0
  -15.9778    4.9983   27.2037 C   0  0  0  0  0  0
  -17.0428    5.6814   27.8290 C   0  0  0  0  0  0
  -18.0895    6.2379   27.1028 C   0  0  0  0  0  0
  -18.1102    6.1242   25.7223 C   0  0  0  0  0  0
  -17.0778    5.4544   25.0774 C   0  0  0  0  0  0
  -16.0076    4.8845   25.7839 C   0  0  0  0  0  0
  -14.9188    4.2279   24.9170 C   0  0  0  0  0  0
  -13.7997    3.3323   25.4940 C   0  0  0  0  0  0
  -14.2035    2.3533   26.5873 C   0  0  0  0  0  0
  -14.7390    2.8455   27.7963 C   0  0  0  0  0  0
  -15.1556    1.9067   28.7607 C   0  0  0  0  0  0
  -14.9977    0.5376   28.5635 C   0  0  0  0  0  0
  -14.4409    0.0679   27.3800 C   0  0  0  0  0  0
  -14.0634    0.9733   26.3944 C   0  0  0  0  0  0
  -10.1449    3.9819   30.1393 O   0  0  0  0  0  0
  -11.9154    4.1034   37.1887 H   0  0  0  0  0  0
   -9.2975    5.5696   32.9222 H   0  0  0  0  0  0
  -11.8896    3.5157   31.0545 H   0  0  0  0  0  0
  -11.0488    6.3001   30.7053 H   0  0  0  0  0  0
   -5.7413    6.7148   37.4662 H   0  0  0  0  0  0
   -6.0440    5.5750   36.1639 H   0  0  0  0  0  0
   -6.7827    7.1844   36.1284 H   0  0  0  0  0  0
   -8.0408    6.5745   38.2507 H   0  0  0  0  0  0
   -7.3909    4.9773   38.1833 H   0  0  0  0  0  0
   -8.3277    5.9656   34.7711 H   0  0  0  0  0  0
  -11.0803    3.1190   33.1051 H   0  0  0  0  0  0
   -9.4439    3.2626   32.4511 H   0  0  0  0  0  0
  -13.3970    6.7749   31.3836 H   0  0  0  0  0  0
  -13.5881    5.1073   31.9198 H   0  0  0  0  0  0
  -12.7956    5.5530   29.1068 H   0  0  0  0  0  0
  -13.9243    4.8132   27.5287 H   0  0  0  0  0  0
  -17.0847    5.7988   28.8992 H   0  0  0  0  0  0
  -18.8892    6.7542   27.6168 H   0  0  0  0  0  0
  -18.9211    6.5500   25.1508 H   0  0  0  0  0  0
  -17.1059    5.3833   24.0000 H   0  0  0  0  0  0
  -15.4460    3.6215   24.1781 H   0  0  0  0  0  0
  -14.4371    5.0248   24.3516 H   0  0  0  0  0  0
  -13.3774    2.7737   24.6590 H   0  0  0  0  0  0
  -12.9516    3.9212   25.8421 H   0  0  0  0  0  0
  -15.5861    2.2280   29.6953 H   0  0  0  0  0  0
  -15.2917   -0.1556   29.3365 H   0  0  0  0  0  0
  -14.2953   -0.9921   27.2203 H   0  0  0  0  0  0
  -13.6448    0.5877   25.4767 H   0  0  0  0  0  0
  -10.3981    3.1074   29.7844 H   0  0  0  0  0  0
  1  2  1  0  0  0
  1 40  1  0  0  0
  1 41  1  0  0  0
  1 42  1  0  0  0
  2  3  1  0  0  0
  2 43  1  0  0  0
  2 44  1  0  0  0
  3  9  1  0  0  0
  3  4  2  0  0  0
  4  5  1  0  0  0
  4 45  1  0  0  0
  5  6  1  0  0  0
  5 11  1  0  0  0
  6  7  2  0  0  0
  6  8  1  0  0  0
  8 36  1  0  0  0
  8  9  1  0  0  0
  9 10  2  0  0  0
 11 37  1  0  0  0
 11 15  1  0  0  0
 11 12  1  0  0  0
 12 13  1  0  0  0
 12 46  1  0  0  0
 12 47  1  0  0  0
 13 38  1  0  0  0
 13 14  1  0  0  0
 13 35  1  0  0  0
 14 39  1  0  0  0
 14 15  1  0  0  0
 14 16  1  0  0  0
 16 17  1  0  0  0
 16 48  1  0  0  0
 16 49  1  0  0  0
 17 18  1  0  0  0
 17 50  1  0  0  0
 18 19  2  0  0  0
 18 20  1  0  0  0
 20 30  1  0  0  0
 20 21  1  0  0  0
 20 51  1  0  0  0
 21 26  2  0  0  0
 21 22  1  0  0  0
 22 23  2  0  0  0
 22 52  1  0  0  0
 23 24  1  0  0  0
 23 53  1  0  0  0
 24 25  2  0  0  0
 24 54  1  0  0  0
 25 26  1  0  0  0
 25 55  1  0  0  0
 26 27  1  0  0  0
 27 28  1  0  0  0
 27 56  1  0  0  0
 27 57  1  0  0  0
 28 29  1  0  0  0
 28 58  1  0  0  0
 28 59  1  0  0  0
 29 34  2  0  0  0
 29 30  1  0  0  0
 30 31  2  0  0  0
 31 32  1  0  0  0
 31 60  1  0  0  0
 32 33  2  0  0  0
 32 61  1  0  0  0
 33 34  1  0  0  0
 33 62  1  0  0  0
 34 63  1  0  0  0
 35 64  1  0  0  0
M  END
> <s_m_entry_id>
3239

> <s_m_entry_name>
ligand_docking-pose.28

> <s_m_Source_Path>
/home/csk/Desktop/cluster/DUD-E-result/kith

> <s_m_Source_File>
ligand_docking-pose.sdf

> <i_m_Source_File_Index>
28

> <i_lp_mmshare_version>
53161

> <r_lp_tautomer_probability>
0.999537046341301

> <s_lp_Force_Field>
OPLS_2005

> <r_lp_Energy>
43.383059

> <b_lp_Chiralities_Consistent>
1

> <s_lp_Variant>
65580-1

> <s_i_glide_gridfile>
glide-grid_2b8t

> <i_i_glide_lignum>
102

> <i_i_glide_rotatable_bonds>
7

> <r_i_docking_score>
-6.93845293961051

> <r_i_glide_ligand_efficiency>
-0.1982415125603

> <r_i_glide_ligand_efficiency_sa>
-0.648461132248325

> <r_i_glide_ligand_efficiency_ln>
-1.5231444109107

> <r_i_glide_gscore>
-6.93845293961051

> <r_i_glide_lipo>
-1.81409355142196

> <r_i_glide_hbond>
-0.241124367952914

> <r_i_glide_metal>
0

> <r_i_glide_rewards>
-2.12340753192374

> <r_i_glide_evdw>
-41.5835266113281

> <r_i_glide_ecoul>
-6.87320041656494

> <r_i_glide_erotb>
0.358071493410187

> <r_i_glide_esite>
-0.00774258867093949

> <r_i_glide_emodel>
-64.5111203699112

> <r_i_glide_energy>
-48.4567270278931

> <r_i_glide_einternal>
8.92186164855957

> <i_i_glide_confnum>
2

> <i_i_glide_posenum>
275

> <r_i_glide_eff_state_penalty>
0

> <i_f3d_flags>
0

> <s_user_duplicate_titles>
65580

> <s_m_subgroup_title>
dock_pv

> <s_m_subgroupid>
dock_pv1

> <b_m_subgroup_collapsed>
0

$$$$
42503
                    3D
 Schrodinger Suite 2021-1.
 32 33  0  0  1  0            999 V2000
   -9.6404    5.1750   34.6784 C   0  0  0  0  0  0
   -9.4120    5.1240   36.0193 C   0  0  0  0  0  0
  -10.4935    4.6022   36.8547 C   0  0  0  0  0  0
  -10.4453    4.3741   38.0654 O   0  0  0  0  0  0
  -11.6410    4.3753   36.1664 N   0  0  0  0  0  0
  -11.9081    4.4644   34.8302 C   0  0  0  0  0  0
  -13.0368    4.2460   34.3977 O   0  0  0  0  0  0
  -10.8185    4.8013   34.0680 N   0  0  0  0  0  0
  -10.9934    4.7348   32.6198 C   0  0  1  0  0  0
  -11.8698    5.8047   31.9817 C   0  0  0  0  0  0
  -11.4512    5.6763   30.5269 C   0  0  1  0  0  0
   -9.9616    5.2751   30.5901 C   0  0  1  0  0  0
   -9.7915    4.7653   31.9165 O   0  0  0  0  0  0
   -9.4614    4.2558   29.5293 C   0  0  0  0  0  0
   -8.4363    3.4121   30.0145 O   0  0  0  0  0  0
  -12.3056    4.7698   29.8480 O   0  0  0  0  0  0
   -8.2094    5.5914   36.7078 C   0  0  0  0  0  0
   -7.1328    6.1764   36.1615 C   0  0  0  0  0  0
   -5.6512    6.7680   37.3247 Br  0  0  0  0  0  0
  -12.4204    4.0846   36.7345 H   0  0  0  0  0  0
  -11.4194    3.7410   32.4368 H   0  0  0  0  0  0
  -11.5483    6.6459   30.0354 H   0  0  0  0  0  0
   -9.3142    6.1517   30.5742 H   0  0  0  0  0  0
   -8.9183    5.5692   33.9786 H   0  0  0  0  0  0
  -12.9295    5.6069   32.1528 H   0  0  0  0  0  0
  -11.6411    6.7738   32.4161 H   0  0  0  0  0  0
  -10.2503    3.5740   29.2208 H   0  0  0  0  0  0
   -9.1433    4.7711   28.6233 H   0  0  0  0  0  0
   -8.8648    2.6526   30.4402 H   0  0  0  0  0  0
  -12.0970    3.8646   30.1153 H   0  0  0  0  0  0
   -8.1697    5.4709   37.7828 H   0  0  0  0  0  0
   -6.9802    6.3742   35.1103 H   0  0  0  0  0  0
  1  8  1  0  0  0
  1  2  2  0  0  0
  1 24  1  0  0  0
  2  3  1  0  0  0
  2 17  1  0  0  0
  3  4  2  0  0  0
  3  5  1  0  0  0
  5 20  1  0  0  0
  5  6  1  0  0  0
  6  7  2  0  0  0
  6  8  1  0  0  0
  8  9  1  0  0  0
  9 21  1  0  0  0
  9 13  1  0  0  0
  9 10  1  0  0  0
 10 11  1  0  0  0
 10 25  1  0  0  0
 10 26  1  0  0  0
 11 22  1  0  0  0
 11 12  1  0  0  0
 11 16  1  0  0  0
 12 23  1  0  0  0
 12 13  1  0  0  0
 12 14  1  0  0  0
 14 15  1  0  0  0
 14 27  1  0  0  0
 14 28  1  0  0  0
 15 29  1  0  0  0
 16 30  1  0  0  0
 17 18  2  0  0  0
 17 31  1  0  0  0
 18 19  1  0  0  0
 18 32  1  0  0  0
M  END
> <s_m_entry_id>
3240

> <s_m_entry_name>
ligand_docking-pose.29

> <s_m_Source_Path>
/home/csk/Desktop/cluster/DUD-E-result/kith

> <s_m_Source_File>
ligand_docking-pose.sdf

> <i_m_Source_File_Index>
29

> <i_lp_mmshare_version>
53161

> <r_lp_tautomer_probability>
1

> <s_lp_Force_Field>
OPLS_2005

> <r_lp_Energy>
31.730965

> <b_lp_Chiralities_Consistent>
1

> <s_lp_Variant>
42503-1

> <s_i_glide_gridfile>
glide-grid_2b8t

> <i_i_glide_lignum>
101

> <i_i_glide_rotatable_bonds>
5

> <r_i_docking_score>
-6.93828429180981

> <r_i_glide_ligand_efficiency>
-0.365172857463674

> <r_i_glide_ligand_efficiency_sa>
-0.97442785396819

> <r_i_glide_ligand_efficiency_ln>
-1.75900408865649

> <r_i_glide_gscore>
-6.93828429180981

> <r_i_glide_lipo>
-1.86477267376516

> <r_i_glide_hbond>
-0.183203198045946

> <r_i_glide_metal>
0

> <r_i_glide_rewards>
-2.36698346049291

> <r_i_glide_evdw>
-30.3617210388184

> <r_i_glide_ecoul>
-9.07870578765869

> <r_i_glide_erotb>
0.356566960583927

> <r_i_glide_esite>
0

> <r_i_glide_emodel>
-53.6004891119816

> <r_i_glide_energy>
-39.4404268264771

> <r_i_glide_einternal>
4.7902889251709

> <i_i_glide_confnum>
143

> <i_i_glide_posenum>
11

> <r_i_glide_eff_state_penalty>
0

> <i_f3d_flags>
0

> <s_user_duplicate_titles>
42503

> <s_m_subgroup_title>
dock_pv

> <s_m_subgroupid>
dock_pv1

> <b_m_subgroup_collapsed>
0

$$$$
81256
                    3D
 Schrodinger Suite 2021-1.
 26 28  0  0  1  0            999 V2000
  -12.8413    2.6198   32.4727 C   0  0  0  0  0  0
  -11.6369    3.1096   32.9837 C   0  0  0  0  0  0
  -11.4984    4.4684   33.2741 C   0  0  0  0  0  0
  -12.5634    5.3264   33.0216 C   0  0  0  0  0  0
  -13.7664    4.8460   32.5051 C   0  0  0  0  0  0
  -13.9065    3.4864   32.2328 C   0  0  0  0  0  0
  -15.0787    5.9291   32.2108 Cl  0  0  0  0  0  0
  -10.3225    4.9836   33.8252 N   0  0  0  0  0  0
   -9.9375    5.0000   35.1880 C   0  0  0  0  0  0
  -10.7360    4.3740   36.1279 N   0  0  0  0  0  0
  -10.4982    4.1813   37.4608 C   0  0  0  0  0  0
   -9.2412    4.8003   37.8087 C   0  0  0  0  0  0
   -8.5520    4.8797   38.9829 N   0  0  0  0  0  0
   -7.4286    5.6029   38.6770 C   0  0  0  0  0  0
   -7.3696    5.9742   37.4149 N   0  0  0  0  0  0
   -8.4762    5.4902   36.8696 C   0  0  0  0  0  0
   -8.8399    5.5740   35.5559 N   0  0  0  0  0  0
  -11.2784    3.5742   38.1828 O   0  0  0  0  0  0
  -11.6025    3.9772   35.8024 H   0  0  0  0  0  0
  -12.9359    1.5709   32.2332 H   0  0  0  0  0  0
  -10.8130    2.4286   33.1446 H   0  0  0  0  0  0
  -12.4411    6.3739   33.2350 H   0  0  0  0  0  0
  -14.8316    3.1052   31.8261 H   0  0  0  0  0  0
   -9.7387    5.5191   33.2007 H   0  0  0  0  0  0
   -6.7058    5.8112   39.4447 H   0  0  0  0  0  0
   -8.8074    4.4703   39.8845 H   0  0  0  0  0  0
  1  6  1  0  0  0
  1  2  2  0  0  0
  1 20  1  0  0  0
  2  3  1  0  0  0
  2 21  1  0  0  0
  3  4  2  0  0  0
  3  8  1  0  0  0
  4  5  1  0  0  0
  4 22  1  0  0  0
  5  6  2  0  0  0
  5  7  1  0  0  0
  6 23  1  0  0  0
  8  9  1  0  0  0
  8 24  1  0  0  0
  9 17  2  0  0  0
  9 10  1  0  0  0
 10 19  1  0  0  0
 10 11  1  0  0  0
 11 18  2  0  0  0
 11 12  1  0  0  0
 12 16  2  0  0  0
 12 13  1  0  0  0
 13 14  1  0  0  0
 13 26  1  0  0  0
 14 25  1  0  0  0
 14 15  2  0  0  0
 15 16  1  0  0  0
 16 17  1  0  0  0
M  END
> <s_m_entry_id>
3241

> <s_m_entry_name>
ligand_docking-pose.30

> <s_m_Source_Path>
/home/csk/Desktop/cluster/DUD-E-result/kith

> <s_m_Source_File>
ligand_docking-pose.sdf

> <i_m_Source_File_Index>
30

> <i_lp_mmshare_version>
53161

> <r_lp_tautomer_probability>
0.116206038698038

> <s_lp_Force_Field>
OPLS_2005

> <r_lp_Energy>
20.368545

> <b_lp_Chiralities_Consistent>
1

> <s_lp_Variant>
81256-2

> <s_i_glide_gridfile>
glide-grid_2b8t

> <i_i_glide_lignum>
113

> <i_i_glide_rotatable_bonds>
2

> <r_i_docking_score>
-6.89169214727604

> <r_i_glide_ligand_efficiency>
-0.38287178595978

> <r_i_glide_ligand_efficiency_sa>
-1.00340793717274

> <r_i_glide_ligand_efficiency_ln>
-1.77147393003977

> <r_i_glide_gscore>
-6.89169214727604

> <r_i_glide_lipo>
-0.992005153858991

> <r_i_glide_hbond>
-0.608

> <r_i_glide_metal>
0

> <r_i_glide_rewards>
-3.44994003022675

> <r_i_glide_evdw>
-29.6612167358398

> <r_i_glide_ecoul>
-5.84305572509766

> <r_i_glide_erotb>
0.517772232366334

> <r_i_glide_esite>
0

> <r_i_glide_emodel>
-48.7488992578616

> <r_i_glide_energy>
-35.5042724609375

> <r_i_glide_einternal>
2.73064303398132

> <i_i_glide_confnum>
3

> <i_i_glide_posenum>
348

> <r_i_glide_eff_state_penalty>
0

> <i_f3d_flags>
0

> <s_user_duplicate_titles>
81256

> <s_m_subgroup_title>
dock_pv

> <s_m_subgroupid>
dock_pv1

> <b_m_subgroup_collapsed>
0

$$$$
51462
                    3D
 Schrodinger Suite 2021-1.
 42 45  0  0  1  0            999 V2000
  -10.3683    4.4643   35.6031 C   0  0  0  0  0  0
  -11.3148    5.4622   35.3907 C   0  0  0  0  0  0
  -11.9280    5.5751   34.1476 C   0  0  0  0  0  0
  -11.5771    4.7058   33.1174 C   0  0  0  0  0  0
  -10.6513    3.6823   33.3390 C   0  0  0  0  0  0
  -10.0410    3.5740   34.5830 C   0  0  0  0  0  0
  -12.1490    4.8896   31.8542 N   0  0  0  0  0  0
  -11.4981    4.9147   30.6692 C   0  0  0  0  0  0
  -12.1625    4.8366   29.5632 N   0  0  0  0  0  0
  -11.3649    4.7740   28.4521 C   0  0  0  0  0  0
  -10.0003    4.8696   28.4039 C   0  0  0  0  0  0
   -9.2516    5.0448   29.6283 C   0  0  0  0  0  0
  -10.1150    5.0373   30.6864 N   0  0  0  0  0  0
   -8.0410    5.1740   29.7830 O   0  0  0  0  0  0
   -9.5337    4.7740   27.1494 N   0  0  0  0  0  0
  -10.6146    4.5666   26.4376 C   0  0  0  0  0  0
  -11.7550    4.5280   27.1641 N   0  0  0  0  0  0
  -13.1720    4.2831   26.6781 C   0  0  1  0  0  0
  -13.2722    3.5625   25.3412 C   0  0  0  0  0  0
  -14.6737    2.9929   25.4271 C   0  0  2  0  0  0
  -14.8088    2.6267   26.9090 C   0  0  1  0  0  0
  -13.8673    3.4630   27.5688 O   0  0  0  0  0  0
  -16.2093    2.7678   27.5438 C   0  0  0  0  0  0
  -16.8410    4.0009   27.2491 O   0  0  0  0  0  0
  -14.8410    1.8733   24.5830 O   0  0  0  0  0  0
   -9.8875    4.3778   36.5664 H   0  0  0  0  0  0
  -11.5657    6.1520   36.1830 H   0  0  0  0  0  0
  -12.6347    6.3707   33.9801 H   0  0  0  0  0  0
  -10.3961    2.9837   32.5520 H   0  0  0  0  0  0
   -9.3138    2.7953   34.7592 H   0  0  0  0  0  0
  -13.1553    4.9488   31.8225 H   0  0  0  0  0  0
   -9.6770    5.1026   31.5920 H   0  0  0  0  0  0
  -10.6369    4.4140   25.3688 H   0  0  0  0  0  0
  -13.6772    5.2509   26.6433 H   0  0  0  0  0  0
  -12.5188    2.7740   25.3210 H   0  0  0  0  0  0
  -13.1179    4.2468   24.5069 H   0  0  0  0  0  0
  -15.3857    3.7751   25.1572 H   0  0  0  0  0  0
  -14.4445    1.6123   27.0857 H   0  0  0  0  0  0
  -16.1583    2.6337   28.6250 H   0  0  0  0  0  0
  -16.8516    1.9740   27.1619 H   0  0  0  0  0  0
  -17.7982    3.8472   27.2276 H   0  0  0  0  0  0
  -14.4410    2.0528   23.7131 H   0  0  0  0  0  0
  1  6  1  0  0  0
  1  2  2  0  0  0
  1 26  1  0  0  0
  2  3  1  0  0  0
  2 27  1  0  0  0
  3  4  2  0  0  0
  3 28  1  0  0  0
  4  5  1  0  0  0
  4  7  1  0  0  0
  5  6  2  0  0  0
  5 29  1  0  0  0
  6 30  1  0  0  0
  7  8  1  0  0  0
  7 31  1  0  0  0
  8  9  2  0  0  0
  8 13  1  0  0  0
  9 10  1  0  0  0
 10 17  1  0  0  0
 10 11  2  0  0  0
 11 12  1  0  0  0
 11 15  1  0  0  0
 12 13  1  0  0  0
 12 14  2  0  0  0
 13 32  1  0  0  0
 15 16  2  0  0  0
 16 33  1  0  0  0
 16 17  1  0  0  0
 17 18  1  0  0  0
 18 22  1  0  0  0
 18 19  1  0  0  0
 18 34  1  0  0  0
 19 20  1  0  0  0
 19 35  1  0  0  0
 19 36  1  0  0  0
 20 21  1  0  0  0
 20 25  1  0  0  0
 20 37  1  0  0  0
 21 22  1  0  0  0
 21 23  1  0  0  0
 21 38  1  0  0  0
 23 24  1  0  0  0
 23 39  1  0  0  0
 23 40  1  0  0  0
 24 41  1  0  0  0
 25 42  1  0  0  0
M  END
> <s_m_entry_id>
3242

> <s_m_entry_name>
ligand_docking-pose.31

> <s_m_Source_Path>
/home/csk/Desktop/cluster/DUD-E-result/kith

> <s_m_Source_File>
ligand_docking-pose.sdf

> <i_m_Source_File_Index>
31

> <i_lp_mmshare_version>
53161

> <r_lp_tautomer_probability>
0.999940409345307

> <s_lp_Force_Field>
OPLS_2005

> <r_lp_Energy>
39.232781

> <b_lp_Chiralities_Consistent>
1

> <s_lp_Variant>
51462-4

> <s_i_glide_gridfile>
glide-grid_2b8t

> <i_i_glide_lignum>
106

> <i_i_glide_rotatable_bonds>
6

> <r_i_docking_score>
-6.84099967912679

> <r_i_glide_ligand_efficiency>
-0.273639987165072

> <r_i_glide_ligand_efficiency_sa>
-0.800128175496506

> <r_i_glide_ligand_efficiency_ln>
-1.62152193217029

> <r_i_glide_gscore>
-6.84099967912679

> <r_i_glide_lipo>
-1.24820726614329

> <r_i_glide_hbond>
-0.760794239734127

> <r_i_glide_metal>
0

> <r_i_glide_rewards>
-1.46815490909091

> <r_i_glide_evdw>
-25.5778503417969

> <r_i_glide_ecoul>
-16.6092720031738

> <r_i_glide_erotb>
0.643829483735147

> <r_i_glide_esite>
-0.237389430327691

> <r_i_glide_emodel>
-56.204361548975

> <r_i_glide_energy>
-42.1871223449707

> <r_i_glide_einternal>
7.44544219970703

> <i_i_glide_confnum>
70

> <i_i_glide_posenum>
303

> <r_i_glide_eff_state_penalty>
0

> <i_f3d_flags>
0

> <s_user_duplicate_titles>
51462

> <s_m_subgroup_title>
dock_pv

> <s_m_subgroupid>
dock_pv1

> <b_m_subgroup_collapsed>
0

$$$$
430599
                    3D
 Schrodinger Suite 2021-1.
 29 31  0  0  1  0            999 V2000
  -13.0714    2.5750   32.5953 C   0  0  0  0  0  0
  -14.0047    3.3930   31.9621 C   0  0  0  0  0  0
  -13.8046    4.7763   31.9034 C   0  0  0  0  0  0
  -12.6550    5.3149   32.4922 C   0  0  0  0  0  0
  -11.7356    4.5142   33.1681 C   0  0  0  0  0  0
  -11.9445    3.1336   33.2009 C   0  0  0  0  0  0
  -10.6175    5.1129   33.7618 N   0  0  0  0  0  0
  -10.1227    5.0231   35.0887 C   0  0  0  0  0  0
  -10.8491    4.3741   36.0768 N   0  0  0  0  0  0
  -10.5194    4.1812   37.3943 C   0  0  0  0  0  0
  -11.2415    3.5771   38.1826 O   0  0  0  0  0  0
   -9.2421    4.8043   37.6548 C   0  0  0  0  0  0
   -8.5376    5.4830   36.6662 C   0  0  0  0  0  0
   -8.9927    5.5737   35.3841 N   0  0  0  0  0  0
   -7.3986    5.9737   37.1331 N   0  0  0  0  0  0
   -7.3742    5.6167   38.3993 C   0  0  0  0  0  0
   -8.4781    4.8968   38.7802 N   0  0  0  0  0  0
  -14.8166    5.6906   31.2116 C   0  0  0  0  0  0
  -15.6359    6.2004   32.1325 F   0  0  0  0  0  0
  -15.5498    5.0276   30.3143 F   0  0  0  0  0  0
  -14.2066    6.6968   30.5812 F   0  0  0  0  0  0
  -11.7441    3.9919   35.8165 H   0  0  0  0  0  0
  -10.0672    5.6867   33.1420 H   0  0  0  0  0  0
  -13.2199    1.5045   32.6073 H   0  0  0  0  0  0
  -14.8753    2.9428   31.5085 H   0  0  0  0  0  0
  -12.4743    6.3739   32.4366 H   0  0  0  0  0  0
  -11.2195    2.4880   33.6732 H   0  0  0  0  0  0
   -8.6787    4.4899   39.6900 H   0  0  0  0  0  0
   -6.5917    5.8225   39.1081 H   0  0  0  0  0  0
  1  6  1  0  0  0
  1  2  2  0  0  0
  1 24  1  0  0  0
  2  3  1  0  0  0
  2 25  1  0  0  0
  3  4  2  0  0  0
  3 18  1  0  0  0
  4  5  1  0  0  0
  4 26  1  0  0  0
  5  6  2  0  0  0
  5  7  1  0  0  0
  6 27  1  0  0  0
  7  8  1  0  0  0
  7 23  1  0  0  0
  8 14  2  0  0  0
  8  9  1  0  0  0
  9 22  1  0  0  0
  9 10  1  0  0  0
 10 11  2  0  0  0
 10 12  1  0  0  0
 12 13  2  0  0  0
 12 17  1  0  0  0
 13 15  1  0  0  0
 13 14  1  0  0  0
 15 16  2  0  0  0
 16 29  1  0  0  0
 16 17  1  0  0  0
 17 28  1  0  0  0
 18 19  1  0  0  0
 18 20  1  0  0  0
 18 21  1  0  0  0
M  END
> <s_m_entry_id>
3243

> <s_m_entry_name>
ligand_docking-pose.32

> <s_m_Source_Path>
/home/csk/Desktop/cluster/DUD-E-result/kith

> <s_m_Source_File>
ligand_docking-pose.sdf

> <i_m_Source_File_Index>
32

> <i_lp_mmshare_version>
53161

> <r_lp_tautomer_probability>
0.116206038698038

> <s_lp_Force_Field>
OPLS_2005

> <r_lp_Energy>
21.519817

> <b_lp_Chiralities_Consistent>
1

> <s_lp_Variant>
430599-2

> <s_i_glide_gridfile>
glide-grid_2b8t

> <i_i_glide_lignum>
69

> <i_i_glide_rotatable_bonds>
3

> <r_i_docking_score>
-6.84063343910569

> <r_i_glide_ligand_efficiency>
-0.325744449481223

> <r_i_glide_ligand_efficiency_sa>
-0.898704236083664

> <r_i_glide_ligand_efficiency_ln>
-1.69133279501748

> <r_i_glide_gscore>
-6.84063343910569

> <r_i_glide_lipo>
-0.945761915282105

> <r_i_glide_hbond>
-0.608

> <r_i_glide_metal>
0

> <r_i_glide_rewards>
-3.4680554943011

> <r_i_glide_evdw>
-32.6070976257324

> <r_i_glide_ecoul>
-4.05616283416748

> <r_i_glide_erotb>
0.419963276889262

> <r_i_glide_esite>
0

> <r_i_glide_emodel>
-51.1294210015024

> <r_i_glide_energy>
-36.6632604598999

> <r_i_glide_einternal>
1.50996530056

> <i_i_glide_confnum>
3

> <i_i_glide_posenum>
394

> <r_i_glide_eff_state_penalty>
0

> <i_f3d_flags>
0

> <s_user_duplicate_titles>
430599

> <s_m_subgroup_title>
dock_pv

> <s_m_subgroupid>
dock_pv1

> <b_m_subgroup_collapsed>
0

$$$$
