CHEMBL267_lig104
                    3D
 Schrodinger Suite 2021-1.
 52 56  0  0  1  0            999 V2000
    5.4504    9.3447    5.7740 N   0  0  0  0  0  0
    6.4313    8.5548    6.3490 C   0  0  0  0  0  0
    5.7925    7.5905    7.1813 C   0  0  0  0  0  0
    4.3779    7.8720    7.1541 C   0  0  0  0  0  0
    4.2303    8.9141    6.2527 C   0  0  0  0  0  0
    5.6592   10.3674    4.7419 C   0  0  2  0  0  0
    7.7505    8.6403    6.1354 N   0  0  0  0  0  0
    6.6601    6.6265    7.7366 C   0  0  0  0  0  0
    4.8152   11.6466    4.9284 C   0  0  0  0  0  0
    5.3339    9.8369    3.3357 C   0  0  0  0  0  0
    8.0031    6.7071    7.5870 N   0  0  0  0  0  0
    3.2830    7.1845    7.8868 C   0  0  0  0  0  0
    4.0070   11.8515    3.6334 C   0  0  1  0  0  0
    4.7409   11.0152    2.5565 C   0  0  1  0  0  0
    8.4704    7.7176    6.8155 C   0  0  0  0  0  0
    0.3079    5.0709    9.8718 O   0  0  0  0  0  0
    3.4427    6.8246    9.2268 C   0  0  0  0  0  0
    2.1066    6.8549    7.2093 C   0  0  0  0  0  0
    6.1856    5.4936    8.3882 N   0  0  0  0  0  0
    1.2773    5.7687    9.1969 C   0  0  0  0  0  0
    5.7758   11.7678    1.9513 O   0  0  0  0  0  0
    2.6793   11.3761    3.7742 O   0  0  0  0  0  0
    2.4361    6.1249    9.8829 C   0  0  0  0  0  0
    1.1041    6.1483    7.8634 C   0  0  0  0  0  0
   -0.2236    3.9307    9.3154 C   0  0  0  0  0  0
   -1.6092    3.8126    9.2745 C   0  0  0  0  0  0
    0.5819    2.8824    8.8549 C   0  0  0  0  0  0
   -0.0125    1.7106    8.3882 C   0  0  0  0  0  0
   -2.2018    2.6480    8.8023 C   0  0  0  0  0  0
   -1.4006    1.5936    8.3808 C   0  0  0  0  0  0
    3.3272    9.3996    5.9116 H   0  0  0  0  0  0
    6.7107   10.6552    4.8118 H   0  0  0  0  0  0
    4.1973   11.6641    5.8275 H   0  0  0  0  0  0
    5.5056   12.4858    5.0341 H   0  0  0  0  0  0
    6.1973    9.4008    2.8352 H   0  0  0  0  0  0
    4.5727    9.0561    3.3887 H   0  0  0  0  0  0
    3.9746   12.9061    3.3520 H   0  0  0  0  0  0
    4.0663   10.6595    1.7743 H   0  0  0  0  0  0
    9.5430    7.7774    6.7021 H   0  0  0  0  0  0
    4.3438    7.0837    9.7633 H   0  0  0  0  0  0
    1.9766    7.1218    6.1705 H   0  0  0  0  0  0
    5.1895    5.3784    8.5097 H   0  0  0  0  0  0
    6.8427    4.8173    8.7589 H   0  0  0  0  0  0
    5.4072   12.3272    1.2582 H   0  0  0  0  0  0
    2.6354   10.4678    3.4668 H   0  0  0  0  0  0
    2.5635    5.8366   10.9170 H   0  0  0  0  0  0
    0.1994    5.8832    7.3365 H   0  0  0  0  0  0
   -2.2256    4.6344    9.6007 H   0  0  0  0  0  0
    1.6578    2.9667    8.8944 H   0  0  0  0  0  0
    0.5915    0.8797    8.0585 H   0  0  0  0  0  0
   -3.2786    2.5560    8.7785 H   0  0  0  0  0  0
   -1.8659    0.6863    8.0224 H   0  0  0  0  0  0
  1  2  1  0  0  0
  1  5  1  0  0  0
  1  6  1  0  0  0
  2  3  1  0  0  0
  2  7  2  0  0  0
  3  8  2  0  0  0
  3  4  1  0  0  0
  4  5  2  0  0  0
  4 12  1  0  0  0
  5 31  1  0  0  0
  6  9  1  0  0  0
  6 10  1  0  0  0
  6 32  1  0  0  0
  7 15  1  0  0  0
  8 19  1  0  0  0
  8 11  1  0  0  0
  9 13  1  0  0  0
  9 33  1  0  0  0
  9 34  1  0  0  0
 10 14  1  0  0  0
 10 35  1  0  0  0
 10 36  1  0  0  0
 11 15  2  0  0  0
 12 17  2  0  0  0
 12 18  1  0  0  0
 13 22  1  0  0  0
 13 14  1  0  0  0
 13 37  1  0  0  0
 14 21  1  0  0  0
 14 38  1  0  0  0
 15 39  1  0  0  0
 16 20  1  0  0  0
 16 25  1  0  0  0
 17 23  1  0  0  0
 17 40  1  0  0  0
 18 24  2  0  0  0
 18 41  1  0  0  0
 19 42  1  0  0  0
 19 43  1  0  0  0
 20 24  1  0  0  0
 20 23  2  0  0  0
 21 44  1  0  0  0
 22 45  1  0  0  0
 23 46  1  0  0  0
 24 47  1  0  0  0
 25 26  2  0  0  0
 25 27  1  0  0  0
 26 29  1  0  0  0
 26 48  1  0  0  0
 27 28  2  0  0  0
 27 49  1  0  0  0
 28 30  1  0  0  0
 28 50  1  0  0  0
 29 30  2  0  0  0
 29 51  1  0  0  0
 30 52  1  0  0  0
M  END
> <s_m_entry_id>
31739

> <s_m_entry_name>
dock_pv.2

> <s_m_Source_Path>
/home/csk/Desktop/cluster/DUD-E-result/src

> <s_m_Source_File>
dock_pv.maegz

> <i_m_Source_File_Index>
2

> <chembl_id>
CHEMBL69827

> <chembl_pref_name>
None

> <i_lp_mmshare_version>
53161

> <r_lp_tautomer_probability>
1

> <s_lp_Force_Field>
OPLS_2005

> <r_lp_Energy>
43.965024

> <b_lp_Chiralities_Consistent>
1

> <s_lp_Variant>
CHEMBL267_lig104-1

> <s_i_glide_gridfile>
glide-grid_3el8

> <i_i_glide_lignum>
145

> <i_i_glide_rotatable_bonds>
6

> <r_i_docking_score>
-9.8653455789253

> <r_i_glide_ligand_efficiency>
-0.328844852630843

> <r_i_glide_ligand_efficiency_sa>
-1.02179741435172

> <r_i_glide_ligand_efficiency_ln>
-2.24151400708131

> <r_i_glide_gscore>
-9.8653455789253

> <r_i_glide_lipo>
-3.56160846277577

> <r_i_glide_hbond>
-0.598361565119162

> <r_i_glide_metal>
0

> <r_i_glide_rewards>
-2.62973236692662

> <r_i_glide_evdw>
-45.67529296875

> <r_i_glide_ecoul>
-7.54089689254761

> <r_i_glide_erotb>
0.339255998215899

> <r_i_glide_esite>
0

> <r_i_glide_emodel>
-78.7109786395156

> <r_i_glide_energy>
-53.2161898612976

> <r_i_glide_einternal>
7.01938152313232

> <i_i_glide_confnum>
7

> <i_i_glide_posenum>
170

> <r_i_glide_eff_state_penalty>
0

> <s_user_duplicate_titles>
CHEMBL267_lig104,107683

> <i_f3d_flags>
0

> <s_m_subgroup_title>
dock_pv

> <s_m_subgroupid>
dock_pv

> <b_m_subgroup_collapsed>
1

$$$$
CHEMBL267_lig1520
                    3D
 Schrodinger Suite 2021-1.
 51 54  0  0  1  0            999 V2000
    7.7919    6.6367    7.1879 N   0  0  0  0  0  0
    6.9982    5.8916    7.9881 C   0  0  0  0  0  0
    5.7085    6.1261    8.3308 N   0  0  0  0  0  0
    7.2103    7.6891    6.5667 C   0  0  0  0  0  0
    5.8385    7.9885    6.7378 C   0  0  0  0  0  0
    5.1476    7.1484    7.6671 C   0  0  0  0  0  0
    3.8142    7.5500    7.7172 N   0  0  0  0  0  0
    3.6899    8.6350    6.8666 C   0  0  0  0  0  0
    4.8846    8.9434    6.2316 C   0  0  0  0  0  0
    5.1236   10.0514    5.2622 C   0  0  0  0  0  0
    4.7309   11.3523    5.5878 C   0  0  0  0  0  0
    5.0615   12.4146    4.7513 C   0  0  0  0  0  0
    5.7696   12.1713    3.5773 C   0  0  0  0  0  0
    6.1231   10.8732    3.2201 C   0  0  0  0  0  0
    5.7980    9.8118    4.0622 C   0  0  0  0  0  0
    2.7342    7.0162    8.5844 C   0  0  1  0  0  0
    8.0400    8.4274    5.7321 N   0  0  0  0  0  0
    1.3079    7.1788    8.0197 C   0  0  0  0  0  0
    0.5173    6.1316    8.6562 N   0  0  2  0  0  0
    1.4035    4.9826    8.6096 C   0  0  1  0  0  0
    2.7943    5.5178    8.9450 C   0  0  0  0  0  0
    0.9998    3.7195    9.3973 C   0  0  0  0  0  0
   -0.1460    2.9063    8.7880 C   0  0  0  0  0  0
    0.1159    1.5839    8.7360 O   0  0  0  0  0  0
   -1.1790    3.4370    8.3881 O   0  0  0  0  0  0
   -0.9146    0.6711    8.3648 C   0  0  0  0  0  0
   -0.3104   -0.6832    7.9885 C   0  0  0  0  0  0
    6.1346   13.2162    2.7746 O   0  0  0  0  0  0
    7.4581    5.0376    8.4588 H   0  0  0  0  0  0
    2.7354    9.1304    6.7737 H   0  0  0  0  0  0
    4.2017   11.5485    6.5074 H   0  0  0  0  0  0
    4.7833   13.4216    5.0247 H   0  0  0  0  0  0
    6.6655   10.6966    2.3044 H   0  0  0  0  0  0
    6.0869    8.8072    3.7922 H   0  0  0  0  0  0
    2.8229    7.6184    9.4909 H   0  0  0  0  0  0
    7.6723    9.2394    5.2589 H   0  0  0  0  0  0
    8.9928    8.1122    5.6014 H   0  0  0  0  0  0
    0.9053    8.1760    8.2006 H   0  0  0  0  0  0
    1.3002    7.0267    6.9375 H   0  0  0  0  0  0
   -0.3603    5.9173    8.1818 H   0  0  0  0  0  0
    1.4729    4.6255    7.5868 H   0  0  0  0  0  0
    3.0662    5.3513    9.9884 H   0  0  0  0  0  0
    3.4992    4.9917    8.3050 H   0  0  0  0  0  0
    0.7100    3.9986   10.4090 H   0  0  0  0  0  0
    1.8598    3.0582    9.4966 H   0  0  0  0  0  0
   -1.4861    1.0527    7.5174 H   0  0  0  0  0  0
   -1.6192    0.5562    9.1884 H   0  0  0  0  0  0
   -1.0816   -1.3742    7.6479 H   0  0  0  0  0  0
    0.1971   -1.1403    8.8372 H   0  0  0  0  0  0
    0.4201   -0.5736    7.1883 H   0  0  0  0  0  0
    5.9076   14.0762    3.1390 H   0  0  0  0  0  0
  1  2  2  0  0  0
  1  4  1  0  0  0
  2  3  1  0  0  0
  2 29  1  0  0  0
  3  6  2  0  0  0
  4  5  2  0  0  0
  4 17  1  0  0  0
  5  9  1  0  0  0
  5  6  1  0  0  0
  6  7  1  0  0  0
  7 16  1  0  0  0
  7  8  1  0  0  0
  8  9  2  0  0  0
  8 30  1  0  0  0
  9 10  1  0  0  0
 10 15  1  0  0  0
 10 11  2  0  0  0
 11 12  1  0  0  0
 11 31  1  0  0  0
 12 13  2  0  0  0
 12 32  1  0  0  0
 13 14  1  0  0  0
 13 28  1  0  0  0
 14 15  2  0  0  0
 14 33  1  0  0  0
 15 34  1  0  0  0
 16 18  1  0  0  0
 16 21  1  0  0  0
 16 35  1  0  0  0
 17 36  1  0  0  0
 17 37  1  0  0  0
 18 19  1  0  0  0
 18 38  1  0  0  0
 18 39  1  0  0  0
 19 20  1  0  0  0
 19 40  1  0  0  0
 20 21  1  0  0  0
 20 22  1  0  0  0
 20 41  1  0  0  0
 21 42  1  0  0  0
 21 43  1  0  0  0
 22 23  1  0  0  0
 22 44  1  0  0  0
 22 45  1  0  0  0
 23 24  1  0  0  0
 23 25  2  0  0  0
 24 26  1  0  0  0
 26 27  1  0  0  0
 26 46  1  0  0  0
 26 47  1  0  0  0
 27 48  1  0  0  0
 27 49  1  0  0  0
 27 50  1  0  0  0
 28 51  1  0  0  0
M  END
> <s_m_entry_id>
31740

> <s_m_entry_name>
dock_pv.3

> <s_m_Source_Path>
/home/csk/Desktop/cluster/DUD-E-result/src

> <s_m_Source_File>
dock_pv.maegz

> <i_m_Source_File_Index>
3

> <chembl_id>
CHEMBL513563

> <chembl_pref_name>
None

> <i_lp_mmshare_version>
53161

> <r_lp_tautomer_probability>
0.999999999997365

> <s_lp_Force_Field>
OPLS_2005

> <r_lp_Energy>
35.320444

> <b_lp_Chiralities_Consistent>
1

> <s_lp_Variant>
CHEMBL267_lig1520-1

> <s_i_glide_gridfile>
glide-grid_3el8

> <i_i_glide_lignum>
1701

> <i_i_glide_rotatable_bonds>
7

> <r_i_docking_score>
-9.85026945007577

> <r_i_glide_ligand_efficiency>
-0.351795337502706

> <r_i_glide_ligand_efficiency_sa>
-1.06825784103144

> <r_i_glide_ligand_efficiency_ln>
-2.27373140555578

> <r_i_glide_gscore>
-9.85026945007577

> <r_i_glide_lipo>
-3.28812315214346

> <r_i_glide_hbond>
-0.833071837451564

> <r_i_glide_metal>
0

> <r_i_glide_rewards>
-3.19655179397473

> <r_i_glide_evdw>
-45.8606109619141

> <r_i_glide_ecoul>
-4.70975160598755

> <r_i_glide_erotb>
0.466970622487809

> <r_i_glide_esite>
0

> <r_i_glide_emodel>
-79.2262025306095

> <r_i_glide_energy>
-50.5703625679016

> <r_i_glide_einternal>
5.95085096359253

> <i_i_glide_confnum>
22

> <i_i_glide_posenum>
230

> <r_i_glide_eff_state_penalty>
0

> <s_user_duplicate_titles>
CHEMBL267_lig1520,459580

> <i_f3d_flags>
0

> <s_m_subgroup_title>
dock_pv

> <s_m_subgroupid>
dock_pv

> <b_m_subgroup_collapsed>
1

$$$$
CHEMBL267_lig856
                    3D
 Schrodinger Suite 2021-1.
 52 56  0  0  1  0            999 V2000
    6.4453    8.5458    6.3814 C   0  0  0  0  0  0
    5.8076    7.5561    7.1878 C   0  0  0  0  0  0
    5.4635    9.3618    5.8354 N   0  0  0  0  0  0
    4.3946    7.8371    7.1682 C   0  0  0  0  0  0
    4.2466    8.8958    6.2903 C   0  0  0  0  0  0
    7.7664    8.6370    6.1794 N   0  0  0  0  0  0
    6.6749    6.5853    7.7328 C   0  0  0  0  0  0
    8.0170    6.6685    7.5847 N   0  0  0  0  0  0
    3.2963    7.1456    7.8924 C   0  0  0  0  0  0
    5.6715   10.4824    4.8988 C   0  0  0  0  0  0
    8.4849    7.6959    6.8367 C   0  0  0  0  0  0
    3.2344   11.6296    3.7054 N   0  0  2  0  0  0
    0.3095    5.0495    9.8761 O   0  0  0  0  0  0
    2.1168    6.8260    7.2137 C   0  0  0  0  0  0
    3.4525    6.7870    9.2327 C   0  0  0  0  0  0
    6.1978    5.4539    8.3881 N   0  0  0  0  0  0
    1.2799    5.7465    9.2026 C   0  0  0  0  0  0
    5.2394   10.1637    3.4569 C   0  0  0  0  0  0
    5.0928   11.8306    5.3702 C   0  0  0  0  0  0
    1.1087    6.1265    7.8691 C   0  0  0  0  0  0
    2.4398    6.0973    9.8895 C   0  0  0  0  0  0
   -0.2220    3.9120    9.3165 C   0  0  0  0  0  0
    3.7201   10.3255    3.2420 C   0  0  0  0  0  0
    3.5844   11.9955    5.0827 C   0  0  0  0  0  0
   -1.6072    3.7996    9.2654 C   0  0  0  0  0  0
    0.5826    2.8615    8.8598 C   0  0  0  0  0  0
   -0.0125    1.6910    8.3886 C   0  0  0  0  0  0
   -2.2025    2.6385    8.7888 C   0  0  0  0  0  0
   -1.4018    1.5805    8.3740 C   0  0  0  0  0  0
    3.3354    9.3758    5.9739 H   0  0  0  0  0  0
    6.7563   10.6042    4.8928 H   0  0  0  0  0  0
    9.5578    7.7604    6.7310 H   0  0  0  0  0  0
    2.2389   11.7147    3.5497 H   0  0  0  0  0  0
    1.9885    7.0958    6.1748 H   0  0  0  0  0  0
    4.3532    7.0455    9.7699 H   0  0  0  0  0  0
    5.2018    5.3391    8.5098 H   0  0  0  0  0  0
    6.8556    4.7790    8.7624 H   0  0  0  0  0  0
    5.5650    9.1578    3.1851 H   0  0  0  0  0  0
    5.7874   10.7851    2.7466 H   0  0  0  0  0  0
    5.6430   12.6578    4.9179 H   0  0  0  0  0  0
    5.3054   11.9729    6.4302 H   0  0  0  0  0  0
    0.1991    5.8688    7.3458 H   0  0  0  0  0  0
    2.5633    5.8171   10.9255 H   0  0  0  0  0  0
    3.1698    9.5308    3.7455 H   0  0  0  0  0  0
    3.4890   10.2399    2.1793 H   0  0  0  0  0  0
    2.9748   11.4354    5.7901 H   0  0  0  0  0  0
    3.3114   13.0424    5.2137 H   0  0  0  0  0  0
   -2.2175    4.6259    9.5888 H   0  0  0  0  0  0
    1.6576    2.9414    8.9097 H   0  0  0  0  0  0
    0.5922    0.8579    8.0644 H   0  0  0  0  0  0
   -3.2783    2.5518    8.7570 H   0  0  0  0  0  0
   -1.8685    0.6745    8.0137 H   0  0  0  0  0  0
  1  2  1  0  0  0
  1  3  1  0  0  0
  1  6  2  0  0  0
  2  4  1  0  0  0
  2  7  2  0  0  0
  3  5  1  0  0  0
  3 10  1  0  0  0
  4  9  1  0  0  0
  4  5  2  0  0  0
  5 30  1  0  0  0
  6 11  1  0  0  0
  7 16  1  0  0  0
  7  8  1  0  0  0
  8 11  2  0  0  0
  9 14  1  0  0  0
  9 15  2  0  0  0
 10 18  1  0  0  0
 10 19  1  0  0  0
 10 31  1  0  0  0
 11 32  1  0  0  0
 12 24  1  0  0  0
 12 23  1  0  0  0
 12 33  1  0  0  0
 13 17  1  0  0  0
 13 22  1  0  0  0
 14 20  2  0  0  0
 14 34  1  0  0  0
 15 21  1  0  0  0
 15 35  1  0  0  0
 16 36  1  0  0  0
 16 37  1  0  0  0
 17 21  2  0  0  0
 17 20  1  0  0  0
 18 23  1  0  0  0
 18 38  1  0  0  0
 18 39  1  0  0  0
 19 24  1  0  0  0
 19 40  1  0  0  0
 19 41  1  0  0  0
 20 42  1  0  0  0
 21 43  1  0  0  0
 22 25  1  0  0  0
 22 26  2  0  0  0
 23 44  1  0  0  0
 23 45  1  0  0  0
 24 46  1  0  0  0
 24 47  1  0  0  0
 25 28  2  0  0  0
 25 48  1  0  0  0
 26 27  1  0  0  0
 26 49  1  0  0  0
 27 29  2  0  0  0
 27 50  1  0  0  0
 28 29  1  0  0  0
 28 51  1  0  0  0
 29 52  1  0  0  0
M  END
> <s_m_entry_id>
31741

> <s_m_entry_name>
dock_pv.4

> <s_m_Source_Path>
/home/csk/Desktop/cluster/DUD-E-result/src

> <s_m_Source_File>
dock_pv.maegz

> <i_m_Source_File_Index>
4

> <chembl_id>
CHEMBL47202

> <chembl_pref_name>
None

> <i_lp_mmshare_version>
53161

> <r_lp_tautomer_probability>
1

> <s_lp_Force_Field>
OPLS_2005

> <r_lp_Energy>
33.108791

> <b_lp_Chiralities_Consistent>
1

> <s_lp_Variant>
CHEMBL267_lig856-1

> <s_i_glide_gridfile>
glide-grid_3el8

> <i_i_glide_lignum>
985

> <i_i_glide_rotatable_bonds>
4

> <r_i_docking_score>
-9.83672971656111

> <r_i_glide_ligand_efficiency>
-0.339197576433142

> <r_i_glide_ligand_efficiency_sa>
-1.04212242013769

> <r_i_glide_ligand_efficiency_ln>
-2.25236166714898

> <r_i_glide_gscore>
-9.83672971656111

> <r_i_glide_lipo>
-3.724371067389

> <r_i_glide_hbond>
-0.608

> <r_i_glide_metal>
0

> <r_i_glide_rewards>
-2.75558007005966

> <r_i_glide_evdw>
-45.0713806152344

> <r_i_glide_ecoul>
-5.74537229537964

> <r_i_glide_erotb>
0.366596295956221

> <r_i_glide_esite>
0

> <r_i_glide_emodel>
-76.9917104632416

> <r_i_glide_energy>
-50.816752910614

> <r_i_glide_einternal>
5.50411367416382

> <i_i_glide_confnum>
16

> <i_i_glide_posenum>
232

> <r_i_glide_eff_state_penalty>
0

> <s_user_duplicate_titles>
CHEMBL267_lig856

> <i_f3d_flags>
0

> <s_m_subgroup_title>
dock_pv

> <s_m_subgroupid>
dock_pv

> <b_m_subgroup_collapsed>
1

$$$$
CHEMBL267_lig104
                    3D
 Schrodinger Suite 2021-1.
 52 56  0  0  1  0            999 V2000
    5.5168    9.4280    5.9424 N   0  0  0  0  0  0
    6.4804    8.5583    6.4289 C   0  0  0  0  0  0
    5.8264    7.5500    7.1952 C   0  0  0  0  0  0
    4.4160    7.8428    7.1699 C   0  0  0  0  0  0
    4.2865    8.9366    6.3322 C   0  0  0  0  0  0
    5.7538   10.6299    5.1215 C   0  0  2  0  0  0
    7.8016    8.6370    6.2296 N   0  0  0  0  0  0
    6.6822    6.5649    7.7322 C   0  0  0  0  0  0
    4.8622   11.8374    5.4909 C   0  0  0  0  0  0
    5.5317   10.3606    3.6256 C   0  0  0  0  0  0
    8.0255    6.6369    7.5880 N   0  0  0  0  0  0
    3.3100    7.1474    7.8763 C   0  0  0  0  0  0
    4.0605   12.2109    4.2278 C   0  0  2  0  0  0
    4.1867   11.0040    3.2629 C   0  0  2  0  0  0
    8.5076    7.6722    6.8636 C   0  0  0  0  0  0
    0.2956    5.0815    9.8453 O   0  0  0  0  0  0
    3.4589    6.7807    9.2152 C   0  0  0  0  0  0
    2.1310    6.8407    7.1921 C   0  0  0  0  0  0
    6.1980    5.4377    8.3880 N   0  0  0  0  0  0
    1.2778    5.7627    9.1740 C   0  0  0  0  0  0
    3.1141   10.0993    3.4632 O   0  0  0  0  0  0
    4.5810   13.3801    3.6208 O   0  0  0  0  0  0
    2.4384    6.0979    9.8656 C   0  0  0  0  0  0
    1.1136    6.1478    7.8407 C   0  0  0  0  0  0
   -0.2275    3.9312    9.3027 C   0  0  0  0  0  0
   -1.6117    3.8061    9.2710 C   0  0  0  0  0  0
    0.5810    2.8836    8.8462 C   0  0  0  0  0  0
   -0.0095    1.7066    8.3882 C   0  0  0  0  0  0
   -2.2021    2.6372    8.8092 C   0  0  0  0  0  0
   -1.3973    1.5849    8.3871 C   0  0  0  0  0  0
    3.3890    9.4535    6.0254 H   0  0  0  0  0  0
    6.8029   10.8610    5.3161 H   0  0  0  0  0  0
    4.1813   11.5894    6.3050 H   0  0  0  0  0  0
    5.4596   12.6731    5.8597 H   0  0  0  0  0  0
    6.3213   10.8627    3.0644 H   0  0  0  0  0  0
    5.5965    9.3076    3.3429 H   0  0  0  0  0  0
    3.0236   12.4018    4.5126 H   0  0  0  0  0  0
    4.1876   11.3199    2.2168 H   0  0  0  0  0  0
    9.5822    7.7227    6.7662 H   0  0  0  0  0  0
    4.3603    7.0269    9.7571 H   0  0  0  0  0  0
    2.0110    7.1201    6.1553 H   0  0  0  0  0  0
    5.2009    5.3309    8.5085 H   0  0  0  0  0  0
    6.8503    4.7565    8.7600 H   0  0  0  0  0  0
    2.3332   10.4400    3.0180 H   0  0  0  0  0  0
    5.5133   13.4627    3.8369 H   0  0  0  0  0  0
    2.5552    5.8122   10.9009 H   0  0  0  0  0  0
    0.2028    5.9012    7.3137 H   0  0  0  0  0  0
   -2.2223    4.6358    9.5911 H   0  0  0  0  0  0
    1.6562    2.9731    8.8800 H   0  0  0  0  0  0
    0.5979    0.8768    8.0607 H   0  0  0  0  0  0
   -3.2783    2.5423    8.7862 H   0  0  0  0  0  0
   -1.8601    0.6741    8.0346 H   0  0  0  0  0  0
  1  2  1  0  0  0
  1  5  1  0  0  0
  1  6  1  0  0  0
  2  3  1  0  0  0
  2  7  2  0  0  0
  3  8  2  0  0  0
  3  4  1  0  0  0
  4  5  2  0  0  0
  4 12  1  0  0  0
  5 31  1  0  0  0
  6  9  1  0  0  0
  6 10  1  0  0  0
  6 32  1  0  0  0
  7 15  1  0  0  0
  8 19  1  0  0  0
  8 11  1  0  0  0
  9 13  1  0  0  0
  9 33  1  0  0  0
  9 34  1  0  0  0
 10 14  1  0  0  0
 10 35  1  0  0  0
 10 36  1  0  0  0
 11 15  2  0  0  0
 12 17  2  0  0  0
 12 18  1  0  0  0
 13 22  1  0  0  0
 13 14  1  0  0  0
 13 37  1  0  0  0
 14 21  1  0  0  0
 14 38  1  0  0  0
 15 39  1  0  0  0
 16 20  1  0  0  0
 16 25  1  0  0  0
 17 23  1  0  0  0
 17 40  1  0  0  0
 18 24  2  0  0  0
 18 41  1  0  0  0
 19 42  1  0  0  0
 19 43  1  0  0  0
 20 24  1  0  0  0
 20 23  2  0  0  0
 21 44  1  0  0  0
 22 45  1  0  0  0
 23 46  1  0  0  0
 24 47  1  0  0  0
 25 26  2  0  0  0
 25 27  1  0  0  0
 26 29  1  0  0  0
 26 48  1  0  0  0
 27 28  2  0  0  0
 27 49  1  0  0  0
 28 30  1  0  0  0
 28 50  1  0  0  0
 29 30  2  0  0  0
 29 51  1  0  0  0
 30 52  1  0  0  0
M  END
> <s_m_entry_id>
31742

> <s_m_entry_name>
dock_pv.5

> <s_m_Source_Path>
/home/csk/Desktop/cluster/DUD-E-result/src

> <s_m_Source_File>
dock_pv.maegz

> <i_m_Source_File_Index>
5

> <chembl_id>
CHEMBL69827

> <chembl_pref_name>
None

> <i_lp_mmshare_version>
53161

> <r_lp_tautomer_probability>
1

> <s_lp_Force_Field>
OPLS_2005

> <r_lp_Energy>
45.731138

> <b_lp_Chiralities_Consistent>
1

> <s_lp_Variant>
CHEMBL267_lig104-4

> <s_i_glide_gridfile>
glide-grid_3el8

> <i_i_glide_lignum>
148

> <i_i_glide_rotatable_bonds>
6

> <r_i_docking_score>
-9.80283881657945

> <r_i_glide_ligand_efficiency>
-0.326761293885982

> <r_i_glide_ligand_efficiency_sa>
-1.01532331289896

> <r_i_glide_ligand_efficiency_ln>
-2.22731178961061

> <r_i_glide_gscore>
-9.80283881657945

> <r_i_glide_lipo>
-3.60596869056018

> <r_i_glide_hbond>
-0.608

> <r_i_glide_metal>
0

> <r_i_glide_rewards>
-2.65383427509882

> <r_i_glide_evdw>
-45.653377532959

> <r_i_glide_ecoul>
-6.61081981658936

> <r_i_glide_erotb>
0.339255998215899

> <r_i_glide_esite>
0

> <r_i_glide_emodel>
-78.4886029770009

> <r_i_glide_energy>
-52.2641973495483

> <r_i_glide_einternal>
8.31368637084961

> <i_i_glide_confnum>
17

> <i_i_glide_posenum>
71

> <r_i_glide_eff_state_penalty>
0

> <s_user_duplicate_titles>
CHEMBL267_lig104

> <i_f3d_flags>
0

> <s_m_subgroup_title>
dock_pv

> <s_m_subgroupid>
dock_pv

> <b_m_subgroup_collapsed>
1

$$$$
CHEMBL267_lig455
                    3D
 Schrodinger Suite 2021-1.
 43 46  0  0  1  0            999 V2000
    6.1673    8.3747    6.5413 C   0  0  0  0  0  0
    5.2286    9.2281    5.9878 N   0  0  0  0  0  0
    5.4910    7.4624    7.4044 C   0  0  0  0  0  0
    4.0977    7.8369    7.4104 C   0  0  0  0  0  0
    3.9868    8.8395    6.4537 C   0  0  0  0  0  0
    5.5291   10.2906    5.0113 C   0  0  1  0  0  0
    7.4852    8.3864    6.2997 N   0  0  0  0  0  0
    6.3125    6.4669    7.9770 C   0  0  0  0  0  0
    7.6426    6.4174    7.7117 N   0  0  0  0  0  0
    2.9985    7.2708    8.2424 C   0  0  0  0  0  0
    3.6706   11.0619    3.7428 N   0  0  2  0  0  0
    5.6045    9.7172    3.5901 C   0  0  0  0  0  0
    8.1574    7.3942    6.9288 C   0  0  0  0  0  0
    4.4778   11.4032    4.9040 C   0  0  0  0  0  0
    4.5940   10.5152    2.7511 C   0  0  2  0  0  0
    1.7596    6.9766    7.6680 C   0  0  0  0  0  0
    3.2138    7.0104    9.5996 C   0  0  0  0  0  0
    5.7980    5.4368    8.7565 N   0  0  0  0  0  0
    0.9662    6.1710    9.7991 C   0  0  0  0  0  0
    0.7442    6.4263    8.4470 C   0  0  0  0  0  0
    2.1990    6.4589   10.3768 C   0  0  0  0  0  0
   -0.0283    5.6430   10.5774 O   0  0  0  0  0  0
    6.0662   11.0369    0.8599 O   0  0  0  0  0  0
    5.2320   11.6105    1.8550 C   0  0  0  0  0  0
    3.1062    9.3649    6.1126 H   0  0  0  0  0  0
    6.4812   10.7036    5.3500 H   0  0  0  0  0  0
    3.1526   11.8481    3.3741 H   0  0  0  0  0  0
    6.6086    9.8360    3.1899 H   0  0  0  0  0  0
    5.3860    8.6492    3.5392 H   0  0  0  0  0  0
    9.2286    7.3782    6.7871 H   0  0  0  0  0  0
    3.8880   11.5333    5.8125 H   0  0  0  0  0  0
    4.9715   12.3576    4.7127 H   0  0  0  0  0  0
    3.9989    9.8394    2.1389 H   0  0  0  0  0  0
    1.5871    7.1598    6.6173 H   0  0  0  0  0  0
    4.1639    7.2402   10.0598 H   0  0  0  0  0  0
    4.8111    5.4136    8.9722 H   0  0  0  0  0  0
    6.4362    4.7316    9.1062 H   0  0  0  0  0  0
   -0.2019    6.1875    7.9900 H   0  0  0  0  0  0
    2.3692    6.2545   11.4240 H   0  0  0  0  0  0
   -0.8968    5.6241   10.1614 H   0  0  0  0  0  0
    6.0874   11.6452    0.0919 H   0  0  0  0  0  0
    4.4545   12.1829    1.3469 H   0  0  0  0  0  0
    5.8287   12.3121    2.4392 H   0  0  0  0  0  0
  1  2  1  0  0  0
  1  3  2  0  0  0
  1  7  1  0  0  0
  2  5  1  0  0  0
  2  6  1  0  0  0
  3  4  1  0  0  0
  3  8  1  0  0  0
  4 10  1  0  0  0
  4  5  2  0  0  0
  5 25  1  0  0  0
  6 12  1  0  0  0
  6 14  1  0  0  0
  6 26  1  0  0  0
  7 13  2  0  0  0
  8 18  1  0  0  0
  8  9  2  0  0  0
  9 13  1  0  0  0
 10 16  1  0  0  0
 10 17  2  0  0  0
 11 14  1  0  0  0
 11 15  1  0  0  0
 11 27  1  0  0  0
 12 15  1  0  0  0
 12 28  1  0  0  0
 12 29  1  0  0  0
 13 30  1  0  0  0
 14 31  1  0  0  0
 14 32  1  0  0  0
 15 24  1  0  0  0
 15 33  1  0  0  0
 16 20  2  0  0  0
 16 34  1  0  0  0
 17 21  1  0  0  0
 17 35  1  0  0  0
 18 36  1  0  0  0
 18 37  1  0  0  0
 19 21  2  0  0  0
 19 22  1  0  0  0
 19 20  1  0  0  0
 20 38  1  0  0  0
 21 39  1  0  0  0
 22 40  1  0  0  0
 23 24  1  0  0  0
 23 41  1  0  0  0
 24 42  1  0  0  0
 24 43  1  0  0  0
M  END
> <s_m_entry_id>
31743

> <s_m_entry_name>
dock_pv.6

> <s_m_Source_Path>
/home/csk/Desktop/cluster/DUD-E-result/src

> <s_m_Source_File>
dock_pv.maegz

> <i_m_Source_File_Index>
6

> <chembl_id>
CHEMBL172574

> <chembl_pref_name>
None

> <i_lp_mmshare_version>
53161

> <r_lp_tautomer_probability>
0.999999999997365

> <s_lp_Force_Field>
OPLS_2005

> <r_lp_Energy>
32.86945

> <b_lp_Chiralities_Consistent>
1

> <s_lp_Variant>
CHEMBL267_lig455-1

> <s_i_glide_gridfile>
glide-grid_3el8

> <i_i_glide_lignum>
545

> <i_i_glide_rotatable_bonds>
5

> <r_i_docking_score>
-9.7809169066833

> <r_i_glide_ligand_efficiency>
-0.407538204445137

> <r_i_glide_ligand_efficiency_sa>
-1.17554359924439

> <r_i_glide_ligand_efficiency_ln>
-2.34102223280085

> <r_i_glide_gscore>
-9.7809169066833

> <r_i_glide_lipo>
-2.26565999315306

> <r_i_glide_hbond>
-1.0955941579302

> <r_i_glide_metal>
0

> <r_i_glide_rewards>
-3.16231338969274

> <r_i_glide_evdw>
-29.2873687744141

> <r_i_glide_ecoul>
-14.4315490722656

> <r_i_glide_erotb>
0.371751433653242

> <r_i_glide_esite>
0

> <r_i_glide_emodel>
-68.8966198300341

> <r_i_glide_energy>
-43.7189178466797

> <r_i_glide_einternal>
2.99424433708191

> <i_i_glide_confnum>
96

> <i_i_glide_posenum>
346

> <r_i_glide_eff_state_penalty>
0

> <s_user_duplicate_titles>
CHEMBL267_lig455,282859

> <i_f3d_flags>
0

> <s_m_subgroup_title>
dock_pv

> <s_m_subgroupid>
dock_pv

> <b_m_subgroup_collapsed>
1

$$$$
CHEMBL267_lig101
                    3D
 Schrodinger Suite 2021-1.
 51 55  0  0  1  0            999 V2000
    5.4601    9.4009    5.9325 N   0  0  0  0  0  0
    6.4398    8.5519    6.4266 C   0  0  0  0  0  0
    5.8047    7.5498    7.2135 C   0  0  0  0  0  0
    4.3931    7.8373    7.2106 C   0  0  0  0  0  0
    4.2422    8.9308    6.3819 C   0  0  0  0  0  0
    7.7578    8.6369    6.2075 N   0  0  0  0  0  0
    6.6725    6.5713    7.7394 C   0  0  0  0  0  0
    5.6883   10.5604    5.0490 C   0  0  2  0  0  0
    8.0142    6.6523    7.5868 N   0  0  0  0  0  0
    3.2993    7.1362    7.9271 C   0  0  0  0  0  0
    8.4797    7.6854    6.8460 C   0  0  0  0  0  0
    4.5701   11.6262    5.0583 C   0  0  1  0  0  0
    0.3094    5.0423    9.8998 O   0  0  0  0  0  0
    3.4545    6.7740    9.2659 C   0  0  0  0  0  0
    2.1224    6.8162    7.2437 C   0  0  0  0  0  0
    6.1979    5.4383    8.3883 N   0  0  0  0  0  0
    1.2823    5.7363    9.2290 C   0  0  0  0  0  0
    2.4414    6.0831    9.9175 C   0  0  0  0  0  0
    1.1110    6.1193    7.8956 C   0  0  0  0  0  0
   -0.2212    3.9090    9.3312 C   0  0  0  0  0  0
    5.1456   12.8871    4.7856 O   0  0  0  0  0  0
    5.8334   10.1219    3.5819 C   0  0  0  0  0  0
    4.4805   10.3977    2.9088 C   0  0  0  0  0  0
    3.6394   11.2130    3.9058 C   0  0  0  0  0  0
   -1.6065    3.8026    9.2709 C   0  0  0  0  0  0
    0.5833    2.8593    8.8713 C   0  0  0  0  0  0
   -0.0117    1.6933    8.3927 C   0  0  0  0  0  0
   -2.2019    2.6415    8.7934 C   0  0  0  0  0  0
   -1.4013    1.5819    8.3812 C   0  0  0  0  0  0
    3.3302    9.4391    6.1114 H   0  0  0  0  0  0
    6.6275   10.9590    5.4412 H   0  0  0  0  0  0
    9.5515    7.7504    6.7317 H   0  0  0  0  0  0
    4.0230   11.6925    6.0009 H   0  0  0  0  0  0
    4.3545    7.0295    9.8055 H   0  0  0  0  0  0
    1.9979    7.0903    6.2060 H   0  0  0  0  0  0
    5.2022    5.3314    8.5221 H   0  0  0  0  0  0
    6.8563    4.7594    8.7516 H   0  0  0  0  0  0
    2.5628    5.7998   10.9527 H   0  0  0  0  0  0
    0.2011    5.8626    7.3720 H   0  0  0  0  0  0
    5.1786   13.0116    3.8325 H   0  0  0  0  0  0
    6.6122   10.7175    3.1003 H   0  0  0  0  0  0
    6.1426    9.0794    3.4753 H   0  0  0  0  0  0
    3.9758    9.4624    2.6578 H   0  0  0  0  0  0
    4.6203   10.9455    1.9741 H   0  0  0  0  0  0
    2.8441   10.5712    4.2842 H   0  0  0  0  0  0
    3.1321   12.0603    3.4396 H   0  0  0  0  0  0
   -2.2120    4.6349    9.5901 H   0  0  0  0  0  0
    1.6592    2.9374    8.9200 H   0  0  0  0  0  0
    0.5964    0.8639    8.0652 H   0  0  0  0  0  0
   -3.2791    2.5583    8.7575 H   0  0  0  0  0  0
   -1.8674    0.6771    8.0177 H   0  0  0  0  0  0
  1  2  1  0  0  0
  1  5  1  0  0  0
  1  8  1  0  0  0
  2  3  1  0  0  0
  2  6  2  0  0  0
  3  7  2  0  0  0
  3  4  1  0  0  0
  4  5  2  0  0  0
  4 10  1  0  0  0
  5 30  1  0  0  0
  6 11  1  0  0  0
  7 16  1  0  0  0
  7  9  1  0  0  0
  8 12  1  0  0  0
  8 22  1  0  0  0
  8 31  1  0  0  0
  9 11  2  0  0  0
 10 14  1  0  0  0
 10 15  2  0  0  0
 11 32  1  0  0  0
 12 21  1  0  0  0
 12 24  1  0  0  0
 12 33  1  0  0  0
 13 17  1  0  0  0
 13 20  1  0  0  0
 14 18  2  0  0  0
 14 34  1  0  0  0
 15 19  1  0  0  0
 15 35  1  0  0  0
 16 36  1  0  0  0
 16 37  1  0  0  0
 17 19  2  0  0  0
 17 18  1  0  0  0
 18 38  1  0  0  0
 19 39  1  0  0  0
 20 25  1  0  0  0
 20 26  2  0  0  0
 21 40  1  0  0  0
 22 23  1  0  0  0
 22 41  1  0  0  0
 22 42  1  0  0  0
 23 24  1  0  0  0
 23 43  1  0  0  0
 23 44  1  0  0  0
 24 45  1  0  0  0
 24 46  1  0  0  0
 25 28  2  0  0  0
 25 47  1  0  0  0
 26 27  1  0  0  0
 26 48  1  0  0  0
 27 29  2  0  0  0
 27 49  1  0  0  0
 28 29  1  0  0  0
 28 50  1  0  0  0
 29 51  1  0  0  0
M  END
> <s_m_entry_id>
31744

> <s_m_entry_name>
dock_pv.7

> <s_m_Source_Path>
/home/csk/Desktop/cluster/DUD-E-result/src

> <s_m_Source_File>
dock_pv.maegz

> <i_m_Source_File_Index>
7

> <chembl_id>
CHEMBL419082

> <chembl_pref_name>
None

> <i_lp_mmshare_version>
53161

> <r_lp_tautomer_probability>
1

> <s_lp_Force_Field>
OPLS_2005

> <r_lp_Energy>
39.894818

> <b_lp_Chiralities_Consistent>
1

> <s_lp_Variant>
CHEMBL267_lig101-3

> <s_i_glide_gridfile>
glide-grid_3el8

> <i_i_glide_lignum>
138

> <i_i_glide_rotatable_bonds>
5

> <r_i_docking_score>
-9.76445860447061

> <r_i_glide_ligand_efficiency>
-0.336705469119676

> <r_i_glide_ligand_efficiency_sa>
-1.03446587691571

> <r_i_glide_ligand_efficiency_ln>
-2.23581341511753

> <r_i_glide_gscore>
-9.76445860447061

> <r_i_glide_lipo>
-3.5885241669094

> <r_i_glide_hbond>
-0.608

> <r_i_glide_metal>
0

> <r_i_glide_rewards>
-2.73293909047154

> <r_i_glide_evdw>
-44.4980812072754

> <r_i_glide_ecoul>
-6.50008773803711

> <r_i_glide_erotb>
0.364921873979661

> <r_i_glide_esite>
0

> <r_i_glide_emodel>
-74.5709209229337

> <r_i_glide_energy>
-50.9981689453125

> <r_i_glide_einternal>
7.98905801773071

> <i_i_glide_confnum>
2

> <i_i_glide_posenum>
115

> <r_i_glide_eff_state_penalty>
0

> <s_user_duplicate_titles>
CHEMBL267_lig101,107748

> <i_f3d_flags>
0

> <s_m_subgroup_title>
dock_pv

> <s_m_subgroupid>
dock_pv

> <b_m_subgroup_collapsed>
1

$$$$
CHEMBL267_lig103
                    3D
 Schrodinger Suite 2021-1.
 51 55  0  0  1  0            999 V2000
    6.4167    8.5431    6.2796 C   0  0  0  0  0  0
    5.4233    9.3017    5.6762 N   0  0  0  0  0  0
    5.7901    7.5777    7.1222 C   0  0  0  0  0  0
    4.3744    7.8402    7.0916 C   0  0  0  0  0  0
    4.2141    8.8656    6.1773 C   0  0  0  0  0  0
    7.7376    8.6511    6.0859 N   0  0  0  0  0  0
    5.6101   10.4012    4.7095 C   0  0  1  0  0  0
    6.6671    6.6383    7.7038 C   0  0  0  0  0  0
    8.0100    6.7421    7.5673 N   0  0  0  0  0  0
    3.2861    7.1682    7.8454 C   0  0  0  0  0  0
    4.6329   10.3543    3.5210 C   0  0  0  0  0  0
    8.4665    7.7525    6.7883 C   0  0  0  0  0  0
    5.3991   11.7832    5.3369 C   0  0  0  0  0  0
    0.3009    5.0985    9.8579 O   0  0  0  0  0  0
    3.4521    6.8157    9.1869 C   0  0  0  0  0  0
    2.1010    6.8483    7.1791 C   0  0  0  0  0  0
    6.1985    5.5209    8.3884 N   0  0  0  0  0  0
    1.2751    5.7845    9.1779 C   0  0  0  0  0  0
    3.4974   11.3525    3.8312 C   0  0  2  0  0  0
    1.0972    6.1573    7.8432 C   0  0  0  0  0  0
    2.4420    6.1317    9.8543 C   0  0  0  0  0  0
    3.9153   12.0926    5.1180 C   0  0  0  0  0  0
   -0.2300    3.9552    9.3062 C   0  0  0  0  0  0
    2.2339   10.7393    3.9910 O   0  0  0  0  0  0
   -1.6147    3.8354    9.2568 C   0  0  0  0  0  0
    0.5792    2.9055    8.8518 C   0  0  0  0  0  0
   -0.0092    1.7283    8.3899 C   0  0  0  0  0  0
   -2.2019    2.6646    8.7891 C   0  0  0  0  0  0
   -1.3966    1.6064    8.3868 C   0  0  0  0  0  0
    3.3025    9.3470    5.8564 H   0  0  0  0  0  0
    6.6390   10.2569    4.3763 H   0  0  0  0  0  0
    5.1693   10.6890    2.6311 H   0  0  0  0  0  0
    4.2799    9.3432    3.3081 H   0  0  0  0  0  0
    9.5395    7.8362    6.6844 H   0  0  0  0  0  0
    5.6912   11.8252    6.3878 H   0  0  0  0  0  0
    6.0093   12.5194    4.8115 H   0  0  0  0  0  0
    4.3599    7.0695    9.7153 H   0  0  0  0  0  0
    1.9678    7.1102    6.1399 H   0  0  0  0  0  0
    5.2032    5.3903    8.4915 H   0  0  0  0  0  0
    6.8583    4.8544    8.7722 H   0  0  0  0  0  0
    3.4469   12.0681    3.0084 H   0  0  0  0  0  0
    0.1889    5.8976    7.3216 H   0  0  0  0  0  0
    2.5718    5.8473   10.8889 H   0  0  0  0  0  0
    3.7202   13.1623    5.0545 H   0  0  0  0  0  0
    3.3578   11.7208    5.9796 H   0  0  0  0  0  0
    1.9049   10.4813    3.1261 H   0  0  0  0  0  0
   -2.2457    4.6365    9.5895 H   0  0  0  0  0  0
    1.6545    2.9928    8.8945 H   0  0  0  0  0  0
    0.5977    0.8964    8.0672 H   0  0  0  0  0  0
   -3.2789    2.5691    8.7635 H   0  0  0  0  0  0
   -1.8585    0.6946    8.0366 H   0  0  0  0  0  0
  1  2  1  0  0  0
  1  3  1  0  0  0
  1  6  2  0  0  0
  2  5  1  0  0  0
  2  7  1  0  0  0
  3  4  1  0  0  0
  3  8  2  0  0  0
  4 10  1  0  0  0
  4  5  2  0  0  0
  5 30  1  0  0  0
  6 12  1  0  0  0
  7 11  1  0  0  0
  7 13  1  0  0  0
  7 31  1  0  0  0
  8 17  1  0  0  0
  8  9  1  0  0  0
  9 12  2  0  0  0
 10 15  2  0  0  0
 10 16  1  0  0  0
 11 19  1  0  0  0
 11 32  1  0  0  0
 11 33  1  0  0  0
 12 34  1  0  0  0
 13 22  1  0  0  0
 13 35  1  0  0  0
 13 36  1  0  0  0
 14 18  1  0  0  0
 14 23  1  0  0  0
 15 21  1  0  0  0
 15 37  1  0  0  0
 16 20  2  0  0  0
 16 38  1  0  0  0
 17 39  1  0  0  0
 17 40  1  0  0  0
 18 20  1  0  0  0
 18 21  2  0  0  0
 19 24  1  0  0  0
 19 22  1  0  0  0
 19 41  1  0  0  0
 20 42  1  0  0  0
 21 43  1  0  0  0
 22 44  1  0  0  0
 22 45  1  0  0  0
 23 25  1  0  0  0
 23 26  2  0  0  0
 24 46  1  0  0  0
 25 28  2  0  0  0
 25 47  1  0  0  0
 26 27  1  0  0  0
 26 48  1  0  0  0
 27 29  2  0  0  0
 27 49  1  0  0  0
 28 29  1  0  0  0
 28 50  1  0  0  0
 29 51  1  0  0  0
M  END
> <s_m_entry_id>
31745

> <s_m_entry_name>
dock_pv.8

> <s_m_Source_Path>
/home/csk/Desktop/cluster/DUD-E-result/src

> <s_m_Source_File>
dock_pv.maegz

> <i_m_Source_File_Index>
8

> <chembl_id>
CHEMBL69129

> <chembl_pref_name>
None

> <i_lp_mmshare_version>
53161

> <r_lp_tautomer_probability>
1

> <s_lp_Force_Field>
OPLS_2005

> <r_lp_Energy>
41.177332

> <b_lp_Chiralities_Consistent>
1

> <s_lp_Variant>
CHEMBL267_lig103-4

> <s_i_glide_gridfile>
glide-grid_3el8

> <i_i_glide_lignum>
144

> <i_i_glide_rotatable_bonds>
5

> <r_i_docking_score>
-9.7391483463206

> <r_i_glide_ligand_efficiency>
-0.335832701597262

> <r_i_glide_ligand_efficiency_sa>
-1.03178445857469

> <r_i_glide_ligand_efficiency_ln>
-2.23001800781395

> <r_i_glide_gscore>
-9.7391483463206

> <r_i_glide_lipo>
-3.63255607828671

> <r_i_glide_hbond>
-0.577689059255232

> <r_i_glide_metal>
0

> <r_i_glide_rewards>
-2.7239603805336

> <r_i_glide_evdw>
-44.8519172668457

> <r_i_glide_ecoul>
-6.18179225921631

> <r_i_glide_erotb>
0.364921873979661

> <r_i_glide_esite>
0

> <r_i_glide_emodel>
-76.4212661741649

> <r_i_glide_energy>
-51.033709526062

> <r_i_glide_einternal>
5.18181324005127

> <i_i_glide_confnum>
4

> <i_i_glide_posenum>
379

> <r_i_glide_eff_state_penalty>
0

> <s_user_duplicate_titles>
CHEMBL267_lig103,107756

> <i_f3d_flags>
0

> <s_m_subgroup_title>
dock_pv

> <s_m_subgroupid>
dock_pv

> <b_m_subgroup_collapsed>
1

$$$$
CHEMBL267_lig101
                    3D
 Schrodinger Suite 2021-1.
 51 55  0  0  1  0            999 V2000
    5.4612    9.4782    5.8754 N   0  0  0  0  0  0
    6.4232    8.6116    6.3778 C   0  0  0  0  0  0
    5.7697    7.6316    7.1826 C   0  0  0  0  0  0
    4.3649    7.9494    7.1846 C   0  0  0  0  0  0
    4.2349    9.0365    6.3351 C   0  0  0  0  0  0
    7.7423    8.6619    6.1513 N   0  0  0  0  0  0
    6.6186    6.6373    7.7147 C   0  0  0  0  0  0
    5.7007   10.6613    5.0164 C   0  0  1  0  0  0
    7.9604    6.6848    7.5477 N   0  0  0  0  0  0
    3.2683    7.2753    7.9300 C   0  0  0  0  0  0
    8.4446    7.6985    6.7919 C   0  0  0  0  0  0
    5.0229   10.6007    3.6374 C   0  0  1  0  0  0
    0.2947    5.1992    9.9642 O   0  0  0  0  0  0
    3.4424    6.9183    9.2698 C   0  0  0  0  0  0
    2.0753    6.9636    7.2737 C   0  0  0  0  0  0
    6.1276    5.5240    8.3880 N   0  0  0  0  0  0
    1.2613    5.8952    9.2805 C   0  0  0  0  0  0
    2.4371    6.2350    9.9460 C   0  0  0  0  0  0
    1.0723    6.2747    7.9483 C   0  0  0  0  0  0
   -0.1652    4.0156    9.4354 C   0  0  0  0  0  0
    4.9967    9.3560    2.9793 O   0  0  0  0  0  0
    5.1572   11.9598    5.6347 C   0  0  0  0  0  0
    3.7518   12.1701    5.0477 C   0  0  0  0  0  0
    3.6545   11.2760    3.7980 C   0  0  0  0  0  0
   -1.5392    3.8368    9.3070 C   0  0  0  0  0  0
    0.7073    2.9846    9.0762 C   0  0  0  0  0  0
    0.1942    1.7904    8.5728 C   0  0  0  0  0  0
   -2.0522    2.6544    8.7875 C   0  0  0  0  0  0
   -1.1799    1.6453    8.3880 C   0  0  0  0  0  0
    3.3398    9.5748    6.0633 H   0  0  0  0  0  0
    6.7875   10.7086    4.9297 H   0  0  0  0  0  0
    9.5177    7.7406    6.6742 H   0  0  0  0  0  0
    5.6268   11.2503    3.0000 H   0  0  0  0  0  0
    4.3567    7.1652    9.7897 H   0  0  0  0  0  0
    1.9345    7.2300    6.2361 H   0  0  0  0  0  0
    5.1313    5.4344    8.5291 H   0  0  0  0  0  0
    6.7754    4.8335    8.7481 H   0  0  0  0  0  0
    2.5779    5.9456   10.9779 H   0  0  0  0  0  0
    0.1571    6.0167    7.4365 H   0  0  0  0  0  0
    4.9130    8.6653    3.6419 H   0  0  0  0  0  0
    5.1655   11.9503    6.7254 H   0  0  0  0  0  0
    5.7978   12.7922    5.3364 H   0  0  0  0  0  0
    3.5901   13.2191    4.7932 H   0  0  0  0  0  0
    2.9851   11.9009    5.7755 H   0  0  0  0  0  0
    3.3794   11.8359    2.9029 H   0  0  0  0  0  0
    2.8742   10.5270    3.9429 H   0  0  0  0  0  0
   -2.2046    4.6370    9.5880 H   0  0  0  0  0  0
    1.7709    3.0964    9.2255 H   0  0  0  0  0  0
    0.8377    0.9480    8.3879 H   0  0  0  0  0  0
   -3.1193    2.5275    8.6752 H   0  0  0  0  0  0
   -1.5806    0.7221    7.9937 H   0  0  0  0  0  0
  1  2  1  0  0  0
  1  5  1  0  0  0
  1  8  1  0  0  0
  2  3  1  0  0  0
  2  6  2  0  0  0
  3  7  2  0  0  0
  3  4  1  0  0  0
  4  5  2  0  0  0
  4 10  1  0  0  0
  5 30  1  0  0  0
  6 11  1  0  0  0
  7 16  1  0  0  0
  7  9  1  0  0  0
  8 12  1  0  0  0
  8 22  1  0  0  0
  8 31  1  0  0  0
  9 11  2  0  0  0
 10 14  1  0  0  0
 10 15  2  0  0  0
 11 32  1  0  0  0
 12 21  1  0  0  0
 12 24  1  0  0  0
 12 33  1  0  0  0
 13 17  1  0  0  0
 13 20  1  0  0  0
 14 18  2  0  0  0
 14 34  1  0  0  0
 15 19  1  0  0  0
 15 35  1  0  0  0
 16 36  1  0  0  0
 16 37  1  0  0  0
 17 19  2  0  0  0
 17 18  1  0  0  0
 18 38  1  0  0  0
 19 39  1  0  0  0
 20 25  1  0  0  0
 20 26  2  0  0  0
 21 40  1  0  0  0
 22 23  1  0  0  0
 22 41  1  0  0  0
 22 42  1  0  0  0
 23 24  1  0  0  0
 23 43  1  0  0  0
 23 44  1  0  0  0
 24 45  1  0  0  0
 24 46  1  0  0  0
 25 28  2  0  0  0
 25 47  1  0  0  0
 26 27  1  0  0  0
 26 48  1  0  0  0
 27 29  2  0  0  0
 27 49  1  0  0  0
 28 29  1  0  0  0
 28 50  1  0  0  0
 29 51  1  0  0  0
M  END
> <s_m_entry_id>
31746

> <s_m_entry_name>
dock_pv.9

> <s_m_Source_Path>
/home/csk/Desktop/cluster/DUD-E-result/src

> <s_m_Source_File>
dock_pv.maegz

> <i_m_Source_File_Index>
9

> <chembl_id>
CHEMBL419082

> <chembl_pref_name>
None

> <i_lp_mmshare_version>
53161

> <r_lp_tautomer_probability>
1

> <s_lp_Force_Field>
OPLS_2005

> <r_lp_Energy>
41.092823

> <b_lp_Chiralities_Consistent>
1

> <s_lp_Variant>
CHEMBL267_lig101-4

> <s_i_glide_gridfile>
glide-grid_3el8

> <i_i_glide_lignum>
139

> <i_i_glide_rotatable_bonds>
5

> <r_i_docking_score>
-9.73623772213619

> <r_i_glide_ligand_efficiency>
-0.335732335246076

> <r_i_glide_ligand_efficiency_sa>
-1.03147610134556

> <r_i_glide_ligand_efficiency_ln>
-2.22935154868278

> <r_i_glide_gscore>
-9.73623772213619

> <r_i_glide_lipo>
-3.63529695728578

> <r_i_glide_hbond>
-0.558391420113632

> <r_i_glide_metal>
0

> <r_i_glide_rewards>
-2.70690962375337

> <r_i_glide_evdw>
-43.1881790161133

> <r_i_glide_ecoul>
-6.94101762771606

> <r_i_glide_erotb>
0.364921873979661

> <r_i_glide_esite>
0

> <r_i_glide_emodel>
-74.6017295950517

> <r_i_glide_energy>
-50.1291966438293

> <r_i_glide_einternal>
6.75471019744873

> <i_i_glide_confnum>
14

> <i_i_glide_posenum>
252

> <r_i_glide_eff_state_penalty>
0

> <s_user_duplicate_titles>
CHEMBL267_lig101

> <i_f3d_flags>
0

> <s_m_subgroup_title>
dock_pv

> <s_m_subgroupid>
dock_pv

> <b_m_subgroup_collapsed>
1

$$$$
CHEMBL267_lig853
                    3D
 Schrodinger Suite 2021-1.
 48 52  0  0  1  0            999 V2000
    6.4751    8.5507    6.3829 C   0  0  0  0  0  0
    5.8229    7.5646    7.1817 C   0  0  0  0  0  0
    5.5044    9.3701    5.8284 N   0  0  0  0  0  0
    4.4102    7.8552    7.1499 C   0  0  0  0  0  0
    4.2782    8.9223    6.2761 C   0  0  0  0  0  0
    7.7975    8.6370    6.1912 N   0  0  0  0  0  0
    6.6808    6.5880    7.7315 C   0  0  0  0  0  0
    8.0246    6.6608    7.5879 N   0  0  0  0  0  0
    3.3040    7.1689    7.8681 C   0  0  0  0  0  0
    8.5047    7.6889    6.8499 C   0  0  0  0  0  0
    5.7197   10.4889    4.8944 C   0  0  1  0  0  0
    3.7424   11.6830    4.6569 O   0  0  0  0  0  0
    0.2923    5.0916    9.8377 O   0  0  0  0  0  0
    2.1244    6.8584    7.1863 C   0  0  0  0  0  0
    3.4540    6.8023    9.2073 C   0  0  0  0  0  0
    6.1978    5.4607    8.3881 N   0  0  0  0  0  0
    1.2745    5.7758    9.1674 C   0  0  0  0  0  0
    1.1094    6.1623    7.8349 C   0  0  0  0  0  0
    2.4354    6.1150    9.8581 C   0  0  0  0  0  0
    5.1696   10.1920    3.5045 C   0  0  0  0  0  0
   -0.2305    3.9401    9.2955 C   0  0  0  0  0  0
    5.0018   11.7745    5.3120 C   0  0  0  0  0  0
    3.9216   11.0733    3.3788 C   0  0  0  0  0  0
   -1.6152    3.8091    9.2645 C   0  0  0  0  0  0
    0.5797    2.8926    8.8412 C   0  0  0  0  0  0
   -0.0086    1.7123    8.3880 C   0  0  0  0  0  0
   -2.2028    2.6371    8.8054 C   0  0  0  0  0  0
   -1.3957    1.5864    8.3856 C   0  0  0  0  0  0
    3.3829    9.4340    5.9519 H   0  0  0  0  0  0
    9.5792    7.7454    6.7555 H   0  0  0  0  0  0
    6.8019   10.6270    4.8677 H   0  0  0  0  0  0
    2.0013    7.1348    6.1491 H   0  0  0  0  0  0
    4.3553    7.0509    9.7486 H   0  0  0  0  0  0
    5.2007    5.3513    8.5063 H   0  0  0  0  0  0
    6.8503    4.7812    8.7616 H   0  0  0  0  0  0
    0.1993    5.9133    7.3077 H   0  0  0  0  0  0
    2.5541    5.8285   10.8930 H   0  0  0  0  0  0
    5.8986   10.4634    2.7396 H   0  0  0  0  0  0
    4.9421    9.1343    3.3536 H   0  0  0  0  0  0
    4.8559   11.8638    6.3886 H   0  0  0  0  0  0
    5.5270   12.6802    5.0015 H   0  0  0  0  0  0
    4.0538   11.8488    2.6222 H   0  0  0  0  0  0
    3.0332   10.5004    3.1086 H   0  0  0  0  0  0
   -2.2347    4.6278    9.5887 H   0  0  0  0  0  0
    1.6548    2.9836    8.8750 H   0  0  0  0  0  0
    0.5980    0.8816    8.0625 H   0  0  0  0  0  0
   -3.2791    2.5382    8.7874 H   0  0  0  0  0  0
   -1.8554    0.6731    8.0354 H   0  0  0  0  0  0
  1  2  1  0  0  0
  1  3  1  0  0  0
  1  6  2  0  0  0
  2  4  1  0  0  0
  2  7  2  0  0  0
  3  5  1  0  0  0
  3 11  1  0  0  0
  4  9  1  0  0  0
  4  5  2  0  0  0
  5 29  1  0  0  0
  6 10  1  0  0  0
  7 16  1  0  0  0
  7  8  1  0  0  0
  8 10  2  0  0  0
  9 14  1  0  0  0
  9 15  2  0  0  0
 10 30  1  0  0  0
 11 20  1  0  0  0
 11 22  1  0  0  0
 11 31  1  0  0  0
 12 22  1  0  0  0
 12 23  1  0  0  0
 13 17  1  0  0  0
 13 21  1  0  0  0
 14 18  2  0  0  0
 14 32  1  0  0  0
 15 19  1  0  0  0
 15 33  1  0  0  0
 16 34  1  0  0  0
 16 35  1  0  0  0
 17 19  2  0  0  0
 17 18  1  0  0  0
 18 36  1  0  0  0
 19 37  1  0  0  0
 20 23  1  0  0  0
 20 38  1  0  0  0
 20 39  1  0  0  0
 21 24  2  0  0  0
 21 25  1  0  0  0
 22 40  1  0  0  0
 22 41  1  0  0  0
 23 42  1  0  0  0
 23 43  1  0  0  0
 24 27  1  0  0  0
 24 44  1  0  0  0
 25 26  2  0  0  0
 25 45  1  0  0  0
 26 28  1  0  0  0
 26 46  1  0  0  0
 27 28  2  0  0  0
 27 47  1  0  0  0
 28 48  1  0  0  0
M  END
> <s_m_entry_id>
31747

> <s_m_entry_name>
dock_pv.10

> <s_m_Source_Path>
/home/csk/Desktop/cluster/DUD-E-result/src

> <s_m_Source_File>
dock_pv.maegz

> <i_m_Source_File_Index>
10

> <chembl_id>
CHEMBL48554

> <chembl_pref_name>
None

> <i_lp_mmshare_version>
53161

> <r_lp_tautomer_probability>
1

> <s_lp_Force_Field>
OPLS_2005

> <r_lp_Energy>
36.278927

> <b_lp_Chiralities_Consistent>
1

> <s_lp_Variant>
CHEMBL267_lig853-2

> <s_i_glide_gridfile>
glide-grid_3el8

> <i_i_glide_lignum>
982

> <i_i_glide_rotatable_bonds>
4

> <r_i_docking_score>
-9.73109488094326

> <r_i_glide_ligand_efficiency>
-0.347539102890831

> <r_i_glide_ligand_efficiency_sa>
-1.05533340596166

> <r_i_glide_ligand_efficiency_ln>
-2.2462224158826

> <r_i_glide_gscore>
-9.73109488094326

> <r_i_glide_lipo>
-3.55470018738473

> <r_i_glide_hbond>
-0.608

> <r_i_glide_metal>
0

> <r_i_glide_rewards>
-2.8544257217291

> <r_i_glide_evdw>
-43.2634811401367

> <r_i_glide_ecoul>
-6.27135944366455

> <r_i_glide_erotb>
0.389909001727085

> <r_i_glide_esite>
0

> <r_i_glide_emodel>
-76.8678186415073

> <r_i_glide_energy>
-49.5348405838013

> <r_i_glide_einternal>
0.852846026420593

> <i_i_glide_confnum>
13

> <i_i_glide_posenum>
39

> <r_i_glide_eff_state_penalty>
0

> <s_user_duplicate_titles>
CHEMBL267_lig853,68864

> <i_f3d_flags>
0

> <s_m_subgroup_title>
dock_pv

> <s_m_subgroupid>
dock_pv

> <b_m_subgroup_collapsed>
1

$$$$
CHEMBL267_lig867
                    3D
 Schrodinger Suite 2021-1.
 49 53  0  0  1  0            999 V2000
    6.4187    8.5486    6.4243 C   0  0  0  0  0  0
    5.7821    7.5512    7.2172 C   0  0  0  0  0  0
    5.4346    9.3788    5.9125 N   0  0  0  0  0  0
    4.3702    7.8395    7.2216 C   0  0  0  0  0  0
    4.2192    8.9305    6.3870 C   0  0  0  0  0  0
    7.7373    8.6370    6.2093 N   0  0  0  0  0  0
    6.6503    6.5738    7.7426 C   0  0  0  0  0  0
    7.9924    6.6524    7.5878 N   0  0  0  0  0  0
    3.2822    7.1433    7.9494 C   0  0  0  0  0  0
    8.4575    7.6865    6.8507 C   0  0  0  0  0  0
    5.6347   10.5299    5.0241 C   0  0  2  0  0  0
    4.2120   11.6044    3.3826 N   0  0  2  0  0  0
    0.3204    5.0255    9.9453 O   0  0  0  0  0  0
    2.1045    6.8114    7.2746 C   0  0  0  0  0  0
    3.4420    6.7965    9.2922 C   0  0  0  0  0  0
    6.1776    5.4395    8.3887 N   0  0  0  0  0  0
    1.2793    5.7374    9.2701 C   0  0  0  0  0  0
    1.1037    6.1083    7.9347 C   0  0  0  0  0  0
    2.4345    6.1074    9.9563 C   0  0  0  0  0  0
    5.0735   11.8414    5.5728 C   0  0  0  0  0  0
   -0.2158    3.8979    9.3676 C   0  0  0  0  0  0
    4.9400   10.3667    3.6606 C   0  0  0  0  0  0
    4.7318   12.6059    4.2988 C   0  0  0  0  0  0
   -1.6009    3.7876    9.3220 C   0  0  0  0  0  0
    0.5865    2.8605    8.8814 C   0  0  0  0  0  0
   -0.0102    1.7018    8.3880 C   0  0  0  0  0  0
   -2.1997    2.6372    8.8229 C   0  0  0  0  0  0
   -1.4007    1.5903    8.3778 C   0  0  0  0  0  0
    3.3173    9.4539    6.1029 H   0  0  0  0  0  0
    9.5289    7.7508    6.7339 H   0  0  0  0  0  0
    6.7061   10.6218    4.8478 H   0  0  0  0  0  0
    3.2218   11.4641    3.5427 H   0  0  0  0  0  0
    1.9763    7.0724    6.2351 H   0  0  0  0  0  0
    4.3434    7.0589    9.8256 H   0  0  0  0  0  0
    5.1843    5.3306    8.5287 H   0  0  0  0  0  0
    6.8407    4.7640    8.7514 H   0  0  0  0  0  0
    0.1983    5.8380    7.4131 H   0  0  0  0  0  0
    2.5616    5.8358   10.9946 H   0  0  0  0  0  0
    4.1679   11.7215    6.1685 H   0  0  0  0  0  0
    5.7969   12.3791    6.1832 H   0  0  0  0  0  0
    5.6644   10.1754    2.8645 H   0  0  0  0  0  0
    4.2165    9.5447    3.6562 H   0  0  0  0  0  0
    3.9741   13.3696    4.4751 H   0  0  0  0  0  0
    5.6151   13.0891    3.8763 H   0  0  0  0  0  0
   -2.2079    4.6078    9.6675 H   0  0  0  0  0  0
    1.6629    2.9386    8.9204 H   0  0  0  0  0  0
    0.5977    0.8794    8.0407 H   0  0  0  0  0  0
   -3.2778    2.5527    8.7867 H   0  0  0  0  0  0
   -1.8681    0.6935    7.9973 H   0  0  0  0  0  0
  1  2  1  0  0  0
  1  3  1  0  0  0
  1  6  2  0  0  0
  2  4  1  0  0  0
  2  7  2  0  0  0
  3  5  1  0  0  0
  3 11  1  0  0  0
  4  9  1  0  0  0
  4  5  2  0  0  0
  5 29  1  0  0  0
  6 10  1  0  0  0
  7 16  1  0  0  0
  7  8  1  0  0  0
  8 10  2  0  0  0
  9 14  1  0  0  0
  9 15  2  0  0  0
 10 30  1  0  0  0
 11 20  1  0  0  0
 11 22  1  0  0  0
 11 31  1  0  0  0
 12 22  1  0  0  0
 12 23  1  0  0  0
 12 32  1  0  0  0
 13 17  1  0  0  0
 13 21  1  0  0  0
 14 18  2  0  0  0
 14 33  1  0  0  0
 15 19  1  0  0  0
 15 34  1  0  0  0
 16 35  1  0  0  0
 16 36  1  0  0  0
 17 19  2  0  0  0
 17 18  1  0  0  0
 18 37  1  0  0  0
 19 38  1  0  0  0
 20 23  1  0  0  0
 20 39  1  0  0  0
 20 40  1  0  0  0
 21 24  2  0  0  0
 21 25  1  0  0  0
 22 41  1  0  0  0
 22 42  1  0  0  0
 23 43  1  0  0  0
 23 44  1  0  0  0
 24 27  1  0  0  0
 24 45  1  0  0  0
 25 26  2  0  0  0
 25 46  1  0  0  0
 26 28  1  0  0  0
 26 47  1  0  0  0
 27 28  2  0  0  0
 27 48  1  0  0  0
 28 49  1  0  0  0
M  END
> <s_m_entry_id>
31748

> <s_m_entry_name>
dock_pv.11

> <s_m_Source_Path>
/home/csk/Desktop/cluster/DUD-E-result/src

> <s_m_Source_File>
dock_pv.maegz

> <i_m_Source_File_Index>
11

> <chembl_id>
CHEMBL297278

> <chembl_pref_name>
None

> <i_lp_mmshare_version>
53161

> <r_lp_tautomer_probability>
1

> <s_lp_Force_Field>
OPLS_2005

> <r_lp_Energy>
41.423448

> <b_lp_Chiralities_Consistent>
1

> <s_lp_Variant>
CHEMBL267_lig867-1

> <s_i_glide_gridfile>
glide-grid_3el8

> <i_i_glide_lignum>
996

> <i_i_glide_rotatable_bonds>
4

> <r_i_docking_score>
-9.64785231147146

> <r_i_glide_ligand_efficiency>
-0.344566153981123

> <r_i_glide_ligand_efficiency_sa>
-1.04630578209852

> <r_i_glide_ligand_efficiency_ln>
-2.22700758674047

> <r_i_glide_gscore>
-9.64785231147146

> <r_i_glide_lipo>
-3.56998155706773

> <r_i_glide_hbond>
-0.608

> <r_i_glide_metal>
0

> <r_i_glide_rewards>
-2.83919879211587

> <r_i_glide_evdw>
-43.538501739502

> <r_i_glide_ecoul>
-5.63670825958252

> <r_i_glide_erotb>
0.391759363624623

> <r_i_glide_esite>
0

> <r_i_glide_emodel>
-76.3828041240581

> <r_i_glide_energy>
-49.1752099990845

> <r_i_glide_einternal>
1.65616083145142

> <i_i_glide_confnum>
13

> <i_i_glide_posenum>
280

> <r_i_glide_eff_state_penalty>
0

> <s_user_duplicate_titles>
CHEMBL267_lig867

> <i_f3d_flags>
0

> <s_m_subgroup_title>
dock_pv

> <s_m_subgroupid>
dock_pv

> <b_m_subgroup_collapsed>
1

$$$$
CHEMBL267_lig1516
                    3D
 Schrodinger Suite 2021-1.
 42 45  0  0  1  0            999 V2000
    7.9398    6.6379    7.5872 N   0  0  0  0  0  0
    8.4188    7.6756    6.8682 C   0  0  0  0  0  0
    7.7077    8.6390    6.2374 N   0  0  0  0  0  0
    6.5958    6.5648    7.7384 C   0  0  0  0  0  0
    5.7350    7.5475    7.2057 C   0  0  0  0  0  0
    6.3835    8.5593    6.4472 C   0  0  0  0  0  0
    5.4220    9.4394    5.9875 N   0  0  0  0  0  0
    4.1873    8.9555    6.3774 C   0  0  0  0  0  0
    4.3202    7.8372    7.1900 C   0  0  0  0  0  0
    3.2163    7.1435    7.9112 C   0  0  0  0  0  0
    2.0151    6.9105    7.2373 C   0  0  0  0  0  0
    0.9817    6.2358    7.8797 C   0  0  0  0  0  0
    1.1284    5.8176    9.2006 C   0  0  0  0  0  0
    2.3240    6.0521    9.8744 C   0  0  0  0  0  0
    3.3647    6.7157    9.2350 C   0  0  0  0  0  0
    5.6941   10.6262    5.1732 C   0  0  2  0  0  0
    6.1092    5.4384    8.3894 N   0  0  0  0  0  0
    4.6706   11.7773    5.2464 C   0  0  0  0  0  0
    4.5870   12.3700    3.9117 N   0  0  1  0  0  0
    5.5518   11.6746    3.0667 C   0  0  1  0  0  0
    5.8056   10.3071    3.6969 C   0  0  0  0  0  0
    5.1885   11.6207    1.5747 C   0  0  0  0  0  0
    6.2263   11.0369    0.8032 O   0  0  0  0  0  0
    9.4928    7.7147    6.7685 H   0  0  0  0  0  0
    3.2813    9.4691    6.0830 H   0  0  0  0  0  0
    1.8854    7.2404    6.2165 H   0  0  0  0  0  0
    0.0523    6.0672    7.3613 H   0  0  0  0  0  0
    0.3148    5.3027    9.6903 H   0  0  0  0  0  0
    2.4350    5.7117   10.8922 H   0  0  0  0  0  0
    4.2823    6.8853    9.7793 H   0  0  0  0  0  0
    6.6392   11.0319    5.5500 H   0  0  0  0  0  0
    5.1052    5.3454    8.5203 H   0  0  0  0  0  0
    6.7652    4.7505    8.7451 H   0  0  0  0  0  0
    3.6698   11.4377    5.5113 H   0  0  0  0  0  0
    4.9646   12.5322    5.9781 H   0  0  0  0  0  0
    3.6625   12.2179    3.5347 H   0  0  0  0  0  0
    6.4890   12.2298    3.0791 H   0  0  0  0  0  0
    6.8040    9.9445    3.4677 H   0  0  0  0  0  0
    5.0712    9.5830    3.3404 H   0  0  0  0  0  0
    4.2713   11.0557    1.4051 H   0  0  0  0  0  0
    5.0207   12.6297    1.1913 H   0  0  0  0  0  0
    6.1964   11.5083   -0.0575 H   0  0  0  0  0  0
  1  2  2  0  0  0
  1  4  1  0  0  0
  2  3  1  0  0  0
  2 24  1  0  0  0
  3  6  2  0  0  0
  4  5  2  0  0  0
  4 17  1  0  0  0
  5  9  1  0  0  0
  5  6  1  0  0  0
  6  7  1  0  0  0
  7 16  1  0  0  0
  7  8  1  0  0  0
  8  9  2  0  0  0
  8 25  1  0  0  0
  9 10  1  0  0  0
 10 15  1  0  0  0
 10 11  2  0  0  0
 11 12  1  0  0  0
 11 26  1  0  0  0
 12 13  2  0  0  0
 12 27  1  0  0  0
 13 14  1  0  0  0
 13 28  1  0  0  0
 14 15  2  0  0  0
 14 29  1  0  0  0
 15 30  1  0  0  0
 16 18  1  0  0  0
 16 21  1  0  0  0
 16 31  1  0  0  0
 17 32  1  0  0  0
 17 33  1  0  0  0
 18 19  1  0  0  0
 18 34  1  0  0  0
 18 35  1  0  0  0
 19 20  1  0  0  0
 19 36  1  0  0  0
 20 21  1  0  0  0
 20 22  1  0  0  0
 20 37  1  0  0  0
 21 38  1  0  0  0
 21 39  1  0  0  0
 22 23  1  0  0  0
 22 40  1  0  0  0
 22 41  1  0  0  0
 23 42  1  0  0  0
M  END
> <s_m_entry_id>
31749

> <s_m_entry_name>
dock_pv.12

> <s_m_Source_Path>
/home/csk/Desktop/cluster/DUD-E-result/src

> <s_m_Source_File>
dock_pv.maegz

> <i_m_Source_File_Index>
12

> <chembl_id>
CHEMBL471574

> <chembl_pref_name>
None

> <i_lp_mmshare_version>
53161

> <r_lp_tautomer_probability>
1

> <s_lp_Force_Field>
OPLS_2005

> <r_lp_Energy>
43.288408

> <b_lp_Chiralities_Consistent>
1

> <s_lp_Variant>
CHEMBL267_lig1516-1

> <s_i_glide_gridfile>
glide-grid_3el8

> <i_i_glide_lignum>
1697

> <i_i_glide_rotatable_bonds>
4

> <r_i_docking_score>
-9.60970723696251

> <r_i_glide_ligand_efficiency>
-0.417813358128805

> <r_i_glide_ligand_efficiency_sa>
-1.18820561168153

> <r_i_glide_ligand_efficiency_ln>
-2.32371434590519

> <r_i_glide_gscore>
-9.60970723696251

> <r_i_glide_lipo>
-2.1424037337973

> <r_i_glide_hbond>
-1.11306271992329

> <r_i_glide_metal>
0

> <r_i_glide_rewards>
-3.31641598966343

> <r_i_glide_evdw>
-28.0582332611084

> <r_i_glide_ecoul>
-13.6078071594238

> <r_i_glide_erotb>
0.406257943390501

> <r_i_glide_esite>
0

> <r_i_glide_emodel>
-64.1670474318466

> <r_i_glide_energy>
-41.6660404205322

> <r_i_glide_einternal>
4.18340349197388

> <i_i_glide_confnum>
127

> <i_i_glide_posenum>
263

> <r_i_glide_eff_state_penalty>
0

> <s_user_duplicate_titles>
CHEMBL267_lig1516,459510

> <i_f3d_flags>
0

> <s_m_subgroup_title>
dock_pv

> <s_m_subgroupid>
dock_pv

> <b_m_subgroup_collapsed>
1

$$$$
CHEMBL267_lig1515
                    3D
 Schrodinger Suite 2021-1.
 58 61  0  0  1  0            999 V2000
    7.9388    6.6379    7.5864 N   0  0  0  0  0  0
    8.4138    7.6730    6.8576 C   0  0  0  0  0  0
    7.7009    8.6421    6.2393 N   0  0  0  0  0  0
    6.5953    6.5639    7.7389 C   0  0  0  0  0  0
    5.7282    7.5458    7.2122 C   0  0  0  0  0  0
    6.3806    8.5622    6.4521 C   0  0  0  0  0  0
    5.4214    9.4453    5.9887 N   0  0  0  0  0  0
    4.1917    8.9591    6.3878 C   0  0  0  0  0  0
    4.3113    7.8372    7.1897 C   0  0  0  0  0  0
    3.1613    7.1554    7.8563 C   0  0  0  0  0  0
    1.9517    7.0491    7.1608 C   0  0  0  0  0  0
    0.8456    6.4517    7.7538 C   0  0  0  0  0  0
    0.9489    5.9324    9.0399 C   0  0  0  0  0  0
    2.1538    6.0139    9.7384 C   0  0  0  0  0  0
    3.2573    6.6308    9.1505 C   0  0  0  0  0  0
    5.6892   10.6873    5.2433 C   0  0  2  0  0  0
    6.1241    5.4333    8.3879 N   0  0  0  0  0  0
    4.4971   11.6448    5.1225 C   0  0  0  0  0  0
    4.7247   12.3571    3.8707 N   0  0  0  0  0  0
    5.7858   11.7415    3.0389 C   0  0  1  0  0  0
    6.1425   10.4556    3.8092 C   0  0  0  0  0  0
    5.4049   11.4432    1.5658 C   0  0  0  0  0  0
    3.9827   13.5090    3.5750 C   0  0  0  0  0  0
    2.9961   13.8870    4.2127 O   0  0  0  0  0  0
    4.4971   14.1693    2.5019 O   0  0  0  0  0  0
    3.8451   15.2289    1.7849 C   0  0  0  0  0  0
    3.6163   16.4773    2.6690 C   0  0  0  0  0  0
    2.5114   14.7409    1.1691 C   0  0  0  0  0  0
    4.8257   15.5717    0.6502 C   0  0  0  0  0  0
    6.5377   11.0370    0.8216 O   0  0  0  0  0  0
   -0.1414    5.3490    9.6257 O   0  0  0  0  0  0
    9.4864    7.7278    6.7393 H   0  0  0  0  0  0
    3.2850    9.4795    6.1273 H   0  0  0  0  0  0
    1.8617    7.4368    6.1557 H   0  0  0  0  0  0
   -0.0853    6.3918    7.2095 H   0  0  0  0  0  0
    2.2303    5.6126   10.7398 H   0  0  0  0  0  0
    4.1739    6.7211    9.7150 H   0  0  0  0  0  0
    6.4709   11.1997    5.8080 H   0  0  0  0  0  0
    5.1289    5.3073    8.5004 H   0  0  0  0  0  0
    6.7855    4.7562    8.7492 H   0  0  0  0  0  0
    4.4320   12.3121    5.9824 H   0  0  0  0  0  0
    3.5395   11.1401    5.0383 H   0  0  0  0  0  0
    6.6350   12.4280    3.0594 H   0  0  0  0  0  0
    7.2035   10.2240    3.7219 H   0  0  0  0  0  0
    5.5849    9.6133    3.3913 H   0  0  0  0  0  0
    4.6175   10.6893    1.4948 H   0  0  0  0  0  0
    5.0159   12.3250    1.0650 H   0  0  0  0  0  0
    3.2724   17.3180    2.0678 H   0  0  0  0  0  0
    4.5361   16.7863    3.1697 H   0  0  0  0  0  0
    2.8661   16.3089    3.4425 H   0  0  0  0  0  0
    2.6677   13.8491    0.5574 H   0  0  0  0  0  0
    1.7750   14.4873    1.9308 H   0  0  0  0  0  0
    2.0687   15.5052    0.5261 H   0  0  0  0  0  0
    5.0244   14.7018    0.0196 H   0  0  0  0  0  0
    4.4369   16.3649    0.0096 H   0  0  0  0  0  0
    5.7880   15.9053    1.0430 H   0  0  0  0  0  0
    6.4733   11.4950   -0.0373 H   0  0  0  0  0  0
   -0.9505    5.4364    9.1106 H   0  0  0  0  0  0
  1  4  1  0  0  0
  1  2  2  0  0  0
  2  3  1  0  0  0
  2 32  1  0  0  0
  3  6  2  0  0  0
  4  5  2  0  0  0
  4 17  1  0  0  0
  5  9  1  0  0  0
  5  6  1  0  0  0
  6  7  1  0  0  0
  7 16  1  0  0  0
  7  8  1  0  0  0
  8  9  2  0  0  0
  8 33  1  0  0  0
  9 10  1  0  0  0
 10 15  1  0  0  0
 10 11  2  0  0  0
 11 12  1  0  0  0
 11 34  1  0  0  0
 12 13  2  0  0  0
 12 35  1  0  0  0
 13 14  1  0  0  0
 13 31  1  0  0  0
 14 15  2  0  0  0
 14 36  1  0  0  0
 15 37  1  0  0  0
 16 18  1  0  0  0
 16 21  1  0  0  0
 16 38  1  0  0  0
 17 39  1  0  0  0
 17 40  1  0  0  0
 18 19  1  0  0  0
 18 41  1  0  0  0
 18 42  1  0  0  0
 19 20  1  0  0  0
 19 23  1  0  0  0
 20 21  1  0  0  0
 20 22  1  0  0  0
 20 43  1  0  0  0
 21 44  1  0  0  0
 21 45  1  0  0  0
 22 30  1  0  0  0
 22 46  1  0  0  0
 22 47  1  0  0  0
 23 24  2  0  0  0
 23 25  1  0  0  0
 25 26  1  0  0  0
 26 27  1  0  0  0
 26 28  1  0  0  0
 26 29  1  0  0  0
 27 48  1  0  0  0
 27 49  1  0  0  0
 27 50  1  0  0  0
 28 51  1  0  0  0
 28 52  1  0  0  0
 28 53  1  0  0  0
 29 54  1  0  0  0
 29 55  1  0  0  0
 29 56  1  0  0  0
 30 57  1  0  0  0
 31 58  1  0  0  0
M  END
> <s_m_entry_id>
31750

> <s_m_entry_name>
dock_pv.13

> <s_m_Source_Path>
/home/csk/Desktop/cluster/DUD-E-result/src

> <s_m_Source_File>
dock_pv.maegz

> <i_m_Source_File_Index>
13

> <chembl_id>
CHEMBL513043

> <chembl_pref_name>
None

> <i_lp_mmshare_version>
53161

> <r_lp_tautomer_probability>
0.999999999997365

> <s_lp_Force_Field>
OPLS_2005

> <r_lp_Energy>
39.552347

> <b_lp_Chiralities_Consistent>
1

> <s_lp_Variant>
CHEMBL267_lig1515-1

> <s_i_glide_gridfile>
glide-grid_3el8

> <i_i_glide_lignum>
1696

> <i_i_glide_rotatable_bonds>
8

> <r_i_docking_score>
-9.48820333059549

> <r_i_glide_ligand_efficiency>
-0.3060710751805

> <r_i_glide_ligand_efficiency_sa>
-0.961485752728076

> <r_i_glide_ligand_efficiency_ln>
-2.13988062956019

> <r_i_glide_gscore>
-9.48820333059549

> <r_i_glide_lipo>
-2.12087645200836

> <r_i_glide_hbond>
-1.20741361045036

> <r_i_glide_metal>
0

> <r_i_glide_rewards>
-2.56650838899612

> <r_i_glide_evdw>
-35.3244705200195

> <r_i_glide_ecoul>
-14.7380628585815

> <r_i_glide_erotb>
0.383528075647566

> <r_i_glide_esite>
0

> <r_i_glide_emodel>
-75.9610487882721

> <r_i_glide_energy>
-50.0625333786011

> <r_i_glide_einternal>
8.20135688781738

> <i_i_glide_confnum>
1

> <i_i_glide_posenum>
246

> <r_i_glide_eff_state_penalty>
0

> <s_user_duplicate_titles>
CHEMBL267_lig1515,459509

> <i_f3d_flags>
0

> <s_m_subgroup_title>
dock_pv

> <s_m_subgroupid>
dock_pv

> <b_m_subgroup_collapsed>
1

$$$$
CHEMBL267_lig125
                    3D
 Schrodinger Suite 2021-1.
 63 66  0  0  1  0            999 V2000
    4.1851    8.4050    6.5045 N   0  0  0  0  0  0
    5.4186    7.8917    6.8999 C   0  0  0  0  0  0
    4.3727    9.3058    5.5110 N   0  0  0  0  0  0
    5.6534    9.4220    5.2563 C   0  0  0  0  0  0
    6.3968    8.5286    6.0961 C   0  0  0  0  0  0
    2.8601    8.0614    6.9001 C   0  0  0  0  0  0
   -3.4029   -1.8593    7.3257 P   0  0  0  0  0  0
   -1.8779   -1.0151    6.7045 C   0  0  0  0  0  0
    2.5981    6.8671    7.5899 C   0  0  0  0  0  0
    6.1342   10.3519    4.1932 C   0  0  0  0  0  0
   -0.7744   -0.4098    8.0108 P   0  0  1  0  0  0
    1.3019    6.5155    7.9873 C   0  0  0  0  0  0
    5.6824    6.9557    7.8222 N   0  0  0  0  0  0
    7.7247    8.1085    6.3055 C   0  0  0  0  0  0
    1.0719    5.2218    8.7400 C   0  0  0  0  0  0
    8.0232    7.1231    7.1876 N   0  0  0  0  0  0
    5.4276   10.4720    2.9911 C   0  0  0  0  0  0
    7.3064   11.0854    4.3781 C   0  0  0  0  0  0
    6.9858    6.5900    7.8756 C   0  0  0  0  0  0
    5.8916   11.3181    1.9875 C   0  0  0  0  0  0
   -4.0823   -2.8285    6.3868 O   0  0  0  0  0  0
    1.7884    8.9263    6.6287 C   0  0  0  0  0  0
   -0.6021   -1.3422    9.1595 O   0  0  0  0  0  0
    2.0150    4.6264    9.2613 O   0  0  0  0  0  0
   -2.7993   -2.5630    8.7592 O   0  0  0  0  0  0
   -4.3743   -0.5630    7.8401 O   0  0  0  0  0  0
   -0.1912    4.7559    8.7880 N   0  0  0  0  0  0
    8.7873    8.6370    5.5880 N   0  0  0  0  0  0
    0.5889   -0.1644    7.1880 O   0  0  0  0  0  0
    7.7772   11.9259    3.3736 C   0  0  0  0  0  0
    7.0706   12.0390    2.1763 C   0  0  0  0  0  0
   -1.3090    1.3116    8.3873 C   0  0  0  0  0  0
    0.2554    7.3938    7.6824 C   0  0  0  0  0  0
    0.4933    8.5885    7.0082 C   0  0  0  0  0  0
   -0.1380    2.2305    8.7881 C   0  0  0  0  0  0
   -0.6061    3.5371    9.4783 C   0  0  0  0  0  0
    7.5693   12.9597    1.0783 C   0  0  0  0  0  0
   -1.2997   -1.7375    6.1272 H   0  0  0  0  0  0
   -2.1098   -0.2152    6.0002 H   0  0  0  0  0  0
    3.3952    6.1773    7.8149 H   0  0  0  0  0  0
    4.5191    9.9092    2.8327 H   0  0  0  0  0  0
    7.8404   11.0364    5.3139 H   0  0  0  0  0  0
    7.2155    5.7702    8.5419 H   0  0  0  0  0  0
    5.3380   11.4181    1.0638 H   0  0  0  0  0  0
    1.9458    9.8621    6.1117 H   0  0  0  0  0  0
   -1.9179   -2.3017    9.1228 H   0  0  0  0  0  0
   -4.4777    0.2338    7.2619 H   0  0  0  0  0  0
   -0.9165    5.2573    8.2865 H   0  0  0  0  0  0
    8.6058    9.2895    4.8413 H   0  0  0  0  0  0
    9.6739    8.1520    5.6624 H   0  0  0  0  0  0
    0.5981   -0.4993    6.2533 H   0  0  0  0  0  0
    8.6817   12.4949    3.5319 H   0  0  0  0  0  0
   -1.8019    1.7280    7.5118 H   0  0  0  0  0  0
   -2.0653    1.2586    9.1716 H   0  0  0  0  0  0
   -0.7506    7.1546    7.9844 H   0  0  0  0  0  0
   -0.3252    9.2545    6.7776 H   0  0  0  0  0  0
    0.5438    1.7033    9.4591 H   0  0  0  0  0  0
    0.4699    2.4470    7.9090 H   0  0  0  0  0  0
   -1.6908    3.5658    9.5981 H   0  0  0  0  0  0
   -0.1967    3.5805   10.4896 H   0  0  0  0  0  0
    6.7807   13.6551    0.7880 H   0  0  0  0  0  0
    8.4359   13.5449    1.3870 H   0  0  0  0  0  0
    7.8312   12.3821    0.1906 H   0  0  0  0  0  0
  1  2  1  0  0  0
  1  3  1  0  0  0
  1  6  1  0  0  0
  2  5  1  0  0  0
  2 13  2  0  0  0
  3  4  2  0  0  0
  4 10  1  0  0  0
  4  5  1  0  0  0
  5 14  2  0  0  0
  6  9  1  0  0  0
  6 22  2  0  0  0
  7  8  1  0  0  0
  7 21  2  0  0  0
  7 25  1  0  0  0
  7 26  1  0  0  0
  8 11  1  0  0  0
  8 38  1  0  0  0
  8 39  1  0  0  0
  9 12  2  0  0  0
  9 40  1  0  0  0
 10 17  1  0  0  0
 10 18  2  0  0  0
 11 32  1  0  0  0
 11 23  2  0  0  0
 11 29  1  0  0  0
 12 15  1  0  0  0
 12 33  1  0  0  0
 13 19  1  0  0  0
 14 28  1  0  0  0
 14 16  1  0  0  0
 15 24  2  0  0  0
 15 27  1  0  0  0
 16 19  2  0  0  0
 17 20  2  0  0  0
 17 41  1  0  0  0
 18 30  1  0  0  0
 18 42  1  0  0  0
 19 43  1  0  0  0
 20 31  1  0  0  0
 20 44  1  0  0  0
 22 34  1  0  0  0
 22 45  1  0  0  0
 25 46  1  0  0  0
 26 47  1  0  0  0
 27 36  1  0  0  0
 27 48  1  0  0  0
 28 49  1  0  0  0
 28 50  1  0  0  0
 29 51  1  0  0  0
 30 31  2  0  0  0
 30 52  1  0  0  0
 31 37  1  0  0  0
 32 35  1  0  0  0
 32 53  1  0  0  0
 32 54  1  0  0  0
 33 34  2  0  0  0
 33 55  1  0  0  0
 34 56  1  0  0  0
 35 36  1  0  0  0
 35 57  1  0  0  0
 35 58  1  0  0  0
 36 59  1  0  0  0
 36 60  1  0  0  0
 37 61  1  0  0  0
 37 62  1  0  0  0
 37 63  1  0  0  0
M  END
> <s_m_entry_id>
31751

> <s_m_entry_name>
dock_pv.14

> <s_m_Source_Path>
/home/csk/Desktop/cluster/DUD-E-result/src

> <s_m_Source_File>
dock_pv.maegz

> <i_m_Source_File_Index>
14

> <chembl_id>
CHEMBL3706662

> <chembl_pref_name>
None

> <i_lp_mmshare_version>
53161

> <r_lp_tautomer_probability>
1

> <s_lp_Force_Field>
OPLS_2005

> <r_lp_Energy>
18.017591

> <b_lp_Chiralities_Consistent>
1

> <s_lp_Variant>
CHEMBL267_lig125-1

> <s_i_glide_gridfile>
glide-grid_3el8

> <i_i_glide_lignum>
171

> <i_i_glide_rotatable_bonds>
13

> <r_i_docking_score>
-9.48289406090187

> <r_i_glide_ligand_efficiency>
-0.256294434078429

> <r_i_glide_ligand_efficiency_sa>
-0.85402991266343

> <r_i_glide_ligand_efficiency_ln>
-2.05661741123119

> <r_i_glide_gscore>
-9.48289406090187

> <r_i_glide_lipo>
-2.49735417881398

> <r_i_glide_hbond>
-0.599487123784171

> <r_i_glide_metal>
0

> <r_i_glide_rewards>
-1.1484427109028

> <r_i_glide_evdw>
-46.076732635498

> <r_i_glide_ecoul>
-22.7111759185791

> <r_i_glide_erotb>
0.488805996731378

> <r_i_glide_esite>
-0.0159030245705262

> <r_i_glide_emodel>
-104.183309000981

> <r_i_glide_energy>
-68.7879085540771

> <r_i_glide_einternal>
12.7872877120972

> <i_i_glide_confnum>
4

> <i_i_glide_posenum>
16

> <r_i_glide_eff_state_penalty>
0

> <s_user_duplicate_titles>
CHEMBL267_lig125

> <i_f3d_flags>
0

> <s_m_subgroup_title>
dock_pv

> <s_m_subgroupid>
dock_pv

> <b_m_subgroup_collapsed>
1

$$$$
CHEMBL267_lig2139
                    3D
 Schrodinger Suite 2021-1.
 47 50  0  0  1  0            999 V2000
    8.4999    8.2374    6.0299 N   0  0  0  0  0  0
    8.2194    9.2801    5.1880 C   0  0  0  0  0  0
    6.8820    9.5923    5.1021 N   0  0  0  0  0  0
    7.7239    7.5009    6.8741 C   0  0  0  0  0  0
    6.3561    7.9302    6.7547 C   0  0  0  0  0  0
    5.9280    8.9327    5.8847 C   0  0  0  0  0  0
    4.6252    9.1376    5.9358 N   0  0  0  0  0  0
    5.2109    7.5248    7.4152 N   0  0  0  0  0  0
    4.2107    8.2960    6.8624 C   0  0  0  0  0  0
    3.0447    7.9678    7.5046 N   0  0  0  0  0  0
    3.3302    6.9810    8.4564 C   0  0  0  0  0  0
    4.6884    6.6820    8.3878 C   0  0  0  0  0  0
    2.3075    6.4303    9.3945 C   0  0  0  0  0  0
    1.2338    5.7023    8.8681 C   0  0  0  0  0  0
    0.1899    5.2799    9.6883 C   0  0  0  0  0  0
    0.2158    5.5669   11.0502 C   0  0  0  0  0  0
    1.3104    6.2369   11.5940 C   0  0  0  0  0  0
    2.3754    6.6428   10.7827 C   0  0  0  0  0  0
    6.4861   10.6795    4.2008 C   0  0  0  0  0  0
    8.1980    6.6283    7.5881 O   0  0  0  0  0  0
    9.1451    9.8466    4.6090 O   0  0  0  0  0  0
    1.7649    8.6535    7.2658 C   0  0  0  0  0  0
    0.7844    7.8867    6.3407 C   0  0  0  0  0  0
    1.4213    7.1479    5.1458 C   0  0  0  0  0  0
    0.3866    6.4230    4.2740 C   0  0  0  0  0  0
    3.5786    7.3159   11.4290 C   0  0  0  0  0  0
    9.4720    7.9636    6.0251 H   0  0  0  0  0  0
    5.2976    5.9904    8.9545 H   0  0  0  0  0  0
    1.1996    5.4726    7.8149 H   0  0  0  0  0  0
   -0.6520    4.7481    9.2671 H   0  0  0  0  0  0
   -0.6033    5.2579   11.6845 H   0  0  0  0  0  0
    1.3362    6.4249   12.6584 H   0  0  0  0  0  0
    7.1128   11.5611    4.3493 H   0  0  0  0  0  0
    6.5905   10.3639    3.1602 H   0  0  0  0  0  0
    5.4508   10.9871    4.3580 H   0  0  0  0  0  0
    1.9887    9.6255    6.8212 H   0  0  0  0  0  0
    1.3050    8.8564    8.2336 H   0  0  0  0  0  0
    0.0528    8.6013    5.9568 H   0  0  0  0  0  0
    0.1888    7.1860    6.9236 H   0  0  0  0  0  0
    2.1406    6.4109    5.5024 H   0  0  0  0  0  0
    1.9829    7.8512    4.5306 H   0  0  0  0  0  0
    0.8815    5.8565    3.4842 H   0  0  0  0  0  0
   -0.3026    7.1227    3.8022 H   0  0  0  0  0  0
   -0.2011    5.7201    4.8649 H   0  0  0  0  0  0
    3.4582    7.4374   12.5053 H   0  0  0  0  0  0
    4.4667    6.7060   11.2695 H   0  0  0  0  0  0
    3.7673    8.2927   10.9850 H   0  0  0  0  0  0
  1  2  1  0  0  0
  1  4  1  0  0  0
  1 27  1  0  0  0
  2  3  1  0  0  0
  2 21  2  0  0  0
  3  6  1  0  0  0
  3 19  1  0  0  0
  4  5  1  0  0  0
  4 20  2  0  0  0
  5  6  2  0  0  0
  5  8  1  0  0  0
  6  7  1  0  0  0
  7  9  2  0  0  0
  8  9  1  0  0  0
  8 12  1  0  0  0
  9 10  1  0  0  0
 10 11  1  0  0  0
 10 22  1  0  0  0
 11 12  2  0  0  0
 11 13  1  0  0  0
 12 28  1  0  0  0
 13 14  2  0  0  0
 13 18  1  0  0  0
 14 15  1  0  0  0
 14 29  1  0  0  0
 15 16  2  0  0  0
 15 30  1  0  0  0
 16 17  1  0  0  0
 16 31  1  0  0  0
 17 18  2  0  0  0
 17 32  1  0  0  0
 18 26  1  0  0  0
 19 33  1  0  0  0
 19 34  1  0  0  0
 19 35  1  0  0  0
 22 23  1  0  0  0
 22 36  1  0  0  0
 22 37  1  0  0  0
 23 24  1  0  0  0
 23 38  1  0  0  0
 23 39  1  0  0  0
 24 25  1  0  0  0
 24 40  1  0  0  0
 24 41  1  0  0  0
 25 42  1  0  0  0
 25 43  1  0  0  0
 25 44  1  0  0  0
 26 45  1  0  0  0
 26 46  1  0  0  0
 26 47  1  0  0  0
M  END
> <s_m_entry_id>
31752

> <s_m_entry_name>
dock_pv.15

> <s_m_Source_Path>
/home/csk/Desktop/cluster/DUD-E-result/src

> <s_m_Source_File>
dock_pv.maegz

> <i_m_Source_File_Index>
15

> <chembl_id>
CHEMBL2333603

> <chembl_pref_name>
None

> <i_lp_mmshare_version>
53161

> <r_lp_tautomer_probability>
1

> <s_lp_Force_Field>
OPLS_2005

> <r_lp_Energy>
43.981532

> <b_lp_Chiralities_Consistent>
1

> <s_lp_Variant>
CHEMBL267_lig2139-1

> <s_i_glide_gridfile>
glide-grid_3el8

> <i_i_glide_lignum>
2425

> <i_i_glide_rotatable_bonds>
4

> <r_i_docking_score>
-9.44723670231273

> <r_i_glide_ligand_efficiency>
-0.363355257781259

> <r_i_glide_ligand_efficiency_sa>
-1.07643852144308

> <r_i_glide_ligand_efficiency_ln>
-2.21865254062614

> <r_i_glide_gscore>
-9.44723670231273

> <r_i_glide_lipo>
-3.19249782138701

> <r_i_glide_hbond>
-0.477489380468011

> <r_i_glide_metal>
0

> <r_i_glide_rewards>
-3.14986964616457

> <r_i_glide_evdw>
-43.4740562438965

> <r_i_glide_ecoul>
-5.18686199188232

> <r_i_glide_erotb>
0.324352256684027

> <r_i_glide_esite>
0

> <r_i_glide_emodel>
-73.8318524620119

> <r_i_glide_energy>
-48.6609182357788

> <r_i_glide_einternal>
1.4443165063858

> <i_i_glide_confnum>
12

> <i_i_glide_posenum>
18

> <r_i_glide_eff_state_penalty>
0

> <s_user_duplicate_titles>
CHEMBL267_lig2139

> <i_f3d_flags>
0

> <s_m_subgroup_title>
dock_pv

> <s_m_subgroupid>
dock_pv

> <b_m_subgroup_collapsed>
1

$$$$
CHEMBL267_lig1492
                    3D
 Schrodinger Suite 2021-1.
 44 47  0  0  1  0            999 V2000
    7.4960    6.5261    7.5881 N   0  0  0  0  0  0
    7.8584    7.5155    6.7371 C   0  0  0  0  0  0
    7.0629    8.4716    6.1940 N   0  0  0  0  0  0
    6.1980    6.4965    7.9804 C   0  0  0  0  0  0
    5.2656    7.4336    7.4949 C   0  0  0  0  0  0
    5.7735    8.3877    6.5623 C   0  0  0  0  0  0
    4.7077    9.1832    6.1373 N   0  0  0  0  0  0
    3.5699    8.6829    6.7488 C   0  0  0  0  0  0
    3.8667    7.6911    7.6609 C   0  0  0  0  0  0
    2.9268    6.9693    8.5525 C   0  0  0  0  0  0
    1.9566    6.1143    8.0268 C   0  0  0  0  0  0
    1.0862    5.4162    8.8662 C   0  0  0  0  0  0
    1.1774    5.6125   10.2543 C   0  0  0  0  0  0
    2.1443    6.4665   10.7851 C   0  0  0  0  0  0
    3.0206    7.1388    9.9352 C   0  0  0  0  0  0
    4.7275   10.2984    5.2545 C   0  0  0  0  0  0
    3.8366   11.3625    5.4652 C   0  0  0  0  0  0
    3.8994   12.5093    4.6760 C   0  0  0  0  0  0
    4.8644   12.6187    3.6791 C   0  0  0  0  0  0
    5.7691   11.5778    3.4608 C   0  0  0  0  0  0
    5.6936   10.4207    4.2438 C   0  0  0  0  0  0
    5.8007    5.4368    8.7879 N   0  0  0  0  0  0
    0.1969    4.5620    8.2537 O   0  0  0  0  0  0
   -0.7551    3.8561    9.0466 C   0  0  0  0  0  0
    6.8177   11.6970    2.3716 C   0  0  0  0  0  0
    6.4353   11.0372    1.1874 O   0  0  0  0  0  0
    8.8988    7.5372    6.4394 H   0  0  0  0  0  0
    2.6100    9.1242    6.5292 H   0  0  0  0  0  0
    1.8872    5.9710    6.9583 H   0  0  0  0  0  0
    0.5214    5.0939   10.9381 H   0  0  0  0  0  0
    2.2220    6.5962   11.8536 H   0  0  0  0  0  0
    3.7742    7.7905   10.3547 H   0  0  0  0  0  0
    3.1004   11.3225    6.2538 H   0  0  0  0  0  0
    3.2047   13.3192    4.8411 H   0  0  0  0  0  0
    4.9057   13.5140    3.0739 H   0  0  0  0  0  0
    6.3954    9.6226    4.0470 H   0  0  0  0  0  0
    4.8426    5.3848    9.1061 H   0  0  0  0  0  0
    6.4990    4.7687    9.0904 H   0  0  0  0  0  0
   -1.4281    3.2988    8.3981 H   0  0  0  0  0  0
   -0.2600    3.1420    9.7031 H   0  0  0  0  0  0
   -1.3673    4.5340    9.6438 H   0  0  0  0  0  0
    7.0435   12.7442    2.1681 H   0  0  0  0  0  0
    7.7547   11.2679    2.7293 H   0  0  0  0  0  0
    6.1957   11.6977    0.5203 H   0  0  0  0  0  0
  1  2  2  0  0  0
  1  4  1  0  0  0
  2  3  1  0  0  0
  2 27  1  0  0  0
  3  6  2  0  0  0
  4  5  2  0  0  0
  4 22  1  0  0  0
  5  9  1  0  0  0
  5  6  1  0  0  0
  6  7  1  0  0  0
  7  8  1  0  0  0
  7 16  1  0  0  0
  8  9  2  0  0  0
  8 28  1  0  0  0
  9 10  1  0  0  0
 10 15  1  0  0  0
 10 11  2  0  0  0
 11 12  1  0  0  0
 11 29  1  0  0  0
 12 13  2  0  0  0
 12 23  1  0  0  0
 13 14  1  0  0  0
 13 30  1  0  0  0
 14 15  2  0  0  0
 14 31  1  0  0  0
 15 32  1  0  0  0
 16 17  2  0  0  0
 16 21  1  0  0  0
 17 18  1  0  0  0
 17 33  1  0  0  0
 18 19  2  0  0  0
 18 34  1  0  0  0
 19 20  1  0  0  0
 19 35  1  0  0  0
 20 21  2  0  0  0
 20 25  1  0  0  0
 21 36  1  0  0  0
 22 37  1  0  0  0
 22 38  1  0  0  0
 23 24  1  0  0  0
 24 39  1  0  0  0
 24 40  1  0  0  0
 24 41  1  0  0  0
 25 26  1  0  0  0
 25 42  1  0  0  0
 25 43  1  0  0  0
 26 44  1  0  0  0
M  END
> <s_m_entry_id>
31753

> <s_m_entry_name>
dock_pv.16

> <s_m_Source_Path>
/home/csk/Desktop/cluster/DUD-E-result/src

> <s_m_Source_File>
dock_pv.maegz

> <i_m_Source_File_Index>
16

> <chembl_id>
CHEMBL176815

> <chembl_pref_name>
None

> <i_lp_mmshare_version>
53161

> <r_lp_tautomer_probability>
1

> <s_lp_Force_Field>
OPLS_2005

> <r_lp_Energy>
20.958718

> <b_lp_Chiralities_Consistent>
1

> <s_lp_Variant>
CHEMBL267_lig1492-1

> <s_i_glide_gridfile>
glide-grid_3el8

> <i_i_glide_lignum>
1673

> <i_i_glide_rotatable_bonds>
5

> <r_i_docking_score>
-9.29440325807936

> <r_i_glide_ligand_efficiency>
-0.357477048387668

> <r_i_glide_ligand_efficiency_sa>
-1.0590243492442

> <r_i_glide_ligand_efficiency_ln>
-2.18276010773537

> <r_i_glide_gscore>
-9.29440325807936

> <r_i_glide_lipo>
-2.79161898266315

> <r_i_glide_hbond>
-0.782414367816322

> <r_i_glide_metal>
0

> <r_i_glide_rewards>
-2.81519305345183

> <r_i_glide_evdw>
-38.775951385498

> <r_i_glide_ecoul>
-9.61160659790039

> <r_i_glide_erotb>
0.4753617048119

> <r_i_glide_esite>
0

> <r_i_glide_emodel>
-72.2593355917507

> <r_i_glide_energy>
-48.3875579833984

> <r_i_glide_einternal>
7.27714586257935

> <i_i_glide_confnum>
5

> <i_i_glide_posenum>
378

> <r_i_glide_eff_state_penalty>
0

> <s_user_duplicate_titles>
CHEMBL267_lig1492,290801

> <i_f3d_flags>
0

> <s_m_subgroup_title>
dock_pv

> <s_m_subgroupid>
dock_pv

> <b_m_subgroup_collapsed>
1

$$$$
CHEMBL267_lig422
                    3D
 Schrodinger Suite 2021-1.
 46 49  0  0  1  0            999 V2000
    6.0904    8.4471    6.5254 C   0  0  0  0  0  0
    5.0239    9.1905    6.0357 N   0  0  0  0  0  0
    5.5706    7.4619    7.4128 C   0  0  0  0  0  0
    4.1636    7.7156    7.5608 C   0  0  0  0  0  0
    3.8767    8.7071    6.6474 C   0  0  0  0  0  0
    5.1287   10.3467    5.1232 C   0  0  2  0  0  0
    7.3886    8.5952    6.2166 N   0  0  0  0  0  0
    6.5123    6.5358    7.8952 C   0  0  0  0  0  0
    3.1998    7.0454    8.4693 C   0  0  0  0  0  0
    3.9658   11.2199    3.2103 N   0  0  2  0  0  0
    7.8289    6.6367    7.5878 N   0  0  0  0  0  0
    3.7869   10.9203    4.6268 C   0  0  0  0  0  0
    8.1960    7.6686    6.7892 C   0  0  0  0  0  0
    1.8329   10.1142    2.2916 C   0  0  0  0  0  0
    5.9298   10.0586    3.8396 C   0  0  0  0  0  0
    2.1143    6.3161    7.9749 C   0  0  0  0  0  0
    2.7276   11.3809    2.4177 C   0  0  0  0  0  0
    4.9378   10.2568    2.7044 C   0  0  0  0  0  0
    2.1249    9.0285    2.7888 O   0  0  0  0  0  0
    6.1135    5.4368    8.6459 N   0  0  0  0  0  0
    0.7140   10.2374    1.5865 N   0  0  0  0  0  0
    1.2293    5.6966    8.8600 C   0  0  0  0  0  0
    3.3735    7.1738    9.8511 C   0  0  0  0  0  0
    0.1979    4.9324    8.3873 O   0  0  0  0  0  0
    2.4718    6.5816   10.7329 C   0  0  0  0  0  0
    1.4020    5.8376   10.2357 C   0  0  0  0  0  0
    2.9165    9.1589    6.4574 H   0  0  0  0  0  0
    5.6595   11.0812    5.7316 H   0  0  0  0  0  0
    3.4623   11.8021    5.1795 H   0  0  0  0  0  0
    2.9751   10.2054    4.7173 H   0  0  0  0  0  0
    9.2500    7.7545    6.5638 H   0  0  0  0  0  0
    6.3509    9.0546    3.8048 H   0  0  0  0  0  0
    6.7670   10.7498    3.7361 H   0  0  0  0  0  0
    1.9766    6.2068    6.9091 H   0  0  0  0  0  0
    2.9932   11.7201    1.4155 H   0  0  0  0  0  0
    2.1351   12.1880    2.8496 H   0  0  0  0  0  0
    4.5006    9.3108    2.3883 H   0  0  0  0  0  0
    5.4023   10.6713    1.8087 H   0  0  0  0  0  0
    5.1394    5.3450    8.9010 H   0  0  0  0  0  0
    6.8072    4.7725    8.9731 H   0  0  0  0  0  0
    0.1940    9.3844    1.4013 H   0  0  0  0  0  0
    0.4466   11.1073    1.1543 H   0  0  0  0  0  0
    4.2018    7.7427   10.2460 H   0  0  0  0  0  0
   -0.5106    5.4369    7.9659 H   0  0  0  0  0  0
    2.6126    6.6799   11.7996 H   0  0  0  0  0  0
    0.7123    5.3585   10.9168 H   0  0  0  0  0  0
  1  2  1  0  0  0
  1  3  2  0  0  0
  1  7  1  0  0  0
  2  5  1  0  0  0
  2  6  1  0  0  0
  3  4  1  0  0  0
  3  8  1  0  0  0
  4  9  1  0  0  0
  4  5  2  0  0  0
  5 27  1  0  0  0
  6 12  1  0  0  0
  6 15  1  0  0  0
  6 28  1  0  0  0
  7 13  2  0  0  0
  8 20  1  0  0  0
  8 11  2  0  0  0
  9 16  2  0  0  0
  9 23  1  0  0  0
 10 12  1  0  0  0
 10 17  1  0  0  0
 10 18  1  0  0  0
 11 13  1  0  0  0
 12 29  1  0  0  0
 12 30  1  0  0  0
 13 31  1  0  0  0
 14 17  1  0  0  0
 14 19  2  0  0  0
 14 21  1  0  0  0
 15 18  1  0  0  0
 15 32  1  0  0  0
 15 33  1  0  0  0
 16 22  1  0  0  0
 16 34  1  0  0  0
 17 35  1  0  0  0
 17 36  1  0  0  0
 18 37  1  0  0  0
 18 38  1  0  0  0
 20 39  1  0  0  0
 20 40  1  0  0  0
 21 41  1  0  0  0
 21 42  1  0  0  0
 22 24  1  0  0  0
 22 26  2  0  0  0
 23 25  2  0  0  0
 23 43  1  0  0  0
 24 44  1  0  0  0
 25 26  1  0  0  0
 25 45  1  0  0  0
 26 46  1  0  0  0
M  END
> <s_m_entry_id>
31754

> <s_m_entry_name>
dock_pv.17

> <s_m_Source_Path>
/home/csk/Desktop/cluster/DUD-E-result/src

> <s_m_Source_File>
dock_pv.maegz

> <i_m_Source_File_Index>
17

> <chembl_id>
CHEMBL408683

> <chembl_pref_name>
None

> <i_lp_mmshare_version>
53161

> <r_lp_tautomer_probability>
0.999999999997365

> <s_lp_Force_Field>
OPLS_2005

> <r_lp_Energy>
34.583912

> <b_lp_Chiralities_Consistent>
1

> <s_lp_Variant>
CHEMBL267_lig422-1

> <s_i_glide_gridfile>
glide-grid_3el8

> <i_i_glide_lignum>
500

> <i_i_glide_rotatable_bonds>
5

> <r_i_docking_score>
-9.28331205031628

> <r_i_glide_ligand_efficiency>
-0.357050463473703

> <r_i_glide_ligand_efficiency_sa>
-1.05776059311511

> <r_i_glide_ligand_efficiency_ln>
-2.18015537398543

> <r_i_glide_gscore>
-9.28331205031628

> <r_i_glide_lipo>
-2.36976571765663

> <r_i_glide_hbond>
-1.14386055710251

> <r_i_glide_metal>
0

> <r_i_glide_rewards>
-2.92076190959785

> <r_i_glide_evdw>
-35.2767219543457

> <r_i_glide_ecoul>
-9.09889793395996

> <r_i_glide_erotb>
0.322736384994407

> <r_i_glide_esite>
-0.0429894631424207

> <r_i_glide_emodel>
-64.5132232450761

> <r_i_glide_energy>
-44.3756198883057

> <r_i_glide_einternal>
10.0468988418579

> <i_i_glide_confnum>
7

> <i_i_glide_posenum>
400

> <r_i_glide_eff_state_penalty>
0

> <s_user_duplicate_titles>
CHEMBL267_lig422,281739

> <i_f3d_flags>
0

> <s_m_subgroup_title>
dock_pv

> <s_m_subgroupid>
dock_pv

> <b_m_subgroup_collapsed>
1

$$$$
CHEMBL267_lig435
                    3D
 Schrodinger Suite 2021-1.
 58 61  0  0  1  0            999 V2000
    5.1777    9.2699    5.8224 N   0  0  0  0  0  0
    6.1673    8.4846    6.3881 C   0  0  0  0  0  0
    5.5459    7.5320    7.2488 C   0  0  0  0  0  0
    4.1314    7.8370    7.2730 C   0  0  0  0  0  0
    4.3350   12.0291    3.5843 N   0  0  0  0  0  0
    3.9658    8.8437    6.3312 C   0  0  0  0  0  0
    3.5618   13.1595    3.2953 C   0  0  0  0  0  0
    5.3938   10.3113    4.8072 C   0  0  2  0  0  0
    4.5229   11.5641    4.9633 C   0  0  0  0  0  0
    7.4823    8.5728    6.1458 N   0  0  0  0  0  0
    6.4297    6.5716    7.7945 C   0  0  0  0  0  0
    4.9227   11.1235    2.5759 C   0  0  2  0  0  0
    5.1171    9.8315    3.3847 C   0  0  0  0  0  0
    7.7670    6.6370    7.5880 N   0  0  0  0  0  0
    3.5138   13.3826    1.9492 O   0  0  0  0  0  0
    3.0535    7.2201    8.1072 C   0  0  0  0  0  0
    8.2150    7.6392    6.7974 C   0  0  0  0  0  0
    2.9985   13.8600    4.1389 O   0  0  0  0  0  0
    2.8128   14.4543    1.3001 C   0  0  0  0  0  0
    1.7798    6.9985    7.5702 C   0  0  0  0  0  0
    3.3146    6.8497    9.4302 C   0  0  0  0  0  0
    5.9758    5.4400    8.4671 N   0  0  0  0  0  0
    1.0491    6.0640    9.6705 C   0  0  0  0  0  0
    0.7774    6.4228    8.3517 C   0  0  0  0  0  0
    2.3150    6.2730   10.2093 C   0  0  0  0  0  0
    6.2434   11.6957    1.9991 C   0  0  0  0  0  0
    0.0713    5.5113   10.4534 O   0  0  0  0  0  0
    6.5843   11.0370    0.7937 O   0  0  0  0  0  0
    3.1131   14.2441   -0.1965 C   0  0  0  0  0  0
    3.3543   15.8354    1.7417 C   0  0  0  0  0  0
    1.2880   14.3508    1.5384 C   0  0  0  0  0  0
    3.0550    9.3264    6.0085 H   0  0  0  0  0  0
    6.4367   10.6232    4.9049 H   0  0  0  0  0  0
    5.0074   12.3150    5.5896 H   0  0  0  0  0  0
    3.5561   11.3485    5.4170 H   0  0  0  0  0  0
    4.2288   10.9579    1.7482 H   0  0  0  0  0  0
    5.8824    9.1728    2.9748 H   0  0  0  0  0  0
    4.1764    9.2770    3.3655 H   0  0  0  0  0  0
    9.2844    7.6888    6.6470 H   0  0  0  0  0  0
    1.5653    7.2644    6.5457 H   0  0  0  0  0  0
    4.2861    7.0219    9.8698 H   0  0  0  0  0  0
    4.9851    5.3213    8.6246 H   0  0  0  0  0  0
    6.6492    4.7655    8.8095 H   0  0  0  0  0  0
   -0.2016    6.2481    7.9320 H   0  0  0  0  0  0
    2.5245    5.9895   11.2309 H   0  0  0  0  0  0
    6.1385   12.7554    1.7581 H   0  0  0  0  0  0
    7.0653   11.6133    2.7120 H   0  0  0  0  0  0
   -0.7996    5.4831   10.0443 H   0  0  0  0  0  0
    6.2667   11.5914    0.0560 H   0  0  0  0  0  0
    2.6222   14.9936   -0.8169 H   0  0  0  0  0  0
    2.7797   13.2627   -0.5385 H   0  0  0  0  0  0
    4.1847   14.2973   -0.4002 H   0  0  0  0  0  0
    3.1287   16.0498    2.7868 H   0  0  0  0  0  0
    4.4385   15.8866    1.6286 H   0  0  0  0  0  0
    2.9242   16.6402    1.1453 H   0  0  0  0  0  0
    1.0238   14.5116    2.5841 H   0  0  0  0  0  0
    0.7430   15.0877    0.9489 H   0  0  0  0  0  0
    0.9139   13.3635    1.2599 H   0  0  0  0  0  0
  1  2  1  0  0  0
  1  6  1  0  0  0
  1  8  1  0  0  0
  2  3  2  0  0  0
  2 10  1  0  0  0
  3 11  1  0  0  0
  3  4  1  0  0  0
  4  6  2  0  0  0
  4 16  1  0  0  0
  5  9  1  0  0  0
  5  7  1  0  0  0
  5 12  1  0  0  0
  6 32  1  0  0  0
  7 15  1  0  0  0
  7 18  2  0  0  0
  8  9  1  0  0  0
  8 13  1  0  0  0
  8 33  1  0  0  0
  9 34  1  0  0  0
  9 35  1  0  0  0
 10 17  2  0  0  0
 11 22  1  0  0  0
 11 14  2  0  0  0
 12 13  1  0  0  0
 12 26  1  0  0  0
 12 36  1  0  0  0
 13 37  1  0  0  0
 13 38  1  0  0  0
 14 17  1  0  0  0
 15 19  1  0  0  0
 16 20  1  0  0  0
 16 21  2  0  0  0
 17 39  1  0  0  0
 19 29  1  0  0  0
 19 30  1  0  0  0
 19 31  1  0  0  0
 20 24  2  0  0  0
 20 40  1  0  0  0
 21 25  1  0  0  0
 21 41  1  0  0  0
 22 42  1  0  0  0
 22 43  1  0  0  0
 23 25  2  0  0  0
 23 27  1  0  0  0
 23 24  1  0  0  0
 24 44  1  0  0  0
 25 45  1  0  0  0
 26 28  1  0  0  0
 26 46  1  0  0  0
 26 47  1  0  0  0
 27 48  1  0  0  0
 28 49  1  0  0  0
 29 50  1  0  0  0
 29 51  1  0  0  0
 29 52  1  0  0  0
 30 53  1  0  0  0
 30 54  1  0  0  0
 30 55  1  0  0  0
 31 56  1  0  0  0
 31 57  1  0  0  0
 31 58  1  0  0  0
M  END
> <s_m_entry_id>
31755

> <s_m_entry_name>
dock_pv.18

> <s_m_Source_Path>
/home/csk/Desktop/cluster/DUD-E-result/src

> <s_m_Source_File>
dock_pv.maegz

> <i_m_Source_File_Index>
18

> <chembl_id>
CHEMBL169043

> <chembl_pref_name>
None

> <i_lp_mmshare_version>
53161

> <r_lp_tautomer_probability>
0.999999999997365

> <s_lp_Force_Field>
OPLS_2005

> <r_lp_Energy>
37.347605

> <b_lp_Chiralities_Consistent>
1

> <s_lp_Variant>
CHEMBL267_lig435-1

> <s_i_glide_gridfile>
glide-grid_3el8

> <i_i_glide_lignum>
519

> <i_i_glide_rotatable_bonds>
8

> <r_i_docking_score>
-9.26429428737564

> <r_i_glide_ligand_efficiency>
-0.298848202818569

> <r_i_glide_ligand_efficiency_sa>
-0.938795961261587

> <r_i_glide_ligand_efficiency_ln>
-2.08938227832603

> <r_i_glide_gscore>
-9.26429428737564

> <r_i_glide_lipo>
-2.13798230659499

> <r_i_glide_hbond>
-0.988977907887856

> <r_i_glide_metal>
0

> <r_i_glide_rewards>
-2.51678743197237

> <r_i_glide_evdw>
-36.5608406066895

> <r_i_glide_ecoul>
-14.5068845748901

> <r_i_glide_erotb>
0.383528075647566

> <r_i_glide_esite>
0

> <r_i_glide_emodel>
-78.782440472629

> <r_i_glide_energy>
-51.0677251815796

> <r_i_glide_einternal>
4.38406705856323

> <i_i_glide_confnum>
9

> <i_i_glide_posenum>
318

> <r_i_glide_eff_state_penalty>
0

> <s_user_duplicate_titles>
CHEMBL267_lig435,283175

> <i_f3d_flags>
0

> <s_m_subgroup_title>
dock_pv

> <s_m_subgroupid>
dock_pv

> <b_m_subgroup_collapsed>
1

$$$$
CHEMBL267_lig2126
                    3D
 Schrodinger Suite 2021-1.
 42 45  0  0  1  0            999 V2000
    5.9708    9.8964    5.0532 C   0  0  0  0  0  0
    5.3097   11.1465    4.4494 C   0  0  0  0  0  0
    3.8950   10.8301    3.9727 C   0  0  0  0  0  0
    3.0274   10.3842    5.1588 C   0  0  0  0  0  0
    5.0656    9.1081    6.0191 C   0  0  0  0  0  0
    3.7109    9.3170    6.0398 C   0  0  0  0  0  0
    2.8083    8.6202    6.9691 C   0  0  0  0  0  0
    3.3777    7.6244    7.7233 N   0  0  0  0  0  0
    5.6501    7.9803    6.8259 C   0  0  0  0  0  0
    4.7588    7.2647    7.6551 C   0  0  0  0  0  0
    5.1552    6.1832    8.3881 N   0  0  0  0  0  0
    6.4523    5.8370    8.3159 C   0  0  0  0  0  0
    7.3998    6.4590    7.5859 N   0  0  0  0  0  0
    6.9893    7.5017    6.8233 C   0  0  0  0  0  0
    1.6171    8.9464    7.0702 O   0  0  0  0  0  0
    2.5217    6.9056    8.6135 C   0  0  0  0  0  0
    1.5873    6.0035    8.0785 C   0  0  0  0  0  0
    0.7350    5.2875    8.9176 C   0  0  0  0  0  0
    0.8232    5.4402   10.2967 C   0  0  0  0  0  0
    1.7633    6.3106   10.8420 C   0  0  0  0  0  0
    2.6088    7.0580   10.0147 C   0  0  0  0  0  0
    8.0052    8.0112    6.0241 N   0  0  0  0  0  0
    3.5997    8.0129   10.6670 C   0  0  0  0  0  0
   -0.2020    4.4458    8.3879 O   0  0  0  0  0  0
    6.8947   10.2023    5.5417 H   0  0  0  0  0  0
    6.2791    9.2264    4.2485 H   0  0  0  0  0  0
    5.9127   11.5274    3.6233 H   0  0  0  0  0  0
    5.2765   11.9441    5.1952 H   0  0  0  0  0  0
    3.9252   10.0454    3.2131 H   0  0  0  0  0  0
    3.4532   11.7050    3.4933 H   0  0  0  0  0  0
    2.0642   10.0388    4.7771 H   0  0  0  0  0  0
    2.7969   11.2557    5.7752 H   0  0  0  0  0  0
    6.7750    5.0370    8.9542 H   0  0  0  0  0  0
    1.5111    5.8671    7.0087 H   0  0  0  0  0  0
    0.1626    4.8822   10.9443 H   0  0  0  0  0  0
    1.8223    6.4130   11.9161 H   0  0  0  0  0  0
    7.8013    8.7521    5.3746 H   0  0  0  0  0  0
    8.8935    7.5260    6.0015 H   0  0  0  0  0  0
    3.7023    7.8372   11.7388 H   0  0  0  0  0  0
    4.5975    7.9135   10.2500 H   0  0  0  0  0  0
    3.2848    9.0370   10.4870 H   0  0  0  0  0  0
   -1.0143    4.9182    8.1473 H   0  0  0  0  0  0
  1  2  1  0  0  0
  1  5  1  0  0  0
  1 25  1  0  0  0
  1 26  1  0  0  0
  2  3  1  0  0  0
  2 27  1  0  0  0
  2 28  1  0  0  0
  3  4  1  0  0  0
  3 29  1  0  0  0
  3 30  1  0  0  0
  4  6  1  0  0  0
  4 31  1  0  0  0
  4 32  1  0  0  0
  5  6  2  0  0  0
  5  9  1  0  0  0
  6  7  1  0  0  0
  7 15  2  0  0  0
  7  8  1  0  0  0
  8 10  1  0  0  0
  8 16  1  0  0  0
  9 14  2  0  0  0
  9 10  1  0  0  0
 10 11  2  0  0  0
 11 12  1  0  0  0
 12 13  2  0  0  0
 12 33  1  0  0  0
 13 14  1  0  0  0
 14 22  1  0  0  0
 16 17  2  0  0  0
 16 21  1  0  0  0
 17 18  1  0  0  0
 17 34  1  0  0  0
 18 19  2  0  0  0
 18 24  1  0  0  0
 19 20  1  0  0  0
 19 35  1  0  0  0
 20 21  2  0  0  0
 20 36  1  0  0  0
 21 23  1  0  0  0
 22 37  1  0  0  0
 22 38  1  0  0  0
 23 39  1  0  0  0
 23 40  1  0  0  0
 23 41  1  0  0  0
 24 42  1  0  0  0
M  END
> <s_m_entry_id>
31756

> <s_m_entry_name>
dock_pv.19

> <s_m_Source_Path>
/home/csk/Desktop/cluster/DUD-E-result/src

> <s_m_Source_File>
dock_pv.maegz

> <i_m_Source_File_Index>
19

> <chembl_id>
CHEMBL2152704

> <chembl_pref_name>
None

> <i_lp_mmshare_version>
53161

> <r_lp_tautomer_probability>
1

> <s_lp_Force_Field>
OPLS_2005

> <r_lp_Energy>
40.760018

> <b_lp_Chiralities_Consistent>
1

> <s_lp_Variant>
CHEMBL267_lig2126-1

> <s_i_glide_gridfile>
glide-grid_3el8

> <i_i_glide_lignum>
2411

> <i_i_glide_rotatable_bonds>
2

> <r_i_docking_score>
-9.24722166532716

> <r_i_glide_ligand_efficiency>
-0.385300902721965

> <r_i_glide_ligand_efficiency_sa>
-1.11140012160226

> <r_i_glide_ligand_efficiency_ln>
-2.21328447186547

> <r_i_glide_gscore>
-9.24722166532716

> <r_i_glide_lipo>
-2.81678455350397

> <r_i_glide_hbond>
-0.63608389028675

> <r_i_glide_metal>
0

> <r_i_glide_rewards>
-3.14540447406198

> <r_i_glide_evdw>
-33.6293563842773

> <r_i_glide_ecoul>
-7.28961563110352

> <r_i_glide_erotb>
0.125961416404935

> <r_i_glide_esite>
0

> <r_i_glide_emodel>
-60.8610501796335

> <r_i_glide_energy>
-40.9189720153809

> <r_i_glide_einternal>
4.37693023681641

> <i_i_glide_confnum>
1

> <i_i_glide_posenum>
356

> <r_i_glide_eff_state_penalty>
0

> <s_user_duplicate_titles>
CHEMBL267_lig2126

> <i_f3d_flags>
0

> <s_m_subgroup_title>
dock_pv

> <s_m_subgroupid>
dock_pv

> <b_m_subgroup_collapsed>
1

$$$$
CHEMBL267_lig609
                    3D
 Schrodinger Suite 2021-1.
 40 43  0  0  1  0            999 V2000
    7.7910    6.8557    7.3583 N   0  0  0  0  0  0
    8.1863    7.8716    6.5490 C   0  0  0  0  0  0
    7.4023    8.8039    5.9515 N   0  0  0  0  0  0
    6.4655    6.7658    7.6239 C   0  0  0  0  0  0
    5.5379    7.7054    7.1181 C   0  0  0  0  0  0
    6.0962    8.7056    6.2573 C   0  0  0  0  0  0
    5.0617    9.5222    5.8140 N   0  0  0  0  0  0
    3.8941    9.0282    6.3688 C   0  0  0  0  0  0
    4.1243    7.9553    7.2139 C   0  0  0  0  0  0
    3.1100    7.2535    8.0328 C   0  0  0  0  0  0
    3.3563    6.9650    9.3806 C   0  0  0  0  0  0
    2.3939    6.2821   10.1349 C   0  0  0  0  0  0
    1.1953    5.9031    9.5446 C   0  0  0  0  0  0
    0.9450    6.1908    8.2056 C   0  0  0  0  0  0
    1.8953    6.8692    7.4456 C   0  0  0  0  0  0
    5.1152   10.6402    4.9503 C   0  0  0  0  0  0
    4.3010   11.7573    5.2075 C   0  0  0  0  0  0
    4.3613   12.8836    4.3833 C   0  0  0  0  0  0
    5.2516   12.9067    3.3131 C   0  0  0  0  0  0
    6.0816   11.8117    3.0525 C   0  0  0  0  0  0
    6.0084   10.6836    3.8723 C   0  0  0  0  0  0
    6.0518    5.6706    8.3893 N   0  0  0  0  0  0
    7.0418   11.8350    1.8631 C   0  0  0  0  0  0
    6.5887   11.0364    0.7866 O   0  0  0  0  0  0
    9.2510    7.9459    6.3686 H   0  0  0  0  0  0
    2.9475    9.5159    6.1450 H   0  0  0  0  0  0
    4.2795    7.2673    9.8466 H   0  0  0  0  0  0
    2.5951    6.0426   11.1702 H   0  0  0  0  0  0
    0.4583    5.3691   10.1196 H   0  0  0  0  0  0
    0.0141    5.8793    7.7451 H   0  0  0  0  0  0
    1.7046    7.0822    6.4080 H   0  0  0  0  0  0
    3.6134   11.7605    6.0481 H   0  0  0  0  0  0
    3.7151   13.7294    4.5822 H   0  0  0  0  0  0
    5.2931   13.7922    2.6871 H   0  0  0  0  0  0
    6.6434    9.8397    3.6556 H   0  0  0  0  0  0
    5.0678    5.5814    8.6066 H   0  0  0  0  0  0
    6.7382    4.9995    8.7153 H   0  0  0  0  0  0
    7.2443   12.8575    1.5313 H   0  0  0  0  0  0
    8.0145   11.4416    2.2021 H   0  0  0  0  0  0
    6.1979   11.6369    0.1133 H   0  0  0  0  0  0
  1  2  2  0  0  0
  1  4  1  0  0  0
  2  3  1  0  0  0
  2 25  1  0  0  0
  3  6  2  0  0  0
  4  5  2  0  0  0
  4 22  1  0  0  0
  5  9  1  0  0  0
  5  6  1  0  0  0
  6  7  1  0  0  0
  7  8  1  0  0  0
  7 16  1  0  0  0
  8  9  2  0  0  0
  8 26  1  0  0  0
  9 10  1  0  0  0
 10 15  1  0  0  0
 10 11  2  0  0  0
 11 12  1  0  0  0
 11 27  1  0  0  0
 12 13  2  0  0  0
 12 28  1  0  0  0
 13 14  1  0  0  0
 13 29  1  0  0  0
 14 15  2  0  0  0
 14 30  1  0  0  0
 15 31  1  0  0  0
 16 17  2  0  0  0
 16 21  1  0  0  0
 17 18  1  0  0  0
 17 32  1  0  0  0
 18 19  2  0  0  0
 18 33  1  0  0  0
 19 20  1  0  0  0
 19 34  1  0  0  0
 20 21  2  0  0  0
 20 23  1  0  0  0
 21 35  1  0  0  0
 22 36  1  0  0  0
 22 37  1  0  0  0
 23 24  1  0  0  0
 23 38  1  0  0  0
 23 39  1  0  0  0
 24 40  1  0  0  0
M  END
> <s_m_entry_id>
31757

> <s_m_entry_name>
dock_pv.20

> <s_m_Source_Path>
/home/csk/Desktop/cluster/DUD-E-result/src

> <s_m_Source_File>
dock_pv.maegz

> <i_m_Source_File_Index>
20

> <chembl_id>
CHEMBL173478

> <chembl_pref_name>
None

> <i_lp_mmshare_version>
53161

> <r_lp_tautomer_probability>
1

> <s_lp_Force_Field>
OPLS_2005

> <r_lp_Energy>
17.202624

> <b_lp_Chiralities_Consistent>
1

> <s_lp_Variant>
CHEMBL267_lig609-1

> <s_i_glide_gridfile>
glide-grid_3el8

> <i_i_glide_lignum>
712

> <i_i_glide_rotatable_bonds>
4

> <r_i_docking_score>
-9.24500532570669

> <r_i_glide_ligand_efficiency>
-0.385208555237779

> <r_i_glide_ligand_efficiency_sa>
-1.11113374536377

> <r_i_glide_ligand_efficiency_ln>
-2.21275400009309

> <r_i_glide_gscore>
-9.24500532570669

> <r_i_glide_lipo>
-2.212369431

> <r_i_glide_hbond>
-0.681905361908564

> <r_i_glide_metal>
0

> <r_i_glide_rewards>
-3.17607923978314

> <r_i_glide_evdw>
-33.3164024353027

> <r_i_glide_ecoul>
-12.6629400253296

> <r_i_glide_erotb>
0.390609832549585

> <r_i_glide_esite>
0

> <r_i_glide_emodel>
-70.9307633593977

> <r_i_glide_energy>
-45.9793424606323

> <r_i_glide_einternal>
2.29233717918396

> <i_i_glide_confnum>
19

> <i_i_glide_posenum>
392

> <r_i_glide_eff_state_penalty>
0

> <s_user_duplicate_titles>
CHEMBL267_lig609,289405

> <i_f3d_flags>
0

> <s_m_subgroup_title>
dock_pv

> <s_m_subgroupid>
dock_pv

> <b_m_subgroup_collapsed>
1

$$$$
CHEMBL267_lig103
                    3D
 Schrodinger Suite 2021-1.
 51 55  0  0  1  0            999 V2000
    6.2315    8.6947    6.3076 C   0  0  0  0  0  0
    5.2203    9.5244    5.8478 N   0  0  0  0  0  0
    5.6494    7.6985    7.1453 C   0  0  0  0  0  0
    4.2365    7.9603    7.1924 C   0  0  0  0  0  0
    4.0316    9.0413    6.3579 C   0  0  0  0  0  0
    7.5339    8.7886    6.0127 N   0  0  0  0  0  0
    5.4103   10.6886    4.9604 C   0  0  2  0  0  0
    6.5526    6.7407    7.6526 C   0  0  0  0  0  0
    7.8783    6.8156    7.3980 N   0  0  0  0  0  0
    3.1832    7.2364    7.9404 C   0  0  0  0  0  0
    4.2196   11.6596    4.8497 C   0  0  0  0  0  0
    8.2927    7.8342    6.6062 C   0  0  0  0  0  0
    5.6893   10.2727    3.5130 C   0  0  0  0  0  0
    0.3184    5.0144    9.9530 O   0  0  0  0  0  0
    3.3436    6.9372    9.2949 C   0  0  0  0  0  0
    2.0383    6.8265    7.2573 C   0  0  0  0  0  0
    6.1268    5.6381    8.3877 N   0  0  0  0  0  0
    1.2459    5.7571    9.2680 C   0  0  0  0  0  0
    3.4000   11.2351    3.6145 C   0  0  1  0  0  0
    1.0683    6.0873    7.9209 C   0  0  0  0  0  0
    2.3689    6.2039    9.9603 C   0  0  0  0  0  0
    4.3270   10.2979    2.8068 C   0  0  0  0  0  0
   -0.2203    3.8963    9.3650 C   0  0  0  0  0  0
    2.2266   10.5315    3.9748 O   0  0  0  0  0  0
    0.5829    2.8519    8.8955 C   0  0  0  0  0  0
   -1.6059    3.8043    9.2841 C   0  0  0  0  0  0
   -2.2029    2.6500    8.7903 C   0  0  0  0  0  0
   -0.0118    1.6979    8.3886 C   0  0  0  0  0  0
   -1.4013    1.5879    8.3850 C   0  0  0  0  0  0
    3.1025    9.5330    6.1188 H   0  0  0  0  0  0
    6.2719   11.1733    5.4261 H   0  0  0  0  0  0
    3.6280   11.7596    5.7600 H   0  0  0  0  0  0
    4.6346   12.6521    4.6619 H   0  0  0  0  0  0
    9.3515    7.8721    6.3936 H   0  0  0  0  0  0
    6.3615   11.0009    3.0518 H   0  0  0  0  0  0
    6.1782    9.3009    3.4284 H   0  0  0  0  0  0
    4.2204    7.2662    9.8327 H   0  0  0  0  0  0
    1.9092    7.0557    6.2086 H   0  0  0  0  0  0
    5.1405    5.5288    8.5790 H   0  0  0  0  0  0
    6.8049    4.9617    8.7157 H   0  0  0  0  0  0
    3.1403   12.1151    3.0227 H   0  0  0  0  0  0
    0.1921    5.7540    7.3860 H   0  0  0  0  0  0
    2.4968    5.9581   11.0042 H   0  0  0  0  0  0
    3.9406    9.2749    2.7769 H   0  0  0  0  0  0
    4.4373   10.6407    1.7769 H   0  0  0  0  0  0
    1.6759   10.4387    3.1935 H   0  0  0  0  0  0
    1.6594    2.9252    8.9518 H   0  0  0  0  0  0
   -2.2109    4.6353    9.6028 H   0  0  0  0  0  0
   -3.2798    2.5714    8.7425 H   0  0  0  0  0  0
    0.5975    0.8760    8.0437 H   0  0  0  0  0  0
   -1.8674    0.6880    8.0083 H   0  0  0  0  0  0
  1  2  1  0  0  0
  1  3  1  0  0  0
  1  6  2  0  0  0
  2  5  1  0  0  0
  2  7  1  0  0  0
  3  4  1  0  0  0
  3  8  2  0  0  0
  4 10  1  0  0  0
  4  5  2  0  0  0
  5 30  1  0  0  0
  6 12  1  0  0  0
  7 11  1  0  0  0
  7 13  1  0  0  0
  7 31  1  0  0  0
  8 17  1  0  0  0
  8  9  1  0  0  0
  9 12  2  0  0  0
 10 15  2  0  0  0
 10 16  1  0  0  0
 11 19  1  0  0  0
 11 32  1  0  0  0
 11 33  1  0  0  0
 12 34  1  0  0  0
 13 22  1  0  0  0
 13 35  1  0  0  0
 13 36  1  0  0  0
 14 18  1  0  0  0
 14 23  1  0  0  0
 15 21  1  0  0  0
 15 37  1  0  0  0
 16 20  2  0  0  0
 16 38  1  0  0  0
 17 39  1  0  0  0
 17 40  1  0  0  0
 18 20  1  0  0  0
 18 21  2  0  0  0
 19 24  1  0  0  0
 19 22  1  0  0  0
 19 41  1  0  0  0
 20 42  1  0  0  0
 21 43  1  0  0  0
 22 44  1  0  0  0
 22 45  1  0  0  0
 23 25  1  0  0  0
 23 26  2  0  0  0
 24 46  1  0  0  0
 25 28  2  0  0  0
 25 47  1  0  0  0
 26 27  1  0  0  0
 26 48  1  0  0  0
 27 29  2  0  0  0
 27 49  1  0  0  0
 28 29  1  0  0  0
 28 50  1  0  0  0
 29 51  1  0  0  0
M  END
> <s_m_entry_id>
31758

> <s_m_entry_name>
dock_pv.21

> <s_m_Source_Path>
/home/csk/Desktop/cluster/DUD-E-result/src

> <s_m_Source_File>
dock_pv.maegz

> <i_m_Source_File_Index>
21

> <chembl_id>
CHEMBL69129

> <chembl_pref_name>
None

> <i_lp_mmshare_version>
53161

> <r_lp_tautomer_probability>
1

> <s_lp_Force_Field>
OPLS_2005

> <r_lp_Energy>
40.946024

> <b_lp_Chiralities_Consistent>
1

> <s_lp_Variant>
CHEMBL267_lig103-1

> <s_i_glide_gridfile>
glide-grid_3el8

> <i_i_glide_lignum>
141

> <i_i_glide_rotatable_bonds>
5

> <r_i_docking_score>
-9.23383419969796

> <r_i_glide_ligand_efficiency>
-0.318408075851654

> <r_i_glide_ligand_efficiency_sa>
-0.978250487775272

> <r_i_glide_ligand_efficiency_ln>
-2.11431388189853

> <r_i_glide_gscore>
-9.23383419969796

> <r_i_glide_lipo>
-3.5265256053732

> <r_i_glide_hbond>
-0.387890758916934

> <r_i_glide_metal>
0

> <r_i_glide_rewards>
-2.62239105235167

> <r_i_glide_evdw>
-44.5103759765625

> <r_i_glide_ecoul>
-5.57619905471802

> <r_i_glide_erotb>
0.364921873979661

> <r_i_glide_esite>
0

> <r_i_glide_emodel>
-72.2973995628614

> <r_i_glide_energy>
-50.0865750312805

> <r_i_glide_einternal>
8.36543750762939

> <i_i_glide_confnum>
16

> <i_i_glide_posenum>
266

> <r_i_glide_eff_state_penalty>
0

> <s_user_duplicate_titles>
CHEMBL267_lig103

> <i_f3d_flags>
0

> <s_m_subgroup_title>
dock_pv

> <s_m_subgroupid>
dock_pv

> <b_m_subgroup_collapsed>
1

$$$$
CHEMBL267_lig1558
                    3D
 Schrodinger Suite 2021-1.
 40 41  0  0  1  0            999 V2000
    5.2387   10.8746    5.0579 C   0  0  0  0  0  0
    6.4450   11.0745    4.3796 C   0  0  0  0  0  0
    7.5358   10.2369    4.6280 C   0  0  0  0  0  0
    5.1191    9.8376    5.9868 C   0  0  0  0  0  0
    6.2253    9.0310    6.2605 C   0  0  0  0  0  0
    7.3986    9.2136    5.5655 C   0  0  0  0  0  0
    8.3079    8.2677    5.9880 N   0  0  0  0  0  0
    7.8353    7.5123    6.9903 C   0  0  0  0  0  0
    6.4763    7.9545    7.2111 C   0  0  0  0  0  0
    8.4589    6.6371    7.5878 O   0  0  0  0  0  0
    5.7341    7.3912    8.1779 C   0  0  0  0  0  0
    4.4672    7.7197    8.5734 N   0  0  0  0  0  0
    3.6256    6.7749    9.2733 C   0  0  0  0  0  0
    2.4849    7.4370   10.0589 C   0  0  0  0  0  0
    1.7423    6.4731   11.0144 C   0  0  0  0  0  0
    0.5992    5.6122   10.4176 C   0  0  0  0  0  0
    0.9361    4.8858    9.0910 C   0  0  2  0  0  0
    0.5980    5.7089    7.9095 N   0  0  0  0  0  0
    0.2513    3.5074    8.9701 C   0  0  0  0  0  0
    0.9981    2.5496    9.5842 O   0  0  0  0  0  0
   -0.8132    3.3091    8.3882 O   0  0  0  0  0  0
    3.7640   12.0347    4.7421 Br  0  0  0  0  0  0
    6.5339   11.8802    3.6650 H   0  0  0  0  0  0
    8.4648   10.3932    4.1000 H   0  0  0  0  0  0
    4.1787    9.6943    6.4956 H   0  0  0  0  0  0
    9.2239    8.1145    5.5889 H   0  0  0  0  0  0
    6.1361    6.5837    8.7784 H   0  0  0  0  0  0
    3.9520    8.3876    8.0194 H   0  0  0  0  0  0
    4.2358    6.2023    9.9740 H   0  0  0  0  0  0
    3.2645    6.0570    8.5424 H   0  0  0  0  0  0
    1.7974    7.9232    9.3692 H   0  0  0  0  0  0
    2.9239    8.2360   10.6568 H   0  0  0  0  0  0
    1.3168    7.0412   11.8407 H   0  0  0  0  0  0
    2.4807    5.8362   11.4981 H   0  0  0  0  0  0
   -0.2877    6.2347   10.2842 H   0  0  0  0  0  0
    0.3126    4.8928   11.1873 H   0  0  0  0  0  0
    1.9957    4.6393    9.0962 H   0  0  0  0  0  0
    0.8600    5.2409    7.0547 H   0  0  0  0  0  0
   -0.4110    5.8371    7.8515 H   0  0  0  0  0  0
    0.5484    1.7009    9.5577 H   0  0  0  0  0  0
  1  2  2  0  0  0
  1 22  1  0  0  0
  1  4  1  0  0  0
  2  3  1  0  0  0
  2 23  1  0  0  0
  3  6  2  0  0  0
  3 24  1  0  0  0
  4  5  2  0  0  0
  4 25  1  0  0  0
  5  6  1  0  0  0
  5  9  1  0  0  0
  6  7  1  0  0  0
  7  8  1  0  0  0
  7 26  1  0  0  0
  8  9  1  0  0  0
  8 10  2  0  0  0
  9 11  2  0  0  0
 11 12  1  0  0  0
 11 27  1  0  0  0
 12 13  1  0  0  0
 12 28  1  0  0  0
 13 14  1  0  0  0
 13 29  1  0  0  0
 13 30  1  0  0  0
 14 15  1  0  0  0
 14 31  1  0  0  0
 14 32  1  0  0  0
 15 16  1  0  0  0
 15 33  1  0  0  0
 15 34  1  0  0  0
 16 17  1  0  0  0
 16 35  1  0  0  0
 16 36  1  0  0  0
 17 18  1  0  0  0
 17 19  1  0  0  0
 17 37  1  0  0  0
 18 38  1  0  0  0
 18 39  1  0  0  0
 19 20  1  0  0  0
 19 21  2  0  0  0
 20 40  1  0  0  0
M  END
> <s_m_entry_id>
31759

> <s_m_entry_name>
dock_pv.22

> <s_m_Source_Path>
/home/csk/Desktop/cluster/DUD-E-result/src

> <s_m_Source_File>
dock_pv.maegz

> <i_m_Source_File_Index>
22

> <chembl_id>
CHEMBL458441

> <chembl_pref_name>
None

> <i_lp_mmshare_version>
53161

> <r_lp_tautomer_probability>
0.499999999999422

> <s_lp_Force_Field>
OPLS_2005

> <r_lp_Energy>
25.449048

> <b_lp_Chiralities_Consistent>
1

> <s_lp_Variant>
CHEMBL267_lig1558-2

> <s_i_glide_gridfile>
glide-grid_3el8

> <i_i_glide_lignum>
1747

> <i_i_glide_rotatable_bonds>
8

> <r_i_docking_score>
-9.19386966262771

> <r_i_glide_ligand_efficiency>
-0.417903166483078

> <r_i_glide_ligand_efficiency_sa>
-1.17098110768449

> <r_i_glide_ligand_efficiency_ln>
-2.24731710009035

> <r_i_glide_gscore>
-9.19386966262771

> <r_i_glide_lipo>
-2.7857268753869

> <r_i_glide_hbond>
-0.940006507057979

> <r_i_glide_metal>
0

> <r_i_glide_rewards>
-2.83370676634569

> <r_i_glide_evdw>
-34.4401626586914

> <r_i_glide_ecoul>
-10.7247705459595

> <r_i_glide_erotb>
0.696294200991348

> <r_i_glide_esite>
0

> <r_i_glide_emodel>
-71.1325435270068

> <r_i_glide_energy>
-45.1649332046509

> <r_i_glide_einternal>
7.11872720718384

> <i_i_glide_confnum>
90

> <i_i_glide_posenum>
358

> <r_i_glide_eff_state_penalty>
0

> <s_user_duplicate_titles>
CHEMBL267_lig1558,CHEMBL267_lig1558

> <i_f3d_flags>
0

> <s_m_subgroup_title>
dock_pv

> <s_m_subgroupid>
dock_pv

> <b_m_subgroup_collapsed>
1

$$$$
CHEMBL267_lig1680
                    3D
 Schrodinger Suite 2021-1.
 54 58  0  0  1  0            999 V2000
    7.7442    6.4641    7.5805 N   0  0  0  0  0  0
    7.5629    7.6404    6.9364 C   0  0  0  0  0  0
    6.3109    8.2359    6.7738 C   0  0  0  0  0  0
    5.1903    7.5596    7.2841 C   0  0  0  0  0  0
    5.3746    6.4063    7.9963 N   0  0  0  0  0  0
    6.6227    5.8928    8.0737 C   0  0  0  0  0  0
    3.8282    7.9896    7.0609 N   0  0  0  0  0  0
    1.5510    7.9876    7.2436 N   0  0  0  0  0  0
    2.6553    7.3340    7.4743 C   0  0  0  0  0  0
    1.9416    9.0696    6.5308 C   0  0  0  0  0  0
    3.3526    9.1107    6.3519 C   0  0  0  0  0  0
    3.9244   10.1534    5.5880 C   0  0  0  0  0  0
    3.0707   11.1251    5.0646 C   0  0  0  0  0  0
    1.6971   11.0888    5.2665 C   0  0  0  0  0  0
    1.1121   10.0615    5.9995 C   0  0  0  0  0  0
    2.6536    6.1077    8.0983 N   0  0  0  0  0  0
    1.6765    5.6940    9.0079 C   0  0  0  0  0  0
    0.7417    4.7402    8.6017 C   0  0  0  0  0  0
   -0.2597    4.3054    9.4781 C   0  0  0  0  0  0
   -0.3288    4.8866   10.7497 C   0  0  0  0  0  0
    0.6083    5.8307   11.1672 C   0  0  0  0  0  0
    1.6412    6.2136   10.3112 C   0  0  0  0  0  0
    2.7221    7.1634   10.8195 C   0  0  0  0  0  0
    8.6837    8.2370    6.3853 N   0  0  0  0  0  0
   -1.2653    3.2522    9.0798 C   0  0  0  0  0  0
   -2.4615    3.4369    9.3032 O   0  0  0  0  0  0
   -0.7425    2.1123    8.5622 N   0  0  0  0  0  0
   -1.3623    0.8460    8.3872 C   0  0  0  0  0  0
   -2.6738    0.5415    8.7881 C   0  0  0  0  0  0
   -3.2209   -0.7183    8.5595 C   0  0  0  0  0  0
   -2.4669   -1.6864    7.9083 C   0  0  0  0  0  0
   -1.1636   -1.4074    7.5132 C   0  0  0  0  0  0
   -0.6018   -0.1630    7.7818 C   0  0  0  0  0  0
    6.2704    9.1622    6.2474 H   0  0  0  0  0  0
    6.7391    4.9765    8.6316 H   0  0  0  0  0  0
    4.9680   10.2574    5.3618 H   0  0  0  0  0  0
    3.4902   11.9291    4.4754 H   0  0  0  0  0  0
    1.0753   11.8614    4.8370 H   0  0  0  0  0  0
    0.0433   10.0200    6.1473 H   0  0  0  0  0  0
    3.5611    5.7226    8.3195 H   0  0  0  0  0  0
    0.7851    4.3725    7.5881 H   0  0  0  0  0  0
   -1.1221    4.6157   11.4315 H   0  0  0  0  0  0
    0.5397    6.2366   12.1660 H   0  0  0  0  0  0
    2.7299    7.2220   11.9087 H   0  0  0  0  0  0
    3.7082    6.7983   10.5291 H   0  0  0  0  0  0
    2.5988    8.1576   10.3875 H   0  0  0  0  0  0
    8.5685    9.0636    5.8202 H   0  0  0  0  0  0
    9.5349    7.6924    6.3225 H   0  0  0  0  0  0
    0.2508    2.1175    8.4064 H   0  0  0  0  0  0
   -3.3084    1.2664    9.2696 H   0  0  0  0  0  0
   -4.2363   -0.9285    8.8620 H   0  0  0  0  0  0
   -2.8974   -2.6537    7.7015 H   0  0  0  0  0  0
   -0.6021   -2.1611    6.9853 H   0  0  0  0  0  0
    0.4165    0.0261    7.4727 H   0  0  0  0  0  0
  1  2  1  0  0  0
  1  6  2  0  0  0
  2  3  2  0  0  0
  2 24  1  0  0  0
  3  4  1  0  0  0
  3 34  1  0  0  0
  4  5  2  0  0  0
  4  7  1  0  0  0
  5  6  1  0  0  0
  6 35  1  0  0  0
  7 11  1  0  0  0
  7  9  1  0  0  0
  8 10  1  0  0  0
  8  9  2  0  0  0
  9 16  1  0  0  0
 10 11  2  0  0  0
 10 15  1  0  0  0
 11 12  1  0  0  0
 12 13  2  0  0  0
 12 36  1  0  0  0
 13 14  1  0  0  0
 13 37  1  0  0  0
 14 15  2  0  0  0
 14 38  1  0  0  0
 15 39  1  0  0  0
 16 17  1  0  0  0
 16 40  1  0  0  0
 17 18  2  0  0  0
 17 22  1  0  0  0
 18 19  1  0  0  0
 18 41  1  0  0  0
 19 20  2  0  0  0
 19 25  1  0  0  0
 20 21  1  0  0  0
 20 42  1  0  0  0
 21 22  2  0  0  0
 21 43  1  0  0  0
 22 23  1  0  0  0
 23 44  1  0  0  0
 23 45  1  0  0  0
 23 46  1  0  0  0
 24 47  1  0  0  0
 24 48  1  0  0  0
 25 26  2  0  0  0
 25 27  1  0  0  0
 27 28  1  0  0  0
 27 49  1  0  0  0
 28 29  2  0  0  0
 28 33  1  0  0  0
 29 30  1  0  0  0
 29 50  1  0  0  0
 30 31  2  0  0  0
 30 51  1  0  0  0
 31 32  1  0  0  0
 31 52  1  0  0  0
 32 33  2  0  0  0
 32 53  1  0  0  0
 33 54  1  0  0  0
M  END
> <s_m_entry_id>
31760

> <s_m_entry_name>
dock_pv.23

> <s_m_Source_Path>
/home/csk/Desktop/cluster/DUD-E-result/src

> <s_m_Source_File>
dock_pv.maegz

> <i_m_Source_File_Index>
23

> <chembl_id>
CHEMBL1076533

> <chembl_pref_name>
None

> <i_lp_mmshare_version>
53161

> <r_lp_tautomer_probability>
1

> <s_lp_Force_Field>
OPLS_2005

> <r_lp_Energy>
33.744637

> <b_lp_Chiralities_Consistent>
1

> <s_lp_Variant>
CHEMBL267_lig1680-1

> <s_i_glide_gridfile>
glide-grid_3el8

> <i_i_glide_lignum>
1908

> <i_i_glide_rotatable_bonds>
6

> <r_i_docking_score>
-9.18507562160044

> <r_i_glide_ligand_efficiency>
-0.278335624896983

> <r_i_glide_ligand_efficiency_sa>
-0.892771071077387

> <r_i_glide_ligand_efficiency_ln>
-2.04271326046761

> <r_i_glide_gscore>
-9.18507562160044

> <r_i_glide_lipo>
-3.51237743072679

> <r_i_glide_hbond>
-0.494110561020307

> <r_i_glide_metal>
0

> <r_i_glide_rewards>
-2.84962681705588

> <r_i_glide_evdw>
-49.8252296447754

> <r_i_glide_ecoul>
-1.85978555679321

> <r_i_glide_erotb>
0.441268502960294

> <r_i_glide_esite>
0

> <r_i_glide_emodel>
-72.2712312251843

> <r_i_glide_energy>
-51.6850152015686

> <r_i_glide_einternal>
16.3925399780273

> <i_i_glide_confnum>
2

> <i_i_glide_posenum>
42

> <r_i_glide_eff_state_penalty>
0

> <s_user_duplicate_titles>
CHEMBL267_lig1680

> <i_f3d_flags>
0

> <s_m_subgroup_title>
dock_pv

> <s_m_subgroupid>
dock_pv

> <b_m_subgroup_collapsed>
1

$$$$
CHEMBL267_lig1514
                    3D
 Schrodinger Suite 2021-1.
 57 60  0  0  1  0            999 V2000
    7.9402    6.6380    7.5870 N   0  0  0  0  0  0
    8.4129    7.6754    6.8577 C   0  0  0  0  0  0
    7.6966    8.6456    6.2433 N   0  0  0  0  0  0
    6.5985    6.5682    7.7454 C   0  0  0  0  0  0
    5.7331    7.5479    7.2218 C   0  0  0  0  0  0
    6.3765    8.5581    6.4532 C   0  0  0  0  0  0
    5.4059    9.4284    5.9860 N   0  0  0  0  0  0
    4.1785    8.9368    6.3889 C   0  0  0  0  0  0
    4.3200    7.8370    7.2146 C   0  0  0  0  0  0
    3.2170    7.1664    7.9643 C   0  0  0  0  0  0
    1.9954    6.9304    7.3267 C   0  0  0  0  0  0
    0.9598    6.3050    8.0143 C   0  0  0  0  0  0
    1.1374    5.9284    9.3441 C   0  0  0  0  0  0
    2.3502    6.1637    9.9885 C   0  0  0  0  0  0
    3.3916    6.7767    9.2958 C   0  0  0  0  0  0
    5.6660   10.6679    5.2349 C   0  0  2  0  0  0
    6.1189    5.4369    8.3881 N   0  0  0  0  0  0
    4.4579   11.5979    5.0759 C   0  0  0  0  0  0
    4.7257   12.3279    3.8430 N   0  0  0  0  0  0
    5.8030   11.7168    3.0302 C   0  0  1  0  0  0
    6.1614   10.4403    3.8126 C   0  0  0  0  0  0
    5.4280   11.4198    1.5542 C   0  0  0  0  0  0
    4.0086   13.4922    3.5450 C   0  0  0  0  0  0
    3.0038   13.8702    4.1540 O   0  0  0  0  0  0
    4.5734   14.1661    2.5050 O   0  0  0  0  0  0
    3.9702   15.2525    1.7912 C   0  0  0  0  0  0
    3.7468   16.4836    2.7018 C   0  0  0  0  0  0
    2.6473   14.8088    1.1207 C   0  0  0  0  0  0
    5.0022   15.6024    0.7018 C   0  0  0  0  0  0
    6.5583   11.0370    0.7923 O   0  0  0  0  0  0
    9.4859    7.7275    6.7401 H   0  0  0  0  0  0
    3.2690    9.4589    6.1403 H   0  0  0  0  0  0
    1.8512    7.2174    6.2954 H   0  0  0  0  0  0
    0.0181    6.1166    7.5204 H   0  0  0  0  0  0
    0.3278    5.4430    9.8748 H   0  0  0  0  0  0
    2.4845    5.8661   11.0199 H   0  0  0  0  0  0
    4.3226    6.9691    9.8110 H   0  0  0  0  0  0
    6.4207   11.2022    5.8171 H   0  0  0  0  0  0
    5.1236    5.3321    8.5158 H   0  0  0  0  0  0
    6.7726    4.7499    8.7467 H   0  0  0  0  0  0
    4.3373   12.2501    5.9436 H   0  0  0  0  0  0
    3.5189   11.0657    4.9447 H   0  0  0  0  0  0
    6.6467   12.4092    3.0604 H   0  0  0  0  0  0
    7.2283   10.2290    3.7526 H   0  0  0  0  0  0
    5.6311    9.5888    3.3817 H   0  0  0  0  0  0
    4.6542   10.6551    1.4900 H   0  0  0  0  0  0
    5.0141   12.2931    1.0613 H   0  0  0  0  0  0
    3.4139   17.3423    2.1170 H   0  0  0  0  0  0
    4.6643   16.7661    3.2217 H   0  0  0  0  0  0
    2.9861   16.3041    3.4611 H   0  0  0  0  0  0
    2.8042   13.9347    0.4878 H   0  0  0  0  0  0
    1.8827   14.5497    1.8512 H   0  0  0  0  0  0
    2.2418   15.6025    0.4884 H   0  0  0  0  0  0
    5.2110   14.7418    0.0644 H   0  0  0  0  0  0
    4.6458   16.4065    0.0570 H   0  0  0  0  0  0
    5.9516   15.9187    1.1393 H   0  0  0  0  0  0
    6.4778   11.5032   -0.0619 H   0  0  0  0  0  0
  1  4  1  0  0  0
  1  2  2  0  0  0
  2  3  1  0  0  0
  2 31  1  0  0  0
  3  6  2  0  0  0
  4  5  2  0  0  0
  4 17  1  0  0  0
  5  9  1  0  0  0
  5  6  1  0  0  0
  6  7  1  0  0  0
  7 16  1  0  0  0
  7  8  1  0  0  0
  8  9  2  0  0  0
  8 32  1  0  0  0
  9 10  1  0  0  0
 10 15  1  0  0  0
 10 11  2  0  0  0
 11 12  1  0  0  0
 11 33  1  0  0  0
 12 13  2  0  0  0
 12 34  1  0  0  0
 13 14  1  0  0  0
 13 35  1  0  0  0
 14 15  2  0  0  0
 14 36  1  0  0  0
 15 37  1  0  0  0
 16 18  1  0  0  0
 16 21  1  0  0  0
 16 38  1  0  0  0
 17 39  1  0  0  0
 17 40  1  0  0  0
 18 19  1  0  0  0
 18 41  1  0  0  0
 18 42  1  0  0  0
 19 20  1  0  0  0
 19 23  1  0  0  0
 20 21  1  0  0  0
 20 22  1  0  0  0
 20 43  1  0  0  0
 21 44  1  0  0  0
 21 45  1  0  0  0
 22 30  1  0  0  0
 22 46  1  0  0  0
 22 47  1  0  0  0
 23 24  2  0  0  0
 23 25  1  0  0  0
 25 26  1  0  0  0
 26 27  1  0  0  0
 26 28  1  0  0  0
 26 29  1  0  0  0
 27 48  1  0  0  0
 27 49  1  0  0  0
 27 50  1  0  0  0
 28 51  1  0  0  0
 28 52  1  0  0  0
 28 53  1  0  0  0
 29 54  1  0  0  0
 29 55  1  0  0  0
 29 56  1  0  0  0
 30 57  1  0  0  0
M  END
> <s_m_entry_id>
31761

> <s_m_entry_name>
dock_pv.24

> <s_m_Source_Path>
/home/csk/Desktop/cluster/DUD-E-result/src

> <s_m_Source_File>
dock_pv.maegz

> <i_m_Source_File_Index>
24

> <chembl_id>
CHEMBL470708

> <chembl_pref_name>
None

> <i_lp_mmshare_version>
53161

> <r_lp_tautomer_probability>
1

> <s_lp_Force_Field>
OPLS_2005

> <r_lp_Energy>
40.533111

> <b_lp_Chiralities_Consistent>
1

> <s_lp_Variant>
CHEMBL267_lig1514-1

> <s_i_glide_gridfile>
glide-grid_3el8

> <i_i_glide_lignum>
1695

> <i_i_glide_rotatable_bonds>
7

> <r_i_docking_score>
-9.1663264107702

> <r_i_glide_ligand_efficiency>
-0.30554421369234

> <r_i_glide_ligand_efficiency_sa>
-0.949396911714589

> <r_i_glide_ligand_efficiency_ln>
-2.0826892356526

> <r_i_glide_gscore>
-9.1663264107702

> <r_i_glide_lipo>
-2.09369933033152

> <r_i_glide_hbond>
-1.11580735665293

> <r_i_glide_metal>
0

> <r_i_glide_rewards>
-2.72768359112363

> <r_i_glide_evdw>
-33.9816970825195

> <r_i_glide_ecoul>
-12.9405288696289

> <r_i_glide_erotb>
0.411028051908208

> <r_i_glide_esite>
0

> <r_i_glide_emodel>
-70.0310872294083

> <r_i_glide_energy>
-46.9222259521484

> <r_i_glide_einternal>
7.9925684928894

> <i_i_glide_confnum>
5

> <i_i_glide_posenum>
172

> <r_i_glide_eff_state_penalty>
0

> <s_user_duplicate_titles>
CHEMBL267_lig1514

> <i_f3d_flags>
0

> <s_m_subgroup_title>
dock_pv

> <s_m_subgroupid>
dock_pv

> <b_m_subgroup_collapsed>
1

$$$$
CHEMBL267_lig1525
                    3D
 Schrodinger Suite 2021-1.
 43 46  0  0  1  0            999 V2000
    7.3659    6.6040    7.5882 N   0  0  0  0  0  0
    7.6821    7.5721    6.6973 C   0  0  0  0  0  0
    6.8403    8.4546    6.1075 N   0  0  0  0  0  0
    6.0702    6.5296    7.9880 C   0  0  0  0  0  0
    5.0915    7.4277    7.4980 C   0  0  0  0  0  0
    5.5632    8.3445    6.5042 C   0  0  0  0  0  0
    4.4626    9.0311    5.9956 N   0  0  0  0  0  0
    3.3624    8.6277    6.7188 C   0  0  0  0  0  0
    3.6729    7.6658    7.6624 C   0  0  0  0  0  0
    2.6818    7.0507    8.5964 C   0  0  0  0  0  0
    1.3957    6.7628    8.1249 C   0  0  0  0  0  0
    0.4355    6.2303    8.9809 C   0  0  0  0  0  0
    0.7588    5.9742   10.3090 C   0  0  0  0  0  0
    2.0426    6.2374   10.7829 C   0  0  0  0  0  0
    3.0067    6.7686    9.9263 C   0  0  0  0  0  0
    4.3974   10.0296    4.9113 C   0  0  1  0  0  0
    5.7458    5.4397    8.7879 N   0  0  0  0  0  0
    4.9604   11.3913    5.3171 C   0  0  0  0  0  0
    6.3308   11.3932    4.8382 N   0  0  1  0  0  0
    6.3193   10.7094    3.5509 C   0  0  1  0  0  0
    5.2163    9.6375    3.6729 C   0  0  0  0  0  0
    6.0955   11.7098    2.3989 C   0  0  0  0  0  0
    6.2752   11.0372    1.1743 O   0  0  0  0  0  0
   -0.2013    5.4891   11.1565 O   0  0  0  0  0  0
    8.7175    7.6198    6.3887 H   0  0  0  0  0  0
    2.4017    9.0701    6.4989 H   0  0  0  0  0  0
    1.1349    6.9563    7.0947 H   0  0  0  0  0  0
   -0.5589    6.0183    8.6151 H   0  0  0  0  0  0
    2.2908    6.0447   11.8150 H   0  0  0  0  0  0
    3.9920    6.9901   10.3110 H   0  0  0  0  0  0
    3.3351   10.0966    4.6697 H   0  0  0  0  0  0
    4.7917    5.3125    9.0979 H   0  0  0  0  0  0
    6.4814    4.7984    9.0607 H   0  0  0  0  0  0
    4.4089   12.1881    4.8132 H   0  0  0  0  0  0
    4.8876   11.5856    6.3868 H   0  0  0  0  0  0
    6.7164   12.3242    4.7552 H   0  0  0  0  0  0
    7.2984   10.2370    3.4487 H   0  0  0  0  0  0
    5.6455    8.6380    3.7403 H   0  0  0  0  0  0
    4.5800    9.6166    2.7867 H   0  0  0  0  0  0
    5.0969   12.1480    2.4271 H   0  0  0  0  0  0
    6.8192   12.5256    2.4428 H   0  0  0  0  0  0
    6.1386   11.6693    0.4512 H   0  0  0  0  0  0
   -1.0952    5.5564   10.7948 H   0  0  0  0  0  0
  1  2  2  0  0  0
  1  4  1  0  0  0
  2  3  1  0  0  0
  2 25  1  0  0  0
  3  6  2  0  0  0
  4  5  2  0  0  0
  4 17  1  0  0  0
  5  9  1  0  0  0
  5  6  1  0  0  0
  6  7  1  0  0  0
  7 16  1  0  0  0
  7  8  1  0  0  0
  8  9  2  0  0  0
  8 26  1  0  0  0
  9 10  1  0  0  0
 10 15  1  0  0  0
 10 11  2  0  0  0
 11 12  1  0  0  0
 11 27  1  0  0  0
 12 13  2  0  0  0
 12 28  1  0  0  0
 13 14  1  0  0  0
 13 24  1  0  0  0
 14 15  2  0  0  0
 14 29  1  0  0  0
 15 30  1  0  0  0
 16 18  1  0  0  0
 16 21  1  0  0  0
 16 31  1  0  0  0
 17 32  1  0  0  0
 17 33  1  0  0  0
 18 19  1  0  0  0
 18 34  1  0  0  0
 18 35  1  0  0  0
 19 20  1  0  0  0
 19 36  1  0  0  0
 20 21  1  0  0  0
 20 22  1  0  0  0
 20 37  1  0  0  0
 21 38  1  0  0  0
 21 39  1  0  0  0
 22 23  1  0  0  0
 22 40  1  0  0  0
 22 41  1  0  0  0
 23 42  1  0  0  0
 24 43  1  0  0  0
M  END
> <s_m_entry_id>
31762

> <s_m_entry_name>
dock_pv.25

> <s_m_Source_Path>
/home/csk/Desktop/cluster/DUD-E-result/src

> <s_m_Source_File>
dock_pv.maegz

> <i_m_Source_File_Index>
25

> <chembl_id>
CHEMBL475008

> <chembl_pref_name>
None

> <i_lp_mmshare_version>
53161

> <r_lp_tautomer_probability>
0.999999999997365

> <s_lp_Force_Field>
OPLS_2005

> <r_lp_Energy>
33.288026

> <b_lp_Chiralities_Consistent>
1

> <s_lp_Variant>
CHEMBL267_lig1525-1

> <s_i_glide_gridfile>
glide-grid_3el8

> <i_i_glide_lignum>
1706

> <i_i_glide_rotatable_bonds>
5

> <r_i_docking_score>
-9.1150359862799

> <r_i_glide_ligand_efficiency>
-0.379793166094996

> <r_i_glide_ligand_efficiency_sa>
-1.09551306005186

> <r_i_glide_ligand_efficiency_ln>
-2.18164637326389

> <r_i_glide_gscore>
-9.1150359862799

> <r_i_glide_lipo>
-2.16568369486313

> <r_i_glide_hbond>
-0.915296613529551

> <r_i_glide_metal>
0

> <r_i_glide_rewards>
-3.04129988512553

> <r_i_glide_evdw>
-35.173656463623

> <r_i_glide_ecoul>
-11.7676429748535

> <r_i_glide_erotb>
0.531073476647489

> <r_i_glide_esite>
0

> <r_i_glide_emodel>
-69.9397894704845

> <r_i_glide_energy>
-46.9412994384766

> <r_i_glide_einternal>
2.80760359764099

> <i_i_glide_confnum>
99

> <i_i_glide_posenum>
222

> <r_i_glide_eff_state_penalty>
0

> <s_user_duplicate_titles>
CHEMBL267_lig1525,459646

> <i_f3d_flags>
0

> <s_m_subgroup_title>
dock_pv

> <s_m_subgroupid>
dock_pv

> <b_m_subgroup_collapsed>
1

$$$$
CHEMBL267_lig1885
                    3D
 Schrodinger Suite 2021-1.
 47 50  0  0  1  0            999 V2000
    0.7640    8.7016    5.6659 N   0  0  0  0  0  0
    0.0848    8.3397    6.7785 C   0  0  0  0  0  0
    0.5980    7.9477    7.9721 N   0  0  0  0  0  0
    2.1146    8.6489    5.7212 C   0  0  0  0  0  0
    2.7826    8.2172    6.8887 C   0  0  0  0  0  0
    1.9355    7.8726    7.9751 C   0  0  0  0  0  0
    2.7740    7.4772    9.0041 N   0  0  0  0  0  0
    4.0573    7.5357    8.6200 N   0  0  0  0  0  0
    4.1158    8.0038    7.3943 C   0  0  0  0  0  0
    5.4561    8.2705    6.7880 C   0  0  0  0  0  0
    6.5555    7.5040    7.1948 C   0  0  0  0  0  0
    7.8274    7.7644    6.7024 C   0  0  0  0  0  0
    8.0175    8.7793    5.7594 C   0  0  0  0  0  0
    6.9294    9.5413    5.3370 C   0  0  0  0  0  0
    5.6605    9.2969    5.8592 C   0  0  0  0  0  0
    2.7708    9.0370    4.5611 N   0  0  0  0  0  0
    9.5973    9.1910    5.1880 Cl  0  0  0  0  0  0
    8.8776    7.0370    7.1880 O   0  0  0  0  0  0
    2.4961    7.1208   10.3941 C   0  0  0  0  0  0
    1.9713    5.6937   10.6160 C   0  0  0  0  0  0
    0.6820    5.2480    9.8857 C   0  0  2  0  0  0
   -0.2960    4.4581   10.7880 C   0  0  0  0  0  0
   -1.4866    3.8615   10.0006 C   0  0  0  0  0  0
   -0.9847    3.0515    8.8024 C   0  0  0  0  0  0
   -0.2020    3.9685    7.9880 N   0  0  2  0  0  0
    1.0228    4.3802    8.6547 C   0  0  0  0  0  0
   -0.9931    8.3667    6.6983 H   0  0  0  0  0  0
    6.4320    6.7144    7.9223 H   0  0  0  0  0  0
    7.0766   10.3539    4.6401 H   0  0  0  0  0  0
    4.8573    9.9601    5.5839 H   0  0  0  0  0  0
    3.7705    8.9285    4.4945 H   0  0  0  0  0  0
    2.2094    9.2962    3.7632 H   0  0  0  0  0  0
    9.6418    7.1364    6.6048 H   0  0  0  0  0  0
    1.7980    7.8370   10.7880 H   0  0  0  0  0  0
    3.4075    7.2537   10.9826 H   0  0  0  0  0  0
    1.7980    5.6077   11.6877 H   0  0  0  0  0  0
    2.7823    5.0018   10.3880 H   0  0  0  0  0  0
    0.0842    6.0995    9.5687 H   0  0  0  0  0  0
   -0.6191    5.0482   11.6466 H   0  0  0  0  0  0
    0.2653    3.6193   11.1880 H   0  0  0  0  0  0
   -2.1548    4.6370    9.6287 H   0  0  0  0  0  0
   -2.1071    3.2392   10.6440 H   0  0  0  0  0  0
   -1.8175    2.6535    8.2202 H   0  0  0  0  0  0
   -0.3651    2.2106    9.1199 H   0  0  0  0  0  0
   -0.7784    4.8045    7.8947 H   0  0  0  0  0  0
    1.6328    3.5177    8.9308 H   0  0  0  0  0  0
    1.6292    4.9519    7.9513 H   0  0  0  0  0  0
  1  2  2  0  0  0
  1  4  1  0  0  0
  2  3  1  0  0  0
  2 27  1  0  0  0
  3  6  2  0  0  0
  4  5  2  0  0  0
  4 16  1  0  0  0
  5  9  1  0  0  0
  5  6  1  0  0  0
  6  7  1  0  0  0
  7  8  1  0  0  0
  7 19  1  0  0  0
  8  9  2  0  0  0
  9 10  1  0  0  0
 10 15  1  0  0  0
 10 11  2  0  0  0
 11 12  1  0  0  0
 11 28  1  0  0  0
 12 13  2  0  0  0
 12 18  1  0  0  0
 13 14  1  0  0  0
 13 17  1  0  0  0
 14 15  2  0  0  0
 14 29  1  0  0  0
 15 30  1  0  0  0
 16 31  1  0  0  0
 16 32  1  0  0  0
 18 33  1  0  0  0
 19 20  1  0  0  0
 19 34  1  0  0  0
 19 35  1  0  0  0
 20 21  1  0  0  0
 20 36  1  0  0  0
 20 37  1  0  0  0
 21 22  1  0  0  0
 21 26  1  0  0  0
 21 38  1  0  0  0
 22 23  1  0  0  0
 22 39  1  0  0  0
 22 40  1  0  0  0
 23 24  1  0  0  0
 23 41  1  0  0  0
 23 42  1  0  0  0
 24 25  1  0  0  0
 24 43  1  0  0  0
 24 44  1  0  0  0
 25 26  1  0  0  0
 25 45  1  0  0  0
 26 46  1  0  0  0
 26 47  1  0  0  0
M  END
> <s_m_entry_id>
31763

> <s_m_entry_name>
dock_pv.26

> <s_m_Source_Path>
/home/csk/Desktop/cluster/DUD-E-result/src

> <s_m_Source_File>
dock_pv.maegz

> <i_m_Source_File_Index>
26

> <chembl_id>
CHEMBL1241943

> <chembl_pref_name>
None

> <i_lp_mmshare_version>
53161

> <r_lp_tautomer_probability>
0.999999999997365

> <s_lp_Force_Field>
OPLS_2005

> <r_lp_Energy>
19.179169

> <b_lp_Chiralities_Consistent>
1

> <s_lp_Variant>
CHEMBL267_lig1885-1

> <s_i_glide_gridfile>
glide-grid_3el8

> <i_i_glide_lignum>
2156

> <i_i_glide_rotatable_bonds>
5

> <r_i_docking_score>
-9.11282493800534

> <r_i_glide_ligand_efficiency>
-0.350493266846359

> <r_i_glide_ligand_efficiency_sa>
-1.03833492390793

> <r_i_glide_ligand_efficiency_ln>
-2.14011703507305

> <r_i_glide_gscore>
-9.11282493800534

> <r_i_glide_lipo>
-2.98889942773691

> <r_i_glide_hbond>
-1.34083177394851

> <r_i_glide_metal>
0

> <r_i_glide_rewards>
-2.20045398882259

> <r_i_glide_evdw>
-29.7676467895508

> <r_i_glide_ecoul>
-10.7541475296021

> <r_i_glide_erotb>
0.555859609972254

> <r_i_glide_esite>
-0.0369948885517328

> <r_i_glide_emodel>
-62.9014873397712

> <r_i_glide_energy>
-40.5217943191528

> <r_i_glide_einternal>
2.83651232719421

> <i_i_glide_confnum>
54

> <i_i_glide_posenum>
256

> <r_i_glide_eff_state_penalty>
0

> <s_user_duplicate_titles>
CHEMBL267_lig1885

> <i_f3d_flags>
0

> <s_m_subgroup_title>
dock_pv

> <s_m_subgroupid>
dock_pv

> <b_m_subgroup_collapsed>
1

$$$$
CHEMBL267_lig104
                    3D
 Schrodinger Suite 2021-1.
 52 56  0  0  1  0            999 V2000
    5.2724    9.4996    5.5160 N   0  0  0  0  0  0
    6.2739    8.7375    6.0994 C   0  0  0  0  0  0
    5.6606    7.8034    6.9841 C   0  0  0  0  0  0
    4.2394    8.0487    6.9552 C   0  0  0  0  0  0
    4.0668    9.0733    6.0388 C   0  0  0  0  0  0
    5.4590   10.5984    4.5538 C   0  0  2  0  0  0
    7.5903    8.8278    5.8653 N   0  0  0  0  0  0
    6.5506    6.8934    7.5977 C   0  0  0  0  0  0
    5.2570   11.9805    5.2082 C   0  0  0  0  0  0
    4.5235   10.5449    3.3259 C   0  0  0  0  0  0
    7.8872    6.9616    7.3985 N   0  0  0  0  0  0
    3.1694    7.3432    7.7155 C   0  0  0  0  0  0
    3.9901   12.5904    4.5965 C   0  0  1  0  0  0
    3.9377   11.9578    3.1895 C   0  0  2  0  0  0
    8.3295    7.9247    6.5565 C   0  0  0  0  0  0
    0.3267    5.1057    9.7829 O   0  0  0  0  0  0
    3.3283    7.0627    9.0753 C   0  0  0  0  0  0
    2.0282    6.8963    7.0443 C   0  0  0  0  0  0
    6.1046    5.8376    8.3880 N   0  0  0  0  0  0
    1.2516    5.8343    9.0724 C   0  0  0  0  0  0
    2.7022   12.0023    2.5016 O   0  0  0  0  0  0
    2.8336   12.2479    5.3371 O   0  0  0  0  0  0
    2.3699    6.3134    9.7516 C   0  0  0  0  0  0
    1.0714    6.1441    7.7205 C   0  0  0  0  0  0
   -0.2089    3.9503    9.2586 C   0  0  0  0  0  0
    0.5944    2.8949    8.8143 C   0  0  0  0  0  0
   -1.5949    3.8175    9.2469 C   0  0  0  0  0  0
   -2.1922    2.6475    8.7930 C   0  0  0  0  0  0
   -0.0020    1.7080    8.3881 C   0  0  0  0  0  0
   -1.3897    1.5883    8.3875 C   0  0  0  0  0  0
    3.1532    9.5575    5.7279 H   0  0  0  0  0  0
    6.4997   10.5104    4.2351 H   0  0  0  0  0  0
    5.2408   11.9669    6.3001 H   0  0  0  0  0  0
    6.1065   12.6113    4.9416 H   0  0  0  0  0  0
    5.0488   10.2452    2.4180 H   0  0  0  0  0  0
    3.7159    9.8247    3.4650 H   0  0  0  0  0  0
    4.0856   13.6767    4.5567 H   0  0  0  0  0  0
    4.6355   12.5241    2.5690 H   0  0  0  0  0  0
    9.3973    7.9582    6.3911 H   0  0  0  0  0  0
    4.1979    7.4160    9.6101 H   0  0  0  0  0  0
    1.8964    7.1030    5.9921 H   0  0  0  0  0  0
    5.1124    5.7203    8.5375 H   0  0  0  0  0  0
    6.7761    5.1916    8.7803 H   0  0  0  0  0  0
    2.8644   11.8517    1.5653 H   0  0  0  0  0  0
    2.3183   11.6510    4.7861 H   0  0  0  0  0  0
    2.5023    6.0863   10.8001 H   0  0  0  0  0  0
    0.1967    5.7930    7.1943 H   0  0  0  0  0  0
    1.6698    2.9848    8.8405 H   0  0  0  0  0  0
   -2.2074    4.6351    9.5880 H   0  0  0  0  0  0
   -3.2686    2.5504    8.7837 H   0  0  0  0  0  0
    0.5978    0.8671    8.0777 H   0  0  0  0  0  0
   -1.8541    0.6711    8.0539 H   0  0  0  0  0  0
  1  2  1  0  0  0
  1  5  1  0  0  0
  1  6  1  0  0  0
  2  3  1  0  0  0
  2  7  2  0  0  0
  3  8  2  0  0  0
  3  4  1  0  0  0
  4  5  2  0  0  0
  4 12  1  0  0  0
  5 31  1  0  0  0
  6  9  1  0  0  0
  6 10  1  0  0  0
  6 32  1  0  0  0
  7 15  1  0  0  0
  8 19  1  0  0  0
  8 11  1  0  0  0
  9 13  1  0  0  0
  9 33  1  0  0  0
  9 34  1  0  0  0
 10 14  1  0  0  0
 10 35  1  0  0  0
 10 36  1  0  0  0
 11 15  2  0  0  0
 12 17  2  0  0  0
 12 18  1  0  0  0
 13 22  1  0  0  0
 13 14  1  0  0  0
 13 37  1  0  0  0
 14 21  1  0  0  0
 14 38  1  0  0  0
 15 39  1  0  0  0
 16 20  1  0  0  0
 16 25  1  0  0  0
 17 23  1  0  0  0
 17 40  1  0  0  0
 18 24  2  0  0  0
 18 41  1  0  0  0
 19 42  1  0  0  0
 19 43  1  0  0  0
 20 24  1  0  0  0
 20 23  2  0  0  0
 21 44  1  0  0  0
 22 45  1  0  0  0
 23 46  1  0  0  0
 24 47  1  0  0  0
 25 26  2  0  0  0
 25 27  1  0  0  0
 26 29  1  0  0  0
 26 48  1  0  0  0
 27 28  2  0  0  0
 27 49  1  0  0  0
 28 30  1  0  0  0
 28 50  1  0  0  0
 29 30  2  0  0  0
 29 51  1  0  0  0
 30 52  1  0  0  0
M  END
> <s_m_entry_id>
31764

> <s_m_entry_name>
dock_pv.27

> <s_m_Source_Path>
/home/csk/Desktop/cluster/DUD-E-result/src

> <s_m_Source_File>
dock_pv.maegz

> <i_m_Source_File_Index>
27

> <chembl_id>
CHEMBL69827

> <chembl_pref_name>
None

> <i_lp_mmshare_version>
53161

> <r_lp_tautomer_probability>
1

> <s_lp_Force_Field>
OPLS_2005

> <r_lp_Energy>
50.696487

> <b_lp_Chiralities_Consistent>
1

> <s_lp_Variant>
CHEMBL267_lig104-3

> <s_i_glide_gridfile>
glide-grid_3el8

> <i_i_glide_lignum>
147

> <i_i_glide_rotatable_bonds>
6

> <r_i_docking_score>
-9.09269372906226

> <r_i_glide_ligand_efficiency>
-0.303089790968742

> <r_i_glide_ligand_efficiency_sa>
-0.94177044965312

> <r_i_glide_ligand_efficiency_ln>
-2.06595908807623

> <r_i_glide_gscore>
-9.09269372906226

> <r_i_glide_lipo>
-3.5453055321418

> <r_i_glide_hbond>
-0.192926539215175

> <r_i_glide_metal>
0

> <r_i_glide_rewards>
-2.52106142976304

> <r_i_glide_evdw>
-46.415828704834

> <r_i_glide_ecoul>
-5.67909860610962

> <r_i_glide_erotb>
0.339255998215899

> <r_i_glide_esite>
0

> <r_i_glide_emodel>
-73.3289724086186

> <r_i_glide_energy>
-52.0949273109436

> <r_i_glide_einternal>
7.85080003738403

> <i_i_glide_confnum>
7

> <i_i_glide_posenum>
117

> <r_i_glide_eff_state_penalty>
0

> <s_user_duplicate_titles>
CHEMBL267_lig104

> <i_f3d_flags>
0

> <s_m_subgroup_title>
dock_pv

> <s_m_subgroupid>
dock_pv

> <b_m_subgroup_collapsed>
1

$$$$
CHEMBL267_lig1811
                    3D
 Schrodinger Suite 2021-1.
 42 45  0  0  1  0            999 V2000
    7.4046    6.6915    7.5881 N   0  0  0  0  0  0
    7.6830    7.6984    6.7195 C   0  0  0  0  0  0
    6.8077    8.5666    6.1502 N   0  0  0  0  0  0
    6.1115    6.5601    7.9879 C   0  0  0  0  0  0
    5.1157    7.4306    7.5027 C   0  0  0  0  0  0
    5.5428    8.3854    6.5537 C   0  0  0  0  0  0
    4.3936    9.0360    6.1296 N   0  0  0  0  0  0
    3.3044    8.5697    6.7854 N   0  0  0  0  0  0
    3.7028    7.6409    7.6249 C   0  0  0  0  0  0
    2.7534    6.9466    8.5368 C   0  0  0  0  0  0
    1.6795    6.1915    8.0487 C   0  0  0  0  0  0
    0.8266    5.5214    8.9320 C   0  0  0  0  0  0
    1.0190    5.6514   10.3118 C   0  0  0  0  0  0
    2.0841    6.4084   10.7997 C   0  0  0  0  0  0
    2.9579    7.0394    9.9162 C   0  0  0  0  0  0
    5.7980    5.4645    8.7880 N   0  0  0  0  0  0
    0.1884    5.0373   11.1860 F   0  0  0  0  0  0
   -0.1879    4.7352    8.4452 O   0  0  0  0  0  0
    4.2244   10.0895    5.1215 C   0  0  2  0  0  0
    4.7142    9.6784    3.7262 C   0  0  0  0  0  0
    4.9327   11.0064    3.0002 C   0  0  0  0  0  0
    5.3380   12.0294    4.0812 C   0  0  2  0  0  0
    4.9966   11.3834    5.4427 C   0  0  0  0  0  0
    4.6660   13.3999    3.8859 C   0  0  0  0  0  0
    8.7177    7.8212    6.4332 H   0  0  0  0  0  0
    1.5260    6.0974    6.9837 H   0  0  0  0  0  0
    2.2390    6.4985   11.8647 H   0  0  0  0  0  0
    3.7873    7.6119   10.3084 H   0  0  0  0  0  0
    4.8483    5.3342    9.1053 H   0  0  0  0  0  0
    6.5390    4.8352    9.0716 H   0  0  0  0  0  0
   -0.9087    5.2365    8.0346 H   0  0  0  0  0  0
    3.1587   10.3242    5.0540 H   0  0  0  0  0  0
    5.6672    9.1509    3.7775 H   0  0  0  0  0  0
    4.0040    9.0369    3.2030 H   0  0  0  0  0  0
    5.6947   10.9143    2.2264 H   0  0  0  0  0  0
    4.0122   11.3087    2.4992 H   0  0  0  0  0  0
    6.4172   12.1831    4.0231 H   0  0  0  0  0  0
    4.4137   12.0399    6.0905 H   0  0  0  0  0  0
    5.9325   11.1699    5.9617 H   0  0  0  0  0  0
    3.5808   13.3270    3.9491 H   0  0  0  0  0  0
    4.9976   14.1078    4.6435 H   0  0  0  0  0  0
    4.9139   13.8256    2.9126 H   0  0  0  0  0  0
  1  2  2  0  0  0
  1  4  1  0  0  0
  2  3  1  0  0  0
  2 25  1  0  0  0
  3  6  2  0  0  0
  4  5  2  0  0  0
  4 16  1  0  0  0
  5  9  1  0  0  0
  5  6  1  0  0  0
  6  7  1  0  0  0
  7  8  1  0  0  0
  7 19  1  0  0  0
  8  9  2  0  0  0
  9 10  1  0  0  0
 10 15  1  0  0  0
 10 11  2  0  0  0
 11 12  1  0  0  0
 11 26  1  0  0  0
 12 13  2  0  0  0
 12 18  1  0  0  0
 13 14  1  0  0  0
 13 17  1  0  0  0
 14 15  2  0  0  0
 14 27  1  0  0  0
 15 28  1  0  0  0
 16 29  1  0  0  0
 16 30  1  0  0  0
 18 31  1  0  0  0
 19 20  1  0  0  0
 19 23  1  0  0  0
 19 32  1  0  0  0
 20 21  1  0  0  0
 20 33  1  0  0  0
 20 34  1  0  0  0
 21 22  1  0  0  0
 21 35  1  0  0  0
 21 36  1  0  0  0
 22 23  1  0  0  0
 22 24  1  0  0  0
 22 37  1  0  0  0
 23 38  1  0  0  0
 23 39  1  0  0  0
 24 40  1  0  0  0
 24 41  1  0  0  0
 24 42  1  0  0  0
M  END
> <s_m_entry_id>
31765

> <s_m_entry_name>
dock_pv.28

> <s_m_Source_Path>
/home/csk/Desktop/cluster/DUD-E-result/src

> <s_m_Source_File>
dock_pv.maegz

> <i_m_Source_File_Index>
28

> <chembl_id>
CHEMBL1242656

> <chembl_pref_name>
None

> <i_lp_mmshare_version>
53161

> <r_lp_tautomer_probability>
0.999999999997365

> <s_lp_Force_Field>
OPLS_2005

> <r_lp_Energy>
30.895167

> <b_lp_Chiralities_Consistent>
1

> <s_lp_Variant>
CHEMBL267_lig1811-1

> <s_i_glide_gridfile>
glide-grid_3el8

> <i_i_glide_lignum>
2074

> <i_i_glide_rotatable_bonds>
3

> <r_i_docking_score>
-9.0763814942935

> <r_i_glide_ligand_efficiency>
-0.378182562262229

> <r_i_glide_ligand_efficiency_sa>
-1.0908672746853

> <r_i_glide_ligand_efficiency_ln>
-2.17239457959249

> <r_i_glide_gscore>
-9.0763814942935

> <r_i_glide_lipo>
-2.49685031280306

> <r_i_glide_hbond>
-0.608

> <r_i_glide_metal>
0

> <r_i_glide_rewards>
-3.2197812058752

> <r_i_glide_evdw>
-37.4270439147949

> <r_i_glide_ecoul>
-8.20435905456543

> <r_i_glide_erotb>
0.350256078309327

> <r_i_glide_esite>
0

> <r_i_glide_emodel>
-64.2239907990627

> <r_i_glide_energy>
-45.6314029693604

> <r_i_glide_einternal>
6.90378093719482

> <i_i_glide_confnum>
10

> <i_i_glide_posenum>
127

> <r_i_glide_eff_state_penalty>
0

> <s_user_duplicate_titles>
CHEMBL267_lig1811

> <i_f3d_flags>
0

> <s_m_subgroup_title>
dock_pv

> <s_m_subgroupid>
dock_pv

> <b_m_subgroup_collapsed>
1

$$$$
CHEMBL267_lig3520
                    3D
 Schrodinger Suite 2021-1.
 39 42  0  0  1  0            999 V2000
    2.2498    4.6493    7.7541 F   0  0  0  0  0  0
   -0.0079    3.2741    8.3920 F   0  0  0  0  0  0
    3.2543    8.0267    9.6760 O   0  0  0  0  0  0
    8.2875    8.3791    5.7470 N   0  0  0  0  0  0
    7.6387    6.6369    7.2826 N   0  0  0  0  0  0
    4.2932    6.1976    8.7880 N   0  0  0  0  0  0
    6.1754    8.4703    6.5263 C   0  0  0  0  0  0
    6.3656    9.5850    5.6269 C   0  0  0  0  0  0
    7.3999    7.7454    6.5775 C   0  0  0  0  0  0
    5.3268    6.8041    8.0537 C   0  0  0  0  0  0
    5.1218    7.9760    7.3122 C   0  0  0  0  0  0
    5.3603   10.5999    5.1789 C   0  0  0  0  0  0
    7.6786    9.4750    5.1880 C   0  0  0  0  0  0
    2.0831    5.9589    9.7701 C   0  0  0  0  0  0
    3.2697    6.8212    9.4120 C   0  0  0  0  0  0
    6.5732    6.1729    7.9880 C   0  0  0  0  0  0
    1.6124    4.9439    8.9117 C   0  0  0  0  0  0
    0.4489    4.2383    9.2242 C   0  0  0  0  0  0
    1.3612    6.2370   10.9402 C   0  0  0  0  0  0
    5.7977   11.8633    4.7681 C   0  0  0  0  0  0
    3.9888   10.3220    5.1845 C   0  0  0  0  0  0
   -0.2576    4.5384   10.3851 C   0  0  0  0  0  0
    0.1981    5.5326   11.2456 C   0  0  0  0  0  0
    4.8831   12.8382    4.3802 C   0  0  0  0  0  0
    3.0705   11.2937    4.7953 C   0  0  0  0  0  0
    3.5211   12.5500    4.3981 C   0  0  0  0  0  0
    9.2352    8.0909    5.5363 H   0  0  0  0  0  0
    4.2727    5.1886    8.7872 H   0  0  0  0  0  0
    4.1683    8.4786    7.3341 H   0  0  0  0  0  0
    8.2324   10.0871    4.4895 H   0  0  0  0  0  0
    6.7486    5.2573    8.5371 H   0  0  0  0  0  0
    1.6848    7.0219   11.6109 H   0  0  0  0  0  0
    6.8503   12.0977    4.7498 H   0  0  0  0  0  0
    3.6211    9.3465    5.4589 H   0  0  0  0  0  0
   -1.1671    4.0030   10.6132 H   0  0  0  0  0  0
   -0.3632    5.7704   12.1383 H   0  0  0  0  0  0
    5.2310   13.8120    4.0665 H   0  0  0  0  0  0
    2.0139   11.0690    4.7919 H   0  0  0  0  0  0
    2.8101   13.3028    4.0917 H   0  0  0  0  0  0
  1 17  1  0  0  0
  2 18  1  0  0  0
  3 15  2  0  0  0
  4  9  1  0  0  0
  4 13  1  0  0  0
  4 27  1  0  0  0
  5  9  2  0  0  0
  5 16  1  0  0  0
  6 10  1  0  0  0
  6 15  1  0  0  0
  6 28  1  0  0  0
  7  8  1  0  0  0
  7  9  1  0  0  0
  7 11  2  0  0  0
  8 12  1  0  0  0
  8 13  2  0  0  0
 10 11  1  0  0  0
 10 16  2  0  0  0
 11 29  1  0  0  0
 12 20  2  0  0  0
 12 21  1  0  0  0
 13 30  1  0  0  0
 14 15  1  0  0  0
 14 17  2  0  0  0
 14 19  1  0  0  0
 16 31  1  0  0  0
 17 18  1  0  0  0
 18 22  2  0  0  0
 19 23  2  0  0  0
 19 32  1  0  0  0
 20 24  1  0  0  0
 20 33  1  0  0  0
 21 25  2  0  0  0
 21 34  1  0  0  0
 22 23  1  0  0  0
 22 35  1  0  0  0
 23 36  1  0  0  0
 24 26  2  0  0  0
 24 37  1  0  0  0
 25 26  1  0  0  0
 25 38  1  0  0  0
 26 39  1  0  0  0
M  END
> <s_m_entry_id>
31766

> <s_m_entry_name>
dock_pv.29

> <s_m_Source_Path>
/home/csk/Desktop/cluster/DUD-E-result/src

> <s_m_Source_File>
dock_pv.maegz

> <i_m_Source_File_Index>
29

> <chembl_id>
CHEMBL1974416

> <chembl_pref_name>
None

> <i_lp_mmshare_version>
53161

> <r_lp_tautomer_probability>
0.999998432528457

> <s_lp_Force_Field>
OPLS_2005

> <r_lp_Energy>
24.916623

> <b_lp_Chiralities_Consistent>
1

> <s_lp_Variant>
CHEMBL267_lig3520-1

> <s_i_glide_gridfile>
glide-grid_3el8

> <i_i_glide_lignum>
4233

> <i_i_glide_rotatable_bonds>
4

> <r_i_docking_score>
-9.05316493316741

> <r_i_glide_ligand_efficiency>
-0.34819865127567

> <r_i_glide_ligand_efficiency_sa>
-1.03153713430864

> <r_i_glide_ligand_efficiency_ln>
-2.1261060786973

> <r_i_glide_gscore>
-9.05316493316741

> <r_i_glide_lipo>
-3.50185756475012

> <r_i_glide_hbond>
-0.354595939737854

> <r_i_glide_metal>
0

> <r_i_glide_rewards>
-2.82954598422009

> <r_i_glide_evdw>
-41.2545890808105

> <r_i_glide_ecoul>
-4.94313192367554

> <r_i_glide_erotb>
0.437033798132511

> <r_i_glide_esite>
0

> <r_i_glide_emodel>
-69.1503265564853

> <r_i_glide_energy>
-46.1977210044861

> <r_i_glide_einternal>
4.54747200012207

> <i_i_glide_confnum>
87

> <i_i_glide_posenum>
33

> <r_i_glide_eff_state_penalty>
0

> <s_user_duplicate_titles>
CHEMBL267_lig3520

> <i_f3d_flags>
0

> <s_m_subgroup_title>
dock_pv

> <s_m_subgroupid>
dock_pv

> <b_m_subgroup_collapsed>
1

$$$$
CHEMBL267_lig1812
                    3D
 Schrodinger Suite 2021-1.
 38 41  0  0  1  0            999 V2000
    7.3832    6.6816    7.5880 N   0  0  0  0  0  0
    7.6401    7.6909    6.7164 C   0  0  0  0  0  0
    6.7495    8.5565    6.1639 N   0  0  0  0  0  0
    6.0941    6.5327    7.9879 C   0  0  0  0  0  0
    5.0839    7.3945    7.5255 C   0  0  0  0  0  0
    5.4909    8.3679    6.5882 C   0  0  0  0  0  0
    4.3331    9.0369    6.2138 N   0  0  0  0  0  0
    3.2563    8.5306    6.8578 N   0  0  0  0  0  0
    3.6710    7.5836    7.6660 C   0  0  0  0  0  0
    2.7256    6.8680    8.5613 C   0  0  0  0  0  0
    1.6831    6.0873    8.0455 C   0  0  0  0  0  0
    0.7946    5.4365    8.9059 C   0  0  0  0  0  0
    0.9247    5.6043   10.2898 C   0  0  0  0  0  0
    1.9673    6.3749   10.8047 C   0  0  0  0  0  0
    2.8728    6.9938    9.9454 C   0  0  0  0  0  0
    5.7981    5.4370    8.7879 N   0  0  0  0  0  0
    0.0461    5.0328   11.1435 F   0  0  0  0  0  0
   -0.1959    4.6384    8.3875 O   0  0  0  0  0  0
    4.1341   10.1329    5.2461 C   0  0  1  0  0  0
    5.1238   11.2928    5.4493 C   0  0  0  0  0  0
    5.9726   11.2875    4.1709 C   0  0  0  0  0  0
    5.8026    9.9720    3.5713 N   0  0  2  0  0  0
    4.3982    9.6835    3.8053 C   0  0  0  0  0  0
    8.6700    7.8141    6.4133 H   0  0  0  0  0  0
    1.5742    5.9738    6.9763 H   0  0  0  0  0  0
    2.0707    6.4942   11.8732 H   0  0  0  0  0  0
    3.6760    7.5893   10.3567 H   0  0  0  0  0  0
    4.8512    5.2968    9.1136 H   0  0  0  0  0  0
    6.5487    4.8144    9.0654 H   0  0  0  0  0  0
   -0.9543    5.1404    8.0557 H   0  0  0  0  0  0
    3.0965   10.4501    5.3799 H   0  0  0  0  0  0
    4.5905   12.2395    5.5416 H   0  0  0  0  0  0
    5.7338   11.1835    6.3481 H   0  0  0  0  0  0
    5.6574   12.0753    3.4824 H   0  0  0  0  0  0
    7.0273   11.4541    4.3942 H   0  0  0  0  0  0
    6.3406    9.3202    4.1331 H   0  0  0  0  0  0
    4.1445    8.6377    3.6286 H   0  0  0  0  0  0
    3.7929   10.2708    3.1110 H   0  0  0  0  0  0
  1  2  2  0  0  0
  1  4  1  0  0  0
  2  3  1  0  0  0
  2 24  1  0  0  0
  3  6  2  0  0  0
  4  5  2  0  0  0
  4 16  1  0  0  0
  5  9  1  0  0  0
  5  6  1  0  0  0
  6  7  1  0  0  0
  7  8  1  0  0  0
  7 19  1  0  0  0
  8  9  2  0  0  0
  9 10  1  0  0  0
 10 15  1  0  0  0
 10 11  2  0  0  0
 11 12  1  0  0  0
 11 25  1  0  0  0
 12 13  2  0  0  0
 12 18  1  0  0  0
 13 14  1  0  0  0
 13 17  1  0  0  0
 14 15  2  0  0  0
 14 26  1  0  0  0
 15 27  1  0  0  0
 16 28  1  0  0  0
 16 29  1  0  0  0
 18 30  1  0  0  0
 19 20  1  0  0  0
 19 23  1  0  0  0
 19 31  1  0  0  0
 20 21  1  0  0  0
 20 32  1  0  0  0
 20 33  1  0  0  0
 21 22  1  0  0  0
 21 34  1  0  0  0
 21 35  1  0  0  0
 22 23  1  0  0  0
 22 36  1  0  0  0
 23 37  1  0  0  0
 23 38  1  0  0  0
M  END
> <s_m_entry_id>
31767

> <s_m_entry_name>
dock_pv.30

> <s_m_Source_Path>
/home/csk/Desktop/cluster/DUD-E-result/src

> <s_m_Source_File>
dock_pv.maegz

> <i_m_Source_File_Index>
30

> <chembl_id>
CHEMBL1242657

> <chembl_pref_name>
None

> <i_lp_mmshare_version>
53161

> <r_lp_tautomer_probability>
0.999999999997365

> <s_lp_Force_Field>
OPLS_2005

> <r_lp_Energy>
31.267419

> <b_lp_Chiralities_Consistent>
1

> <s_lp_Variant>
CHEMBL267_lig1812-1

> <s_i_glide_gridfile>
glide-grid_3el8

> <i_i_glide_lignum>
2078

> <i_i_glide_rotatable_bonds>
3

> <r_i_docking_score>
-9.04183203305157

> <r_i_glide_ligand_efficiency>
-0.393123131871808

> <r_i_glide_ligand_efficiency_sa>
-1.11798989257758

> <r_i_glide_ligand_efficiency_ln>
-2.18639697239187

> <r_i_glide_gscore>
-9.04183203305157

> <r_i_glide_lipo>
-2.39181477751698

> <r_i_glide_hbond>
-0.608

> <r_i_glide_metal>
0

> <r_i_glide_rewards>
-3.28337935196101

> <r_i_glide_evdw>
-35.9826583862305

> <r_i_glide_ecoul>
-8.9051342010498

> <r_i_glide_erotb>
0.376265145895412

> <r_i_glide_esite>
0

> <r_i_glide_emodel>
-63.4050122856256

> <r_i_glide_energy>
-44.8877925872803

> <r_i_glide_einternal>
7.97493982315063

> <i_i_glide_confnum>
47

> <i_i_glide_posenum>
399

> <r_i_glide_eff_state_penalty>
0

> <s_user_duplicate_titles>
CHEMBL267_lig1812

> <i_f3d_flags>
0

> <s_m_subgroup_title>
dock_pv

> <s_m_subgroupid>
dock_pv

> <b_m_subgroup_collapsed>
1

$$$$
CHEMBL267_lig1490
                    3D
 Schrodinger Suite 2021-1.
 40 43  0  0  1  0            999 V2000
    7.7835    6.6371    7.1834 N   0  0  0  0  0  0
    6.9797    5.9070    7.9881 C   0  0  0  0  0  0
    5.6831    6.1485    8.3098 N   0  0  0  0  0  0
    7.2026    7.6555    6.5079 C   0  0  0  0  0  0
    5.8379    7.9796    6.6805 C   0  0  0  0  0  0
    5.1420    7.1793    7.6387 C   0  0  0  0  0  0
    3.8183    7.6119    7.6996 N   0  0  0  0  0  0
    3.6920    8.6370    6.7836 C   0  0  0  0  0  0
    4.8792    8.8923    6.1124 C   0  0  0  0  0  0
    5.0812    9.8784    5.0160 C   0  0  0  0  0  0
    4.2116    9.8605    3.9221 C   0  0  0  0  0  0
    4.4067   10.7406    2.8609 C   0  0  0  0  0  0
    5.4705   11.6395    2.8975 C   0  0  0  0  0  0
    6.3360   11.6718    3.9884 C   0  0  0  0  0  0
    6.1405   10.7904    5.0499 C   0  0  0  0  0  0
    2.8020    7.1477    8.5788 C   0  0  0  0  0  0
    3.1367    7.0385    9.9381 C   0  0  0  0  0  0
    2.2194    6.5528   10.8657 C   0  0  0  0  0  0
    0.9585    6.1447   10.4468 C   0  0  0  0  0  0
    0.6109    6.2363    9.1019 C   0  0  0  0  0  0
    1.5105    6.7431    8.1514 C   0  0  0  0  0  0
    8.0151    8.3110    5.5930 N   0  0  0  0  0  0
    1.0353    6.7704    6.6959 C   0  0  0  0  0  0
   -0.2019    7.4403    6.5240 O   0  0  0  0  0  0
    7.4284    5.0476    8.4652 H   0  0  0  0  0  0
    2.7353    9.1284    6.6775 H   0  0  0  0  0  0
    3.3923    9.1560    3.8862 H   0  0  0  0  0  0
    3.7393   10.7263    2.0124 H   0  0  0  0  0  0
    5.6217   12.3208    2.0720 H   0  0  0  0  0  0
    7.1525   12.3796    4.0064 H   0  0  0  0  0  0
    6.8064   10.8210    5.9007 H   0  0  0  0  0  0
    4.1185    7.3253   10.2905 H   0  0  0  0  0  0
    2.4958    6.4736   11.9072 H   0  0  0  0  0  0
    0.2495    5.7526   11.1626 H   0  0  0  0  0  0
   -0.3711    5.9009    8.7962 H   0  0  0  0  0  0
    7.6240    9.0434    5.0192 H   0  0  0  0  0  0
    8.9602    7.9705    5.4674 H   0  0  0  0  0  0
    1.7577    7.2016    6.0100 H   0  0  0  0  0  0
    0.9054    5.7449    6.3579 H   0  0  0  0  0  0
   -0.9156    6.8403    6.7880 H   0  0  0  0  0  0
  1  2  2  0  0  0
  1  4  1  0  0  0
  2  3  1  0  0  0
  2 25  1  0  0  0
  3  6  2  0  0  0
  4  5  2  0  0  0
  4 22  1  0  0  0
  5  9  1  0  0  0
  5  6  1  0  0  0
  6  7  1  0  0  0
  7  8  1  0  0  0
  7 16  1  0  0  0
  8  9  2  0  0  0
  8 26  1  0  0  0
  9 10  1  0  0  0
 10 15  1  0  0  0
 10 11  2  0  0  0
 11 12  1  0  0  0
 11 27  1  0  0  0
 12 13  2  0  0  0
 12 28  1  0  0  0
 13 14  1  0  0  0
 13 29  1  0  0  0
 14 15  2  0  0  0
 14 30  1  0  0  0
 15 31  1  0  0  0
 16 17  2  0  0  0
 16 21  1  0  0  0
 17 18  1  0  0  0
 17 32  1  0  0  0
 18 19  2  0  0  0
 18 33  1  0  0  0
 19 20  1  0  0  0
 19 34  1  0  0  0
 20 21  2  0  0  0
 20 35  1  0  0  0
 21 23  1  0  0  0
 22 36  1  0  0  0
 22 37  1  0  0  0
 23 24  1  0  0  0
 23 38  1  0  0  0
 23 39  1  0  0  0
 24 40  1  0  0  0
M  END
> <s_m_entry_id>
31768

> <s_m_entry_name>
dock_pv.31

> <s_m_Source_Path>
/home/csk/Desktop/cluster/DUD-E-result/src

> <s_m_Source_File>
dock_pv.maegz

> <i_m_Source_File_Index>
31

> <chembl_id>
CHEMBL429057

> <chembl_pref_name>
None

> <i_lp_mmshare_version>
53161

> <r_lp_tautomer_probability>
1

> <s_lp_Force_Field>
OPLS_2005

> <r_lp_Energy>
18.814573

> <b_lp_Chiralities_Consistent>
1

> <s_lp_Variant>
CHEMBL267_lig1490-1

> <s_i_glide_gridfile>
glide-grid_3el8

> <i_i_glide_lignum>
1671

> <i_i_glide_rotatable_bonds>
4

> <r_i_docking_score>
-9.02162808347889

> <r_i_glide_ligand_efficiency>
-0.375901170144954

> <r_i_glide_ligand_efficiency_sa>
-1.08428660109058

> <r_i_glide_ligand_efficiency_ln>
-2.15928957591424

> <r_i_glide_gscore>
-9.02162808347889

> <r_i_glide_lipo>
-2.62206489120431

> <r_i_glide_hbond>
-0.718903988206322

> <r_i_glide_metal>
0

> <r_i_glide_rewards>
-3.04669528135356

> <r_i_glide_evdw>
-36.398998260498

> <r_i_glide_ecoul>
-8.0308256149292

> <r_i_glide_erotb>
0.390609832549585

> <r_i_glide_esite>
0

> <r_i_glide_emodel>
-67.4277764987314

> <r_i_glide_energy>
-44.4298238754272

> <r_i_glide_einternal>
0.973385095596313

> <i_i_glide_confnum>
28

> <i_i_glide_posenum>
193

> <r_i_glide_eff_state_penalty>
0

> <s_user_duplicate_titles>
CHEMBL267_lig1490,289406

> <i_f3d_flags>
0

> <s_m_subgroup_title>
dock_pv

> <s_m_subgroupid>
dock_pv

> <b_m_subgroup_collapsed>
1

$$$$
CHEMBL267_lig1504
                    3D
 Schrodinger Suite 2021-1.
 56 59  0  0  1  0            999 V2000
    7.8589    6.7568    7.2535 N   0  0  0  0  0  0
    6.8397    6.2556    7.9876 C   0  0  0  0  0  0
    5.5516    6.6683    7.9882 N   0  0  0  0  0  0
    7.5647    7.7815    6.4186 C   0  0  0  0  0  0
    6.2649    8.3107    6.3093 C   0  0  0  0  0  0
    5.2930    7.6826    7.1463 C   0  0  0  0  0  0
    4.0501    8.2365    6.8532 N   0  0  0  0  0  0
    4.2671    9.2414    5.9323 C   0  0  0  0  0  0
    5.5825    9.3082    5.5220 C   0  0  0  0  0  0
    6.0990   10.2304    4.4711 C   0  0  0  0  0  0
    5.3384   10.4218    3.3130 C   0  0  0  0  0  0
    5.7874   11.2642    2.2991 C   0  0  0  0  0  0
    7.0117   11.9182    2.4237 C   0  0  0  0  0  0
    7.7786   11.7351    3.5751 C   0  0  0  0  0  0
    7.3212   10.8956    4.5925 C   0  0  0  0  0  0
    2.7784    7.8801    7.3669 C   0  0  0  0  0  0
    1.6393    8.0519    6.5660 C   0  0  0  0  0  0
    0.3959    7.6224    7.0110 C   0  0  0  0  0  0
    0.2866    6.9950    8.2469 C   0  0  0  0  0  0
    1.4095    6.7795    9.0556 C   0  0  0  0  0  0
    2.6447    7.2410    8.6098 C   0  0  0  0  0  0
    8.5980    8.2379    5.6212 N   0  0  0  0  0  0
    5.0109   11.4360    1.1885 O   0  0  0  0  0  0
    1.3910    6.1333   10.2769 O   0  0  0  0  0  0
    0.1475    5.7942   10.8904 C   0  0  0  0  0  0
   -0.3632    4.3753   10.5478 C   0  0  0  0  0  0
   -0.8719    4.2364    9.1881 N   0  0  1  0  0  0
   -1.3584    2.8907    8.8915 C   0  0  0  0  0  0
   -0.2076    1.9184    8.5319 C   0  0  0  0  0  0
   -0.5688    0.5368    8.4716 O   0  0  0  0  0  0
   -1.7663    0.2041    7.7848 C   0  0  0  0  0  0
    7.0752    5.4323    8.6475 H   0  0  0  0  0  0
    3.4337    9.8366    5.5898 H   0  0  0  0  0  0
    4.3923    9.9147    3.1912 H   0  0  0  0  0  0
    7.3629   12.5743    1.6401 H   0  0  0  0  0  0
    8.7209   12.2525    3.6835 H   0  0  0  0  0  0
    7.9050   10.7881    5.4927 H   0  0  0  0  0  0
    1.7006    8.4896    5.5803 H   0  0  0  0  0  0
   -0.4795    7.7436    6.3883 H   0  0  0  0  0  0
   -0.6833    6.6460    8.5481 H   0  0  0  0  0  0
    3.4913    7.0810    9.2591 H   0  0  0  0  0  0
    8.3982    8.9245    4.9107 H   0  0  0  0  0  0
    9.4532    7.6849    5.5956 H   0  0  0  0  0  0
    5.3980   11.9803    0.4855 H   0  0  0  0  0  0
   -0.6021    6.5655   10.7309 H   0  0  0  0  0  0
    0.3333    5.8205   11.9644 H   0  0  0  0  0  0
   -1.2006    4.1629   11.2088 H   0  0  0  0  0  0
    0.4217    3.6475   10.7509 H   0  0  0  0  0  0
   -1.6070    4.9160    9.0069 H   0  0  0  0  0  0
   -2.0222    2.9655    8.0289 H   0  0  0  0  0  0
   -1.9749    2.5106    9.7062 H   0  0  0  0  0  0
    0.6000    1.9879    9.2601 H   0  0  0  0  0  0
    0.2409    2.2201    7.5882 H   0  0  0  0  0  0
   -1.8355   -0.8785    7.6820 H   0  0  0  0  0  0
   -1.8020    0.6366    6.7869 H   0  0  0  0  0  0
   -2.6399    0.5346    8.3474 H   0  0  0  0  0  0
  1  4  1  0  0  0
  1  2  2  0  0  0
  2  3  1  0  0  0
  2 32  1  0  0  0
  3  6  2  0  0  0
  4  5  2  0  0  0
  4 22  1  0  0  0
  5  9  1  0  0  0
  5  6  1  0  0  0
  6  7  1  0  0  0
  7  8  1  0  0  0
  7 16  1  0  0  0
  8  9  2  0  0  0
  8 33  1  0  0  0
  9 10  1  0  0  0
 10 15  1  0  0  0
 10 11  2  0  0  0
 11 12  1  0  0  0
 11 34  1  0  0  0
 12 23  1  0  0  0
 12 13  2  0  0  0
 13 14  1  0  0  0
 13 35  1  0  0  0
 14 15  2  0  0  0
 14 36  1  0  0  0
 15 37  1  0  0  0
 16 17  2  0  0  0
 16 21  1  0  0  0
 17 18  1  0  0  0
 17 38  1  0  0  0
 18 19  2  0  0  0
 18 39  1  0  0  0
 19 20  1  0  0  0
 19 40  1  0  0  0
 20 21  2  0  0  0
 20 24  1  0  0  0
 21 41  1  0  0  0
 22 42  1  0  0  0
 22 43  1  0  0  0
 23 44  1  0  0  0
 24 25  1  0  0  0
 25 26  1  0  0  0
 25 45  1  0  0  0
 25 46  1  0  0  0
 26 27  1  0  0  0
 26 47  1  0  0  0
 26 48  1  0  0  0
 27 28  1  0  0  0
 27 49  1  0  0  0
 28 29  1  0  0  0
 28 50  1  0  0  0
 28 51  1  0  0  0
 29 30  1  0  0  0
 29 52  1  0  0  0
 29 53  1  0  0  0
 30 31  1  0  0  0
 31 54  1  0  0  0
 31 55  1  0  0  0
 31 56  1  0  0  0
M  END
> <s_m_entry_id>
31769

> <s_m_entry_name>
dock_pv.32

> <s_m_Source_Path>
/home/csk/Desktop/cluster/DUD-E-result/src

> <s_m_Source_File>
dock_pv.maegz

> <i_m_Source_File_Index>
32

> <chembl_id>
CHEMBL475156

> <chembl_pref_name>
None

> <i_lp_mmshare_version>
53161

> <r_lp_tautomer_probability>
0.999999999997365

> <s_lp_Force_Field>
OPLS_2005

> <r_lp_Energy>
25.188813

> <b_lp_Chiralities_Consistent>
1

> <s_lp_Variant>
CHEMBL267_lig1504-1

> <s_i_glide_gridfile>
glide-grid_3el8

> <i_i_glide_lignum>
1685

> <i_i_glide_rotatable_bonds>
10

> <r_i_docking_score>
-8.9914603013149

> <r_i_glide_ligand_efficiency>
-0.290047106494029

> <r_i_glide_ligand_efficiency_sa>
-0.911148367579491

> <r_i_glide_ligand_efficiency_ln>
-2.02784985311182

> <r_i_glide_gscore>
-8.9914603013149

> <r_i_glide_lipo>
-2.71562182565553

> <r_i_glide_hbond>
-0.75638792265399

> <r_i_glide_metal>
0

> <r_i_glide_rewards>
-2.27219681443817

> <r_i_glide_evdw>
-42.9699249267578

> <r_i_glide_ecoul>
-11.5225400924683

> <r_i_glide_erotb>
0.629623521640912

> <r_i_glide_esite>
0

> <r_i_glide_emodel>
-78.5783192856146

> <r_i_glide_energy>
-54.4924650192261

> <r_i_glide_einternal>
11.2857160568237

> <i_i_glide_confnum>
35

> <i_i_glide_posenum>
326

> <r_i_glide_eff_state_penalty>
0

> <s_user_duplicate_titles>
CHEMBL267_lig1504,459185

> <i_f3d_flags>
0

> <s_m_subgroup_title>
dock_pv

> <s_m_subgroupid>
dock_pv

> <b_m_subgroup_collapsed>
1

$$$$
CHEMBL267_lig1860
                    3D
 Schrodinger Suite 2021-1.
 38 40  0  0  1  0            999 V2000
    7.7013    6.6952    7.5815 N   0  0  0  0  0  0
    8.2183    7.6735    6.7969 C   0  0  0  0  0  0
    7.5483    8.6367    6.1110 N   0  0  0  0  0  0
    6.3537    6.6882    7.7359 C   0  0  0  0  0  0
    5.5463    7.6720    7.1319 C   0  0  0  0  0  0
    6.2247    8.5961    6.3094 C   0  0  0  0  0  0
    5.2448    9.4047    5.7575 N   0  0  0  0  0  0
    4.0159    9.0373    6.1878 N   0  0  0  0  0  0
    4.1640    8.0456    7.0382 C   0  0  0  0  0  0
    3.0013    7.4721    7.7665 C   0  0  0  0  0  0
    3.1082    7.2252    9.1385 C   0  0  0  0  0  0
    2.0409    6.6704    9.8568 C   0  0  0  0  0  0
    0.8602    6.3522    9.1786 C   0  0  0  0  0  0
    0.7449    6.6009    7.8102 C   0  0  0  0  0  0
    1.8094    7.1583    7.1055 C   0  0  0  0  0  0
    5.8074    5.6203    8.4341 N   0  0  0  0  0  0
    5.3981   10.5235    4.8177 C   0  0  0  0  0  0
    4.8756   11.8313    5.4486 C   0  0  0  0  0  0
    4.7084   10.1944    3.4785 C   0  0  0  0  0  0
    2.1160    6.4473   11.3639 C   0  0  0  0  0  0
    3.3975    6.6405   11.9369 O   0  0  0  0  0  0
    9.2923    7.6727    6.6874 H   0  0  0  0  0  0
    4.0198    7.4926    9.6544 H   0  0  0  0  0  0
    0.0182    5.9273    9.7102 H   0  0  0  0  0  0
   -0.1736    6.3613    7.2956 H   0  0  0  0  0  0
    1.7144    7.3405    6.0441 H   0  0  0  0  0  0
    4.8036    5.5527    8.5439 H   0  0  0  0  0  0
    6.4315    4.9181    8.8080 H   0  0  0  0  0  0
    6.4680   10.6455    4.6258 H   0  0  0  0  0  0
    5.0336   12.6758    4.7777 H   0  0  0  0  0  0
    3.8070   11.7790    5.6650 H   0  0  0  0  0  0
    5.3913   12.0555    6.3823 H   0  0  0  0  0  0
    4.8705   10.9885    2.7488 H   0  0  0  0  0  0
    5.0976    9.2704    3.0491 H   0  0  0  0  0  0
    3.6303   10.0743    3.5980 H   0  0  0  0  0  0
    1.4010    7.1016   11.8594 H   0  0  0  0  0  0
    1.7756    5.4371   11.5832 H   0  0  0  0  0  0
    3.9631    5.8980   11.6797 H   0  0  0  0  0  0
  1  2  2  0  0  0
  1  4  1  0  0  0
  2  3  1  0  0  0
  2 22  1  0  0  0
  3  6  2  0  0  0
  4  5  2  0  0  0
  4 16  1  0  0  0
  5  6  1  0  0  0
  5  9  1  0  0  0
  6  7  1  0  0  0
  7 17  1  0  0  0
  7  8  1  0  0  0
  8  9  2  0  0  0
  9 10  1  0  0  0
 10 11  2  0  0  0
 10 15  1  0  0  0
 11 12  1  0  0  0
 11 23  1  0  0  0
 12 13  2  0  0  0
 12 20  1  0  0  0
 13 14  1  0  0  0
 13 24  1  0  0  0
 14 15  2  0  0  0
 14 25  1  0  0  0
 15 26  1  0  0  0
 16 27  1  0  0  0
 16 28  1  0  0  0
 17 18  1  0  0  0
 17 19  1  0  0  0
 17 29  1  0  0  0
 18 30  1  0  0  0
 18 31  1  0  0  0
 18 32  1  0  0  0
 19 33  1  0  0  0
 19 34  1  0  0  0
 19 35  1  0  0  0
 20 21  1  0  0  0
 20 36  1  0  0  0
 20 37  1  0  0  0
 21 38  1  0  0  0
M  END
> <s_m_entry_id>
31770

> <s_m_entry_name>
dock_pv.33

> <s_m_Source_Path>
/home/csk/Desktop/cluster/DUD-E-result/src

> <s_m_Source_File>
dock_pv.maegz

> <i_m_Source_File_Index>
33

> <chembl_id>
CHEMBL1241582

> <chembl_pref_name>
None

> <i_lp_mmshare_version>
53161

> <r_lp_tautomer_probability>
1

> <s_lp_Force_Field>
OPLS_2005

> <r_lp_Energy>
14.033506

> <b_lp_Chiralities_Consistent>
1

> <s_lp_Variant>
CHEMBL267_lig1860-1

> <s_i_glide_gridfile>
glide-grid_3el8

> <i_i_glide_lignum>
2128

> <i_i_glide_rotatable_bonds>
4

> <r_i_docking_score>
-8.93056290721834

> <r_i_glide_ligand_efficiency>
-0.42526490034373

> <r_i_glide_ligand_efficiency_sa>
-1.17327361373394

> <r_i_glide_ligand_efficiency_ln>
-2.20806363290821

> <r_i_glide_gscore>
-8.93056290721834

> <r_i_glide_lipo>
-2.25015669704937

> <r_i_glide_hbond>
-0.562557348710325

> <r_i_glide_metal>
0

> <r_i_glide_rewards>
-3.50166292848574

> <r_i_glide_evdw>
-31.1683578491211

> <r_i_glide_ecoul>
-9.15722179412842

> <r_i_glide_erotb>
0.31581522860241

> <r_i_glide_esite>
0

> <r_i_glide_emodel>
-61.936172839646

> <r_i_glide_energy>
-40.3255796432495

> <r_i_glide_einternal>
1.4730908870697

> <i_i_glide_confnum>
2

> <i_i_glide_posenum>
70

> <r_i_glide_eff_state_penalty>
0

> <s_user_duplicate_titles>
CHEMBL267_lig1860

> <i_f3d_flags>
0

> <s_m_subgroup_title>
dock_pv

> <s_m_subgroupid>
dock_pv

> <b_m_subgroup_collapsed>
1

$$$$
CHEMBL267_lig1840
                    3D
 Schrodinger Suite 2021-1.
 35 37  0  0  1  0            999 V2000
    7.4677    6.5685    7.5880 N   0  0  0  0  0  0
    7.7926    7.5323    6.6882 C   0  0  0  0  0  0
    6.9597    8.4295    6.0952 N   0  0  0  0  0  0
    6.1712    6.5098    7.9874 C   0  0  0  0  0  0
    5.2212    7.4235    7.4924 C   0  0  0  0  0  0
    5.6900    8.3257    6.5134 C   0  0  0  0  0  0
    4.5727    9.0163    6.0730 N   0  0  0  0  0  0
    3.4695    8.6457    6.7736 N   0  0  0  0  0  0
    3.8274    7.7214    7.6357 C   0  0  0  0  0  0
    2.8746    7.1229    8.6089 C   0  0  0  0  0  0
    1.7067    6.4627    8.2034 C   0  0  0  0  0  0
    0.8980    5.8303    9.1532 C   0  0  0  0  0  0
    1.2249    5.8976   10.5047 C   0  0  0  0  0  0
    2.3674    6.5787   10.9135 C   0  0  0  0  0  0
    3.1973    7.1757    9.9689 C   0  0  0  0  0  0
    5.7990    5.4368    8.7880 N   0  0  0  0  0  0
   -0.2019    5.1043    8.7884 O   0  0  0  0  0  0
    2.6821    6.6381   12.2253 F   0  0  0  0  0  0
    4.5111   10.0868    5.0674 C   0  0  0  0  0  0
    4.6492   11.4597    5.7530 C   0  0  0  0  0  0
    3.2377    9.9918    4.1991 C   0  0  0  0  0  0
    8.8307    7.5732    6.3884 H   0  0  0  0  0  0
    1.4623    6.3973    7.1533 H   0  0  0  0  0  0
    0.5974    5.4137   11.2391 H   0  0  0  0  0  0
    4.0960    7.6757   10.3001 H   0  0  0  0  0  0
    4.8434    5.3543    9.1048 H   0  0  0  0  0  0
    6.5099    4.7768    9.0805 H   0  0  0  0  0  0
   -0.7363    5.4404    8.0544 H   0  0  0  0  0  0
    5.3688    9.9464    4.4062 H   0  0  0  0  0  0
    4.6999   12.2620    5.0162 H   0  0  0  0  0  0
    3.8008   11.6684    6.4040 H   0  0  0  0  0  0
    5.5561   11.5168    6.3568 H   0  0  0  0  0  0
    3.2509   10.7378    3.4039 H   0  0  0  0  0  0
    3.1526    9.0135    3.7246 H   0  0  0  0  0  0
    2.3322   10.1558    4.7850 H   0  0  0  0  0  0
  1  2  2  0  0  0
  1  4  1  0  0  0
  2  3  1  0  0  0
  2 22  1  0  0  0
  3  6  2  0  0  0
  4  5  2  0  0  0
  4 16  1  0  0  0
  5  6  1  0  0  0
  5  9  1  0  0  0
  6  7  1  0  0  0
  7  8  1  0  0  0
  7 19  1  0  0  0
  8  9  2  0  0  0
  9 10  1  0  0  0
 10 11  2  0  0  0
 10 15  1  0  0  0
 11 12  1  0  0  0
 11 23  1  0  0  0
 12 13  2  0  0  0
 12 17  1  0  0  0
 13 14  1  0  0  0
 13 24  1  0  0  0
 14 15  2  0  0  0
 14 18  1  0  0  0
 15 25  1  0  0  0
 16 26  1  0  0  0
 16 27  1  0  0  0
 17 28  1  0  0  0
 19 20  1  0  0  0
 19 21  1  0  0  0
 19 29  1  0  0  0
 20 30  1  0  0  0
 20 31  1  0  0  0
 20 32  1  0  0  0
 21 33  1  0  0  0
 21 34  1  0  0  0
 21 35  1  0  0  0
M  END
> <s_m_entry_id>
31771

> <s_m_entry_name>
dock_pv.34

> <s_m_Source_Path>
/home/csk/Desktop/cluster/DUD-E-result/src

> <s_m_Source_File>
dock_pv.maegz

> <i_m_Source_File_Index>
34

> <chembl_id>
CHEMBL1242198

> <chembl_pref_name>
None

> <i_lp_mmshare_version>
53161

> <r_lp_tautomer_probability>
0.999999999997365

> <s_lp_Force_Field>
OPLS_2005

> <r_lp_Energy>
11.287261

> <b_lp_Chiralities_Consistent>
1

> <s_lp_Variant>
CHEMBL267_lig1840-1

> <s_i_glide_gridfile>
glide-grid_3el8

> <i_i_glide_lignum>
2107

> <i_i_glide_rotatable_bonds>
3

> <r_i_docking_score>
-8.91686981605559

> <r_i_glide_ligand_efficiency>
-0.4246128483836

> <r_i_glide_ligand_efficiency_sa>
-1.1714746518187

> <r_i_glide_ligand_efficiency_ln>
-2.20467804378771

> <r_i_glide_gscore>
-8.91686981605559

> <r_i_glide_lipo>
-2.07993002990617

> <r_i_glide_hbond>
-0.651853184145791

> <r_i_glide_metal>
0

> <r_i_glide_rewards>
-3.6718497711578

> <r_i_glide_evdw>
-31.8754558563232

> <r_i_glide_ecoul>
-7.59771299362183

> <r_i_glide_erotb>
0.220192911013604

> <r_i_glide_esite>
0

> <r_i_glide_emodel>
-58.3638505247447

> <r_i_glide_energy>
-39.4731688499451

> <r_i_glide_einternal>
2.95053768157959

> <i_i_glide_confnum>
1

> <i_i_glide_posenum>
176

> <r_i_glide_eff_state_penalty>
0

> <s_user_duplicate_titles>
CHEMBL267_lig1840

> <i_f3d_flags>
0

> <s_m_subgroup_title>
dock_pv

> <s_m_subgroupid>
dock_pv

> <b_m_subgroup_collapsed>
1

$$$$
CHEMBL267_lig1862
                    3D
 Schrodinger Suite 2021-1.
 38 40  0  0  1  0            999 V2000
    7.9959    6.6683    7.5862 N   0  0  0  0  0  0
    8.4481    7.7020    6.8338 C   0  0  0  0  0  0
    7.7154    8.6401    6.1859 N   0  0  0  0  0  0
    6.6542    6.5717    7.7368 C   0  0  0  0  0  0
    5.7798    7.5363    7.2016 C   0  0  0  0  0  0
    6.4008    8.5287    6.4119 C   0  0  0  0  0  0
    5.3813    9.3205    5.9254 N   0  0  0  0  0  0
    4.1824    8.9005    6.3877 N   0  0  0  0  0  0
    4.3763    7.8541    7.1591 C   0  0  0  0  0  0
    3.2230    7.1868    7.8388 C   0  0  0  0  0  0
    1.9958    7.0968    7.1714 C   0  0  0  0  0  0
    0.9233    6.4435    7.7639 C   0  0  0  0  0  0
    1.0686    5.8658    9.0254 C   0  0  0  0  0  0
    2.2872    5.9595    9.7009 C   0  0  0  0  0  0
    3.3600    6.6199    9.1096 C   0  0  0  0  0  0
    6.1933    5.4368    8.3891 N   0  0  0  0  0  0
    5.4712   10.5106    5.0694 C   0  0  0  0  0  0
    5.1643   11.7795    5.8950 C   0  0  0  0  0  0
    4.5599   10.3720    3.8296 C   0  0  0  0  0  0
   -0.1042    5.1323    9.6513 C   0  0  0  0  0  0
   -0.3854    3.8726    8.9466 C   0  0  0  0  0  0
   -0.6016    2.8831    8.3888 N   0  0  0  0  0  0
    9.5187    7.7735    6.7091 H   0  0  0  0  0  0
    1.8750    7.5225    6.1836 H   0  0  0  0  0  0
   -0.0187    6.3721    7.2367 H   0  0  0  0  0  0
    2.4126    5.5127   10.6784 H   0  0  0  0  0  0
    4.2941    6.6950    9.6484 H   0  0  0  0  0  0
    5.2013    5.3000    8.5026 H   0  0  0  0  0  0
    6.8617    4.7689    8.7570 H   0  0  0  0  0  0
    6.5019   10.5753    4.7130 H   0  0  0  0  0  0
    5.3390   12.6827    5.3086 H   0  0  0  0  0  0
    4.1276   11.7970    6.2315 H   0  0  0  0  0  0
    5.7973   11.8364    6.7838 H   0  0  0  0  0  0
    4.6855   11.2174    3.1519 H   0  0  0  0  0  0
    4.7922    9.4681    3.2640 H   0  0  0  0  0  0
    3.5048   10.3267    4.1033 H   0  0  0  0  0  0
   -1.0018    5.7496    9.5979 H   0  0  0  0  0  0
    0.0862    4.9147   10.7037 H   0  0  0  0  0  0
  1  2  2  0  0  0
  1  4  1  0  0  0
  2  3  1  0  0  0
  2 23  1  0  0  0
  3  6  2  0  0  0
  4  5  2  0  0  0
  4 16  1  0  0  0
  5  9  1  0  0  0
  5  6  1  0  0  0
  6  7  1  0  0  0
  7 17  1  0  0  0
  7  8  1  0  0  0
  8  9  2  0  0  0
  9 10  1  0  0  0
 10 11  2  0  0  0
 10 15  1  0  0  0
 11 12  1  0  0  0
 11 24  1  0  0  0
 12 13  2  0  0  0
 12 25  1  0  0  0
 13 14  1  0  0  0
 13 20  1  0  0  0
 14 15  2  0  0  0
 14 26  1  0  0  0
 15 27  1  0  0  0
 16 28  1  0  0  0
 16 29  1  0  0  0
 17 18  1  0  0  0
 17 19  1  0  0  0
 17 30  1  0  0  0
 18 31  1  0  0  0
 18 32  1  0  0  0
 18 33  1  0  0  0
 19 34  1  0  0  0
 19 35  1  0  0  0
 19 36  1  0  0  0
 20 21  1  0  0  0
 20 37  1  0  0  0
 20 38  1  0  0  0
 21 22  3  0  0  0
M  END
> <s_m_entry_id>
31772

> <s_m_entry_name>
dock_pv.35

> <s_m_Source_Path>
/home/csk/Desktop/cluster/DUD-E-result/src

> <s_m_Source_File>
dock_pv.maegz

> <i_m_Source_File_Index>
35

> <chembl_id>
CHEMBL1240545

> <chembl_pref_name>
None

> <i_lp_mmshare_version>
53161

> <r_lp_tautomer_probability>
1

> <s_lp_Force_Field>
OPLS_2005

> <r_lp_Energy>
14.461161

> <b_lp_Chiralities_Consistent>
1

> <s_lp_Variant>
CHEMBL267_lig1862-1

> <s_i_glide_gridfile>
glide-grid_3el8

> <i_i_glide_lignum>
2130

> <i_i_glide_rotatable_bonds>
3

> <r_i_docking_score>
-8.90993840136307

> <r_i_glide_ligand_efficiency>
-0.404997200061958

> <r_i_glide_ligand_efficiency_sa>
-1.13481808220966

> <r_i_glide_ligand_efficiency_ln>
-2.17791394319288

> <r_i_glide_gscore>
-8.90993840136307

> <r_i_glide_lipo>
-2.01298696782752

> <r_i_glide_hbond>
-0.692828716872376

> <r_i_glide_metal>
0

> <r_i_glide_rewards>
-3.74494219433332

> <r_i_glide_evdw>
-33.6957359313965

> <r_i_glide_ecoul>
-7.15630769729614

> <r_i_glide_erotb>
0.299052428834395

> <r_i_glide_esite>
0

> <r_i_glide_emodel>
-61.9821529612208

> <r_i_glide_energy>
-40.8520436286926

> <r_i_glide_einternal>
0.410776883363724

> <i_i_glide_confnum>
10

> <i_i_glide_posenum>
270

> <r_i_glide_eff_state_penalty>
0

> <s_user_duplicate_titles>
CHEMBL267_lig1862

> <i_f3d_flags>
0

> <s_m_subgroup_title>
dock_pv

> <s_m_subgroupid>
dock_pv

> <b_m_subgroup_collapsed>
1

$$$$
CHEMBL267_lig1837
                    3D
 Schrodinger Suite 2021-1.
 41 43  0  0  1  0            999 V2000
    7.4771    6.5678    7.5878 N   0  0  0  0  0  0
    7.8120    7.5219    6.6806 C   0  0  0  0  0  0
    6.9914    8.4188    6.0723 N   0  0  0  0  0  0
    6.1781    6.5201    7.9779 C   0  0  0  0  0  0
    5.2381    7.4366    7.4632 C   0  0  0  0  0  0
    5.7180    8.3310    6.4815 C   0  0  0  0  0  0
    4.6061    9.0361    6.0420 N   0  0  0  0  0  0
    3.4918    8.6449    6.7093 N   0  0  0  0  0  0
    3.8454    7.7351    7.5893 C   0  0  0  0  0  0
    2.8935    7.1494    8.5700 C   0  0  0  0  0  0
    1.7146    6.4955    8.1892 C   0  0  0  0  0  0
    0.9064    5.8879    9.1560 C   0  0  0  0  0  0
    1.2480    5.9822   10.5126 C   0  0  0  0  0  0
    2.4201    6.6379   10.8883 C   0  0  0  0  0  0
    3.2399    7.2095    9.9224 C   0  0  0  0  0  0
    5.7980    5.4534    8.7879 N   0  0  0  0  0  0
    0.3666    5.3642   11.5820 C   0  0  0  0  0  0
   -0.2019    5.1656    8.7880 O   0  0  0  0  0  0
    4.4959   10.0730    5.0039 C   0  0  2  0  0  0
    4.7912    9.4590    3.6189 C   0  0  0  0  0  0
    5.4009   11.2827    5.3528 C   0  0  0  0  0  0
    5.1654   12.5218    4.4736 C   0  0  0  0  0  0
    8.8523    7.5547    6.3881 H   0  0  0  0  0  0
    1.4587    6.4155    7.1432 H   0  0  0  0  0  0
    2.7075    6.6952   11.9290 H   0  0  0  0  0  0
    4.1542    7.6984   10.2300 H   0  0  0  0  0  0
    4.8420    5.3814    9.1067 H   0  0  0  0  0  0
    6.5078    4.7968    9.0945 H   0  0  0  0  0  0
   -0.6054    5.8565   11.6007 H   0  0  0  0  0  0
    0.1965    4.3166   11.3362 H   0  0  0  0  0  0
    0.8097    5.4227   12.5759 H   0  0  0  0  0  0
   -0.7050    5.4523    8.0146 H   0  0  0  0  0  0
    3.4597   10.4236    4.9967 H   0  0  0  0  0  0
    4.6669   10.1915    2.8225 H   0  0  0  0  0  0
    5.8100    9.0746    3.5534 H   0  0  0  0  0  0
    4.1094    8.6372    3.3994 H   0  0  0  0  0  0
    5.2348   11.5733    6.3895 H   0  0  0  0  0  0
    6.4513   10.9971    5.2889 H   0  0  0  0  0  0
    5.7987   13.3519    4.7895 H   0  0  0  0  0  0
    5.3934   12.3237    3.4262 H   0  0  0  0  0  0
    4.1294   12.8604    4.5326 H   0  0  0  0  0  0
  1  2  2  0  0  0
  1  4  1  0  0  0
  2  3  1  0  0  0
  2 23  1  0  0  0
  3  6  2  0  0  0
  4  5  2  0  0  0
  4 16  1  0  0  0
  5  9  1  0  0  0
  5  6  1  0  0  0
  6  7  1  0  0  0
  7  8  1  0  0  0
  7 19  1  0  0  0
  8  9  2  0  0  0
  9 10  1  0  0  0
 10 11  2  0  0  0
 10 15  1  0  0  0
 11 12  1  0  0  0
 11 24  1  0  0  0
 12 13  2  0  0  0
 12 18  1  0  0  0
 13 14  1  0  0  0
 13 17  1  0  0  0
 14 15  2  0  0  0
 14 25  1  0  0  0
 15 26  1  0  0  0
 16 27  1  0  0  0
 16 28  1  0  0  0
 17 29  1  0  0  0
 17 30  1  0  0  0
 17 31  1  0  0  0
 18 32  1  0  0  0
 19 20  1  0  0  0
 19 21  1  0  0  0
 19 33  1  0  0  0
 20 34  1  0  0  0
 20 35  1  0  0  0
 20 36  1  0  0  0
 21 22  1  0  0  0
 21 37  1  0  0  0
 21 38  1  0  0  0
 22 39  1  0  0  0
 22 40  1  0  0  0
 22 41  1  0  0  0
M  END
> <s_m_entry_id>
31773

> <s_m_entry_name>
dock_pv.36

> <s_m_Source_Path>
/home/csk/Desktop/cluster/DUD-E-result/src

> <s_m_Source_File>
dock_pv.maegz

> <i_m_Source_File_Index>
36

> <chembl_id>
CHEMBL1242109

> <chembl_pref_name>
None

> <i_lp_mmshare_version>
53161

> <r_lp_tautomer_probability>
0.999999999997365

> <s_lp_Force_Field>
OPLS_2005

> <r_lp_Energy>
11.179413

> <b_lp_Chiralities_Consistent>
1

> <s_lp_Variant>
CHEMBL267_lig1837-1

> <s_i_glide_gridfile>
glide-grid_3el8

> <i_i_glide_lignum>
2103

> <i_i_glide_rotatable_bonds>
4

> <r_i_docking_score>
-8.89627625249243

> <r_i_glide_ligand_efficiency>
-0.40437619329511

> <r_i_glide_ligand_efficiency_sa>
-1.13307799682614

> <r_i_glide_ligand_efficiency_ln>
-2.1745744156699

> <r_i_glide_gscore>
-8.89627625249243

> <r_i_glide_lipo>
-2.59107694254829

> <r_i_glide_hbond>
-0.657303417760226

> <r_i_glide_metal>
0

> <r_i_glide_rewards>
-3.18071325283603

> <r_i_glide_evdw>
-34.8294830322266

> <r_i_glide_ecoul>
-7.60277557373047

> <r_i_glide_erotb>
0.41470784832302

> <r_i_glide_esite>
0

> <r_i_glide_emodel>
-62.0988011821443

> <r_i_glide_energy>
-42.432258605957

> <r_i_glide_einternal>
4.81738710403442

> <i_i_glide_confnum>
3

> <i_i_glide_posenum>
145

> <r_i_glide_eff_state_penalty>
0

> <s_user_duplicate_titles>
CHEMBL267_lig1837

> <i_f3d_flags>
0

> <s_m_subgroup_title>
dock_pv

> <s_m_subgroupid>
dock_pv

> <b_m_subgroup_collapsed>
1

$$$$
CHEMBL267_lig440
                    3D
 Schrodinger Suite 2021-1.
 42 45  0  0  1  0            999 V2000
    6.1746    8.4171    6.5149 C   0  0  0  0  0  0
    5.2279    9.2776    5.9872 N   0  0  0  0  0  0
    5.5033    7.4824    7.3545 C   0  0  0  0  0  0
    4.1048    7.8374    7.3628 C   0  0  0  0  0  0
    3.9876    8.8668    6.4376 C   0  0  0  0  0  0
    5.5154   10.3726    5.0524 C   0  0  1  0  0  0
    7.4944    8.4429    6.2761 N   0  0  0  0  0  0
    6.3324    6.4838    7.9093 C   0  0  0  0  0  0
    7.6635    6.4475    7.6482 N   0  0  0  0  0  0
    3.6957   11.2804    3.8093 N   0  0  2  0  0  0
    5.5487    9.8484    3.6137 C   0  0  0  0  0  0
    8.1730    7.4392    6.8836 C   0  0  0  0  0  0
    3.0068    7.2513    8.1822 C   0  0  0  0  0  0
    4.4691   11.4979    5.0235 C   0  0  0  0  0  0
    4.6459   10.7965    2.8094 C   0  0  2  0  0  0
    5.8171    5.4369    8.6639 N   0  0  0  0  0  0
    6.3392   11.4153    1.1879 O   0  0  0  0  0  0
    1.7697    6.9648    7.5969 C   0  0  0  0  0  0
    3.2146    6.9784    9.5381 C   0  0  0  0  0  0
    5.4061   11.9472    2.1071 C   0  0  0  0  0  0
    0.7527    6.3967    8.3610 C   0  0  0  0  0  0
    2.1956    6.4163   10.3029 C   0  0  0  0  0  0
    0.9693    6.1243    9.7107 C   0  0  0  0  0  0
    3.1023    9.3945    6.1111 H   0  0  0  0  0  0
    6.4771   10.7770    5.3747 H   0  0  0  0  0  0
    3.2191   12.1137    3.4915 H   0  0  0  0  0  0
    6.5741    9.8533    3.2419 H   0  0  0  0  0  0
    5.2026    8.8204    3.4991 H   0  0  0  0  0  0
    9.2471    7.4377    6.7604 H   0  0  0  0  0  0
    3.8458   11.5406    5.9185 H   0  0  0  0  0  0
    4.9696   12.4649    4.9432 H   0  0  0  0  0  0
    4.0686   10.2360    2.0729 H   0  0  0  0  0  0
    4.8307    5.4123    8.8810 H   0  0  0  0  0  0
    6.4532    4.7263    9.0066 H   0  0  0  0  0  0
    6.2016   11.8367    0.3166 H   0  0  0  0  0  0
    1.6005    7.1662    6.5489 H   0  0  0  0  0  0
    4.1624    7.2075   10.0052 H   0  0  0  0  0  0
    4.7158   12.5948    1.5642 H   0  0  0  0  0  0
    5.9553   12.5658    2.8181 H   0  0  0  0  0  0
   -0.1992    6.1640    7.9128 H   0  0  0  0  0  0
    2.3606    6.2057   11.3498 H   0  0  0  0  0  0
    0.1768    5.6839   10.3009 H   0  0  0  0  0  0
  1  2  1  0  0  0
  1  3  2  0  0  0
  1  7  1  0  0  0
  2  5  1  0  0  0
  2  6  1  0  0  0
  3  4  1  0  0  0
  3  8  1  0  0  0
  4 13  1  0  0  0
  4  5  2  0  0  0
  5 24  1  0  0  0
  6 11  1  0  0  0
  6 14  1  0  0  0
  6 25  1  0  0  0
  7 12  2  0  0  0
  8 16  1  0  0  0
  8  9  2  0  0  0
  9 12  1  0  0  0
 10 14  1  0  0  0
 10 15  1  0  0  0
 10 26  1  0  0  0
 11 15  1  0  0  0
 11 27  1  0  0  0
 11 28  1  0  0  0
 12 29  1  0  0  0
 13 18  1  0  0  0
 13 19  2  0  0  0
 14 30  1  0  0  0
 14 31  1  0  0  0
 15 20  1  0  0  0
 15 32  1  0  0  0
 16 33  1  0  0  0
 16 34  1  0  0  0
 17 20  1  0  0  0
 17 35  1  0  0  0
 18 21  2  0  0  0
 18 36  1  0  0  0
 19 22  1  0  0  0
 19 37  1  0  0  0
 20 38  1  0  0  0
 20 39  1  0  0  0
 21 23  1  0  0  0
 21 40  1  0  0  0
 22 23  2  0  0  0
 22 41  1  0  0  0
 23 42  1  0  0  0
M  END
> <s_m_entry_id>
31774

> <s_m_entry_name>
dock_pv.37

> <s_m_Source_Path>
/home/csk/Desktop/cluster/DUD-E-result/src

> <s_m_Source_File>
dock_pv.maegz

> <i_m_Source_File_Index>
37

> <chembl_id>
CHEMBL367933

> <chembl_pref_name>
None

> <i_lp_mmshare_version>
53161

> <r_lp_tautomer_probability>
1

> <s_lp_Force_Field>
OPLS_2005

> <r_lp_Energy>
34.250597

> <b_lp_Chiralities_Consistent>
1

> <s_lp_Variant>
CHEMBL267_lig440-1

> <s_i_glide_gridfile>
glide-grid_3el8

> <i_i_glide_lignum>
525

> <i_i_glide_rotatable_bonds>
4

> <r_i_docking_score>
-8.89155168916944

> <r_i_glide_ligand_efficiency>
-0.386589203876932

> <r_i_glide_ligand_efficiency_sa>
-1.09940827052365

> <r_i_glide_ligand_efficiency_ln>
-2.15005782257435

> <r_i_glide_gscore>
-8.89155168916944

> <r_i_glide_lipo>
-2.23861811828714

> <r_i_glide_hbond>
-0.726751440359261

> <r_i_glide_metal>
0

> <r_i_glide_rewards>
-3.31303723616024

> <r_i_glide_evdw>
-31.0646514892578

> <r_i_glide_ecoul>
-9.77446842193604

> <r_i_glide_erotb>
0.4062579433905

> <r_i_glide_esite>
0

> <r_i_glide_emodel>
-62.3573423260266

> <r_i_glide_energy>
-40.8391199111938

> <r_i_glide_einternal>
3.03048014640808

> <i_i_glide_confnum>
93

> <i_i_glide_posenum>
375

> <r_i_glide_eff_state_penalty>
0

> <s_user_duplicate_titles>
CHEMBL267_lig440,282860

> <i_f3d_flags>
0

> <s_m_subgroup_title>
dock_pv

> <s_m_subgroupid>
dock_pv

> <b_m_subgroup_collapsed>
1

$$$$
CHEMBL267_lig1841
                    3D
 Schrodinger Suite 2021-1.
 39 42  0  0  1  0            999 V2000
    7.4610    6.5761    7.5884 N   0  0  0  0  0  0
    7.7810    7.5428    6.6909 C   0  0  0  0  0  0
    6.9421    8.4341    6.0989 N   0  0  0  0  0  0
    6.1648    6.5121    7.9878 C   0  0  0  0  0  0
    5.2098    7.4211    7.4940 C   0  0  0  0  0  0
    5.6698    8.3250    6.5104 C   0  0  0  0  0  0
    4.5401    8.9975    6.0605 N   0  0  0  0  0  0
    3.4510    8.6343    6.7842 N   0  0  0  0  0  0
    3.8162    7.7121    7.6439 C   0  0  0  0  0  0
    2.8668    7.1103    8.6184 C   0  0  0  0  0  0
    1.7034    6.4436    8.2100 C   0  0  0  0  0  0
    0.8930    5.8120    9.1579 C   0  0  0  0  0  0
    1.2131    5.8842   10.5106 C   0  0  0  0  0  0
    2.3512    6.5710   10.9224 C   0  0  0  0  0  0
    3.1833    7.1688    9.9796 C   0  0  0  0  0  0
    5.7980    5.4370    8.7880 N   0  0  0  0  0  0
   -0.2020    5.0818    8.7883 O   0  0  0  0  0  0
    2.6593    6.6371   12.2355 F   0  0  0  0  0  0
    4.4147   10.0669    5.0539 C   0  0  0  0  0  0
    5.4190    9.9667    3.8921 C   0  0  0  0  0  0
    4.8242   10.8387    2.7836 C   0  0  0  0  0  0
    3.3024   10.7718    2.9653 C   0  0  0  0  0  0
    3.0545   10.0959    4.3229 C   0  0  0  0  0  0
    8.8177    7.5895    6.3880 H   0  0  0  0  0  0
    1.4630    6.3734    7.1592 H   0  0  0  0  0  0
    0.5832    5.4001   11.2425 H   0  0  0  0  0  0
    4.0782    7.6739   10.3137 H   0  0  0  0  0  0
    4.8447    5.3558    9.1125 H   0  0  0  0  0  0
    6.5123    4.7807    9.0805 H   0  0  0  0  0  0
   -0.7526    5.4371    8.0758 H   0  0  0  0  0  0
    4.5694   11.0077    5.5859 H   0  0  0  0  0  0
    6.4214   10.2955    4.1695 H   0  0  0  0  0  0
    5.4856    8.9373    3.5332 H   0  0  0  0  0  0
    5.1647   11.8694    2.9012 H   0  0  0  0  0  0
    5.1370   10.5125    1.7908 H   0  0  0  0  0  0
    2.8709   11.7745    2.9423 H   0  0  0  0  0  0
    2.8320   10.2069    2.1581 H   0  0  0  0  0  0
    2.7067    9.0783    4.1324 H   0  0  0  0  0  0
    2.2844   10.6059    4.9031 H   0  0  0  0  0  0
  1  2  2  0  0  0
  1  4  1  0  0  0
  2  3  1  0  0  0
  2 24  1  0  0  0
  3  6  2  0  0  0
  4  5  2  0  0  0
  4 16  1  0  0  0
  5  9  1  0  0  0
  5  6  1  0  0  0
  6  7  1  0  0  0
  7  8  1  0  0  0
  7 19  1  0  0  0
  8  9  2  0  0  0
  9 10  1  0  0  0
 10 15  1  0  0  0
 10 11  2  0  0  0
 11 12  1  0  0  0
 11 25  1  0  0  0
 12 13  2  0  0  0
 12 17  1  0  0  0
 13 14  1  0  0  0
 13 26  1  0  0  0
 14 15  2  0  0  0
 14 18  1  0  0  0
 15 27  1  0  0  0
 16 28  1  0  0  0
 16 29  1  0  0  0
 17 30  1  0  0  0
 19 20  1  0  0  0
 19 23  1  0  0  0
 19 31  1  0  0  0
 20 21  1  0  0  0
 20 32  1  0  0  0
 20 33  1  0  0  0
 21 22  1  0  0  0
 21 34  1  0  0  0
 21 35  1  0  0  0
 22 23  1  0  0  0
 22 36  1  0  0  0
 22 37  1  0  0  0
 23 38  1  0  0  0
 23 39  1  0  0  0
M  END
> <s_m_entry_id>
31775

> <s_m_entry_name>
dock_pv.38

> <s_m_Source_Path>
/home/csk/Desktop/cluster/DUD-E-result/src

> <s_m_Source_File>
dock_pv.maegz

> <i_m_Source_File_Index>
38

> <chembl_id>
CHEMBL1242199

> <chembl_pref_name>
None

> <i_lp_mmshare_version>
53161

> <r_lp_tautomer_probability>
0.999999999997365

> <s_lp_Force_Field>
OPLS_2005

> <r_lp_Energy>
29.967803

> <b_lp_Chiralities_Consistent>
1

> <s_lp_Variant>
CHEMBL267_lig1841-1

> <s_i_glide_gridfile>
glide-grid_3el8

> <i_i_glide_lignum>
2108

> <i_i_glide_rotatable_bonds>
3

> <r_i_docking_score>
-8.86606620854414

> <r_i_glide_ligand_efficiency>
-0.385481139501919

> <r_i_glide_ligand_efficiency_sa>
-1.09625708283929

> <r_i_glide_ligand_efficiency_ln>
-2.14389520226959

> <r_i_glide_gscore>
-8.86606620854414

> <r_i_glide_lipo>
-2.20214618577498

> <r_i_glide_hbond>
-0.645280451998216

> <r_i_glide_metal>
0

> <r_i_glide_rewards>
-3.4969948208979

> <r_i_glide_evdw>
-35.2392578125

> <r_i_glide_ecoul>
-7.58690547943115

> <r_i_glide_erotb>
0.378353962666628

> <r_i_glide_esite>
0

> <r_i_glide_emodel>
-58.9472205545345

> <r_i_glide_energy>
-42.8261632919312

> <r_i_glide_einternal>
9.84168148040771

> <i_i_glide_confnum>
30

> <i_i_glide_posenum>
375

> <r_i_glide_eff_state_penalty>
0

> <s_user_duplicate_titles>
CHEMBL267_lig1841

> <i_f3d_flags>
0

> <s_m_subgroup_title>
dock_pv

> <s_m_subgroupid>
dock_pv

> <b_m_subgroup_collapsed>
1

$$$$
CHEMBL267_lig1494
                    3D
 Schrodinger Suite 2021-1.
 46 49  0  0  1  0            999 V2000
    7.3980    6.5434    7.5878 N   0  0  0  0  0  0
    7.6822    7.5706    6.7513 C   0  0  0  0  0  0
    6.8175    8.4873    6.2457 N   0  0  0  0  0  0
    6.1089    6.4221    7.9880 C   0  0  0  0  0  0
    5.1112    7.3206    7.5695 C   0  0  0  0  0  0
    5.5486    8.3301    6.6616 C   0  0  0  0  0  0
    4.4320    9.0710    6.2789 N   0  0  0  0  0  0
    3.3421    8.5373    6.9393 C   0  0  0  0  0  0
    3.6991    7.4993    7.7728 C   0  0  0  0  0  0
    2.7713    6.7160    8.6233 C   0  0  0  0  0  0
    1.8539    5.8324    8.0473 C   0  0  0  0  0  0
    0.9330    5.1355    8.8342 C   0  0  0  0  0  0
    0.9257    5.3588   10.2203 C   0  0  0  0  0  0
    1.8406    6.2373   10.8008 C   0  0  0  0  0  0
    2.7659    6.9100   10.0053 C   0  0  0  0  0  0
    4.3724   10.2411    5.4810 C   0  0  0  0  0  0
    5.4141   11.1761    5.5124 C   0  0  0  0  0  0
    5.3327   12.3362    4.7486 C   0  0  0  0  0  0
    4.2180   12.5675    3.9414 C   0  0  0  0  0  0
    3.1892   11.6224    3.8881 C   0  0  0  0  0  0
    3.2692   10.4586    4.6460 C   0  0  0  0  0  0
    5.7978    5.3320    8.7878 N   0  0  0  0  0  0
    4.1243   13.8542    3.1257 C   0  0  0  0  0  0
    0.0869    4.2647    8.1769 O   0  0  0  0  0  0
   -0.9139    3.5680    8.9103 C   0  0  0  0  0  0
    4.1474   13.5907    1.6172 C   0  0  0  0  0  0
    5.3833   13.2204    1.1880 O   0  0  0  0  0  0
    3.1570   13.7014    0.9011 O   0  0  0  0  0  0
    8.7108    7.6556    6.4280 H   0  0  0  0  0  0
    2.3675    8.9818    6.8010 H   0  0  0  0  0  0
    1.8530    5.6812    6.9778 H   0  0  0  0  0  0
    0.2259    4.8458   10.8626 H   0  0  0  0  0  0
    1.8359    6.3914   11.8699 H   0  0  0  0  0  0
    3.4671    7.5939   10.4612 H   0  0  0  0  0  0
    6.2782   11.0313    6.1446 H   0  0  0  0  0  0
    6.1353   13.0589    4.7909 H   0  0  0  0  0  0
    2.3294   11.7905    3.2551 H   0  0  0  0  0  0
    2.4661    9.7383    4.5816 H   0  0  0  0  0  0
    4.8511    5.2195    9.1258 H   0  0  0  0  0  0
    6.5373    4.6959    9.0631 H   0  0  0  0  0  0
    4.9404   14.5352    3.3739 H   0  0  0  0  0  0
    3.2004   14.3738    3.3813 H   0  0  0  0  0  0
   -1.5475    3.0108    8.2198 H   0  0  0  0  0  0
   -0.4590    2.8487    9.5883 H   0  0  0  0  0  0
   -1.5610    4.2432    9.4724 H   0  0  0  0  0  0
    5.3983   13.0369    0.2269 H   0  0  0  0  0  0
  1  2  2  0  0  0
  1  4  1  0  0  0
  2  3  1  0  0  0
  2 29  1  0  0  0
  3  6  2  0  0  0
  4  5  2  0  0  0
  4 22  1  0  0  0
  5  9  1  0  0  0
  5  6  1  0  0  0
  6  7  1  0  0  0
  7  8  1  0  0  0
  7 16  1  0  0  0
  8  9  2  0  0  0
  8 30  1  0  0  0
  9 10  1  0  0  0
 10 15  1  0  0  0
 10 11  2  0  0  0
 11 12  1  0  0  0
 11 31  1  0  0  0
 12 24  1  0  0  0
 12 13  2  0  0  0
 13 14  1  0  0  0
 13 32  1  0  0  0
 14 15  2  0  0  0
 14 33  1  0  0  0
 15 34  1  0  0  0
 16 17  2  0  0  0
 16 21  1  0  0  0
 17 18  1  0  0  0
 17 35  1  0  0  0
 18 19  2  0  0  0
 18 36  1  0  0  0
 19 20  1  0  0  0
 19 23  1  0  0  0
 20 21  2  0  0  0
 20 37  1  0  0  0
 21 38  1  0  0  0
 22 39  1  0  0  0
 22 40  1  0  0  0
 23 26  1  0  0  0
 23 41  1  0  0  0
 23 42  1  0  0  0
 24 25  1  0  0  0
 25 43  1  0  0  0
 25 44  1  0  0  0
 25 45  1  0  0  0
 26 27  1  0  0  0
 26 28  2  0  0  0
 27 46  1  0  0  0
M  END
> <s_m_entry_id>
31776

> <s_m_entry_name>
dock_pv.39

> <s_m_Source_Path>
/home/csk/Desktop/cluster/DUD-E-result/src

> <s_m_Source_File>
dock_pv.maegz

> <i_m_Source_File_Index>
39

> <chembl_id>
CHEMBL511320

> <chembl_pref_name>
None

> <i_lp_mmshare_version>
53161

> <r_lp_tautomer_probability>
1

> <s_lp_Force_Field>
OPLS_2005

> <r_lp_Energy>
25.360394

> <b_lp_Chiralities_Consistent>
1

> <s_lp_Variant>
CHEMBL267_lig1494-1

> <s_i_glide_gridfile>
glide-grid_3el8

> <i_i_glide_lignum>
1675

> <i_i_glide_rotatable_bonds>
6

> <r_i_docking_score>
-8.8651247260534

> <r_i_glide_ligand_efficiency>
-0.31661159735905

> <r_i_glide_ligand_efficiency_sa>
-0.961419283840547

> <r_i_glide_ligand_efficiency_ln>
-2.04633107814545

> <r_i_glide_gscore>
-8.8651247260534

> <r_i_glide_lipo>
-2.79648526336665

> <r_i_glide_hbond>
-0.376909776957411

> <r_i_glide_metal>
0

> <r_i_glide_rewards>
-2.64264292253161

> <r_i_glide_evdw>
-37.3224258422852

> <r_i_glide_ecoul>
-11.4106473922729

> <r_i_glide_erotb>
0.551773542326927

> <r_i_glide_esite>
-0.0231419045694674

> <r_i_glide_emodel>
-72.1852509419961

> <r_i_glide_energy>
-48.7330732345581

> <r_i_glide_einternal>
6.99035358428955

> <i_i_glide_confnum>
13

> <i_i_glide_posenum>
286

> <r_i_glide_eff_state_penalty>
0

> <s_user_duplicate_titles>
CHEMBL267_lig1494,459990

> <i_f3d_flags>
0

> <s_m_subgroup_title>
dock_pv

> <s_m_subgroupid>
dock_pv

> <b_m_subgroup_collapsed>
1

$$$$
CHEMBL267_lig108
                    3D
 Schrodinger Suite 2021-1.
 56 59  0  0  1  0            999 V2000
    3.1276    8.6372    5.6456 C   0  0  0  0  0  0
    2.0423    8.0727    6.3815 C   0  0  0  0  0  0
    2.5898    7.5228    7.6033 C   0  0  0  0  0  0
    4.2888    8.4649    6.3880 N   0  0  0  0  0  0
    3.9462    7.8014    7.5460 C   0  0  0  0  0  0
    6.5288   15.0695    1.4891 P   0  0  0  0  0  0
    8.2899   12.3163    1.5442 P   0  0  1  0  0  0
    6.9955   13.4430    2.2675 C   0  0  0  0  0  0
    3.0256    9.2197    4.4383 N   0  0  0  0  0  0
    0.7820    8.2161    5.7612 C   0  0  0  0  0  0
    1.9134    6.7596    8.6933 C   0  0  0  0  0  0
    0.6450    8.7793    4.5397 N   0  0  0  0  0  0
    5.5838    8.9174    6.0616 C   0  0  0  0  0  0
    1.7661    9.2374    3.9413 C   0  0  0  0  0  0
    7.6520   15.8463    0.8465 O   0  0  0  0  0  0
    9.5571   12.9425    1.0120 O   0  0  0  0  0  0
    0.8550    5.8847    8.4246 C   0  0  0  0  0  0
    8.5249   11.1629    2.7880 O   0  0  0  0  0  0
    5.2896   14.6370    0.3881 O   0  0  0  0  0  0
    5.7899   15.9024    2.7880 O   0  0  0  0  0  0
    7.3980   11.4333    0.3880 O   0  0  0  0  0  0
    6.6874    8.0726    6.2121 C   0  0  0  0  0  0
    5.7448   10.1923    5.5167 C   0  0  0  0  0  0
   -0.4030    7.8370    6.3704 N   0  0  0  0  0  0
    0.1936    5.2306    9.4629 C   0  0  0  0  0  0
    6.9980   10.6107    5.0988 C   0  0  0  0  0  0
    7.9396    8.4926    5.7730 C   0  0  0  0  0  0
    8.0998    9.7506    5.1880 C   0  0  0  0  0  0
    2.3277    6.9324   10.0199 C   0  0  0  0  0  0
   -0.8672    4.4114    9.1893 O   0  0  0  0  0  0
    9.5439   11.3695    3.7398 C   0  0  0  0  0  0
    1.6767    6.2665   11.0587 C   0  0  0  0  0  0
    9.4951   10.1561    4.6911 C   0  0  0  0  0  0
    0.5978    5.4301   10.7805 C   0  0  0  0  0  0
    4.7207    7.5649    8.2617 H   0  0  0  0  0  0
    7.2694   13.6387    3.3060 H   0  0  0  0  0  0
    6.0792   12.8551    2.3453 H   0  0  0  0  0  0
    1.6398    9.6756    2.9611 H   0  0  0  0  0  0
    0.5559    5.6872    7.4070 H   0  0  0  0  0  0
    5.3980   13.9690   -0.3296 H   0  0  0  0  0  0
    6.1980   15.9848    3.6849 H   0  0  0  0  0  0
    6.8310   11.8426   -0.3162 H   0  0  0  0  0  0
    6.5794    7.0844    6.6357 H   0  0  0  0  0  0
    4.9044   10.8629    5.4069 H   0  0  0  0  0  0
   -0.3806    7.2744    7.2062 H   0  0  0  0  0  0
   -1.2582    7.9576    5.8449 H   0  0  0  0  0  0
    7.0888   11.6029    4.6879 H   0  0  0  0  0  0
    8.7905    7.8370    5.8768 H   0  0  0  0  0  0
    3.1472    7.5953   10.2556 H   0  0  0  0  0  0
   -1.4421    4.7797    8.5064 H   0  0  0  0  0  0
   10.5225   11.4484    3.2627 H   0  0  0  0  0  0
    9.3722   12.2991    4.2837 H   0  0  0  0  0  0
    1.9986    6.4120   12.0796 H   0  0  0  0  0  0
    9.9040    9.3017    4.1494 H   0  0  0  0  0  0
   10.1630   10.3113    5.5397 H   0  0  0  0  0  0
    0.0782    4.9310   11.5849 H   0  0  0  0  0  0
  1  2  1  0  0  0
  1  4  1  0  0  0
  1  9  2  0  0  0
  2  3  1  0  0  0
  2 10  2  0  0  0
  3 11  1  0  0  0
  3  5  2  0  0  0
  4  5  1  0  0  0
  4 13  1  0  0  0
  5 35  1  0  0  0
  6  8  1  0  0  0
  6 15  2  0  0  0
  6 19  1  0  0  0
  6 20  1  0  0  0
  7 18  1  0  0  0
  7  8  1  0  0  0
  7 16  2  0  0  0
  7 21  1  0  0  0
  8 36  1  0  0  0
  8 37  1  0  0  0
  9 14  1  0  0  0
 10 24  1  0  0  0
 10 12  1  0  0  0
 11 17  2  0  0  0
 11 29  1  0  0  0
 12 14  2  0  0  0
 13 22  2  0  0  0
 13 23  1  0  0  0
 14 38  1  0  0  0
 17 25  1  0  0  0
 17 39  1  0  0  0
 18 31  1  0  0  0
 19 40  1  0  0  0
 20 41  1  0  0  0
 21 42  1  0  0  0
 22 27  1  0  0  0
 22 43  1  0  0  0
 23 26  2  0  0  0
 23 44  1  0  0  0
 24 45  1  0  0  0
 24 46  1  0  0  0
 25 30  1  0  0  0
 25 34  2  0  0  0
 26 28  1  0  0  0
 26 47  1  0  0  0
 27 28  2  0  0  0
 27 48  1  0  0  0
 28 33  1  0  0  0
 29 32  2  0  0  0
 29 49  1  0  0  0
 30 50  1  0  0  0
 31 33  1  0  0  0
 31 51  1  0  0  0
 31 52  1  0  0  0
 32 34  1  0  0  0
 32 53  1  0  0  0
 33 54  1  0  0  0
 33 55  1  0  0  0
 34 56  1  0  0  0
M  END
> <s_m_entry_id>
31777

> <s_m_entry_name>
dock_pv.40

> <s_m_Source_Path>
/home/csk/Desktop/cluster/DUD-E-result/src

> <s_m_Source_File>
dock_pv.maegz

> <i_m_Source_File_Index>
40

> <chembl_id>
CHEMBL104215

> <chembl_pref_name>
None

> <i_lp_mmshare_version>
53161

> <r_lp_tautomer_probability>
0.999999999997365

> <s_lp_Force_Field>
OPLS_2005

> <r_lp_Energy>
7.042194

> <b_lp_Chiralities_Consistent>
1

> <s_lp_Variant>
CHEMBL267_lig108-2

> <s_i_glide_gridfile>
glide-grid_3el8

> <i_i_glide_lignum>
153

> <i_i_glide_rotatable_bonds>
12

> <r_i_docking_score>
-8.85519567978741

> <r_i_glide_ligand_efficiency>
-0.260446931758453

> <r_i_glide_ligand_efficiency_sa>
-0.843746952739411

> <r_i_glide_ligand_efficiency_ln>
-1.95636110549067

> <r_i_glide_gscore>
-8.85519567978741

> <r_i_glide_lipo>
-3.2938731951599

> <r_i_glide_hbond>
-0.329824902222898

> <r_i_glide_metal>
0

> <r_i_glide_rewards>
-0.583832835179188

> <r_i_glide_evdw>
-38.5545272827148

> <r_i_glide_ecoul>
-22.3163375854492

> <r_i_glide_erotb>
0.642990736186583

> <r_i_glide_esite>
-0.0154784814588883

> <r_i_glide_emodel>
-91.4094033504961

> <r_i_glide_energy>
-60.8708648681641

> <r_i_glide_einternal>
10.5734195709229

> <i_i_glide_confnum>
10

> <i_i_glide_posenum>
251

> <r_i_glide_eff_state_penalty>
0

> <s_user_duplicate_titles>
CHEMBL267_lig108,171198

> <i_f3d_flags>
0

> <s_m_subgroup_title>
dock_pv

> <s_m_subgroupid>
dock_pv

> <b_m_subgroup_collapsed>
1

$$$$
CHEMBL267_lig1804
                    3D
 Schrodinger Suite 2021-1.
 37 39  0  0  1  0            999 V2000
    7.4024    6.6566    7.5880 N   0  0  0  0  0  0
    7.6789    7.6531    6.7080 C   0  0  0  0  0  0
    6.8054    8.5263    6.1405 N   0  0  0  0  0  0
    6.1103    6.5300    7.9879 C   0  0  0  0  0  0
    5.1156    7.4042    7.5093 C   0  0  0  0  0  0
    5.5432    8.3602    6.5598 C   0  0  0  0  0  0
    4.3994    9.0373    6.1634 N   0  0  0  0  0  0
    3.3095    8.5578    6.8077 N   0  0  0  0  0  0
    3.7048    7.6212    7.6394 C   0  0  0  0  0  0
    2.7532    6.9296    8.5487 C   0  0  0  0  0  0
    1.6764    6.1801    8.0561 C   0  0  0  0  0  0
    0.8177    5.5160    8.9375 C   0  0  0  0  0  0
    1.0077    5.6429   10.3173 C   0  0  0  0  0  0
    2.0743    6.3948   10.8082 C   0  0  0  0  0  0
    2.9535    7.0228    9.9287 C   0  0  0  0  0  0
    5.7978    5.4369    8.7880 N   0  0  0  0  0  0
    0.1689    5.0372   11.1881 F   0  0  0  0  0  0
   -0.2017    4.7379    8.4492 O   0  0  0  0  0  0
    4.2270   10.0991    5.1597 C   0  0  2  0  0  0
    4.3418    9.4891    3.7456 C   0  0  0  0  0  0
    5.2198   11.2615    5.4163 C   0  0  0  0  0  0
    4.8495   12.4472    4.6598 N   0  0  0  0  0  0
    8.7117    7.7592    6.4091 H   0  0  0  0  0  0
    1.5285    6.0883    6.9900 H   0  0  0  0  0  0
    2.2246    6.4844   11.8742 H   0  0  0  0  0  0
    3.7832    7.5915   10.3230 H   0  0  0  0  0  0
    4.8477    5.3048    9.1069 H   0  0  0  0  0  0
    6.5394    4.8065    9.0692 H   0  0  0  0  0  0
   -0.9140    5.2434    8.0287 H   0  0  0  0  0  0
    3.2147   10.4961    5.2759 H   0  0  0  0  0  0
    4.1894   10.2442    2.9734 H   0  0  0  0  0  0
    5.3214    9.0396    3.5748 H   0  0  0  0  0  0
    3.5875    8.7164    3.5900 H   0  0  0  0  0  0
    5.2301   11.5313    6.4722 H   0  0  0  0  0  0
    6.2382   10.9691    5.1552 H   0  0  0  0  0  0
    5.5165   13.1927    4.8139 H   0  0  0  0  0  0
    4.8777   12.2493    3.6687 H   0  0  0  0  0  0
  1  2  2  0  0  0
  1  4  1  0  0  0
  2  3  1  0  0  0
  2 23  1  0  0  0
  3  6  2  0  0  0
  4  5  2  0  0  0
  4 16  1  0  0  0
  5  9  1  0  0  0
  5  6  1  0  0  0
  6  7  1  0  0  0
  7  8  1  0  0  0
  7 19  1  0  0  0
  8  9  2  0  0  0
  9 10  1  0  0  0
 10 11  2  0  0  0
 10 15  1  0  0  0
 11 12  1  0  0  0
 11 24  1  0  0  0
 12 13  2  0  0  0
 12 18  1  0  0  0
 13 14  1  0  0  0
 13 17  1  0  0  0
 14 15  2  0  0  0
 14 25  1  0  0  0
 15 26  1  0  0  0
 16 27  1  0  0  0
 16 28  1  0  0  0
 18 29  1  0  0  0
 19 20  1  0  0  0
 19 21  1  0  0  0
 19 30  1  0  0  0
 20 31  1  0  0  0
 20 32  1  0  0  0
 20 33  1  0  0  0
 21 22  1  0  0  0
 21 34  1  0  0  0
 21 35  1  0  0  0
 22 36  1  0  0  0
 22 37  1  0  0  0
M  END
> <s_m_entry_id>
31778

> <s_m_entry_name>
dock_pv.41

> <s_m_Source_Path>
/home/csk/Desktop/cluster/DUD-E-result/src

> <s_m_Source_File>
dock_pv.maegz

> <i_m_Source_File_Index>
41

> <chembl_id>
CHEMBL1242378

> <chembl_pref_name>
None

> <i_lp_mmshare_version>
53161

> <r_lp_tautomer_probability>
0.999999999997365

> <s_lp_Force_Field>
OPLS_2005

> <r_lp_Energy>
11.93136

> <b_lp_Chiralities_Consistent>
1

> <s_lp_Variant>
CHEMBL267_lig1804-1

> <s_i_glide_gridfile>
glide-grid_3el8

> <i_i_glide_lignum>
2067

> <i_i_glide_rotatable_bonds>
4

> <r_i_docking_score>
-8.85086685726276

> <r_i_glide_ligand_efficiency>
-0.40231212987558

> <r_i_glide_ligand_efficiency_sa>
-1.12729440994961

> <r_i_glide_ligand_efficiency_ln>
-2.16347470312784

> <r_i_glide_gscore>
-8.85086685726276

> <r_i_glide_lipo>
-2.23749483446841

> <r_i_glide_hbond>
-0.608

> <r_i_glide_metal>
0

> <r_i_glide_rewards>
-3.39076470565812

> <r_i_glide_evdw>
-33.112476348877

> <r_i_glide_ecoul>
-9.07918167114258

> <r_i_glide_erotb>
0.402893750979008

> <r_i_glide_esite>
0

> <r_i_glide_emodel>
-58.8345935633514

> <r_i_glide_energy>
-42.1916580200195

> <r_i_glide_einternal>
8.30352115631104

> <i_i_glide_confnum>
5

> <i_i_glide_posenum>
376

> <r_i_glide_eff_state_penalty>
0

> <s_user_duplicate_titles>
CHEMBL267_lig1804

> <i_f3d_flags>
0

> <s_m_subgroup_title>
dock_pv

> <s_m_subgroupid>
dock_pv

> <b_m_subgroup_collapsed>
1

$$$$
CHEMBL267_lig414
                    3D
 Schrodinger Suite 2021-1.
 52 55  0  0  1  0            999 V2000
    7.7044    6.4683    7.5880 N   0  0  0  0  0  0
    8.1095    7.4400    6.7379 C   0  0  0  0  0  0
    7.3481    8.3879    6.1395 N   0  0  0  0  0  0
    6.3974    6.4757    7.9528 C   0  0  0  0  0  0
    5.5019    7.4367    7.4454 C   0  0  0  0  0  0
    6.0571    8.3439    6.4993 C   0  0  0  0  0  0
    5.0274    9.1309    6.0051 N   0  0  0  0  0  0
    3.8596    8.7141    6.6240 C   0  0  0  0  0  0
    4.1100    7.7542    7.5887 C   0  0  0  0  0  0
    3.1440    7.1012    8.5082 C   0  0  0  0  0  0
    2.0939    6.3143    8.0272 C   0  0  0  0  0  0
    1.2234    5.6623    8.9063 C   0  0  0  0  0  0
    1.3968    5.8424   10.2889 C   0  0  0  0  0  0
    2.4350    6.6370   10.7741 C   0  0  0  0  0  0
    3.3102    7.2586    9.8862 C   0  0  0  0  0  0
    5.9570    5.4369    8.7648 N   0  0  0  0  0  0
    5.1576   10.1537    4.9500 C   0  0  0  0  0  0
    4.6792    9.6560    3.5825 C   0  0  0  0  0  0
    3.1465    9.6999    3.4666 C   0  0  0  0  0  0
    2.6036   11.0389    3.7675 N   0  0  2  0  0  0
    3.0347   11.6171    5.0536 C   0  0  0  0  0  0
    4.5568   11.5316    5.2837 C   0  0  0  0  0  0
    0.2497    4.8630    8.3416 O   0  0  0  0  0  0
    1.1389   11.1511    3.6588 C   0  0  0  0  0  0
    0.4587   10.4121    2.4850 C   0  0  0  0  0  0
    0.3197    9.0369    2.7884 O   0  0  0  0  0  0
   -0.6582    4.1650    9.1887 C   0  0  0  0  0  0
    9.1575    7.4452    6.4807 H   0  0  0  0  0  0
    2.9177    9.1667    6.3613 H   0  0  0  0  0  0
    1.9683    6.1799    6.9629 H   0  0  0  0  0  0
    0.7439    5.3622   11.0017 H   0  0  0  0  0  0
    2.5710    6.7557   11.8394 H   0  0  0  0  0  0
    4.1220    7.8593   10.2710 H   0  0  0  0  0  0
    4.9923    5.4184    9.0673 H   0  0  0  0  0  0
    6.6277    4.7471    9.0859 H   0  0  0  0  0  0
    6.2349   10.3146    4.8849 H   0  0  0  0  0  0
    5.0557    8.6482    3.4006 H   0  0  0  0  0  0
    5.1436   10.2253    2.7761 H   0  0  0  0  0  0
    2.6824    8.9587    4.1179 H   0  0  0  0  0  0
    2.8763    9.4172    2.4493 H   0  0  0  0  0  0
    2.7299   12.6649    5.0714 H   0  0  0  0  0  0
    2.4997   11.1524    5.8809 H   0  0  0  0  0  0
    5.0572   12.3094    4.7050 H   0  0  0  0  0  0
    4.8125   11.8122    6.3062 H   0  0  0  0  0  0
    0.9597   12.2133    3.4848 H   0  0  0  0  0  0
    0.6085   10.9408    4.5899 H   0  0  0  0  0  0
    1.0189   10.5456    1.5583 H   0  0  0  0  0  0
   -0.5343   10.8238    2.3019 H   0  0  0  0  0  0
    0.1979    8.5505    1.9546 H   0  0  0  0  0  0
   -1.3569    3.5941    8.5768 H   0  0  0  0  0  0
   -0.1386    3.4611    9.8409 H   0  0  0  0  0  0
   -1.2446    4.8515    9.7990 H   0  0  0  0  0  0
  1  2  2  0  0  0
  1  4  1  0  0  0
  2  3  1  0  0  0
  2 28  1  0  0  0
  3  6  2  0  0  0
  4  5  2  0  0  0
  4 16  1  0  0  0
  5  9  1  0  0  0
  5  6  1  0  0  0
  6  7  1  0  0  0
  7  8  1  0  0  0
  7 17  1  0  0  0
  8  9  2  0  0  0
  8 29  1  0  0  0
  9 10  1  0  0  0
 10 15  1  0  0  0
 10 11  2  0  0  0
 11 12  1  0  0  0
 11 30  1  0  0  0
 12 23  1  0  0  0
 12 13  2  0  0  0
 13 14  1  0  0  0
 13 31  1  0  0  0
 14 15  2  0  0  0
 14 32  1  0  0  0
 15 33  1  0  0  0
 16 34  1  0  0  0
 16 35  1  0  0  0
 17 18  1  0  0  0
 17 22  1  0  0  0
 17 36  1  0  0  0
 18 19  1  0  0  0
 18 37  1  0  0  0
 18 38  1  0  0  0
 19 20  1  0  0  0
 19 39  1  0  0  0
 19 40  1  0  0  0
 20 21  1  0  0  0
 20 24  1  0  0  0
 21 22  1  0  0  0
 21 41  1  0  0  0
 21 42  1  0  0  0
 22 43  1  0  0  0
 22 44  1  0  0  0
 23 27  1  0  0  0
 24 25  1  0  0  0
 24 45  1  0  0  0
 24 46  1  0  0  0
 25 26  1  0  0  0
 25 47  1  0  0  0
 25 48  1  0  0  0
 26 49  1  0  0  0
 27 50  1  0  0  0
 27 51  1  0  0  0
 27 52  1  0  0  0
M  END
> <s_m_entry_id>
31779

> <s_m_entry_name>
dock_pv.42

> <s_m_Source_Path>
/home/csk/Desktop/cluster/DUD-E-result/src

> <s_m_Source_File>
dock_pv.maegz

> <i_m_Source_File_Index>
42

> <chembl_id>
CHEMBL169200

> <chembl_pref_name>
None

> <i_lp_mmshare_version>
53161

> <r_lp_tautomer_probability>
1

> <s_lp_Force_Field>
OPLS_2005

> <r_lp_Energy>
47.909605

> <b_lp_Chiralities_Consistent>
1

> <s_lp_Variant>
CHEMBL267_lig414-1

> <s_i_glide_gridfile>
glide-grid_3el8

> <i_i_glide_lignum>
490

> <i_i_glide_rotatable_bonds>
6

> <r_i_docking_score>
-8.84445841073717

> <r_i_glide_ligand_efficiency>
-0.327572533731006

> <r_i_glide_ligand_efficiency_sa>
-0.982717600113393

> <r_i_glide_ligand_efficiency_ln>
-2.05884410572686

> <r_i_glide_gscore>
-8.84445841073717

> <r_i_glide_lipo>
-2.81833224578371

> <r_i_glide_hbond>
-0.813241959552397

> <r_i_glide_metal>
0

> <r_i_glide_rewards>
-2.64704297161514

> <r_i_glide_evdw>
-35.5646324157715

> <r_i_glide_ecoul>
-9.05448436737061

> <r_i_glide_erotb>
0.570563042108237

> <r_i_glide_esite>
0

> <r_i_glide_emodel>
-62.1647217505692

> <r_i_glide_energy>
-44.6191167831421

> <r_i_glide_einternal>
11.3749666213989

> <i_i_glide_confnum>
46

> <i_i_glide_posenum>
53

> <r_i_glide_eff_state_penalty>
0

> <s_user_duplicate_titles>
CHEMBL267_lig414,282662

> <i_f3d_flags>
0

> <s_m_subgroup_title>
dock_pv

> <s_m_subgroupid>
dock_pv

> <b_m_subgroup_collapsed>
1

$$$$
CHEMBL267_lig1882
                    3D
 Schrodinger Suite 2021-1.
 41 44  0  0  1  0            999 V2000
    7.8298    6.7527    7.5852 N   0  0  0  0  0  0
    8.3381    7.7884    6.8731 C   0  0  0  0  0  0
    7.6631    8.7796    6.2451 N   0  0  0  0  0  0
    6.4826    6.7029    7.7073 C   0  0  0  0  0  0
    5.6652    7.6991    7.1338 C   0  0  0  0  0  0
    6.3415    8.7020    6.4109 C   0  0  0  0  0  0
    5.3693    9.5696    5.9529 N   0  0  0  0  0  0
    4.1356    9.1277    6.2768 N   0  0  0  0  0  0
    4.2811    8.0481    7.0090 C   0  0  0  0  0  0
    3.1180    7.3506    7.5963 C   0  0  0  0  0  0
    3.1553    6.9670    8.9373 C   0  0  0  0  0  0
    2.1194    6.2146    9.4798 C   0  0  0  0  0  0
    1.0439    5.8188    8.6765 C   0  0  0  0  0  0
    0.9992    6.2230    7.3405 C   0  0  0  0  0  0
    2.0242    6.9959    6.8033 C   0  0  0  0  0  0
    5.9625    5.6064    8.3881 N   0  0  0  0  0  0
   -0.2018    4.7929    9.3017 Cl  0  0  0  0  0  0
    2.1974    5.8370   10.7892 O   0  0  0  0  0  0
    5.5278   10.8660    5.2994 C   0  0  0  0  0  0
    6.2684   10.7500    3.9511 C   0  0  1  0  0  0
    5.4517   10.0375    2.8673 C   0  0  0  0  0  0
    5.7937   10.6371    1.5871 N   0  0  2  0  0  0
    6.7126   11.7369    1.8382 C   0  0  0  0  0  0
    6.5524   12.1011    3.3082 C   0  0  0  0  0  0
    9.4067    7.8359    6.7881 H   0  0  0  0  0  0
    3.9927    7.2514    9.5591 H   0  0  0  0  0  0
    0.1980    5.9024    6.6967 H   0  0  0  0  0  0
    1.9940    7.2710    5.7584 H   0  0  0  0  0  0
    4.9616    5.4982    8.4648 H   0  0  0  0  0  0
    6.5983    4.9129    8.7616 H   0  0  0  0  0  0
    3.0973    5.7807   11.1290 H   0  0  0  0  0  0
    6.0848   11.5058    5.9862 H   0  0  0  0  0  0
    4.5486   11.3317    5.1673 H   0  0  0  0  0  0
    7.2170   10.2286    4.0908 H   0  0  0  0  0  0
    4.3794   10.1390    3.0435 H   0  0  0  0  0  0
    5.6635    8.9676    2.8477 H   0  0  0  0  0  0
    4.9659   11.0248    1.1500 H   0  0  0  0  0  0
    7.7372   11.4383    1.6112 H   0  0  0  0  0  0
    6.4529   12.5755    1.1894 H   0  0  0  0  0  0
    7.4656   12.5539    3.6979 H   0  0  0  0  0  0
    5.7479   12.8251    3.4518 H   0  0  0  0  0  0
  1  2  2  0  0  0
  1  4  1  0  0  0
  2  3  1  0  0  0
  2 25  1  0  0  0
  3  6  2  0  0  0
  4  5  2  0  0  0
  4 16  1  0  0  0
  5  9  1  0  0  0
  5  6  1  0  0  0
  6  7  1  0  0  0
  7  8  1  0  0  0
  7 19  1  0  0  0
  8  9  2  0  0  0
  9 10  1  0  0  0
 10 15  1  0  0  0
 10 11  2  0  0  0
 11 12  1  0  0  0
 11 26  1  0  0  0
 12 13  2  0  0  0
 12 18  1  0  0  0
 13 14  1  0  0  0
 13 17  1  0  0  0
 14 15  2  0  0  0
 14 27  1  0  0  0
 15 28  1  0  0  0
 16 29  1  0  0  0
 16 30  1  0  0  0
 18 31  1  0  0  0
 19 20  1  0  0  0
 19 32  1  0  0  0
 19 33  1  0  0  0
 20 21  1  0  0  0
 20 24  1  0  0  0
 20 34  1  0  0  0
 21 22  1  0  0  0
 21 35  1  0  0  0
 21 36  1  0  0  0
 22 23  1  0  0  0
 22 37  1  0  0  0
 23 24  1  0  0  0
 23 38  1  0  0  0
 23 39  1  0  0  0
 24 40  1  0  0  0
 24 41  1  0  0  0
M  END
> <s_m_entry_id>
31780

> <s_m_entry_name>
dock_pv.43

> <s_m_Source_Path>
/home/csk/Desktop/cluster/DUD-E-result/src

> <s_m_Source_File>
dock_pv.maegz

> <i_m_Source_File_Index>
43

> <chembl_id>
CHEMBL1241770

> <chembl_pref_name>
None

> <i_lp_mmshare_version>
53161

> <r_lp_tautomer_probability>
0.999999999997365

> <s_lp_Force_Field>
OPLS_2005

> <r_lp_Energy>
27.419074

> <b_lp_Chiralities_Consistent>
1

> <s_lp_Variant>
CHEMBL267_lig1882-2

> <s_i_glide_gridfile>
glide-grid_3el8

> <i_i_glide_lignum>
2152

> <i_i_glide_rotatable_bonds>
4

> <r_i_docking_score>
-8.83958300449116

> <r_i_glide_ligand_efficiency>
-0.368315958520465

> <r_i_glide_ligand_efficiency_sa>
-1.06240706470154

> <r_i_glide_ligand_efficiency_ln>
-2.11571783500812

> <r_i_glide_gscore>
-8.83958300449116

> <r_i_glide_lipo>
-2.12597242281466

> <r_i_glide_hbond>
-0.756161106126391

> <r_i_glide_metal>
0

> <r_i_glide_rewards>
-3.04788890371183

> <r_i_glide_evdw>
-33.2402381896973

> <r_i_glide_ecoul>
-10.5534734725952

> <r_i_glide_erotb>
0.335472358535875

> <r_i_glide_esite>
0

> <r_i_glide_emodel>
-63.5752073417036

> <r_i_glide_energy>
-43.7937116622925

> <r_i_glide_einternal>
4.29785251617432

> <i_i_glide_confnum>
87

> <i_i_glide_posenum>
308

> <r_i_glide_eff_state_penalty>
0

> <s_user_duplicate_titles>
CHEMBL267_lig1882

> <i_f3d_flags>
0

> <s_m_subgroup_title>
dock_pv

> <s_m_subgroupid>
dock_pv

> <b_m_subgroup_collapsed>
1

$$$$
CHEMBL267_lig153
                    3D
 Schrodinger Suite 2021-1.
 49 52  0  0  1  0            999 V2000
   -0.0785    4.4368    8.9222 N   0  0  0  0  0  0
    0.4391    5.1737    9.9693 C   0  0  0  0  0  0
    0.2627    5.0369    7.7664 N   0  0  0  0  0  0
    1.0765    6.0389    7.9985 C   0  0  0  0  0  0
    1.3374    6.1140    9.3996 C   0  0  0  0  0  0
   -1.0664   -0.6685    7.7847 P   0  0  2  0  0  0
   -0.9541    3.3217    8.9300 C   0  0  0  0  0  0
    1.5345    6.9373    6.8983 C   0  0  0  0  0  0
   -0.5766    2.0811    8.3879 C   0  0  0  0  0  0
   -1.4684    0.9911    8.4141 C   0  0  0  0  0  0
   -2.0283   -0.9592    6.2554 C   0  0  0  0  0  0
    0.1978    5.0371   11.2745 N   0  0  0  0  0  0
    2.1162    6.8444   10.3179 C   0  0  0  0  0  0
    2.8395    7.4370    6.8554 C   0  0  0  0  0  0
    1.9658    6.6601   11.6457 N   0  0  0  0  0  0
   -3.3233   -1.7457    6.4633 C   0  0  0  0  0  0
    0.9731    5.8370   12.0418 C   0  0  0  0  0  0
    0.6174    7.3590    5.9272 C   0  0  0  0  0  0
   -1.1068   -1.7620    8.7903 O   0  0  0  0  0  0
   -2.2025    3.4378    9.5417 C   0  0  0  0  0  0
    0.9940    8.2767    4.9498 C   0  0  0  0  0  0
   -3.4021   -2.9561    6.2699 O   0  0  0  0  0  0
    0.4182   -0.4295    7.1880 O   0  0  0  0  0  0
    3.0200    7.8325    9.9459 N   0  0  0  0  0  0
    3.2311    8.3677    5.8914 C   0  0  0  0  0  0
   -4.3601   -0.9631    6.8782 O   0  0  0  0  0  0
   -2.7100    1.1412    9.0359 C   0  0  0  0  0  0
   -3.0831    2.3625    9.5870 C   0  0  0  0  0  0
    4.5424    8.7964    5.9448 O   0  0  0  0  0  0
    2.2903    8.7889    4.9360 C   0  0  0  0  0  0
    5.0108    9.7105    4.9595 C   0  0  0  0  0  0
    0.4045    1.9626    7.9538 H   0  0  0  0  0  0
   -1.3940   -1.5343    5.5876 H   0  0  0  0  0  0
   -2.2053   -0.0124    5.7487 H   0  0  0  0  0  0
    3.5771    7.0784    7.5560 H   0  0  0  0  0  0
    0.8265    5.7815   13.1065 H   0  0  0  0  0  0
   -0.3981    6.9915    5.9412 H   0  0  0  0  0  0
   -2.4974    4.3663    9.9877 H   0  0  0  0  0  0
    0.2747    8.6001    4.2102 H   0  0  0  0  0  0
    0.5983   -0.5608    6.2131 H   0  0  0  0  0  0
    3.1421    8.0588    8.9708 H   0  0  0  0  0  0
    3.5254    8.3113   10.6748 H   0  0  0  0  0  0
   -4.2010   -0.0012    6.7876 H   0  0  0  0  0  0
   -3.3960    0.3080    9.0907 H   0  0  0  0  0  0
   -4.0458    2.4732   10.0645 H   0  0  0  0  0  0
    2.5479    9.5033    4.1672 H   0  0  0  0  0  0
    6.0583    9.9402    5.1516 H   0  0  0  0  0  0
    4.9460    9.2860    3.9568 H   0  0  0  0  0  0
    4.4574   10.6504    4.9880 H   0  0  0  0  0  0
  1  2  1  0  0  0
  1  3  1  0  0  0
  1  7  1  0  0  0
  2  5  1  0  0  0
  2 12  2  0  0  0
  3  4  2  0  0  0
  4  8  1  0  0  0
  4  5  1  0  0  0
  5 13  2  0  0  0
  6 10  1  0  0  0
  6 11  1  0  0  0
  6 19  2  0  0  0
  6 23  1  0  0  0
  7  9  1  0  0  0
  7 20  2  0  0  0
  8 14  2  0  0  0
  8 18  1  0  0  0
  9 10  2  0  0  0
  9 32  1  0  0  0
 10 27  1  0  0  0
 11 16  1  0  0  0
 11 33  1  0  0  0
 11 34  1  0  0  0
 12 17  1  0  0  0
 13 24  1  0  0  0
 13 15  1  0  0  0
 14 25  1  0  0  0
 14 35  1  0  0  0
 15 17  2  0  0  0
 16 22  2  0  0  0
 16 26  1  0  0  0
 17 36  1  0  0  0
 18 21  2  0  0  0
 18 37  1  0  0  0
 20 28  1  0  0  0
 20 38  1  0  0  0
 21 30  1  0  0  0
 21 39  1  0  0  0
 23 40  1  0  0  0
 24 41  1  0  0  0
 24 42  1  0  0  0
 25 29  1  0  0  0
 25 30  2  0  0  0
 26 43  1  0  0  0
 27 28  2  0  0  0
 27 44  1  0  0  0
 28 45  1  0  0  0
 29 31  1  0  0  0
 30 46  1  0  0  0
 31 47  1  0  0  0
 31 48  1  0  0  0
 31 49  1  0  0  0
M  END
> <s_m_entry_id>
31781

> <s_m_entry_name>
dock_pv.44

> <s_m_Source_Path>
/home/csk/Desktop/cluster/DUD-E-result/src

> <s_m_Source_File>
dock_pv.maegz

> <i_m_Source_File_Index>
44

> <chembl_id>
CHEMBL3706664

> <chembl_pref_name>
None

> <i_lp_mmshare_version>
53161

> <r_lp_tautomer_probability>
1

> <s_lp_Force_Field>
OPLS_2005

> <r_lp_Energy>
20.128799

> <b_lp_Chiralities_Consistent>
1

> <s_lp_Variant>
CHEMBL267_lig153-2

> <s_i_glide_gridfile>
glide-grid_3el8

> <i_i_glide_lignum>
207

> <i_i_glide_rotatable_bonds>
8

> <r_i_docking_score>
-8.82640786401954

> <r_i_glide_ligand_efficiency>
-0.284722834323211

> <r_i_glide_ligand_efficiency_sa>
-0.894422802013163

> <r_i_glide_ligand_efficiency_ln>
-1.99062547025199

> <r_i_glide_gscore>
-8.82640786401954

> <r_i_glide_lipo>
-2.66276910597209

> <r_i_glide_hbond>
0

> <r_i_glide_metal>
0

> <r_i_glide_rewards>
-2.18375936605652

> <r_i_glide_evdw>
-33.0710830688477

> <r_i_glide_ecoul>
-18.8140487670898

> <r_i_glide_erotb>
0.516933552129671

> <r_i_glide_esite>
-0.0211514756147443

> <r_i_glide_emodel>
-77.6880651655533

> <r_i_glide_energy>
-51.8851318359375

> <r_i_glide_einternal>
7.5989146232605

> <i_i_glide_confnum>
2

> <i_i_glide_posenum>
159

> <r_i_glide_eff_state_penalty>
0

> <s_user_duplicate_titles>
CHEMBL267_lig153

> <i_f3d_flags>
0

> <s_m_subgroup_title>
dock_pv

> <s_m_subgroupid>
dock_pv

> <b_m_subgroup_collapsed>
1

$$$$
CHEMBL267_lig1524
                    3D
 Schrodinger Suite 2021-1.
 42 45  0  0  1  0            999 V2000
    7.3886    6.6630    7.5879 N   0  0  0  0  0  0
    7.6760    7.6371    6.6933 C   0  0  0  0  0  0
    6.8095    8.4948    6.1010 N   0  0  0  0  0  0
    6.0965    6.5554    7.9879 C   0  0  0  0  0  0
    5.0960    7.4296    7.5010 C   0  0  0  0  0  0
    5.5366    8.3537    6.5031 C   0  0  0  0  0  0
    4.4113    9.0068    6.0026 N   0  0  0  0  0  0
    3.3252    8.5750    6.7332 C   0  0  0  0  0  0
    3.6766    7.6303    7.6773 C   0  0  0  0  0  0
    2.7380    6.9961    8.6436 C   0  0  0  0  0  0
    1.4872    6.5429    8.2100 C   0  0  0  0  0  0
    0.5968    5.9724    9.1172 C   0  0  0  0  0  0
    0.9561    5.8614   10.4578 C   0  0  0  0  0  0
    2.1980    6.3158   10.8966 C   0  0  0  0  0  0
    3.0938    6.8731    9.9880 C   0  0  0  0  0  0
    4.3111    9.9999    4.9164 C   0  0  1  0  0  0
    5.7945    5.4579    8.7879 N   0  0  0  0  0  0
    4.8221   11.3824    5.3208 C   0  0  0  0  0  0
    6.1975   11.4270    4.8600 N   0  0  1  0  0  0
    6.2269   10.7324    3.5763 C   0  0  1  0  0  0
    5.1460    9.6353    3.6803 C   0  0  0  0  0  0
    6.0063   11.7166    2.4081 C   0  0  0  0  0  0
    6.2017   11.0371    1.1877 O   0  0  0  0  0  0
    8.7100    7.7169    6.3884 H   0  0  0  0  0  0
    2.3487    8.9885    6.5238 H   0  0  0  0  0  0
    1.2047    6.6295    7.1708 H   0  0  0  0  0  0
   -0.3715    5.6218    8.7876 H   0  0  0  0  0  0
    0.2624    5.4259   11.1626 H   0  0  0  0  0  0
    2.4713    6.2362   11.9385 H   0  0  0  0  0  0
    4.0548    7.2246   10.3361 H   0  0  0  0  0  0
    3.2473   10.0256    4.6736 H   0  0  0  0  0  0
    4.8443    5.3228    9.1066 H   0  0  0  0  0  0
    6.5395    4.8292    9.0633 H   0  0  0  0  0  0
    4.2504   12.1561    4.8049 H   0  0  0  0  0  0
    4.7273   11.5799    6.3881 H   0  0  0  0  0  0
    6.5559   12.3689    4.7790 H   0  0  0  0  0  0
    7.2165   10.2796    3.4944 H   0  0  0  0  0  0
    5.5911    8.6422    3.7451 H   0  0  0  0  0  0
    4.5169    9.6115    2.7897 H   0  0  0  0  0  0
    5.0030   12.1448    2.4235 H   0  0  0  0  0  0
    6.7206   12.5401    2.4513 H   0  0  0  0  0  0
    6.0715   11.6654    0.4597 H   0  0  0  0  0  0
  1  2  2  0  0  0
  1  4  1  0  0  0
  2  3  1  0  0  0
  2 24  1  0  0  0
  3  6  2  0  0  0
  4  5  2  0  0  0
  4 17  1  0  0  0
  5  9  1  0  0  0
  5  6  1  0  0  0
  6  7  1  0  0  0
  7 16  1  0  0  0
  7  8  1  0  0  0
  8  9  2  0  0  0
  8 25  1  0  0  0
  9 10  1  0  0  0
 10 15  1  0  0  0
 10 11  2  0  0  0
 11 12  1  0  0  0
 11 26  1  0  0  0
 12 13  2  0  0  0
 12 27  1  0  0  0
 13 14  1  0  0  0
 13 28  1  0  0  0
 14 15  2  0  0  0
 14 29  1  0  0  0
 15 30  1  0  0  0
 16 18  1  0  0  0
 16 21  1  0  0  0
 16 31  1  0  0  0
 17 32  1  0  0  0
 17 33  1  0  0  0
 18 19  1  0  0  0
 18 34  1  0  0  0
 18 35  1  0  0  0
 19 20  1  0  0  0
 19 36  1  0  0  0
 20 21  1  0  0  0
 20 22  1  0  0  0
 20 37  1  0  0  0
 21 38  1  0  0  0
 21 39  1  0  0  0
 22 23  1  0  0  0
 22 40  1  0  0  0
 22 41  1  0  0  0
 23 42  1  0  0  0
M  END
> <s_m_entry_id>
31782

> <s_m_entry_name>
dock_pv.45

> <s_m_Source_Path>
/home/csk/Desktop/cluster/DUD-E-result/src

> <s_m_Source_File>
dock_pv.maegz

> <i_m_Source_File_Index>
45

> <chembl_id>
CHEMBL474834

> <chembl_pref_name>
None

> <i_lp_mmshare_version>
53161

> <r_lp_tautomer_probability>
1

> <s_lp_Force_Field>
OPLS_2005

> <r_lp_Energy>
34.932564

> <b_lp_Chiralities_Consistent>
1

> <s_lp_Variant>
CHEMBL267_lig1524-1

> <s_i_glide_gridfile>
glide-grid_3el8

> <i_i_glide_lignum>
1705

> <i_i_glide_rotatable_bonds>
4

> <r_i_docking_score>
-8.82567354658919

> <r_i_glide_ligand_efficiency>
-0.383724936808226

> <r_i_glide_ligand_efficiency_sa>
-1.09126267599399

> <r_i_glide_ligand_efficiency_ln>
-2.13412789034847

> <r_i_glide_gscore>
-8.82567354658919

> <r_i_glide_lipo>
-2.30845486575036

> <r_i_glide_hbond>
-0.72

> <r_i_glide_metal>
0

> <r_i_glide_rewards>
-3.17108659347006

> <r_i_glide_evdw>
-34.3066139221191

> <r_i_glide_ecoul>
-9.94113254547119

> <r_i_glide_erotb>
0.580368490557858

> <r_i_glide_esite>
0

> <r_i_glide_emodel>
-64.7845066711828

> <r_i_glide_energy>
-44.2477464675903

> <r_i_glide_einternal>
2.41804432868958

> <i_i_glide_confnum>
99

> <i_i_glide_posenum>
228

> <r_i_glide_eff_state_penalty>
0

> <s_user_duplicate_titles>
CHEMBL267_lig1524,459645

> <i_f3d_flags>
0

> <s_m_subgroup_title>
dock_pv

> <s_m_subgroupid>
dock_pv

> <b_m_subgroup_collapsed>
1

$$$$
CHEMBL267_lig27
                    3D
 Schrodinger Suite 2021-1.
 42 45  0  0  1  0            999 V2000
    7.4297    6.6334    7.5876 N   0  0  0  0  0  0
    7.7465    7.6062    6.7000 C   0  0  0  0  0  0
    6.9059    8.4927    6.1080 N   0  0  0  0  0  0
    6.1315    6.5481    7.9745 C   0  0  0  0  0  0
    5.1537    7.4360    7.4654 C   0  0  0  0  0  0
    5.6261    8.3670    6.4918 C   0  0  0  0  0  0
    4.5269    9.0723    6.0063 N   0  0  0  0  0  0
    3.4104    8.6111    6.6779 C   0  0  0  0  0  0
    3.7353    7.6466    7.6138 C   0  0  0  0  0  0
    5.7979    5.4684    8.7879 N   0  0  0  0  0  0
    4.4936   10.1487    5.0037 C   0  0  0  0  0  0
    2.7986    6.9434    8.5320 C   0  0  0  0  0  0
    1.6858    6.2403    8.0496 C   0  0  0  0  0  0
    0.8539    5.5516    8.9382 C   0  0  0  0  0  0
    1.1046    5.5999   10.3063 C   0  0  0  0  0  0
    2.1978    6.3155   10.7913 C   0  0  0  0  0  0
    3.0474    6.9778    9.9070 C   0  0  0  0  0  0
   -0.2016    4.8068    8.4890 O   0  0  0  0  0  0
    5.3148   11.3581    5.5197 C   0  0  0  0  0  0
    5.5700   12.3999    4.4132 C   0  0  0  0  0  0
    6.2257   11.7525    3.2799 N   0  0  2  0  0  0
    5.3301   10.7787    2.6618 C   0  0  0  0  0  0
    5.0438    9.6317    3.6508 C   0  0  0  0  0  0
    8.7852    7.6680    6.4073 H   0  0  0  0  0  0
    2.4439    9.0359    6.4516 H   0  0  0  0  0  0
    4.8428    5.3561    9.0999 H   0  0  0  0  0  0
    6.5261    4.8284    9.0801 H   0  0  0  0  0  0
    3.4503   10.4422    4.8825 H   0  0  0  0  0  0
    1.4959    6.1972    6.9880 H   0  0  0  0  0  0
    0.4587    5.0707   10.9928 H   0  0  0  0  0  0
    2.3993    6.3439   11.8520 H   0  0  0  0  0  0
    3.9007    7.5167   10.2942 H   0  0  0  0  0  0
   -0.8483    5.3031    7.9652 H   0  0  0  0  0  0
    6.2279   11.0890    6.0513 H   0  0  0  0  0  0
    4.7175   11.8617    6.2793 H   0  0  0  0  0  0
    6.2243   13.1899    4.7816 H   0  0  0  0  0  0
    4.6410   12.8777    4.0942 H   0  0  0  0  0  0
    7.0297   11.2545    3.6348 H   0  0  0  0  0  0
    5.8167   10.3930    1.7659 H   0  0  0  0  0  0
    4.4069   11.2611    2.3376 H   0  0  0  0  0  0
    4.2648    9.0252    3.1891 H   0  0  0  0  0  0
    5.8831    8.9424    3.7312 H   0  0  0  0  0  0
  1  2  2  0  0  0
  1  4  1  0  0  0
  2  3  1  0  0  0
  2 24  1  0  0  0
  3  6  2  0  0  0
  4  5  2  0  0  0
  4 10  1  0  0  0
  5  9  1  0  0  0
  5  6  1  0  0  0
  6  7  1  0  0  0
  7 11  1  0  0  0
  7  8  1  0  0  0
  8  9  2  0  0  0
  8 25  1  0  0  0
  9 12  1  0  0  0
 10 26  1  0  0  0
 10 27  1  0  0  0
 11 19  1  0  0  0
 11 23  1  0  0  0
 11 28  1  0  0  0
 12 13  2  0  0  0
 12 17  1  0  0  0
 13 14  1  0  0  0
 13 29  1  0  0  0
 14 15  2  0  0  0
 14 18  1  0  0  0
 15 16  1  0  0  0
 15 30  1  0  0  0
 16 17  2  0  0  0
 16 31  1  0  0  0
 17 32  1  0  0  0
 18 33  1  0  0  0
 19 20  1  0  0  0
 19 34  1  0  0  0
 19 35  1  0  0  0
 20 21  1  0  0  0
 20 36  1  0  0  0
 20 37  1  0  0  0
 21 22  1  0  0  0
 21 38  1  0  0  0
 22 23  1  0  0  0
 22 39  1  0  0  0
 22 40  1  0  0  0
 23 41  1  0  0  0
 23 42  1  0  0  0
M  END
> <s_m_entry_id>
31783

> <s_m_entry_name>
dock_pv.46

> <s_m_Source_Path>
/home/csk/Desktop/cluster/DUD-E-result/src

> <s_m_Source_File>
dock_pv.maegz

> <i_m_Source_File_Index>
46

> <chembl_id>
CHEMBL450519

> <chembl_pref_name>
None

> <i_lp_mmshare_version>
53161

> <r_lp_tautomer_probability>
0.999999999997365

> <s_lp_Force_Field>
OPLS_2005

> <r_lp_Energy>
24.799027

> <b_lp_Chiralities_Consistent>
1

> <s_lp_Variant>
CHEMBL267_lig27-1

> <s_i_glide_gridfile>
glide-grid_3el8

> <i_i_glide_lignum>
34

> <i_i_glide_rotatable_bonds>
3

> <r_i_docking_score>
-8.80701865242351

> <r_i_glide_ligand_efficiency>
-0.382913854453196

> <r_i_glide_ligand_efficiency_sa>
-1.08895606566899

> <r_i_glide_ligand_efficiency_ln>
-2.12961696778598

> <r_i_glide_gscore>
-8.80701865242351

> <r_i_glide_lipo>
-2.57654258315405

> <r_i_glide_hbond>
-0.608

> <r_i_glide_metal>
0

> <r_i_glide_rewards>
-3.09160136894902

> <r_i_glide_evdw>
-35.7218589782715

> <r_i_glide_ecoul>
-7.54462718963623

> <r_i_glide_erotb>
0.386912327038572

> <r_i_glide_esite>
0

> <r_i_glide_emodel>
-65.4761578807137

> <r_i_glide_energy>
-43.2664861679077

> <r_i_glide_einternal>
3.91678833961487

> <i_i_glide_confnum>
39

> <i_i_glide_posenum>
369

> <r_i_glide_eff_state_penalty>
0

> <s_user_duplicate_titles>
CHEMBL267_lig27

> <i_f3d_flags>
0

> <s_m_subgroup_title>
dock_pv

> <s_m_subgroupid>
dock_pv

> <b_m_subgroup_collapsed>
1

$$$$
CHEMBL267_lig1877
                    3D
 Schrodinger Suite 2021-1.
 39 42  0  0  1  0            999 V2000
    7.8391    6.8347    7.4183 N   0  0  0  0  0  0
    8.2110    7.8319    6.5785 C   0  0  0  0  0  0
    7.4121    8.7051    5.9154 N   0  0  0  0  0  0
    6.5131    6.7054    7.6532 C   0  0  0  0  0  0
    5.5812    7.5990    7.0928 C   0  0  0  0  0  0
    6.1125    8.5622    6.2044 C   0  0  0  0  0  0
    5.0226    9.2568    5.6976 N   0  0  0  0  0  0
    3.8715    8.7651    6.2119 N   0  0  0  0  0  0
    4.1690    7.8373    7.0896 C   0  0  0  0  0  0
    3.1158    7.1804    7.9067 C   0  0  0  0  0  0
    3.3274    6.9988    9.2752 C   0  0  0  0  0  0
    2.3614    6.3781   10.0627 C   0  0  0  0  0  0
    1.1892    5.8884    9.4763 C   0  0  0  0  0  0
    0.9757    6.0651    8.1090 C   0  0  0  0  0  0
    1.9293    6.7170    7.3278 C   0  0  0  0  0  0
    6.1109    5.5965    8.3880 N   0  0  0  0  0  0
    0.0103    5.0380   10.4114 Cl  0  0  0  0  0  0
    2.5978    6.2373   11.4016 O   0  0  0  0  0  0
    4.9431   10.2808    4.6397 C   0  0  0  0  0  0
    3.8950   11.3914    4.9214 C   0  0  0  0  0  0
    4.6330   12.7253    4.7869 C   0  0  0  0  0  0
    5.8227   12.4224    3.8834 C   0  0  0  0  0  0
    6.2596   11.0381    4.3554 C   0  0  0  0  0  0
    9.2715    7.9179    6.3873 H   0  0  0  0  0  0
    4.2346    7.3635    9.7348 H   0  0  0  0  0  0
    0.0723    5.6892    7.6518 H   0  0  0  0  0  0
    1.7546    6.8432    6.2686 H   0  0  0  0  0  0
    5.1261    5.4369    8.5401 H   0  0  0  0  0  0
    6.8069    4.9493    8.7372 H   0  0  0  0  0  0
    3.4881    5.9137   11.5884 H   0  0  0  0  0  0
    4.6268    9.7293    3.7515 H   0  0  0  0  0  0
    3.0925   11.3345    4.1842 H   0  0  0  0  0  0
    3.4236   11.3166    5.9026 H   0  0  0  0  0  0
    4.0000   13.5211    4.3922 H   0  0  0  0  0  0
    4.9944   13.0402    5.7674 H   0  0  0  0  0  0
    5.5138   12.3936    2.8366 H   0  0  0  0  0  0
    6.6148   13.1674    3.9764 H   0  0  0  0  0  0
    6.8374   11.1785    5.2706 H   0  0  0  0  0  0
    6.8908   10.5310    3.6245 H   0  0  0  0  0  0
  1  2  2  0  0  0
  1  4  1  0  0  0
  2  3  1  0  0  0
  2 24  1  0  0  0
  3  6  2  0  0  0
  4  5  2  0  0  0
  4 16  1  0  0  0
  5  9  1  0  0  0
  5  6  1  0  0  0
  6  7  1  0  0  0
  7  8  1  0  0  0
  7 19  1  0  0  0
  8  9  2  0  0  0
  9 10  1  0  0  0
 10 15  1  0  0  0
 10 11  2  0  0  0
 11 12  1  0  0  0
 11 25  1  0  0  0
 12 13  2  0  0  0
 12 18  1  0  0  0
 13 14  1  0  0  0
 13 17  1  0  0  0
 14 15  2  0  0  0
 14 26  1  0  0  0
 15 27  1  0  0  0
 16 28  1  0  0  0
 16 29  1  0  0  0
 18 30  1  0  0  0
 19 20  1  0  0  0
 19 23  1  0  0  0
 19 31  1  0  0  0
 20 21  1  0  0  0
 20 32  1  0  0  0
 20 33  1  0  0  0
 21 22  1  0  0  0
 21 34  1  0  0  0
 21 35  1  0  0  0
 22 23  1  0  0  0
 22 36  1  0  0  0
 22 37  1  0  0  0
 23 38  1  0  0  0
 23 39  1  0  0  0
M  END
> <s_m_entry_id>
31784

> <s_m_entry_name>
dock_pv.47

> <s_m_Source_Path>
/home/csk/Desktop/cluster/DUD-E-result/src

> <s_m_Source_File>
dock_pv.maegz

> <i_m_Source_File_Index>
47

> <chembl_id>
CHEMBL1241676

> <chembl_pref_name>
None

> <i_lp_mmshare_version>
53161

> <r_lp_tautomer_probability>
0.999999999997365

> <s_lp_Force_Field>
OPLS_2005

> <r_lp_Energy>
31.055847

> <b_lp_Chiralities_Consistent>
1

> <s_lp_Variant>
CHEMBL267_lig1877-1

> <s_i_glide_gridfile>
glide-grid_3el8

> <i_i_glide_lignum>
2145

> <i_i_glide_rotatable_bonds>
3

> <r_i_docking_score>
-8.80636527587023

> <r_i_glide_ligand_efficiency>
-0.382885446776967

> <r_i_glide_ligand_efficiency_sa>
-1.08887527801668

> <r_i_glide_ligand_efficiency_ln>
-2.12945897541091

> <r_i_glide_gscore>
-8.80636527587023

> <r_i_glide_lipo>
-2.30134277099078

> <r_i_glide_hbond>
-0.637259430568195

> <r_i_glide_metal>
0

> <r_i_glide_rewards>
-3.13119975788827

> <r_i_glide_evdw>
-37.0430946350098

> <r_i_glide_ecoul>
-7.5093879699707

> <r_i_glide_erotb>
0.241999610823103

> <r_i_glide_esite>
0

> <r_i_glide_emodel>
-63.8482913472629

> <r_i_glide_energy>
-44.5524826049805

> <r_i_glide_einternal>
6.0357928276062

> <i_i_glide_confnum>
18

> <i_i_glide_posenum>
189

> <r_i_glide_eff_state_penalty>
0

> <s_user_duplicate_titles>
CHEMBL267_lig1877

> <i_f3d_flags>
0

> <s_m_subgroup_title>
dock_pv

> <s_m_subgroupid>
dock_pv

> <b_m_subgroup_collapsed>
1

$$$$
CHEMBL267_lig1814
                    3D
 Schrodinger Suite 2021-1.
 37 40  0  0  1  0            999 V2000
    7.4281    6.6474    7.5878 N   0  0  0  0  0  0
    7.7176    7.6220    6.6862 C   0  0  0  0  0  0
    6.8551    8.4883    6.0898 N   0  0  0  0  0  0
    6.1344    6.5465    7.9879 C   0  0  0  0  0  0
    5.1575    7.4369    7.5017 C   0  0  0  0  0  0
    5.5925    8.3520    6.5176 C   0  0  0  0  0  0
    4.4517    9.0069    6.0789 N   0  0  0  0  0  0
    3.3683    8.6096    6.7915 N   0  0  0  0  0  0
    3.7608    7.7046    7.6591 C   0  0  0  0  0  0
    2.8290    7.0960    8.6426 C   0  0  0  0  0  0
    1.6908    6.3890    8.2379 C   0  0  0  0  0  0
    0.8689    5.7792    9.1894 C   0  0  0  0  0  0
    1.1501    5.9278   10.5518 C   0  0  0  0  0  0
    2.2803    6.6365   10.9561 C   0  0  0  0  0  0
    3.1250    7.2047   10.0049 C   0  0  0  0  0  0
    5.7979    5.4592    8.7880 N   0  0  0  0  0  0
    0.3340    5.3951   11.4907 F   0  0  0  0  0  0
   -0.2020    5.0245    8.7880 O   0  0  0  0  0  0
    4.3173   10.0172    5.0139 C   0  0  1  0  0  0
    3.1967    9.7113    4.0284 C   0  0  0  0  0  0
    2.0092   10.5582    4.5026 C   0  0  0  0  0  0
    2.5133   11.3851    5.5548 O   0  0  0  0  0  0
    3.9370   11.4052    5.5303 C   0  0  0  0  0  0
    8.7518    7.7097    6.3892 H   0  0  0  0  0  0
    1.4716    6.2783    7.1859 H   0  0  0  0  0  0
    2.5080    6.7262   12.0081 H   0  0  0  0  0  0
    4.0062    7.7382   10.3308 H   0  0  0  0  0  0
    4.8456    5.3466    9.1054 H   0  0  0  0  0  0
    6.5273    4.8161    9.0721 H   0  0  0  0  0  0
   -0.7988    5.4368    8.1480 H   0  0  0  0  0  0
    5.2876   10.0034    4.5147 H   0  0  0  0  0  0
    3.4927   10.0205    3.0250 H   0  0  0  0  0  0
    2.9567    8.6488    3.9650 H   0  0  0  0  0  0
    1.6264   11.1719    3.6859 H   0  0  0  0  0  0
    1.2094    9.9243    4.8884 H   0  0  0  0  0  0
    4.3285   11.6305    6.5208 H   0  0  0  0  0  0
    4.2872   12.2030    4.8733 H   0  0  0  0  0  0
  1  2  2  0  0  0
  1  4  1  0  0  0
  2  3  1  0  0  0
  2 24  1  0  0  0
  3  6  2  0  0  0
  4  5  2  0  0  0
  4 16  1  0  0  0
  5  9  1  0  0  0
  5  6  1  0  0  0
  6  7  1  0  0  0
  7  8  1  0  0  0
  7 19  1  0  0  0
  8  9  2  0  0  0
  9 10  1  0  0  0
 10 15  1  0  0  0
 10 11  2  0  0  0
 11 12  1  0  0  0
 11 25  1  0  0  0
 12 13  2  0  0  0
 12 18  1  0  0  0
 13 14  1  0  0  0
 13 17  1  0  0  0
 14 15  2  0  0  0
 14 26  1  0  0  0
 15 27  1  0  0  0
 16 28  1  0  0  0
 16 29  1  0  0  0
 18 30  1  0  0  0
 19 20  1  0  0  0
 19 23  1  0  0  0
 19 31  1  0  0  0
 20 21  1  0  0  0
 20 32  1  0  0  0
 20 33  1  0  0  0
 21 22  1  0  0  0
 21 34  1  0  0  0
 21 35  1  0  0  0
 22 23  1  0  0  0
 23 36  1  0  0  0
 23 37  1  0  0  0
M  END
> <s_m_entry_id>
31785

> <s_m_entry_name>
dock_pv.48

> <s_m_Source_Path>
/home/csk/Desktop/cluster/DUD-E-result/src

> <s_m_Source_File>
dock_pv.maegz

> <i_m_Source_File_Index>
48

> <chembl_id>
CHEMBL1242748

> <chembl_pref_name>
None

> <i_lp_mmshare_version>
53161

> <r_lp_tautomer_probability>
0.999999999997365

> <s_lp_Force_Field>
OPLS_2005

> <r_lp_Energy>
25.719462

> <b_lp_Chiralities_Consistent>
1

> <s_lp_Variant>
CHEMBL267_lig1814-1

> <s_i_glide_gridfile>
glide-grid_3el8

> <i_i_glide_lignum>
2080

> <i_i_glide_rotatable_bonds>
3

> <r_i_docking_score>
-8.79910467109972

> <r_i_glide_ligand_efficiency>
-0.382569768308683

> <r_i_glide_ligand_efficiency_sa>
-1.08797753044541

> <r_i_glide_ligand_efficiency_ln>
-2.12770329534188

> <r_i_glide_gscore>
-8.79910467109972

> <r_i_glide_lipo>
-2.15324098391557

> <r_i_glide_hbond>
-0.608

> <r_i_glide_metal>
0

> <r_i_glide_rewards>
-3.42470292798969

> <r_i_glide_evdw>
-35.6775093078613

> <r_i_glide_ecoul>
-8.02323913574219

> <r_i_glide_erotb>
0.374200576559938

> <r_i_glide_esite>
0

> <r_i_glide_emodel>
-63.1899929798701

> <r_i_glide_energy>
-43.7007484436035

> <r_i_glide_einternal>
4.27357196807861

> <i_i_glide_confnum>
30

> <i_i_glide_posenum>
234

> <r_i_glide_eff_state_penalty>
0

> <s_user_duplicate_titles>
CHEMBL267_lig1814

> <i_f3d_flags>
0

> <s_m_subgroup_title>
dock_pv

> <s_m_subgroupid>
dock_pv

> <b_m_subgroup_collapsed>
1

$$$$
CHEMBL267_lig3337
                    3D
 Schrodinger Suite 2021-1.
 39 42  0  0  1  0            999 V2000
    0.7969   10.1143    6.5030 Cl  0  0  0  0  0  0
    6.5967    5.7203    8.3438 N   0  0  0  0  0  0
    8.2458    7.0370    7.1860 N   0  0  0  0  0  0
    0.5190    7.8792    7.8977 N   0  0  0  0  0  0
   -0.0029    6.0323    9.1879 N   0  0  0  0  0  0
    4.7241    6.9680    7.9866 C   0  0  0  0  0  0
    5.8446    7.5893    7.3011 C   0  0  0  0  0  0
    3.2714    7.3431    7.9838 C   0  0  0  0  0  0
    6.9982    6.7962    7.5880 C   0  0  0  0  0  0
    5.2578    5.8368    8.5979 C   0  0  0  0  0  0
    2.3481    6.4909    8.6044 C   0  0  0  0  0  0
    2.7753    8.4810    7.3361 C   0  0  0  0  0  0
    0.9842    6.7918    8.5526 C   0  0  0  0  0  0
    6.0572    8.7016    6.4557 C   0  0  0  0  0  0
    1.4026    8.7132    7.3060 C   0  0  0  0  0  0
    7.3466    8.9577    5.9909 C   0  0  0  0  0  0
    8.3891    8.1264    6.3886 C   0  0  0  0  0  0
    0.2476    4.8346    9.9762 C   0  0  0  0  0  0
   -0.3218    3.6028    9.2952 C   0  0  0  0  0  0
    0.5238    2.5942    8.8240 C   0  0  0  0  0  0
   -1.7078    3.4372    9.2381 C   0  0  0  0  0  0
   -0.0250    1.3878    8.3880 C   0  0  0  0  0  0
   -2.2454    2.2419    8.7880 C   0  0  0  0  0  0
   -1.4026    1.2127    8.3878 C   0  0  0  0  0  0
    7.1557    4.9548    8.7015 H   0  0  0  0  0  0
   -0.9690    6.2366    8.9664 H   0  0  0  0  0  0
    4.7810    5.0667    9.1880 H   0  0  0  0  0  0
    2.6919    5.6064    9.1091 H   0  0  0  0  0  0
    3.4126    9.1919    6.8508 H   0  0  0  0  0  0
    5.2654    9.3569    6.1427 H   0  0  0  0  0  0
    7.5394    9.7989    5.3406 H   0  0  0  0  0  0
    9.3948    8.3169    6.0397 H   0  0  0  0  0  0
   -0.2698    4.9561   10.9294 H   0  0  0  0  0  0
    1.2920    4.6843   10.2389 H   0  0  0  0  0  0
    1.5959    2.7133    8.8632 H   0  0  0  0  0  0
   -2.3668    4.2191    9.5891 H   0  0  0  0  0  0
    0.5980    0.5674    8.0719 H   0  0  0  0  0  0
   -3.3167    2.1010    8.7860 H   0  0  0  0  0  0
   -1.8290    0.2785    8.0528 H   0  0  0  0  0  0
  1 15  1  0  0  0
  2  9  1  0  0  0
  2 10  1  0  0  0
  2 25  1  0  0  0
  3  9  2  0  0  0
  3 17  1  0  0  0
  4 13  2  0  0  0
  4 15  1  0  0  0
  5 13  1  0  0  0
  5 18  1  0  0  0
  5 26  1  0  0  0
  6  7  1  0  0  0
  6  8  1  0  0  0
  6 10  2  0  0  0
  7  9  1  0  0  0
  7 14  2  0  0  0
  8 11  2  0  0  0
  8 12  1  0  0  0
 10 27  1  0  0  0
 11 13  1  0  0  0
 11 28  1  0  0  0
 12 15  2  0  0  0
 12 29  1  0  0  0
 14 16  1  0  0  0
 14 30  1  0  0  0
 16 17  2  0  0  0
 16 31  1  0  0  0
 17 32  1  0  0  0
 18 19  1  0  0  0
 18 33  1  0  0  0
 18 34  1  0  0  0
 19 20  2  0  0  0
 19 21  1  0  0  0
 20 22  1  0  0  0
 20 35  1  0  0  0
 21 23  2  0  0  0
 21 36  1  0  0  0
 22 24  2  0  0  0
 22 37  1  0  0  0
 23 24  1  0  0  0
 23 38  1  0  0  0
 24 39  1  0  0  0
M  END
> <s_m_entry_id>
31786

> <s_m_entry_name>
dock_pv.49

> <s_m_Source_Path>
/home/csk/Desktop/cluster/DUD-E-result/src

> <s_m_Source_File>
dock_pv.maegz

> <i_m_Source_File_Index>
49

> <chembl_id>
CHEMBL1969588

> <chembl_pref_name>
None

> <i_lp_mmshare_version>
53161

> <r_lp_tautomer_probability>
0.999998204729223

> <s_lp_Force_Field>
OPLS_2005

> <r_lp_Energy>
11.361185

> <b_lp_Chiralities_Consistent>
1

> <s_lp_Variant>
CHEMBL267_lig3337-1

> <s_i_glide_gridfile>
glide-grid_3el8

> <i_i_glide_lignum>
3941

> <i_i_glide_rotatable_bonds>
4

> <r_i_docking_score>
-8.79601781312467

> <r_i_glide_ligand_efficiency>
-0.366500742213528

> <r_i_glide_ligand_efficiency_sa>
-1.0571710748297

> <r_i_glide_ligand_efficiency_ln>
-2.10529068563775

> <r_i_glide_gscore>
-8.79601781312467

> <r_i_glide_lipo>
-3.44879992847473

> <r_i_glide_hbond>
-0.731010913803322

> <r_i_glide_metal>
0

> <r_i_glide_rewards>
-2.28956679831514

> <r_i_glide_evdw>
-35.7499771118164

> <r_i_glide_ecoul>
-6.4496808052063

> <r_i_glide_erotb>
0.471242844237165

> <r_i_glide_esite>
-0.0429320403968786

> <r_i_glide_emodel>
-62.1504542586425

> <r_i_glide_energy>
-42.1996579170227

> <r_i_glide_einternal>
4.4147424697876

> <i_i_glide_confnum>
56

> <i_i_glide_posenum>
216

> <r_i_glide_eff_state_penalty>
0

> <s_user_duplicate_titles>
CHEMBL267_lig3337

> <i_f3d_flags>
0

> <s_m_subgroup_title>
dock_pv

> <s_m_subgroupid>
dock_pv

> <b_m_subgroup_collapsed>
1

$$$$
CHEMBL267_lig1937
                    3D
 Schrodinger Suite 2021-1.
 42 46  0  0  1  0            999 V2000
    7.9769    6.7379    7.5836 N   0  0  0  0  0  0
    8.5927    7.6714    6.8181 C   0  0  0  0  0  0
    8.0126    8.6373    6.0664 N   0  0  0  0  0  0
    6.6246    6.7958    7.6528 C   0  0  0  0  0  0
    5.9020    7.8051    6.9834 C   0  0  0  0  0  0
    6.6833    8.6854    6.2007 C   0  0  0  0  0  0
    5.7996    9.5795    5.6269 N   0  0  0  0  0  0
    4.5316    9.2819    5.9816 N   0  0  0  0  0  0
    4.5474    8.2416    6.7820 C   0  0  0  0  0  0
    3.2738    7.7075    7.3450 C   0  0  0  0  0  0
    2.0223    6.7111    9.1816 C   0  0  0  0  0  0
    3.1944    7.2583    8.6673 C   0  0  0  0  0  0
    6.0025    5.7944    8.3880 N   0  0  0  0  0  0
    0.8683    6.5814    8.4099 C   0  0  0  0  0  0
    0.9369    7.0371    7.0898 C   0  0  0  0  0  0
    2.1193    7.6105    6.5353 C   0  0  0  0  0  0
    1.7981    7.9571    5.1740 C   0  0  0  0  0  0
    0.4963    7.5787    4.9378 C   0  0  0  0  0  0
   -0.0123    7.0424    6.0905 N   0  0  0  0  0  0
    6.0730   10.6965    4.7063 C   0  0  0  0  0  0
    5.5740   10.4201    3.2791 C   0  0  0  0  0  0
    4.2120   11.1251    3.1519 C   0  0  0  0  0  0
    4.0442   12.0249    4.3905 C   0  0  0  0  0  0
    5.3951   12.0150    5.1206 C   0  0  0  0  0  0
    9.6675    7.6411    6.7881 H   0  0  0  0  0  0
    2.0099    6.3748   10.2098 H   0  0  0  0  0  0
    4.0512    7.3493    9.3196 H   0  0  0  0  0  0
    4.9942    5.7673    8.4390 H   0  0  0  0  0  0
    6.5729    5.0789    8.8168 H   0  0  0  0  0  0
   -0.0329    6.1435    8.8166 H   0  0  0  0  0  0
    2.4480    8.4217    4.4462 H   0  0  0  0  0  0
   -0.1193    7.6423    4.0498 H   0  0  0  0  0  0
   -0.9567    6.6804    6.1685 H   0  0  0  0  0  0
    7.1604   10.7765    4.7537 H   0  0  0  0  0  0
    6.2762   10.8501    2.5635 H   0  0  0  0  0  0
    5.5167    9.3540    3.0484 H   0  0  0  0  0  0
    4.1672   11.7110    2.2322 H   0  0  0  0  0  0
    3.4024   10.3944    3.0990 H   0  0  0  0  0  0
    3.7406   13.0376    4.1197 H   0  0  0  0  0  0
    3.2637   11.6229    5.0390 H   0  0  0  0  0  0
    5.2894   12.1209    6.2019 H   0  0  0  0  0  0
    5.9993   12.8572    4.7814 H   0  0  0  0  0  0
  1  2  2  0  0  0
  1  4  1  0  0  0
  2  3  1  0  0  0
  2 25  1  0  0  0
  3  6  2  0  0  0
  4 13  1  0  0  0
  4  5  2  0  0  0
  5  9  1  0  0  0
  5  6  1  0  0  0
  6  7  1  0  0  0
  7  8  1  0  0  0
  7 20  1  0  0  0
  8  9  2  0  0  0
  9 10  1  0  0  0
 10 12  1  0  0  0
 10 16  2  0  0  0
 11 12  2  0  0  0
 11 14  1  0  0  0
 11 26  1  0  0  0
 12 27  1  0  0  0
 13 28  1  0  0  0
 13 29  1  0  0  0
 14 15  2  0  0  0
 14 30  1  0  0  0
 15 16  1  0  0  0
 15 19  1  0  0  0
 16 17  1  0  0  0
 17 18  2  0  0  0
 17 31  1  0  0  0
 18 19  1  0  0  0
 18 32  1  0  0  0
 19 33  1  0  0  0
 20 21  1  0  0  0
 20 24  1  0  0  0
 20 34  1  0  0  0
 21 22  1  0  0  0
 21 35  1  0  0  0
 21 36  1  0  0  0
 22 23  1  0  0  0
 22 37  1  0  0  0
 22 38  1  0  0  0
 23 24  1  0  0  0
 23 39  1  0  0  0
 23 40  1  0  0  0
 24 41  1  0  0  0
 24 42  1  0  0  0
M  END
> <s_m_entry_id>
31787

> <s_m_entry_name>
dock_pv.50

> <s_m_Source_Path>
/home/csk/Desktop/cluster/DUD-E-result/src

> <s_m_Source_File>
dock_pv.maegz

> <i_m_Source_File_Index>
50

> <chembl_id>
CHEMBL1242758

> <chembl_pref_name>
None

> <i_lp_mmshare_version>
53161

> <r_lp_tautomer_probability>
1

> <s_lp_Force_Field>
OPLS_2005

> <r_lp_Energy>
40.139279

> <b_lp_Chiralities_Consistent>
1

> <s_lp_Variant>
CHEMBL267_lig1937-1

> <s_i_glide_gridfile>
glide-grid_3el8

> <i_i_glide_lignum>
2218

> <i_i_glide_rotatable_bonds>
2

> <r_i_docking_score>
-8.78058844429628

> <r_i_glide_ligand_efficiency>
-0.365857851845678

> <r_i_glide_ligand_efficiency_sa>
-1.05531665811809

> <r_i_glide_ligand_efficiency_ln>
-2.10159772966952

> <r_i_glide_gscore>
-8.78058844429628

> <r_i_glide_lipo>
-2.45942733423613

> <r_i_glide_hbond>
-0.657168821941068

> <r_i_glide_metal>
0

> <r_i_glide_rewards>
-3.07939072543691

> <r_i_glide_evdw>
-35.1831703186035

> <r_i_glide_ecoul>
-7.21966171264648

> <r_i_glide_erotb>
0.257506210144981

> <r_i_glide_esite>
0

> <r_i_glide_emodel>
-65.1280873904553

> <r_i_glide_energy>
-42.40283203125

> <r_i_glide_einternal>
0.677519381046295

> <i_i_glide_confnum>
39

> <i_i_glide_posenum>
119

> <r_i_glide_eff_state_penalty>
0

> <s_user_duplicate_titles>
CHEMBL267_lig1937

> <i_f3d_flags>
0

> <s_m_subgroup_title>
dock_pv

> <s_m_subgroupid>
dock_pv

> <b_m_subgroup_collapsed>
1

$$$$
CHEMBL267_lig250
                    3D
 Schrodinger Suite 2021-1.
 31 33  0  0  1  0            999 V2000
    4.0078    8.4304    7.1445 N   0  0  0  0  0  0
    3.2224    6.8874    8.8012 C   0  0  0  0  0  0
    5.3058    7.8346    7.1726 C   0  0  0  0  0  0
    2.9596    8.0636    7.9575 C   0  0  0  0  0  0
    6.3177    8.3702    6.4303 N   0  0  0  0  0  0
    5.5182    6.7135    7.9879 C   0  0  0  0  0  0
    4.4055    6.2368    8.7924 C   0  0  0  0  0  0
    2.1764    6.4189    9.7366 C   0  0  0  0  0  0
    7.5130    7.7360    6.5015 C   0  0  0  0  0  0
    7.7981    6.6369    7.2400 N   0  0  0  0  0  0
    6.7844    6.1323    7.9879 C   0  0  0  0  0  0
    1.8710    8.6485    7.9830 O   0  0  0  0  0  0
    1.0266    5.7545    9.2695 C   0  0  0  0  0  0
    2.3233    6.6371   11.1194 C   0  0  0  0  0  0
    3.7930    9.5443    6.1973 C   0  0  0  0  0  0
    8.5370    8.2393    5.7246 N   0  0  0  0  0  0
    0.7799    5.4374    7.5885 Cl  0  0  0  0  0  0
    3.7324    7.4116   11.7812 Cl  0  0  0  0  0  0
    0.1789    5.5979   11.5231 C   0  0  0  0  0  0
    1.3182    6.2372   11.9964 C   0  0  0  0  0  0
    0.0391    5.3468   10.1629 C   0  0  0  0  0  0
    4.5463    5.3912    9.4491 H   0  0  0  0  0  0
    7.0015    5.2601    8.5887 H   0  0  0  0  0  0
    2.7932    9.9793    6.2360 H   0  0  0  0  0  0
    4.5034   10.3496    6.3850 H   0  0  0  0  0  0
    3.9532    9.1957    5.1762 H   0  0  0  0  0  0
    8.3430    9.0237    5.1253 H   0  0  0  0  0  0
    9.3562    7.6503    5.5886 H   0  0  0  0  0  0
   -0.6083    5.3117   12.2054 H   0  0  0  0  0  0
    1.4231    6.4275   13.0544 H   0  0  0  0  0  0
   -0.8550    4.8592    9.7990 H   0  0  0  0  0  0
  1  3  1  0  0  0
  1  4  1  0  0  0
  1 15  1  0  0  0
  2  4  1  0  0  0
  2  7  2  0  0  0
  2  8  1  0  0  0
  3  5  2  0  0  0
  3  6  1  0  0  0
  4 12  2  0  0  0
  5  9  1  0  0  0
  6 11  2  0  0  0
  6  7  1  0  0  0
  7 22  1  0  0  0
  8 13  2  0  0  0
  8 14  1  0  0  0
  9 16  1  0  0  0
  9 10  2  0  0  0
 10 11  1  0  0  0
 11 23  1  0  0  0
 13 17  1  0  0  0
 13 21  1  0  0  0
 14 18  1  0  0  0
 14 20  2  0  0  0
 15 24  1  0  0  0
 15 25  1  0  0  0
 15 26  1  0  0  0
 16 27  1  0  0  0
 16 28  1  0  0  0
 19 20  1  0  0  0
 19 21  2  0  0  0
 19 29  1  0  0  0
 20 30  1  0  0  0
 21 31  1  0  0  0
M  END
> <s_m_entry_id>
31788

> <s_m_entry_name>
dock_pv.51

> <s_m_Source_Path>
/home/csk/Desktop/cluster/DUD-E-result/src

> <s_m_Source_File>
dock_pv.maegz

> <i_m_Source_File_Index>
51

> <chembl_id>
CHEMBL49596

> <chembl_pref_name>
None

> <i_lp_mmshare_version>
53161

> <r_lp_tautomer_probability>
1

> <s_lp_Force_Field>
OPLS_2005

> <r_lp_Energy>
20.723167

> <b_lp_Chiralities_Consistent>
1

> <s_lp_Variant>
CHEMBL267_lig250-1

> <s_i_glide_gridfile>
glide-grid_3el8

> <i_i_glide_lignum>
308

> <i_i_glide_rotatable_bonds>
1

> <r_i_docking_score>
-8.76678541778612

> <r_i_glide_ligand_efficiency>
-0.41746597227553

> <r_i_glide_ligand_efficiency_sa>
-1.15175696255856

> <r_i_glide_ligand_efficiency_ln>
-2.16756997958967

> <r_i_glide_gscore>
-8.76678541778612

> <r_i_glide_lipo>
-2.46759696244727

> <r_i_glide_hbond>
-0.52914974338773

> <r_i_glide_metal>
0

> <r_i_glide_rewards>
-3.19411126263984

> <r_i_glide_evdw>
-33.7507209777832

> <r_i_glide_ecoul>
-6.76789283752441

> <r_i_glide_erotb>
0.126792525206531

> <r_i_glide_esite>
0

> <r_i_glide_emodel>
-60.7890786529416

> <r_i_glide_energy>
-40.5186138153076

> <r_i_glide_einternal>
1.34090280532837

> <i_i_glide_confnum>
2

> <i_i_glide_posenum>
134

> <r_i_glide_eff_state_penalty>
0

> <s_user_duplicate_titles>
CHEMBL267_lig250,74866

> <i_f3d_flags>
0

> <s_m_subgroup_title>
dock_pv

> <s_m_subgroupid>
dock_pv

> <b_m_subgroup_collapsed>
1

$$$$
CHEMBL267_lig1447
                    3D
 Schrodinger Suite 2021-1.
 41 44  0  0  1  0            999 V2000
    7.7980    6.2372    7.5802 N   0  0  0  0  0  0
    6.6106    5.8315    8.0954 C   0  0  0  0  0  0
    5.4837    6.6536    8.1224 C   0  0  0  0  0  0
    5.6239    7.9205    7.5284 C   0  0  0  0  0  0
    6.7872    8.3466    6.9709 N   0  0  0  0  0  0
    7.8257    7.4764    7.0293 C   0  0  0  0  0  0
    4.3346    6.1964    8.7864 N   0  0  0  0  0  0
    3.0776    6.6442    8.6168 C   0  0  0  0  0  0
    2.0780    6.1199    9.5978 C   0  0  0  0  0  0
    2.7107    7.4327    7.7448 O   0  0  0  0  0  0
    1.0422    5.2556    9.2275 C   0  0  0  0  0  0
   -0.0251    4.8927   10.0617 C   0  0  0  0  0  0
   -0.0699    5.4372   11.3554 C   0  0  0  0  0  0
    0.9985    6.2355   11.7813 C   0  0  0  0  0  0
    2.0703    6.5454   10.9384 C   0  0  0  0  0  0
    0.9162    4.6367    8.0262 O   0  0  0  0  0  0
   -0.2021    3.8023    8.0862 N   0  0  0  0  0  0
   -0.7958    4.0016    9.2386 C   0  0  0  0  0  0
    3.3988    7.4370   11.6094 Cl  0  0  0  0  0  0
   -2.0028    3.4370    9.5880 N   0  0  0  0  0  0
   -2.5528    2.1980    9.1883 C   0  0  0  0  0  0
   -3.8604    1.8989    9.5880 C   0  0  0  0  0  0
   -4.4060    0.6364    9.3511 C   0  0  0  0  0  0
   -3.6251   -0.3704    8.7880 C   0  0  0  0  0  0
   -2.3090   -0.1062    8.3939 C   0  0  0  0  0  0
   -1.7937    1.1869    8.5730 C   0  0  0  0  0  0
   -1.4542   -1.2350    7.8269 C   0  0  0  0  0  0
   -0.2005   -0.8520    7.5882 F   0  0  0  0  0  0
   -1.4161   -2.2332    8.7099 F   0  0  0  0  0  0
   -1.9843   -1.6836    6.6886 F   0  0  0  0  0  0
    6.5962    4.8426    8.5304 H   0  0  0  0  0  0
    4.8167    8.6355    7.5103 H   0  0  0  0  0  0
    8.7599    7.7971    6.5890 H   0  0  0  0  0  0
    4.4707    5.4864    9.4935 H   0  0  0  0  0  0
   -0.8891    5.2117   12.0235 H   0  0  0  0  0  0
    1.0015    6.6067   12.7954 H   0  0  0  0  0  0
   -2.6140    3.9776   10.1819 H   0  0  0  0  0  0
   -4.4714    2.6371   10.0801 H   0  0  0  0  0  0
   -5.4339    0.4348    9.6043 H   0  0  0  0  0  0
   -4.0507   -1.3517    8.6376 H   0  0  0  0  0  0
   -0.7649    1.3715    8.3092 H   0  0  0  0  0  0
  1  2  2  0  0  0
  1  6  1  0  0  0
  2  3  1  0  0  0
  2 31  1  0  0  0
  3  4  2  0  0  0
  3  7  1  0  0  0
  4  5  1  0  0  0
  4 32  1  0  0  0
  5  6  2  0  0  0
  6 33  1  0  0  0
  7  8  1  0  0  0
  7 34  1  0  0  0
  8  9  1  0  0  0
  8 10  2  0  0  0
  9 11  2  0  0  0
  9 15  1  0  0  0
 11 12  1  0  0  0
 11 16  1  0  0  0
 12 13  2  0  0  0
 12 18  1  0  0  0
 13 14  1  0  0  0
 13 35  1  0  0  0
 14 15  2  0  0  0
 14 36  1  0  0  0
 15 19  1  0  0  0
 16 17  1  0  0  0
 17 18  2  0  0  0
 18 20  1  0  0  0
 20 21  1  0  0  0
 20 37  1  0  0  0
 21 22  2  0  0  0
 21 26  1  0  0  0
 22 23  1  0  0  0
 22 38  1  0  0  0
 23 24  2  0  0  0
 23 39  1  0  0  0
 24 25  1  0  0  0
 24 40  1  0  0  0
 25 26  2  0  0  0
 25 27  1  0  0  0
 26 41  1  0  0  0
 27 28  1  0  0  0
 27 29  1  0  0  0
 27 30  1  0  0  0
M  END
> <s_m_entry_id>
31789

> <s_m_entry_name>
dock_pv.52

> <s_m_Source_Path>
/home/csk/Desktop/cluster/DUD-E-result/src

> <s_m_Source_File>
dock_pv.maegz

> <i_m_Source_File_Index>
52

> <chembl_id>
CHEMBL491429

> <chembl_pref_name>
None

> <i_lp_mmshare_version>
53161

> <r_lp_tautomer_probability>
1

> <s_lp_Force_Field>
OPLS_2005

> <r_lp_Energy>
28.047512

> <b_lp_Chiralities_Consistent>
1

> <s_lp_Variant>
CHEMBL267_lig1447-1

> <s_i_glide_gridfile>
glide-grid_3el8

> <i_i_glide_lignum>
1615

> <i_i_glide_rotatable_bonds>
6

> <r_i_docking_score>
-8.75741501433565

> <r_i_glide_ligand_efficiency>
-0.291913833811188

> <r_i_glide_ligand_efficiency_sa>
-0.907044152327392

> <r_i_glide_ligand_efficiency_ln>
-1.98978011093616

> <r_i_glide_gscore>
-8.75741501433565

> <r_i_glide_lipo>
-2.97710448189126

> <r_i_glide_hbond>
-0.465567350104042

> <r_i_glide_metal>
0

> <r_i_glide_rewards>
-2.97275299906322

> <r_i_glide_evdw>
-45.5092849731445

> <r_i_glide_ecoul>
-3.97070240974426

> <r_i_glide_erotb>
0.529079426841731

> <r_i_glide_esite>
0

> <r_i_glide_emodel>
-70.598117710523

> <r_i_glide_energy>
-49.4799873828888

> <r_i_glide_einternal>
8.96970653533936

> <i_i_glide_confnum>
3

> <i_i_glide_posenum>
19

> <r_i_glide_eff_state_penalty>
0

> <s_user_duplicate_titles>
CHEMBL267_lig1447,492347

> <i_f3d_flags>
0

> <s_m_subgroup_title>
dock_pv

> <s_m_subgroupid>
dock_pv

> <b_m_subgroup_collapsed>
1

$$$$
CHEMBL267_lig1897
                    3D
 Schrodinger Suite 2021-1.
 46 49  0  0  1  0            999 V2000
    7.6965    6.4525    7.5889 N   0  0  0  0  0  0
    8.1489    7.4374    6.7780 C   0  0  0  0  0  0
    7.4201    8.4019    6.1627 N   0  0  0  0  0  0
    6.3750    6.4685    7.9014 C   0  0  0  0  0  0
    5.5184    7.4398    7.3524 C   0  0  0  0  0  0
    6.1162    8.3555    6.4634 C   0  0  0  0  0  0
    5.0814    9.1409    5.9753 N   0  0  0  0  0  0
    3.8965    8.7656    6.5074 N   0  0  0  0  0  0
    4.1346    7.8032    7.3689 C   0  0  0  0  0  0
    3.0638    7.1967    8.1888 C   0  0  0  0  0  0
    3.1774    7.1916    9.5801 C   0  0  0  0  0  0
    2.1981    6.5898   10.3683 C   0  0  0  0  0  0
    1.1077    5.9394    9.7708 C   0  0  0  0  0  0
    0.9983    5.9576    8.3700 C   0  0  0  0  0  0
    1.9606    6.5904    7.5877 C   0  0  0  0  0  0
    5.8911    5.4369    8.6925 N   0  0  0  0  0  0
    2.3295    6.6367   11.7329 O   0  0  0  0  0  0
    0.1982    5.3055   10.5983 O   0  0  0  0  0  0
   -0.7952    4.4682   10.0193 C   0  0  0  0  0  0
    5.1200   10.2285    4.9902 C   0  0  2  0  0  0
    5.4966    9.7419    3.5828 C   0  0  0  0  0  0
    6.2064   10.9400    2.9483 C   0  0  0  0  0  0
    7.0002   11.5824    4.0956 C   0  0  1  0  0  0
    6.1387   11.3330    5.3510 C   0  0  0  0  0  0
    8.4349   11.0360    4.2213 C   0  0  0  0  0  0
    9.2074    7.4375    6.5656 H   0  0  0  0  0  0
    4.0275    7.6657   10.0476 H   0  0  0  0  0  0
    0.1748    5.4782    7.8631 H   0  0  0  0  0  0
    1.8653    6.5799    6.5115 H   0  0  0  0  0  0
    4.9112    5.4020    8.9362 H   0  0  0  0  0  0
    6.5448    4.7421    9.0343 H   0  0  0  0  0  0
    3.2127    6.8673   12.0293 H   0  0  0  0  0  0
   -1.4438    4.0684   10.7985 H   0  0  0  0  0  0
   -1.4268    5.0136    9.3207 H   0  0  0  0  0  0
   -0.3420    3.6217    9.5012 H   0  0  0  0  0  0
    4.1259   10.6805    4.9663 H   0  0  0  0  0  0
    6.1981    8.9083    3.6289 H   0  0  0  0  0  0
    4.6309    9.4185    3.0042 H   0  0  0  0  0  0
    6.8443   10.6382    2.1166 H   0  0  0  0  0  0
    5.4776   11.6465    2.5485 H   0  0  0  0  0  0
    7.0671   12.6567    3.9224 H   0  0  0  0  0  0
    5.6202   12.2490    5.6451 H   0  0  0  0  0  0
    6.7609   11.0562    6.2038 H   0  0  0  0  0  0
    8.4454    9.9536    4.3229 H   0  0  0  0  0  0
    9.0275   11.2815    3.3386 H   0  0  0  0  0  0
    8.9526   11.4367    5.0939 H   0  0  0  0  0  0
  1  2  2  0  0  0
  1  4  1  0  0  0
  2  3  1  0  0  0
  2 26  1  0  0  0
  3  6  2  0  0  0
  4  5  2  0  0  0
  4 16  1  0  0  0
  5  9  1  0  0  0
  5  6  1  0  0  0
  6  7  1  0  0  0
  7  8  1  0  0  0
  7 20  1  0  0  0
  8  9  2  0  0  0
  9 10  1  0  0  0
 10 15  1  0  0  0
 10 11  2  0  0  0
 11 12  1  0  0  0
 11 27  1  0  0  0
 12 13  2  0  0  0
 12 17  1  0  0  0
 13 14  1  0  0  0
 13 18  1  0  0  0
 14 15  2  0  0  0
 14 28  1  0  0  0
 15 29  1  0  0  0
 16 30  1  0  0  0
 16 31  1  0  0  0
 17 32  1  0  0  0
 18 19  1  0  0  0
 19 33  1  0  0  0
 19 34  1  0  0  0
 19 35  1  0  0  0
 20 21  1  0  0  0
 20 24  1  0  0  0
 20 36  1  0  0  0
 21 22  1  0  0  0
 21 37  1  0  0  0
 21 38  1  0  0  0
 22 23  1  0  0  0
 22 39  1  0  0  0
 22 40  1  0  0  0
 23 24  1  0  0  0
 23 25  1  0  0  0
 23 41  1  0  0  0
 24 42  1  0  0  0
 24 43  1  0  0  0
 25 44  1  0  0  0
 25 45  1  0  0  0
 25 46  1  0  0  0
M  END
> <s_m_entry_id>
31790

> <s_m_entry_name>
dock_pv.53

> <s_m_Source_Path>
/home/csk/Desktop/cluster/DUD-E-result/src

> <s_m_Source_File>
dock_pv.maegz

> <i_m_Source_File_Index>
53

> <chembl_id>
CHEMBL1242202

> <chembl_pref_name>
None

> <i_lp_mmshare_version>
53161

> <r_lp_tautomer_probability>
0.999999999999776

> <s_lp_Force_Field>
OPLS_2005

> <r_lp_Energy>
34.318355

> <b_lp_Chiralities_Consistent>
1

> <s_lp_Variant>
CHEMBL267_lig1897-3

> <s_i_glide_gridfile>
glide-grid_3el8

> <i_i_glide_lignum>
2171

> <i_i_glide_rotatable_bonds>
4

> <r_i_docking_score>
-8.75232511710623

> <r_i_glide_ligand_efficiency>
-0.350093004684249

> <r_i_glide_ligand_efficiency_sa>
-1.02367815462262

> <r_i_glide_ligand_efficiency_ln>
-2.07456333877275

> <r_i_glide_gscore>
-8.75232511710623

> <r_i_glide_lipo>
-2.58185155281894

> <r_i_glide_hbond>
-0.552248266714268

> <r_i_glide_metal>
0

> <r_i_glide_rewards>
-3.03285632653872

> <r_i_glide_evdw>
-38.2991638183594

> <r_i_glide_ecoul>
-6.00278568267822

> <r_i_glide_erotb>
0.23000707228539

> <r_i_glide_esite>
0

> <r_i_glide_emodel>
-65.2693056981676

> <r_i_glide_energy>
-44.3019495010376

> <r_i_glide_einternal>
3.95220065116882

> <i_i_glide_confnum>
9

> <i_i_glide_posenum>
96

> <r_i_glide_eff_state_penalty>
0

> <s_user_duplicate_titles>
CHEMBL267_lig1897

> <i_f3d_flags>
0

> <s_m_subgroup_title>
dock_pv

> <s_m_subgroupid>
dock_pv

> <b_m_subgroup_collapsed>
1

$$$$
CHEMBL267_lig214
                    3D
 Schrodinger Suite 2021-1.
 32 34  0  0  1  0            999 V2000
    3.1921    6.8842    8.8341 C   0  0  0  0  0  0
    2.8990    8.0586    8.0008 C   0  0  0  0  0  0
    3.9147    8.4108    7.1437 N   0  0  0  0  0  0
    5.2356    7.8625    7.1719 C   0  0  0  0  0  0
    4.3834    6.2509    8.8024 C   0  0  0  0  0  0
    5.4828    6.7423    7.9821 C   0  0  0  0  0  0
    2.1573    6.4080    9.7772 C   0  0  0  0  0  0
    6.3018    8.3754    6.4166 C   0  0  0  0  0  0
    7.7813    6.6520    7.2540 N   0  0  0  0  0  0
    7.5433    7.7491    6.4966 C   0  0  0  0  0  0
    1.8132    8.6468    8.0647 O   0  0  0  0  0  0
    6.7513    6.1610    7.9880 C   0  0  0  0  0  0
    1.0050    5.7442    9.3163 C   0  0  0  0  0  0
    2.3100    6.6370   11.1572 C   0  0  0  0  0  0
    3.6553    9.5067    6.1878 C   0  0  0  0  0  0
    8.5980    8.2370    5.7483 N   0  0  0  0  0  0
    0.7441    5.4371    7.6324 Cl  0  0  0  0  0  0
    3.7228    7.4140   11.8085 Cl  0  0  0  0  0  0
    0.1679    5.5988   11.5756 C   0  0  0  0  0  0
    1.3104    6.2389   12.0410 C   0  0  0  0  0  0
    0.0216    5.3393   10.2172 C   0  0  0  0  0  0
    4.5434    5.4029    9.4500 H   0  0  0  0  0  0
    6.1828    9.2378    5.7793 H   0  0  0  0  0  0
    6.9645    5.2933    8.5972 H   0  0  0  0  0  0
    2.6264    9.8691    6.1927 H   0  0  0  0  0  0
    4.2997   10.3632    6.3877 H   0  0  0  0  0  0
    3.8603    9.1635    5.1731 H   0  0  0  0  0  0
    8.4395    9.0159    5.1300 H   0  0  0  0  0  0
    9.3844    7.6087    5.5929 H   0  0  0  0  0  0
   -0.6192    5.3225   12.2625 H   0  0  0  0  0  0
    1.4198    6.4389   13.0971 H   0  0  0  0  0  0
   -0.8741    4.8509    9.8614 H   0  0  0  0  0  0
  1  2  1  0  0  0
  1  5  2  0  0  0
  1  7  1  0  0  0
  2  3  1  0  0  0
  2 11  2  0  0  0
  3 15  1  0  0  0
  3  4  1  0  0  0
  4  6  1  0  0  0
  4  8  2  0  0  0
  5  6  1  0  0  0
  5 22  1  0  0  0
  6 12  2  0  0  0
  7 13  1  0  0  0
  7 14  2  0  0  0
  8 10  1  0  0  0
  8 23  1  0  0  0
  9 12  1  0  0  0
  9 10  2  0  0  0
 10 16  1  0  0  0
 12 24  1  0  0  0
 13 17  1  0  0  0
 13 21  2  0  0  0
 14 18  1  0  0  0
 14 20  1  0  0  0
 15 25  1  0  0  0
 15 26  1  0  0  0
 15 27  1  0  0  0
 16 28  1  0  0  0
 16 29  1  0  0  0
 19 20  2  0  0  0
 19 21  1  0  0  0
 19 30  1  0  0  0
 20 31  1  0  0  0
 21 32  1  0  0  0
M  END
> <s_m_entry_id>
31791

> <s_m_entry_name>
dock_pv.54

> <s_m_Source_Path>
/home/csk/Desktop/cluster/DUD-E-result/src

> <s_m_Source_File>
dock_pv.maegz

> <i_m_Source_File_Index>
54

> <chembl_id>
CHEMBL108004

> <chembl_pref_name>
None

> <i_lp_mmshare_version>
53161

> <r_lp_tautomer_probability>
1

> <s_lp_Force_Field>
OPLS_2005

> <r_lp_Energy>
29.402925

> <b_lp_Chiralities_Consistent>
1

> <s_lp_Variant>
CHEMBL267_lig214-1

> <s_i_glide_gridfile>
glide-grid_3el8

> <i_i_glide_lignum>
269

> <i_i_glide_rotatable_bonds>
1

> <r_i_docking_score>
-8.75175782055026

> <r_i_glide_ligand_efficiency>
-0.416750372407155

> <r_i_glide_ligand_efficiency_sa>
-1.14978267678309

> <r_i_glide_ligand_efficiency_ln>
-2.16385443653922

> <r_i_glide_gscore>
-8.75175782055026

> <r_i_glide_lipo>
-3.30951967858814

> <r_i_glide_hbond>
-0.514145332158815

> <r_i_glide_metal>
0

> <r_i_glide_rewards>
-2.43908004245075

> <r_i_glide_evdw>
-33.3091430664062

> <r_i_glide_ecoul>
-6.340256690979

> <r_i_glide_erotb>
0.127482889614612

> <r_i_glide_esite>
0

> <r_i_glide_emodel>
-59.4306551932228

> <r_i_glide_energy>
-39.6493997573853

> <r_i_glide_einternal>
1.22435295581818

> <i_i_glide_confnum>
2

> <i_i_glide_posenum>
241

> <r_i_glide_eff_state_penalty>
0

> <s_user_duplicate_titles>
CHEMBL267_lig214,174682

> <i_f3d_flags>
0

> <s_m_subgroup_title>
dock_pv

> <s_m_subgroupid>
dock_pv

> <b_m_subgroup_collapsed>
1

$$$$
CHEMBL267_lig3079
                    3D
 Schrodinger Suite 2021-1.
 45 49  0  0  1  0            999 V2000
   11.1908   10.2372    4.1016 C   0  0  0  0  0  0
   10.8205   11.3237    3.3154 C   0  0  0  0  0  0
    9.4899   11.7320    3.2525 C   0  0  0  0  0  0
   10.2407    9.5375    4.8395 C   0  0  0  0  0  0
    8.8671    9.9172    4.7880 C   0  0  0  0  0  0
    8.4966   11.0347    3.9802 C   0  0  0  0  0  0
    7.2014   11.4270    3.8566 N   0  0  0  0  0  0
    6.2586   10.7091    4.5113 C   0  0  0  0  0  0
    6.4992    9.6423    5.3208 N   0  0  0  0  0  0
    7.7980    9.2538    5.4674 C   0  0  0  0  0  0
    4.5939   11.2743    4.2051 S   0  0  0  0  0  0
    3.4971   10.0138    4.7917 C   0  0  0  0  0  0
    3.5225    9.6393    6.1253 C   0  0  0  0  0  0
    2.7245    8.6146    6.6136 C   0  0  0  0  0  0
    2.5677    9.4388    3.9292 C   0  0  0  0  0  0
    8.1124    8.1570    6.2958 N   0  0  0  0  0  0
    7.3175    7.3679    7.0856 C   0  0  0  0  0  0
    6.0067    7.5499    7.5332 C   0  0  0  0  0  0
    5.6251    6.3879    8.1731 C   0  0  0  0  0  0
    6.7619    5.6261    8.1386 N   0  0  0  0  0  0
    7.7979    6.2370    7.5490 N   0  0  0  0  0  0
    4.3267    5.9318    8.7880 C   0  0  0  0  0  0
    1.7064    8.4138    4.3989 C   0  0  0  0  0  0
    1.8240    7.9609    5.7498 C   0  0  0  0  0  0
    1.0367    6.8729    6.1889 C   0  0  0  0  0  0
    0.1393    6.2736    5.3156 C   0  0  0  0  0  0
   -0.0399    6.7619    4.0304 C   0  0  0  0  0  0
    0.7337    7.8193    3.5666 C   0  0  0  0  0  0
   12.2265    9.9306    4.1395 H   0  0  0  0  0  0
   11.5725   11.8542    2.7492 H   0  0  0  0  0  0
    9.2049   12.5726    2.6354 H   0  0  0  0  0  0
   10.5555    8.6945    5.4393 H   0  0  0  0  0  0
    4.1980   10.1384    6.7879 H   0  0  0  0  0  0
    2.7960    8.3107    7.6484 H   0  0  0  0  0  0
    2.5032    9.7591    2.8989 H   0  0  0  0  0  0
    9.0820    7.8910    6.2079 H   0  0  0  0  0  0
    5.3945    8.4106    7.3580 H   0  0  0  0  0  0
    6.8573    4.7190    8.5799 H   0  0  0  0  0  0
    4.0237    6.5814    9.6073 H   0  0  0  0  0  0
    4.3847    4.9198    9.1878 H   0  0  0  0  0  0
    3.5211    5.9359    8.0554 H   0  0  0  0  0  0
    1.1352    6.5090    7.2011 H   0  0  0  0  0  0
   -0.4618    5.4433    5.6508 H   0  0  0  0  0  0
   -0.7946    6.3183    3.4005 H   0  0  0  0  0  0
    0.5919    8.1978    2.5677 H   0  0  0  0  0  0
  1  2  2  0  0  0
  1  4  1  0  0  0
  1 29  1  0  0  0
  2  3  1  0  0  0
  2 30  1  0  0  0
  3  6  2  0  0  0
  3 31  1  0  0  0
  4  5  2  0  0  0
  4 32  1  0  0  0
  5 10  1  0  0  0
  5  6  1  0  0  0
  6  7  1  0  0  0
  7  8  2  0  0  0
  8  9  1  0  0  0
  8 11  1  0  0  0
  9 10  2  0  0  0
 10 16  1  0  0  0
 11 12  1  0  0  0
 12 15  1  0  0  0
 12 13  2  0  0  0
 13 14  1  0  0  0
 13 33  1  0  0  0
 14 24  2  0  0  0
 14 34  1  0  0  0
 15 23  2  0  0  0
 15 35  1  0  0  0
 16 17  1  0  0  0
 16 36  1  0  0  0
 17 18  1  0  0  0
 17 21  2  0  0  0
 18 19  2  0  0  0
 18 37  1  0  0  0
 19 20  1  0  0  0
 19 22  1  0  0  0
 20 21  1  0  0  0
 20 38  1  0  0  0
 22 39  1  0  0  0
 22 40  1  0  0  0
 22 41  1  0  0  0
 23 24  1  0  0  0
 23 28  1  0  0  0
 24 25  1  0  0  0
 25 26  2  0  0  0
 25 42  1  0  0  0
 26 27  1  0  0  0
 26 43  1  0  0  0
 27 28  2  0  0  0
 27 44  1  0  0  0
 28 45  1  0  0  0
M  END
> <s_m_entry_id>
31792

> <s_m_entry_name>
dock_pv.55

> <s_m_Source_Path>
/home/csk/Desktop/cluster/DUD-E-result/src

> <s_m_Source_File>
dock_pv.maegz

> <i_m_Source_File_Index>
55

> <chembl_id>
CHEMBL559900

> <chembl_pref_name>
None

> <i_lp_mmshare_version>
53161

> <r_lp_tautomer_probability>
0.842584379834229

> <s_lp_Force_Field>
OPLS_2005

> <r_lp_Energy>
15.134599

> <b_lp_Chiralities_Consistent>
1

> <s_lp_Variant>
CHEMBL267_lig3079-1

> <s_i_glide_gridfile>
glide-grid_3el8

> <i_i_glide_lignum>
3546

> <i_i_glide_rotatable_bonds>
4

> <r_i_docking_score>
-8.74347169910732

> <r_i_glide_ligand_efficiency>
-0.31226684639669

> <r_i_glide_ligand_efficiency_sa>
-0.948226060997352

> <r_i_glide_ligand_efficiency_ln>
-2.01824998763821

> <r_i_glide_gscore>
-8.74347169910732

> <r_i_glide_lipo>
-3.40432430120055

> <r_i_glide_hbond>
-0.641993720160518

> <r_i_glide_metal>
0

> <r_i_glide_rewards>
-2.09413464622266

> <r_i_glide_evdw>
-37.5609817504883

> <r_i_glide_ecoul>
-7.29992294311523

> <r_i_glide_erotb>
0.370018497468116

> <r_i_glide_esite>
0

> <r_i_glide_emodel>
-69.0037938559047

> <r_i_glide_energy>
-44.8609046936035

> <r_i_glide_einternal>
1.56218457221985

> <i_i_glide_confnum>
1

> <i_i_glide_posenum>
194

> <r_i_glide_eff_state_penalty>
0

> <s_user_duplicate_titles>
CHEMBL267_lig3079,CHEMBL267_lig3079

> <i_f3d_flags>
0

> <s_m_subgroup_title>
dock_pv

> <s_m_subgroupid>
dock_pv

> <b_m_subgroup_collapsed>
1

$$$$
CHEMBL267_lig1499
                    3D
 Schrodinger Suite 2021-1.
 53 56  0  0  1  0            999 V2000
    8.1491    7.0338    6.9313 N   0  0  0  0  0  0
    7.3414    6.3406    7.7645 C   0  0  0  0  0  0
    6.0216    6.5364    7.9882 N   0  0  0  0  0  0
    7.5656    7.9851    6.1680 C   0  0  0  0  0  0
    6.1845    8.2656    6.2568 C   0  0  0  0  0  0
    5.4766    7.4969    7.2276 C   0  0  0  0  0  0
    4.1423    7.8881    7.2064 N   0  0  0  0  0  0
    4.0115    8.8376    6.2124 C   0  0  0  0  0  0
    5.2235    9.1221    5.6121 C   0  0  0  0  0  0
    5.4523   10.1184    4.5392 C   0  0  0  0  0  0
    4.6960   10.0851    3.3638 C   0  0  0  0  0  0
    4.9316   11.0255    2.3605 C   0  0  0  0  0  0
    5.9107   11.9972    2.5487 C   0  0  0  0  0  0
    6.6573   12.0404    3.7208 C   0  0  0  0  0  0
    6.4327   11.0927    4.7159 C   0  0  0  0  0  0
    3.0989    7.4334    8.0434 C   0  0  0  0  0  0
    3.3506    7.1622    9.3941 C   0  0  0  0  0  0
    2.3526    6.6139   10.1900 C   0  0  0  0  0  0
    1.1092    6.3142    9.6422 C   0  0  0  0  0  0
    0.8427    6.6200    8.3006 C   0  0  0  0  0  0
    1.8373    7.1719    7.4990 C   0  0  0  0  0  0
    8.3970    8.6400    5.2701 N   0  0  0  0  0  0
    0.1854    5.7182   10.4704 O   0  0  0  0  0  0
   -0.6727    4.7205    9.9157 C   0  0  0  0  0  0
    0.1275    3.5569    9.3007 C   0  0  0  0  0  0
   -0.7743    2.5409    8.7809 N   0  0  1  0  0  0
   -0.0170    1.3380    8.4587 C   0  0  0  0  0  0
   -0.9698    0.1692    8.1819 C   0  0  0  0  0  0
   -0.2020   -0.9975    7.9879 O   0  0  0  0  0  0
    6.1490   12.9237    1.5760 O   0  0  0  0  0  0
    7.7977    5.5626    8.3577 H   0  0  0  0  0  0
    3.0429    9.2799    6.0300 H   0  0  0  0  0  0
    3.9325    9.3326    3.2272 H   0  0  0  0  0  0
    4.3486   11.0057    1.4530 H   0  0  0  0  0  0
    7.4055   12.8062    3.8597 H   0  0  0  0  0  0
    7.0037   11.1247    5.6315 H   0  0  0  0  0  0
    4.3185    7.3532    9.8331 H   0  0  0  0  0  0
    2.5562    6.3816   11.2256 H   0  0  0  0  0  0
   -0.1225    6.4079    7.8655 H   0  0  0  0  0  0
    1.6265    7.3560    6.4555 H   0  0  0  0  0  0
    8.0106    9.3424    4.6604 H   0  0  0  0  0  0
    9.3570    8.3308    5.2007 H   0  0  0  0  0  0
   -1.3628    5.1514    9.1884 H   0  0  0  0  0  0
   -1.3018    4.3483   10.7257 H   0  0  0  0  0  0
    0.7695    3.1423   10.0795 H   0  0  0  0  0  0
    0.7696    3.9087    8.4926 H   0  0  0  0  0  0
   -1.4995    2.3291    9.4551 H   0  0  0  0  0  0
    0.6227    1.0768    9.3055 H   0  0  0  0  0  0
    0.5977    1.5526    7.5883 H   0  0  0  0  0  0
   -1.5941    0.3585    7.3065 H   0  0  0  0  0  0
   -1.6409    0.0113    9.0286 H   0  0  0  0  0  0
    0.3981   -1.1036    8.7359 H   0  0  0  0  0  0
    5.7984   12.6998    0.7000 H   0  0  0  0  0  0
  1  4  1  0  0  0
  1  2  2  0  0  0
  2  3  1  0  0  0
  2 31  1  0  0  0
  3  6  2  0  0  0
  4  5  2  0  0  0
  4 22  1  0  0  0
  5  9  1  0  0  0
  5  6  1  0  0  0
  6  7  1  0  0  0
  7  8  1  0  0  0
  7 16  1  0  0  0
  8  9  2  0  0  0
  8 32  1  0  0  0
  9 10  1  0  0  0
 10 15  1  0  0  0
 10 11  2  0  0  0
 11 12  1  0  0  0
 11 33  1  0  0  0
 12 13  2  0  0  0
 12 34  1  0  0  0
 13 14  1  0  0  0
 13 30  1  0  0  0
 14 15  2  0  0  0
 14 35  1  0  0  0
 15 36  1  0  0  0
 16 17  2  0  0  0
 16 21  1  0  0  0
 17 18  1  0  0  0
 17 37  1  0  0  0
 18 19  2  0  0  0
 18 38  1  0  0  0
 19 20  1  0  0  0
 19 23  1  0  0  0
 20 21  2  0  0  0
 20 39  1  0  0  0
 21 40  1  0  0  0
 22 41  1  0  0  0
 22 42  1  0  0  0
 23 24  1  0  0  0
 24 25  1  0  0  0
 24 43  1  0  0  0
 24 44  1  0  0  0
 25 26  1  0  0  0
 25 45  1  0  0  0
 25 46  1  0  0  0
 26 27  1  0  0  0
 26 47  1  0  0  0
 27 28  1  0  0  0
 27 48  1  0  0  0
 27 49  1  0  0  0
 28 29  1  0  0  0
 28 50  1  0  0  0
 28 51  1  0  0  0
 29 52  1  0  0  0
 30 53  1  0  0  0
M  END
> <s_m_entry_id>
31793

> <s_m_entry_name>
dock_pv.56

> <s_m_Source_Path>
/home/csk/Desktop/cluster/DUD-E-result/src

> <s_m_Source_File>
dock_pv.maegz

> <i_m_Source_File_Index>
56

> <chembl_id>
CHEMBL473024

> <chembl_pref_name>
None

> <i_lp_mmshare_version>
53161

> <r_lp_tautomer_probability>
0.999999999997365

> <s_lp_Force_Field>
OPLS_2005

> <r_lp_Energy>
30.102166

> <b_lp_Chiralities_Consistent>
1

> <s_lp_Variant>
CHEMBL267_lig1499-1

> <s_i_glide_gridfile>
glide-grid_3el8

> <i_i_glide_lignum>
1680

> <i_i_glide_rotatable_bonds>
10

> <r_i_docking_score>
-8.71650022943977

> <r_i_glide_ligand_efficiency>
-0.290550007647992

> <r_i_glide_ligand_efficiency_sa>
-0.902806427345443

> <r_i_glide_ligand_efficiency_ln>
-1.98048382600553

> <r_i_glide_gscore>
-8.71650022943977

> <r_i_glide_lipo>
-3.24230485192238

> <r_i_glide_hbond>
-0.677101015099644

> <r_i_glide_metal>
0

> <r_i_glide_rewards>
-1.86079708667819

> <r_i_glide_evdw>
-45.7354164123535

> <r_i_glide_ecoul>
-8.79339218139648

> <r_i_glide_erotb>
0.669482372087594

> <r_i_glide_esite>
0

> <r_i_glide_emodel>
-78.6888016570353

> <r_i_glide_energy>
-54.52880859375

> <r_i_glide_einternal>
10.537260055542

> <i_i_glide_confnum>
5

> <i_i_glide_posenum>
75

> <r_i_glide_eff_state_penalty>
0

> <s_user_duplicate_titles>
CHEMBL267_lig1499,460127

> <i_f3d_flags>
0

> <s_m_subgroup_title>
dock_pv

> <s_m_subgroupid>
dock_pv

> <b_m_subgroup_collapsed>
1

$$$$
CHEMBL267_lig1523
                    3D
 Schrodinger Suite 2021-1.
 58 61  0  0  1  0            999 V2000
    7.7977    6.5735    7.5881 N   0  0  0  0  0  0
    8.3291    7.6065    6.9024 C   0  0  0  0  0  0
    7.6665    8.6150    6.2983 N   0  0  0  0  0  0
    6.4524    6.5605    7.7396 C   0  0  0  0  0  0
    5.6316    7.5625    7.1772 C   0  0  0  0  0  0
    6.3334    8.5516    6.4153 C   0  0  0  0  0  0
    5.3986    9.3887    5.8096 N   0  0  0  0  0  0
    4.1538    8.9697    6.2334 C   0  0  0  0  0  0
    4.2242    7.8894    7.1055 C   0  0  0  0  0  0
    3.0536    7.2494    7.7872 C   0  0  0  0  0  0
    1.8349    7.1532    7.1036 C   0  0  0  0  0  0
    0.7379    6.5413    7.7049 C   0  0  0  0  0  0
    0.8633    6.0113    8.9874 C   0  0  0  0  0  0
    2.0695    6.1051    9.6768 C   0  0  0  0  0  0
    3.1616    6.7295    9.0801 C   0  0  0  0  0  0
    5.6193   10.5773    4.9544 C   0  0  1  0  0  0
    5.9428    5.4405    8.3881 N   0  0  0  0  0  0
    7.0549   10.7808    4.4606 C   0  0  0  0  0  0
    6.9390   11.4809    3.1830 N   0  0  0  0  0  0
    5.5487   11.5706    2.7100 C   0  0  1  0  0  0
    4.8157   10.5864    3.6517 C   0  0  0  0  0  0
    4.9900   13.0187    2.7144 C   0  0  0  0  0  0
    8.0446   11.8908    2.4268 C   0  0  0  0  0  0
    7.9871   12.5390    1.3834 O   0  0  0  0  0  0
    9.2092   11.4370    2.9884 O   0  0  0  0  0  0
   10.5395   11.7157    2.5279 C   0  0  0  0  0  0
   10.8623   13.2093    2.7404 C   0  0  0  0  0  0
   10.7866   11.2981    1.0559 C   0  0  0  0  0  0
   11.4341   10.8379    3.4298 C   0  0  0  0  0  0
    4.9985   13.6249    3.9911 O   0  0  0  0  0  0
   -0.2020    5.3963    9.5859 O   0  0  0  0  0  0
    9.4020    7.6092    6.7889 H   0  0  0  0  0  0
    3.2848    9.5192    5.8990 H   0  0  0  0  0  0
    1.7329    7.5500    6.1040 H   0  0  0  0  0  0
   -0.2005    6.4732    7.1706 H   0  0  0  0  0  0
    2.1576    5.7027   10.6781 H   0  0  0  0  0  0
    4.0839    6.8217    9.6402 H   0  0  0  0  0  0
    5.3496   11.4243    5.5864 H   0  0  0  0  0  0
    4.9427    5.3418    8.4971 H   0  0  0  0  0  0
    6.5871    4.7414    8.7360 H   0  0  0  0  0  0
    7.5544    9.8357    4.2625 H   0  0  0  0  0  0
    7.6640   11.3175    5.1878 H   0  0  0  0  0  0
    5.4733   11.2116    1.6831 H   0  0  0  0  0  0
    4.8748    9.5918    3.2025 H   0  0  0  0  0  0
    3.7584   10.8225    3.7740 H   0  0  0  0  0  0
    5.5676   13.6455    2.0357 H   0  0  0  0  0  0
    3.9702   13.0230    2.3334 H   0  0  0  0  0  0
   11.8991   13.4329    2.4941 H   0  0  0  0  0  0
   10.6951   13.5079    3.7748 H   0  0  0  0  0  0
   10.2320   13.8461    2.1199 H   0  0  0  0  0  0
   10.5954   10.2371    0.9022 H   0  0  0  0  0  0
   10.1624   11.8488    0.3527 H   0  0  0  0  0  0
   11.8233   11.4783    0.7677 H   0  0  0  0  0  0
   11.2251    9.7765    3.2814 H   0  0  0  0  0  0
   12.4920   10.9933    3.2193 H   0  0  0  0  0  0
   11.2752   11.0374    4.4907 H   0  0  0  0  0  0
    5.6585   14.3310    4.0031 H   0  0  0  0  0  0
   -1.0225    5.4398    9.0786 H   0  0  0  0  0  0
  1  4  1  0  0  0
  1  2  2  0  0  0
  2  3  1  0  0  0
  2 32  1  0  0  0
  3  6  2  0  0  0
  4  5  2  0  0  0
  4 17  1  0  0  0
  5  9  1  0  0  0
  5  6  1  0  0  0
  6  7  1  0  0  0
  7 16  1  0  0  0
  7  8  1  0  0  0
  8  9  2  0  0  0
  8 33  1  0  0  0
  9 10  1  0  0  0
 10 15  1  0  0  0
 10 11  2  0  0  0
 11 12  1  0  0  0
 11 34  1  0  0  0
 12 13  2  0  0  0
 12 35  1  0  0  0
 13 14  1  0  0  0
 13 31  1  0  0  0
 14 15  2  0  0  0
 14 36  1  0  0  0
 15 37  1  0  0  0
 16 18  1  0  0  0
 16 21  1  0  0  0
 16 38  1  0  0  0
 17 39  1  0  0  0
 17 40  1  0  0  0
 18 19  1  0  0  0
 18 41  1  0  0  0
 18 42  1  0  0  0
 19 20  1  0  0  0
 19 23  1  0  0  0
 20 21  1  0  0  0
 20 22  1  0  0  0
 20 43  1  0  0  0
 21 44  1  0  0  0
 21 45  1  0  0  0
 22 30  1  0  0  0
 22 46  1  0  0  0
 22 47  1  0  0  0
 23 24  2  0  0  0
 23 25  1  0  0  0
 25 26  1  0  0  0
 26 27  1  0  0  0
 26 28  1  0  0  0
 26 29  1  0  0  0
 27 48  1  0  0  0
 27 49  1  0  0  0
 27 50  1  0  0  0
 28 51  1  0  0  0
 28 52  1  0  0  0
 28 53  1  0  0  0
 29 54  1  0  0  0
 29 55  1  0  0  0
 29 56  1  0  0  0
 30 57  1  0  0  0
 31 58  1  0  0  0
M  END
> <s_m_entry_id>
31794

> <s_m_entry_name>
dock_pv.57

> <s_m_Source_Path>
/home/csk/Desktop/cluster/DUD-E-result/src

> <s_m_Source_File>
dock_pv.maegz

> <i_m_Source_File_Index>
57

> <chembl_id>
CHEMBL474825

> <chembl_pref_name>
None

> <i_lp_mmshare_version>
53161

> <r_lp_tautomer_probability>
0.999999999997365

> <s_lp_Force_Field>
OPLS_2005

> <r_lp_Energy>
38.841433

> <b_lp_Chiralities_Consistent>
1

> <s_lp_Variant>
CHEMBL267_lig1523-1

> <s_i_glide_gridfile>
glide-grid_3el8

> <i_i_glide_lignum>
1704

> <i_i_glide_rotatable_bonds>
8

> <r_i_docking_score>
-8.7000970947662

> <r_i_glide_ligand_efficiency>
-0.280648293379555

> <r_i_glide_ligand_efficiency_sa>
-0.881623117940037

> <r_i_glide_ligand_efficiency_ln>
-1.96213852082517

> <r_i_glide_gscore>
-8.7000970947662

> <r_i_glide_lipo>
-2.37013519591918

> <r_i_glide_hbond>
-0.786178407417789

> <r_i_glide_metal>
0

> <r_i_glide_rewards>
-2.64203844428932

> <r_i_glide_evdw>
-40.1424598693848

> <r_i_glide_ecoul>
-8.52100086212158

> <r_i_glide_erotb>
0.383528075647566

> <r_i_glide_esite>
0

> <r_i_glide_emodel>
-70.2423592903437

> <r_i_glide_energy>
-48.6634607315063

> <r_i_glide_einternal>
6.62569856643677

> <i_i_glide_confnum>
20

> <i_i_glide_posenum>
73

> <r_i_glide_eff_state_penalty>
0

> <s_user_duplicate_titles>
CHEMBL267_lig1523,459644

> <i_f3d_flags>
0

> <s_m_subgroup_title>
dock_pv

> <s_m_subgroupid>
dock_pv

> <b_m_subgroup_collapsed>
1

$$$$
CHEMBL267_lig1839
                    3D
 Schrodinger Suite 2021-1.
 39 42  0  0  1  0            999 V2000
    7.4790    6.5765    7.5878 N   0  0  0  0  0  0
    7.7909    7.5497    6.6927 C   0  0  0  0  0  0
    6.9473    8.4472    6.1133 N   0  0  0  0  0  0
    6.1843    6.5087    7.9880 C   0  0  0  0  0  0
    5.2308    7.4283    7.5228 C   0  0  0  0  0  0
    5.6820    8.3405    6.5472 C   0  0  0  0  0  0
    4.5517    9.0369    6.1444 N   0  0  0  0  0  0
    3.4648    8.6540    6.8604 N   0  0  0  0  0  0
    3.8481    7.7361    7.7176 C   0  0  0  0  0  0
    2.9397    7.1605    8.7492 C   0  0  0  0  0  0
    1.7255    6.5315    8.4385 C   0  0  0  0  0  0
    0.9638    5.9490    9.4594 C   0  0  0  0  0  0
    1.3967    6.0074   10.7821 C   0  0  0  0  0  0
    2.5973    6.6370   11.0953 C   0  0  0  0  0  0
    3.3644    7.2077   10.0827 C   0  0  0  0  0  0
    5.8111    5.4369    8.7880 N   0  0  0  0  0  0
   -0.2024    5.2898    9.1873 O   0  0  0  0  0  0
    1.3003    6.4571    7.1537 F   0  0  0  0  0  0
    4.4208   10.1159    5.1563 C   0  0  0  0  0  0
    5.1325   11.4167    5.5855 C   0  0  0  0  0  0
    5.6876   12.0016    4.2844 C   0  0  0  0  0  0
    6.0971   10.7689    3.4783 C   0  0  0  0  0  0
    4.9962    9.7423    3.7689 C   0  0  0  0  0  0
    8.8267    7.6016    6.3876 H   0  0  0  0  0  0
    0.8052    5.5537   11.5646 H   0  0  0  0  0  0
    2.9408    6.6700   12.1195 H   0  0  0  0  0  0
    4.2984    7.6843   10.3401 H   0  0  0  0  0  0
    4.8568    5.3630    9.1119 H   0  0  0  0  0  0
    6.5195    4.7720    9.0754 H   0  0  0  0  0  0
   -0.5514    5.4371    8.3015 H   0  0  0  0  0  0
    3.3483   10.2886    5.0330 H   0  0  0  0  0  0
    4.4637   12.1108    6.0967 H   0  0  0  0  0  0
    5.9734   11.2087    6.2512 H   0  0  0  0  0  0
    4.9102   12.5569    3.7558 H   0  0  0  0  0  0
    6.5214   12.6853    4.4506 H   0  0  0  0  0  0
    6.1973   10.9845    2.4135 H   0  0  0  0  0  0
    7.0606   10.3953    3.8310 H   0  0  0  0  0  0
    5.3704    8.7186    3.7098 H   0  0  0  0  0  0
    4.2120    9.8236    3.0137 H   0  0  0  0  0  0
  1  2  2  0  0  0
  1  4  1  0  0  0
  2  3  1  0  0  0
  2 24  1  0  0  0
  3  6  2  0  0  0
  4  5  2  0  0  0
  4 16  1  0  0  0
  5  9  1  0  0  0
  5  6  1  0  0  0
  6  7  1  0  0  0
  7  8  1  0  0  0
  7 19  1  0  0  0
  8  9  2  0  0  0
  9 10  1  0  0  0
 10 15  1  0  0  0
 10 11  2  0  0  0
 11 12  1  0  0  0
 11 18  1  0  0  0
 12 13  2  0  0  0
 12 17  1  0  0  0
 13 14  1  0  0  0
 13 25  1  0  0  0
 14 15  2  0  0  0
 14 26  1  0  0  0
 15 27  1  0  0  0
 16 28  1  0  0  0
 16 29  1  0  0  0
 17 30  1  0  0  0
 19 20  1  0  0  0
 19 23  1  0  0  0
 19 31  1  0  0  0
 20 21  1  0  0  0
 20 32  1  0  0  0
 20 33  1  0  0  0
 21 22  1  0  0  0
 21 34  1  0  0  0
 21 35  1  0  0  0
 22 23  1  0  0  0
 22 36  1  0  0  0
 22 37  1  0  0  0
 23 38  1  0  0  0
 23 39  1  0  0  0
M  END
> <s_m_entry_id>
31795

> <s_m_entry_name>
dock_pv.58

> <s_m_Source_Path>
/home/csk/Desktop/cluster/DUD-E-result/src

> <s_m_Source_File>
dock_pv.maegz

> <i_m_Source_File_Index>
58

> <chembl_id>
CHEMBL1242111

> <chembl_pref_name>
None

> <i_lp_mmshare_version>
53161

> <r_lp_tautomer_probability>
0.999999999997365

> <s_lp_Force_Field>
OPLS_2005

> <r_lp_Energy>
43.439481

> <b_lp_Chiralities_Consistent>
1

> <s_lp_Variant>
CHEMBL267_lig1839-1

> <s_i_glide_gridfile>
glide-grid_3el8

> <i_i_glide_lignum>
2106

> <i_i_glide_rotatable_bonds>
3

> <r_i_docking_score>
-8.68013887782524

> <r_i_glide_ligand_efficiency>
-0.377397342514141

> <r_i_glide_ligand_efficiency_sa>
-1.07326783953795

> <r_i_glide_ligand_efficiency_ln>
-2.09893628780593

> <r_i_glide_gscore>
-8.68013887782524

> <r_i_glide_lipo>
-2.42225049520037

> <r_i_glide_hbond>
-0.632612399577535

> <r_i_glide_metal>
0

> <r_i_glide_rewards>
-3.29046661754319

> <r_i_glide_evdw>
-37.5080833435059

> <r_i_glide_ecoul>
-5.58506107330322

> <r_i_glide_erotb>
0.378353962666628

> <r_i_glide_esite>
0

> <r_i_glide_emodel>
-62.9392224074475

> <r_i_glide_energy>
-43.0931444168091

> <r_i_glide_einternal>
3.33786034584045

> <i_i_glide_confnum>
25

> <i_i_glide_posenum>
14

> <r_i_glide_eff_state_penalty>
0

> <s_user_duplicate_titles>
CHEMBL267_lig1839

> <i_f3d_flags>
0

> <s_m_subgroup_title>
dock_pv

> <s_m_subgroupid>
dock_pv

> <b_m_subgroup_collapsed>
1

$$$$
CHEMBL267_lig1203
                    3D
 Schrodinger Suite 2021-1.
 45 48  0  0  1  0            999 V2000
    4.1288    7.0398    8.1987 C   0  0  0  0  0  0
    4.8157    8.8142    6.2018 C   0  0  0  0  0  0
    3.5175    8.7074    6.6945 C   0  0  0  0  0  0
    6.6755    6.3684    7.9881 C   0  0  0  0  0  0
    7.6441    6.8456    7.2396 N   0  0  0  0  0  0
    7.1179    7.7947    6.4951 C   0  0  0  0  0  0
    5.7743    7.9854    6.7463 N   0  0  0  0  0  0
    5.4599    7.0582    7.7507 C   0  0  0  0  0  0
    3.7708    6.1421    9.2005 N   0  0  0  0  0  0
    2.5727    6.0996    9.9291 C   0  0  0  0  0  0
    1.4258    5.4628    9.4107 C   0  0  0  0  0  0
    0.2837    5.3420   10.2072 C   0  0  0  0  0  0
    0.2765    5.8376   11.5062 C   0  0  0  0  0  0
    1.3964    6.5017   12.0037 C   0  0  0  0  0  0
    2.5500    6.6371   11.2307 C   0  0  0  0  0  0
    5.1762    9.7774    5.1352 C   0  0  0  0  0  0
    4.3598    9.8802    4.0080 C   0  0  0  0  0  0
    4.6661   10.7800    2.9982 C   0  0  0  0  0  0
    5.7984   11.5961    3.1042 C   0  0  0  0  0  0
    6.6139   11.5002    4.2344 C   0  0  0  0  0  0
    6.2944   10.6080    5.2507 C   0  0  0  0  0  0
    3.1784    7.8559    7.6812 N   0  0  0  0  0  0
    3.7685    7.3250   11.8446 C   0  0  0  0  0  0
    1.3847    4.8747    8.0058 C   0  0  0  0  0  0
    6.1693   12.5184    1.9791 C   0  0  0  0  0  0
    7.3269   12.8697    1.7647 O   0  0  0  0  0  0
    5.1174   12.8644    1.1882 O   0  0  0  0  0  0
    2.7222    9.3335    6.3151 H   0  0  0  0  0  0
    6.8532    5.5514    8.6748 H   0  0  0  0  0  0
    7.6490    8.3505    5.7382 H   0  0  0  0  0  0
    4.5565    5.7458    9.6942 H   0  0  0  0  0  0
   -0.6041    4.8561    9.8265 H   0  0  0  0  0  0
   -0.6120    5.7423   12.1142 H   0  0  0  0  0  0
    1.3651    6.9135   13.0026 H   0  0  0  0  0  0
    3.4883    9.2497    3.9026 H   0  0  0  0  0  0
    4.0206   10.8216    2.1313 H   0  0  0  0  0  0
    7.4941   12.1193    4.3391 H   0  0  0  0  0  0
    6.9205   10.5691    6.1304 H   0  0  0  0  0  0
    3.5981    7.6458   12.8722 H   0  0  0  0  0  0
    4.6100    6.6375   11.8601 H   0  0  0  0  0  0
    4.0605    8.1910   11.2506 H   0  0  0  0  0  0
    0.3594    4.8154    7.6338 H   0  0  0  0  0  0
    1.9281    5.4944    7.2938 H   0  0  0  0  0  0
    1.8283    3.8774    7.9989 H   0  0  0  0  0  0
    5.4001   13.0362    0.2687 H   0  0  0  0  0  0
  1  8  1  0  0  0
  1 22  2  0  0  0
  1  9  1  0  0  0
  2  3  2  0  0  0
  2 16  1  0  0  0
  2  7  1  0  0  0
  3 22  1  0  0  0
  3 28  1  0  0  0
  4  5  1  0  0  0
  4  8  2  0  0  0
  4 29  1  0  0  0
  5  6  2  0  0  0
  6  7  1  0  0  0
  6 30  1  0  0  0
  7  8  1  0  0  0
  9 10  1  0  0  0
  9 31  1  0  0  0
 10 15  1  0  0  0
 10 11  2  0  0  0
 11 24  1  0  0  0
 11 12  1  0  0  0
 12 13  2  0  0  0
 12 32  1  0  0  0
 13 14  1  0  0  0
 13 33  1  0  0  0
 14 15  2  0  0  0
 14 34  1  0  0  0
 15 23  1  0  0  0
 16 17  2  0  0  0
 16 21  1  0  0  0
 17 18  1  0  0  0
 17 35  1  0  0  0
 18 19  2  0  0  0
 18 36  1  0  0  0
 19 20  1  0  0  0
 19 25  1  0  0  0
 20 21  2  0  0  0
 20 37  1  0  0  0
 21 38  1  0  0  0
 23 39  1  0  0  0
 23 40  1  0  0  0
 23 41  1  0  0  0
 24 42  1  0  0  0
 24 43  1  0  0  0
 24 44  1  0  0  0
 25 26  2  0  0  0
 25 27  1  0  0  0
 27 45  1  0  0  0
M  END
> <s_m_entry_id>
31796

> <s_m_entry_name>
dock_pv.59

> <s_m_Source_Path>
/home/csk/Desktop/cluster/DUD-E-result/src

> <s_m_Source_File>
dock_pv.maegz

> <i_m_Source_File_Index>
59

> <chembl_id>
CHEMBL375904

> <chembl_pref_name>
None

> <i_lp_mmshare_version>
53161

> <r_lp_tautomer_probability>
1

> <s_lp_Force_Field>
OPLS_2005

> <r_lp_Energy>
40.414189

> <b_lp_Chiralities_Consistent>
1

> <s_lp_Variant>
CHEMBL267_lig1203-1

> <s_i_glide_gridfile>
glide-grid_3el8

> <i_i_glide_lignum>
1351

> <i_i_glide_rotatable_bonds>
5

> <r_i_docking_score>
-8.65075992461724

> <r_i_glide_ligand_efficiency>
-0.320398515726564

> <r_i_glide_ligand_efficiency_sa>
-0.961195546123712

> <r_i_glide_ligand_efficiency_ln>
-2.01375429152726

> <r_i_glide_gscore>
-8.65075992461724

> <r_i_glide_lipo>
-3.33494732684009

> <r_i_glide_hbond>
-0.148796047631525

> <r_i_glide_metal>
0

> <r_i_glide_rewards>
-2.5580897667013

> <r_i_glide_evdw>
-38.3640251159668

> <r_i_glide_ecoul>
-8.27963352203369

> <r_i_glide_erotb>
0.596524252316272

> <r_i_glide_esite>
-0.0453047516572057

> <r_i_glide_emodel>
-66.4024043542887

> <r_i_glide_energy>
-46.6436586380005

> <r_i_glide_einternal>
6.96184730529785

> <i_i_glide_confnum>
18

> <i_i_glide_posenum>
214

> <r_i_glide_eff_state_penalty>
0

> <s_user_duplicate_titles>
CHEMBL267_lig1203,376560

> <i_f3d_flags>
0

> <s_m_subgroup_title>
dock_pv

> <s_m_subgroupid>
dock_pv

> <b_m_subgroup_collapsed>
1

$$$$
CHEMBL267_lig438
                    3D
 Schrodinger Suite 2021-1.
 49 52  0  0  1  0            999 V2000
    7.4622    6.5323    7.5879 N   0  0  0  0  0  0
    7.7985    7.5092    6.7114 C   0  0  0  0  0  0
    6.9830    8.4440    6.1613 N   0  0  0  0  0  0
    6.1678    6.4908    7.9880 C   0  0  0  0  0  0
    5.2214    7.4332    7.5419 C   0  0  0  0  0  0
    5.7131    8.3685    6.5902 C   0  0  0  0  0  0
    4.6466    9.1522    6.1759 N   0  0  0  0  0  0
    3.5185    8.7090    6.8411 C   0  0  0  0  0  0
    3.8254    7.7173    7.7510 C   0  0  0  0  0  0
    2.8886    7.0618    8.6994 C   0  0  0  0  0  0
    1.7353    6.3974    8.2618 C   0  0  0  0  0  0
    0.8960    5.7716    9.1886 C   0  0  0  0  0  0
    1.1844    5.8443   10.5502 C   0  0  0  0  0  0
    2.3139    6.5325   10.9909 C   0  0  0  0  0  0
    3.1718    7.1249   10.0666 C   0  0  0  0  0  0
    5.7980    5.4206    8.7880 N   0  0  0  0  0  0
    4.7189   10.1981    5.1430 C   0  0  0  0  0  0
    4.7736    9.5733    3.7464 C   0  0  0  0  0  0
    3.3709    9.1097    3.3324 C   0  0  0  0  0  0
    2.4657   10.2632    3.2367 N   0  0  2  0  0  0
    2.2890   10.9272    4.5431 C   0  0  0  0  0  0
    3.6394   11.3057    5.2059 C   0  0  0  0  0  0
   -0.2020    5.0593    8.7880 O   0  0  0  0  0  0
    1.1899    9.8416    2.6299 C   0  0  0  0  0  0
    0.3844   10.9946    1.9882 C   0  0  0  0  0  0
   -0.6989   10.6369    1.3004 N   0  0  0  0  0  0
    0.6880   12.1802    2.1041 O   0  0  0  0  0  0
    8.8311    7.5319    6.3910 H   0  0  0  0  0  0
    2.5648    9.1745    6.6632 H   0  0  0  0  0  0
    1.5151    6.3359    7.2065 H   0  0  0  0  0  0
    0.5314    5.3655   11.2662 H   0  0  0  0  0  0
    2.5373    6.5870   12.0465 H   0  0  0  0  0  0
    4.0554    7.6386   10.4171 H   0  0  0  0  0  0
    4.8482    5.3589    9.1291 H   0  0  0  0  0  0
    6.5057    4.7515    9.0678 H   0  0  0  0  0  0
    5.6718   10.6854    5.3602 H   0  0  0  0  0  0
    5.4890    8.7504    3.7219 H   0  0  0  0  0  0
    5.1949   10.2780    3.0280 H   0  0  0  0  0  0
    2.9454    8.3938    4.0375 H   0  0  0  0  0  0
    3.4551    8.5837    2.3880 H   0  0  0  0  0  0
    1.7029   11.8350    4.4000 H   0  0  0  0  0  0
    1.6834   10.3014    5.1957 H   0  0  0  0  0  0
    4.0213   12.2131    4.7356 H   0  0  0  0  0  0
    3.4954   11.6341    6.2358 H   0  0  0  0  0  0
   -0.7393    5.4373    8.0783 H   0  0  0  0  0  0
    0.5620    9.3066    3.3454 H   0  0  0  0  0  0
    1.3981    9.1391    1.8259 H   0  0  0  0  0  0
   -1.2655   11.3499    0.8686 H   0  0  0  0  0  0
   -0.9219    9.6583    1.1786 H   0  0  0  0  0  0
  1  2  2  0  0  0
  1  4  1  0  0  0
  2  3  1  0  0  0
  2 28  1  0  0  0
  3  6  2  0  0  0
  4  5  2  0  0  0
  4 16  1  0  0  0
  5  9  1  0  0  0
  5  6  1  0  0  0
  6  7  1  0  0  0
  7  8  1  0  0  0
  7 17  1  0  0  0
  8  9  2  0  0  0
  8 29  1  0  0  0
  9 10  1  0  0  0
 10 15  1  0  0  0
 10 11  2  0  0  0
 11 12  1  0  0  0
 11 30  1  0  0  0
 12 23  1  0  0  0
 12 13  2  0  0  0
 13 14  1  0  0  0
 13 31  1  0  0  0
 14 15  2  0  0  0
 14 32  1  0  0  0
 15 33  1  0  0  0
 16 34  1  0  0  0
 16 35  1  0  0  0
 17 18  1  0  0  0
 17 22  1  0  0  0
 17 36  1  0  0  0
 18 19  1  0  0  0
 18 37  1  0  0  0
 18 38  1  0  0  0
 19 20  1  0  0  0
 19 39  1  0  0  0
 19 40  1  0  0  0
 20 21  1  0  0  0
 20 24  1  0  0  0
 21 22  1  0  0  0
 21 41  1  0  0  0
 21 42  1  0  0  0
 22 43  1  0  0  0
 22 44  1  0  0  0
 23 45  1  0  0  0
 24 25  1  0  0  0
 24 46  1  0  0  0
 24 47  1  0  0  0
 25 26  1  0  0  0
 25 27  2  0  0  0
 26 48  1  0  0  0
 26 49  1  0  0  0
M  END
> <s_m_entry_id>
31797

> <s_m_entry_name>
dock_pv.60

> <s_m_Source_Path>
/home/csk/Desktop/cluster/DUD-E-result/src

> <s_m_Source_File>
dock_pv.maegz

> <i_m_Source_File_Index>
60

> <chembl_id>
CHEMBL263528

> <chembl_pref_name>
None

> <i_lp_mmshare_version>
53161

> <r_lp_tautomer_probability>
0.999999999997365

> <s_lp_Force_Field>
OPLS_2005

> <r_lp_Energy>
26.177415

> <b_lp_Chiralities_Consistent>
1

> <s_lp_Variant>
CHEMBL267_lig438-1

> <s_i_glide_gridfile>
glide-grid_3el8

> <i_i_glide_lignum>
523

> <i_i_glide_rotatable_bonds>
5

> <r_i_docking_score>
-8.64760732124434

> <r_i_glide_ligand_efficiency>
-0.320281752638679

> <r_i_glide_ligand_efficiency_sa>
-0.960845256860442

> <r_i_glide_ligand_efficiency_ln>
-2.01302041743678

> <r_i_glide_gscore>
-8.64760732124434

> <r_i_glide_lipo>
-2.42432958171917

> <r_i_glide_hbond>
-0.683727424087269

> <r_i_glide_metal>
0

> <r_i_glide_rewards>
-2.69693567136132

> <r_i_glide_evdw>
-36.339485168457

> <r_i_glide_ecoul>
-9.60745620727539

> <r_i_glide_erotb>
0.430068263653603

> <r_i_glide_esite>
-0.014590218216027

> <r_i_glide_emodel>
-61.7487691708029

> <r_i_glide_energy>
-45.9469413757324

> <r_i_glide_einternal>
9.74350070953369

> <i_i_glide_confnum>
9

> <i_i_glide_posenum>
29

> <r_i_glide_eff_state_penalty>
0

> <s_user_duplicate_titles>
CHEMBL267_lig438,282631

> <i_f3d_flags>
0

> <s_m_subgroup_title>
dock_pv

> <s_m_subgroupid>
dock_pv

> <b_m_subgroup_collapsed>
1

$$$$
CHEMBL267_lig2581
                    3D
 Schrodinger Suite 2021-1.
 38 41  0  0  1  0            999 V2000
    7.5745    8.7031    5.9565 C   0  0  0  0  0  0
    7.0658    7.6126    6.8180 C   0  0  0  0  0  0
    5.6392    7.5385    7.1882 C   0  0  0  0  0  0
    7.8401    6.7418    7.2330 O   0  0  0  0  0  0
    4.5346    8.2514    6.6838 C   0  0  0  0  0  0
    3.4027    7.9609    7.2768 N   0  0  0  0  0  0
    3.7107    6.9962    8.1496 N   0  0  0  0  0  0
    5.0440    6.6452    8.0853 C   0  0  0  0  0  0
    8.9018    8.6370    5.5879 N   0  0  0  0  0  0
    7.0471    9.8700    5.4076 C   0  0  0  0  0  0
    8.0805   10.4915    4.6263 C   0  0  0  0  0  0
    9.2585    9.7028    4.7880 C   0  0  0  0  0  0
   10.4773   10.0344    4.1861 C   0  0  0  0  0  0
   10.4901   11.1721    3.3786 C   0  0  0  0  0  0
    9.3511   11.9519    3.1883 C   0  0  0  0  0  0
    8.1430   11.6288    3.8065 C   0  0  0  0  0  0
    2.6900    6.4557    8.9573 C   0  0  0  0  0  0
    1.7348    5.6167    8.3727 C   0  0  0  0  0  0
    0.7029    5.0867    9.1454 C   0  0  0  0  0  0
    0.5988    5.4175   10.4961 C   0  0  0  0  0  0
    1.5621    6.2370   11.0871 C   0  0  0  0  0  0
    2.6174    6.7511   10.3290 C   0  0  0  0  0  0
    5.5391    5.5806    8.7880 N   0  0  0  0  0  0
    3.7980    7.7529   11.1072 Cl  0  0  0  0  0  0
   -0.2020    4.2367    8.5740 O   0  0  0  0  0  0
    4.5277    8.9788    5.8909 H   0  0  0  0  0  0
    9.4880    7.8507    5.8436 H   0  0  0  0  0  0
    6.0517   10.2588    5.5279 H   0  0  0  0  0  0
   11.3652    9.4321    4.3179 H   0  0  0  0  0  0
   11.4085   11.4564    2.8848 H   0  0  0  0  0  0
    9.4077   12.8253    2.5542 H   0  0  0  0  0  0
    7.2717   12.2492    3.6554 H   0  0  0  0  0  0
    1.7926    5.3694    7.3222 H   0  0  0  0  0  0
   -0.2094    5.0233   11.0957 H   0  0  0  0  0  0
    1.4920    6.4703   12.1396 H   0  0  0  0  0  0
    6.5093    5.3049    8.7123 H   0  0  0  0  0  0
    4.9663    5.0707    9.4494 H   0  0  0  0  0  0
   -0.9557    4.0622    9.1438 H   0  0  0  0  0  0
  1  2  1  0  0  0
  1  9  1  0  0  0
  1 10  2  0  0  0
  2  3  1  0  0  0
  2  4  2  0  0  0
  3  5  1  0  0  0
  3  8  2  0  0  0
  5  6  2  0  0  0
  5 26  1  0  0  0
  6  7  1  0  0  0
  7  8  1  0  0  0
  7 17  1  0  0  0
  8 23  1  0  0  0
  9 12  1  0  0  0
  9 27  1  0  0  0
 10 11  1  0  0  0
 10 28  1  0  0  0
 11 12  2  0  0  0
 11 16  1  0  0  0
 12 13  1  0  0  0
 13 14  2  0  0  0
 13 29  1  0  0  0
 14 15  1  0  0  0
 14 30  1  0  0  0
 15 16  2  0  0  0
 15 31  1  0  0  0
 16 32  1  0  0  0
 17 18  2  0  0  0
 17 22  1  0  0  0
 18 19  1  0  0  0
 18 33  1  0  0  0
 19 20  2  0  0  0
 19 25  1  0  0  0
 20 21  1  0  0  0
 20 34  1  0  0  0
 21 22  2  0  0  0
 21 35  1  0  0  0
 22 24  1  0  0  0
 23 36  1  0  0  0
 23 37  1  0  0  0
 25 38  1  0  0  0
M  END
> <s_m_entry_id>
31798

> <s_m_entry_name>
dock_pv.61

> <s_m_Source_Path>
/home/csk/Desktop/cluster/DUD-E-result/src

> <s_m_Source_File>
dock_pv.maegz

> <i_m_Source_File_Index>
61

> <chembl_id>
CHEMBL3976548

> <chembl_pref_name>
None

> <i_lp_mmshare_version>
53161

> <r_lp_tautomer_probability>
1

> <s_lp_Force_Field>
OPLS_2005

> <r_lp_Energy>
20.000396

> <b_lp_Chiralities_Consistent>
1

> <s_lp_Variant>
CHEMBL267_lig2581-1

> <s_i_glide_gridfile>
glide-grid_3el8

> <i_i_glide_lignum>
2893

> <i_i_glide_rotatable_bonds>
4

> <r_i_docking_score>
-8.64472004085157

> <r_i_glide_ligand_efficiency>
-0.345788801634063

> <r_i_glide_ligand_efficiency_sa>
-1.01109258856851

> <r_i_glide_ligand_efficiency_ln>
-2.04905771103648

> <r_i_glide_gscore>
-8.64472004085157

> <r_i_glide_lipo>
-3.72851658726694

> <r_i_glide_hbond>
-0.644446465921607

> <r_i_glide_metal>
0

> <r_i_glide_rewards>
-1.71689444990504

> <r_i_glide_evdw>
-38.6372871398926

> <r_i_glide_ecoul>
-7.13242101669312

> <r_i_glide_erotb>
0.460160172044216

> <r_i_glide_esite>
-0.0132952003035995

> <r_i_glide_emodel>
-67.8485559050742

> <r_i_glide_energy>
-45.7697081565857

> <r_i_glide_einternal>
2.76578974723816

> <i_i_glide_confnum>
5

> <i_i_glide_posenum>
389

> <r_i_glide_eff_state_penalty>
0

> <s_user_duplicate_titles>
CHEMBL267_lig2581

> <i_f3d_flags>
0

> <s_m_subgroup_title>
dock_pv

> <s_m_subgroupid>
dock_pv

> <b_m_subgroup_collapsed>
1

$$$$
CHEMBL267_lig1805
                    3D
 Schrodinger Suite 2021-1.
 37 39  0  0  1  0            999 V2000
    8.0525    6.6384    7.5879 N   0  0  0  0  0  0
    8.5984    7.6355    6.8516 C   0  0  0  0  0  0
    7.9708    8.6210    6.1682 N   0  0  0  0  0  0
    6.7057    6.6404    7.7074 C   0  0  0  0  0  0
    5.9294    7.6626    7.1203 C   0  0  0  0  0  0
    6.6482    8.5972    6.3359 C   0  0  0  0  0  0
    5.7143    9.4401    5.7705 N   0  0  0  0  0  0
    4.4754    9.0911    6.1638 N   0  0  0  0  0  0
    4.5673    8.0959    7.0198 C   0  0  0  0  0  0
    3.3537    7.5853    7.7096 C   0  0  0  0  0  0
    2.1256    7.7064    7.0546 C   0  0  0  0  0  0
    0.9638    7.2327    7.6380 C   0  0  0  0  0  0
    1.0064    6.6028    8.8852 C   0  0  0  0  0  0
    2.2245    6.4814    9.5538 C   0  0  0  0  0  0
    3.3919    6.9812    8.9734 C   0  0  0  0  0  0
    6.1565    5.5567    8.3879 N   0  0  0  0  0  0
   -0.1249    6.1353    9.4608 F   0  0  0  0  0  0
   -0.2021    7.4368    6.9645 O   0  0  0  0  0  0
    5.9211   10.5352    4.8099 C   0  0  1  0  0  0
    5.3559   10.1407    3.4257 C   0  0  0  0  0  0
    5.4082   11.9016    5.3444 C   0  0  0  0  0  0
    3.9588   12.0206    5.3858 N   0  0  0  0  0  0
    9.6770    7.6287    6.7879 H   0  0  0  0  0  0
    2.0622    8.1764    6.0830 H   0  0  0  0  0  0
    2.2653    6.0112   10.5270 H   0  0  0  0  0  0
    4.3144    6.9182    9.5280 H   0  0  0  0  0  0
    5.1533    5.4742    8.4650 H   0  0  0  0  0  0
    6.7724    4.8505    8.7729 H   0  0  0  0  0  0
   -0.8927    6.7933    7.1881 H   0  0  0  0  0  0
    7.0013   10.6414    4.6958 H   0  0  0  0  0  0
    5.5621   10.9096    2.6801 H   0  0  0  0  0  0
    5.7991    9.2107    3.0692 H   0  0  0  0  0  0
    4.2760    9.9918    3.4548 H   0  0  0  0  0  0
    5.7979   12.0836    6.3465 H   0  0  0  0  0  0
    5.7969   12.7040    4.7149 H   0  0  0  0  0  0
    3.6905   12.9691    5.6046 H   0  0  0  0  0  0
    3.5743   11.8224    4.4716 H   0  0  0  0  0  0
  1  2  2  0  0  0
  1  4  1  0  0  0
  2  3  1  0  0  0
  2 23  1  0  0  0
  3  6  2  0  0  0
  4  5  2  0  0  0
  4 16  1  0  0  0
  5  9  1  0  0  0
  5  6  1  0  0  0
  6  7  1  0  0  0
  7  8  1  0  0  0
  7 19  1  0  0  0
  8  9  2  0  0  0
  9 10  1  0  0  0
 10 11  2  0  0  0
 10 15  1  0  0  0
 11 12  1  0  0  0
 11 24  1  0  0  0
 12 13  2  0  0  0
 12 18  1  0  0  0
 13 14  1  0  0  0
 13 17  1  0  0  0
 14 15  2  0  0  0
 14 25  1  0  0  0
 15 26  1  0  0  0
 16 27  1  0  0  0
 16 28  1  0  0  0
 18 29  1  0  0  0
 19 20  1  0  0  0
 19 21  1  0  0  0
 19 30  1  0  0  0
 20 31  1  0  0  0
 20 32  1  0  0  0
 20 33  1  0  0  0
 21 22  1  0  0  0
 21 34  1  0  0  0
 21 35  1  0  0  0
 22 36  1  0  0  0
 22 37  1  0  0  0
M  END
> <s_m_entry_id>
31799

> <s_m_entry_name>
dock_pv.62

> <s_m_Source_Path>
/home/csk/Desktop/cluster/DUD-E-result/src

> <s_m_Source_File>
dock_pv.maegz

> <i_m_Source_File_Index>
62

> <chembl_id>
CHEMBL1242468

> <chembl_pref_name>
None

> <i_lp_mmshare_version>
53161

> <r_lp_tautomer_probability>
0.999999999997365

> <s_lp_Force_Field>
OPLS_2005

> <r_lp_Energy>
13.083866

> <b_lp_Chiralities_Consistent>
1

> <s_lp_Variant>
CHEMBL267_lig1805-1

> <s_i_glide_gridfile>
glide-grid_3el8

> <i_i_glide_lignum>
2068

> <i_i_glide_rotatable_bonds>
4

> <r_i_docking_score>
-8.63360677967717

> <r_i_glide_ligand_efficiency>
-0.392436671803508

> <r_i_glide_ligand_efficiency_sa>
-1.09962298805194

> <r_i_glide_ligand_efficiency_ln>
-2.11036841541204

> <r_i_glide_gscore>
-8.63360677967717

> <r_i_glide_lipo>
-1.95690717996224

> <r_i_glide_hbond>
-0.833355173096079

> <r_i_glide_metal>
0

> <r_i_glide_rewards>
-3.17009380231783

> <r_i_glide_evdw>
-30.2493629455566

> <r_i_glide_ecoul>
-9.22066783905029

> <r_i_glide_erotb>
0.282025625685305

> <r_i_glide_esite>
-0.0597079268509451

> <r_i_glide_emodel>
-58.7998561416454

> <r_i_glide_energy>
-39.4700307846069

> <r_i_glide_einternal>
0.548569738864899

> <i_i_glide_confnum>
8

> <i_i_glide_posenum>
314

> <r_i_glide_eff_state_penalty>
0

> <s_user_duplicate_titles>
CHEMBL267_lig1805

> <i_f3d_flags>
0

> <s_m_subgroup_title>
dock_pv

> <s_m_subgroupid>
dock_pv

> <b_m_subgroup_collapsed>
1

$$$$
CHEMBL267_lig449
                    3D
 Schrodinger Suite 2021-1.
 54 57  0  0  1  0            999 V2000
    7.8893    6.6826    7.5879 N   0  0  0  0  0  0
    8.2345    7.7008    6.7603 C   0  0  0  0  0  0
    7.4112    8.5627    6.1137 N   0  0  0  0  0  0
    6.5698    6.5453    7.8632 C   0  0  0  0  0  0
    5.6137    7.4367    7.3404 C   0  0  0  0  0  0
    6.1171    8.3892    6.4102 C   0  0  0  0  0  0
    5.0353    9.0503    5.8467 N   0  0  0  0  0  0
    3.9005    8.5909    6.4935 C   0  0  0  0  0  0
    4.2025    7.6616    7.4692 C   0  0  0  0  0  0
    3.2567    7.0085    8.4099 C   0  0  0  0  0  0
    2.1894    6.2285    7.9571 C   0  0  0  0  0  0
    1.3057    5.6250    8.8575 C   0  0  0  0  0  0
    1.4913    5.8371   10.2340 C   0  0  0  0  0  0
    2.5530    6.6162   10.6922 C   0  0  0  0  0  0
    3.4346    7.1961    9.7828 C   0  0  0  0  0  0
    6.1829    5.4371    8.6076 N   0  0  0  0  0  0
    5.1129   10.1285    4.8390 C   0  0  0  0  0  0
    4.0911   10.0525    3.6905 C   0  0  0  0  0  0
    2.6837   10.5712    4.0522 C   0  0  0  0  0  0
    2.6688   11.8148    4.8510 N   0  0  2  0  0  0
    3.6670   11.8777    5.9385 C   0  0  0  0  0  0
    5.0876   11.5205    5.4760 C   0  0  0  0  0  0
    0.3040    4.8437    8.3184 O   0  0  0  0  0  0
    1.2998   12.0204    5.3558 C   0  0  0  0  0  0
    0.9417   13.4416    5.8286 C   0  0  0  0  0  0
   -0.0689   13.4283    6.7226 O   0  0  0  0  0  0
    1.5272   14.4491    5.4253 O   0  0  0  0  0  0
   -0.5114   14.6357    7.3186 C   0  0  0  0  0  0
   -0.6399    4.2268    9.1884 C   0  0  0  0  0  0
    9.2903    7.8295    6.5655 H   0  0  0  0  0  0
    2.9361    9.0063    6.2666 H   0  0  0  0  0  0
    2.0499    6.0744    6.8970 H   0  0  0  0  0  0
    0.8282    5.3971   10.9635 H   0  0  0  0  0  0
    2.6995    6.7641   11.7519 H   0  0  0  0  0  0
    4.2536    7.7991   10.1472 H   0  0  0  0  0  0
    5.2062    5.3226    8.8435 H   0  0  0  0  0  0
    6.8857    4.7929    8.9570 H   0  0  0  0  0  0
    6.0898    9.9760    4.3758 H   0  0  0  0  0  0
    4.0426    9.0372    3.2997 H   0  0  0  0  0  0
    4.4663   10.6030    2.8258 H   0  0  0  0  0  0
    2.1361    9.7780    4.5605 H   0  0  0  0  0  0
    2.1071   10.7496    3.1443 H   0  0  0  0  0  0
    3.6502   12.8662    6.3861 H   0  0  0  0  0  0
    3.3980   11.1808    6.7263 H   0  0  0  0  0  0
    5.4905   12.2723    4.7950 H   0  0  0  0  0  0
    5.7936   11.5620    6.3060 H   0  0  0  0  0  0
    1.0843   11.3054    6.1517 H   0  0  0  0  0  0
    0.5978   11.7940    4.5533 H   0  0  0  0  0  0
   -1.3970   14.4507    7.9238 H   0  0  0  0  0  0
   -0.7632   15.3781    6.5592 H   0  0  0  0  0  0
    0.2646   15.0417    7.9669 H   0  0  0  0  0  0
   -1.3726    3.6780    8.5973 H   0  0  0  0  0  0
   -0.1592    3.5196    9.8658 H   0  0  0  0  0  0
   -1.1840    4.9699    9.7718 H   0  0  0  0  0  0
  1  2  2  0  0  0
  1  4  1  0  0  0
  2  3  1  0  0  0
  2 30  1  0  0  0
  3  6  2  0  0  0
  4  5  2  0  0  0
  4 16  1  0  0  0
  5  9  1  0  0  0
  5  6  1  0  0  0
  6  7  1  0  0  0
  7  8  1  0  0  0
  7 17  1  0  0  0
  8  9  2  0  0  0
  8 31  1  0  0  0
  9 10  1  0  0  0
 10 15  1  0  0  0
 10 11  2  0  0  0
 11 12  1  0  0  0
 11 32  1  0  0  0
 12 23  1  0  0  0
 12 13  2  0  0  0
 13 14  1  0  0  0
 13 33  1  0  0  0
 14 15  2  0  0  0
 14 34  1  0  0  0
 15 35  1  0  0  0
 16 36  1  0  0  0
 16 37  1  0  0  0
 17 18  1  0  0  0
 17 22  1  0  0  0
 17 38  1  0  0  0
 18 19  1  0  0  0
 18 39  1  0  0  0
 18 40  1  0  0  0
 19 20  1  0  0  0
 19 41  1  0  0  0
 19 42  1  0  0  0
 20 21  1  0  0  0
 20 24  1  0  0  0
 21 22  1  0  0  0
 21 43  1  0  0  0
 21 44  1  0  0  0
 22 45  1  0  0  0
 22 46  1  0  0  0
 23 29  1  0  0  0
 24 25  1  0  0  0
 24 47  1  0  0  0
 24 48  1  0  0  0
 25 26  1  0  0  0
 25 27  2  0  0  0
 26 28  1  0  0  0
 28 49  1  0  0  0
 28 50  1  0  0  0
 28 51  1  0  0  0
 29 52  1  0  0  0
 29 53  1  0  0  0
 29 54  1  0  0  0
M  END
> <s_m_entry_id>
31800

> <s_m_entry_name>
dock_pv.63

> <s_m_Source_Path>
/home/csk/Desktop/cluster/DUD-E-result/src

> <s_m_Source_File>
dock_pv.maegz

> <i_m_Source_File_Index>
63

> <chembl_id>
CHEMBL169065

> <chembl_pref_name>
None

> <i_lp_mmshare_version>
53161

> <r_lp_tautomer_probability>
1

> <s_lp_Force_Field>
OPLS_2005

> <r_lp_Energy>
32.914678

> <b_lp_Chiralities_Consistent>
1

> <s_lp_Variant>
CHEMBL267_lig449-1

> <s_i_glide_gridfile>
glide-grid_3el8

> <i_i_glide_lignum>
537

> <i_i_glide_rotatable_bonds>
6

> <r_i_docking_score>
-8.61654382785221

> <r_i_glide_ligand_efficiency>
-0.297122200960421

> <r_i_glide_ligand_efficiency_sa>
-0.912853536270897

> <r_i_glide_ligand_efficiency_ln>
-1.97297003987909

> <r_i_glide_gscore>
-8.61654382785221

> <r_i_glide_lipo>
-2.73811779657265

> <r_i_glide_hbond>
-0.557980517905265

> <r_i_glide_metal>
0

> <r_i_glide_rewards>
-2.8545301829965

> <r_i_glide_evdw>
-40.6189346313477

> <r_i_glide_ecoul>
-5.23395681381226

> <r_i_glide_erotb>
0.350124923261419

> <r_i_glide_esite>
0

> <r_i_glide_emodel>
-66.7773633313823

> <r_i_glide_energy>
-45.8528914451599

> <r_i_glide_einternal>
6.19997930526733

> <i_i_glide_confnum>
13

> <i_i_glide_posenum>
344

> <r_i_glide_eff_state_penalty>
0

> <s_user_duplicate_titles>
CHEMBL267_lig449,282627

> <i_f3d_flags>
0

> <s_m_subgroup_title>
dock_pv

> <s_m_subgroupid>
dock_pv

> <b_m_subgroup_collapsed>
1

$$$$
CHEMBL267_lig443
                    3D
 Schrodinger Suite 2021-1.
 39 42  0  0  1  0            999 V2000
    5.5559    8.3532    6.5423 C   0  0  0  0  0  0
    5.1055    7.3973    7.5013 C   0  0  0  0  0  0
    3.6838    7.5812    7.6603 C   0  0  0  0  0  0
    4.4477    9.0481    6.0764 N   0  0  0  0  0  0
    3.3428    8.5718    6.7581 C   0  0  0  0  0  0
    6.8308    8.5139    6.1492 N   0  0  0  0  0  0
    6.1063    6.5261    7.9863 C   0  0  0  0  0  0
    2.7497    6.8413    8.5516 C   0  0  0  0  0  0
    7.3989    6.6362    7.5883 N   0  0  0  0  0  0
    7.6910    7.6286    6.7147 C   0  0  0  0  0  0
    4.4655   10.1537    5.1029 C   0  0  1  0  0  0
    1.6804    6.1001    8.0304 C   0  0  0  0  0  0
    3.2721   11.2078    3.2818 N   0  0  1  0  0  0
    5.7967    5.4365    8.7878 N   0  0  0  0  0  0
    0.8174    5.4077    8.8874 C   0  0  0  0  0  0
    5.1849    9.8532    3.7921 C   0  0  0  0  0  0
    3.0886   10.6190    4.6030 C   0  0  0  0  0  0
    2.9342    6.9009    9.9351 C   0  0  0  0  0  0
   -0.2017    4.6392    8.3899 O   0  0  0  0  0  0
    4.6410   10.9327    2.8612 C   0  0  0  0  0  0
    2.0544    6.2377   10.7907 C   0  0  0  0  0  0
    1.0003    5.4891   10.2669 C   0  0  0  0  0  0
    2.3667    8.9945    6.5699 H   0  0  0  0  0  0
    8.7257    7.7107    6.4087 H   0  0  0  0  0  0
    4.9382   10.9797    5.6359 H   0  0  0  0  0  0
    1.5354    6.0399    6.9602 H   0  0  0  0  0  0
    2.6150   10.8142    2.6192 H   0  0  0  0  0  0
    4.8489    5.3167    9.1196 H   0  0  0  0  0  0
    6.5383    4.8130    9.0822 H   0  0  0  0  0  0
    6.2691    9.9118    3.8833 H   0  0  0  0  0  0
    4.9373    8.8674    3.3981 H   0  0  0  0  0  0
    2.4106    9.7704    4.4850 H   0  0  0  0  0  0
    2.6103   11.3103    5.2980 H   0  0  0  0  0  0
    3.7499    7.4722   10.3504 H   0  0  0  0  0  0
   -0.9047    5.1605    7.9732 H   0  0  0  0  0  0
    5.2405   11.8413    2.9216 H   0  0  0  0  0  0
    4.6430   10.6099    1.8190 H   0  0  0  0  0  0
    2.2013    6.2906   11.8596 H   0  0  0  0  0  0
    0.3276    4.9672   10.9322 H   0  0  0  0  0  0
  1  2  2  0  0  0
  1  4  1  0  0  0
  1  6  1  0  0  0
  2  3  1  0  0  0
  2  7  1  0  0  0
  3  8  1  0  0  0
  3  5  2  0  0  0
  4  5  1  0  0  0
  4 11  1  0  0  0
  5 23  1  0  0  0
  6 10  2  0  0  0
  7 14  1  0  0  0
  7  9  2  0  0  0
  8 12  2  0  0  0
  8 18  1  0  0  0
  9 10  1  0  0  0
 10 24  1  0  0  0
 11 16  1  0  0  0
 11 17  1  0  0  0
 11 25  1  0  0  0
 12 15  1  0  0  0
 12 26  1  0  0  0
 13 17  1  0  0  0
 13 20  1  0  0  0
 13 27  1  0  0  0
 14 28  1  0  0  0
 14 29  1  0  0  0
 15 19  1  0  0  0
 15 22  2  0  0  0
 16 20  1  0  0  0
 16 30  1  0  0  0
 16 31  1  0  0  0
 17 32  1  0  0  0
 17 33  1  0  0  0
 18 21  2  0  0  0
 18 34  1  0  0  0
 19 35  1  0  0  0
 20 36  1  0  0  0
 20 37  1  0  0  0
 21 22  1  0  0  0
 21 38  1  0  0  0
 22 39  1  0  0  0
M  END
> <s_m_entry_id>
31801

> <s_m_entry_name>
dock_pv.64

> <s_m_Source_Path>
/home/csk/Desktop/cluster/DUD-E-result/src

> <s_m_Source_File>
dock_pv.maegz

> <i_m_Source_File_Index>
64

> <chembl_id>
CHEMBL171545

> <chembl_pref_name>
None

> <i_lp_mmshare_version>
53161

> <r_lp_tautomer_probability>
0.999999999997365

> <s_lp_Force_Field>
OPLS_2005

> <r_lp_Energy>
34.022461

> <b_lp_Chiralities_Consistent>
1

> <s_lp_Variant>
CHEMBL267_lig443-2

> <s_i_glide_gridfile>
glide-grid_3el8

> <i_i_glide_lignum>
529

> <i_i_glide_rotatable_bonds>
3

> <r_i_docking_score>
-8.59893650902623

> <r_i_glide_ligand_efficiency>
-0.390860750410283

> <r_i_glide_ligand_efficiency_sa>
-1.09520719433065

> <r_i_glide_ligand_efficiency_ln>
-2.1018937366361

> <r_i_glide_gscore>
-8.59893650902623

> <r_i_glide_lipo>
-2.31082095194368

> <r_i_glide_hbond>
-0.608

> <r_i_glide_metal>
0

> <r_i_glide_rewards>
-3.19881696432104

> <r_i_glide_evdw>
-32.9688415527344

> <r_i_glide_ecoul>
-8.35016059875488

> <r_i_glide_erotb>
0.41966757468845

> <r_i_glide_esite>
0

> <r_i_glide_emodel>
-58.1729231032852

> <r_i_glide_energy>
-41.3190021514893

> <r_i_glide_einternal>
6.08292198181152

> <i_i_glide_confnum>
77

> <i_i_glide_posenum>
252

> <r_i_glide_eff_state_penalty>
0

> <s_user_duplicate_titles>
CHEMBL267_lig443,282862

> <i_f3d_flags>
0

> <s_m_subgroup_title>
dock_pv

> <s_m_subgroupid>
dock_pv

> <b_m_subgroup_collapsed>
1

$$$$
CHEMBL267_lig1883
                    3D
 Schrodinger Suite 2021-1.
 44 47  0  0  1  0            999 V2000
    7.9001    7.1125    7.3702 N   0  0  0  0  0  0
    8.2747    8.1162    6.5392 C   0  0  0  0  0  0
    7.4755    8.9855    5.8693 N   0  0  0  0  0  0
    6.5688    6.9664    7.5880 C   0  0  0  0  0  0
    5.6373    7.8376    6.9887 C   0  0  0  0  0  0
    6.1725    8.8134    6.1148 C   0  0  0  0  0  0
    5.0847    9.5017    5.5916 N   0  0  0  0  0  0
    3.9328    9.0332    6.1192 N   0  0  0  0  0  0
    4.2224    8.0691    6.9617 C   0  0  0  0  0  0
    3.1636    7.3821    7.7491 C   0  0  0  0  0  0
    3.3415    7.1562    9.1181 C   0  0  0  0  0  0
    2.3844    6.4586    9.8544 C   0  0  0  0  0  0
    1.2454    5.9577    9.2160 C   0  0  0  0  0  0
    1.0637    6.1839    7.8496 C   0  0  0  0  0  0
    2.0121    6.8998    7.1212 C   0  0  0  0  0  0
    6.1757    5.8922    8.3853 N   0  0  0  0  0  0
    0.0684    5.0350   10.0851 Cl  0  0  0  0  0  0
    2.5983    6.2371   11.1881 O   0  0  0  0  0  0
    5.0002   10.6776    4.7130 C   0  0  0  0  0  0
    6.0908   10.7549    3.6094 C   0  0  2  0  0  0
    7.2567   11.7048    3.9607 C   0  0  0  0  0  0
    8.3174   11.6832    2.8486 C   0  0  0  0  0  0
    7.6952   11.9580    1.4645 C   0  0  0  0  0  0
    6.5365   11.1031    1.1879 N   0  0  1  0  0  0
    5.5217   11.1925    2.2380 C   0  0  0  0  0  0
    9.3374    8.2368    6.3843 H   0  0  0  0  0  0
    4.2210    7.5378    9.6136 H   0  0  0  0  0  0
    0.1981    5.7869    7.3446 H   0  0  0  0  0  0
    1.8653    7.0484    6.0617 H   0  0  0  0  0  0
    5.1920    5.7160    8.5252 H   0  0  0  0  0  0
    6.8792    5.2664    8.7576 H   0  0  0  0  0  0
    3.4965    5.9408   11.3867 H   0  0  0  0  0  0
    5.0321   11.5632    5.3502 H   0  0  0  0  0  0
    4.0058   10.6888    4.2581 H   0  0  0  0  0  0
    6.5361    9.7705    3.4485 H   0  0  0  0  0  0
    7.7049   11.4334    4.9126 H   0  0  0  0  0  0
    6.8800   12.7184    4.1106 H   0  0  0  0  0  0
    8.8589   10.7383    2.8304 H   0  0  0  0  0  0
    9.0764   12.4392    3.0540 H   0  0  0  0  0  0
    8.4364   11.7795    0.6849 H   0  0  0  0  0  0
    7.3953   13.0041    1.3831 H   0  0  0  0  0  0
    6.1552   11.4373    0.2956 H   0  0  0  0  0  0
    5.0758   12.1876    2.2879 H   0  0  0  0  0  0
    4.7058   10.5241    1.9601 H   0  0  0  0  0  0
  1  2  2  0  0  0
  1  4  1  0  0  0
  2  3  1  0  0  0
  2 26  1  0  0  0
  3  6  2  0  0  0
  4  5  2  0  0  0
  4 16  1  0  0  0
  5  9  1  0  0  0
  5  6  1  0  0  0
  6  7  1  0  0  0
  7  8  1  0  0  0
  7 19  1  0  0  0
  8  9  2  0  0  0
  9 10  1  0  0  0
 10 15  1  0  0  0
 10 11  2  0  0  0
 11 12  1  0  0  0
 11 27  1  0  0  0
 12 13  2  0  0  0
 12 18  1  0  0  0
 13 14  1  0  0  0
 13 17  1  0  0  0
 14 15  2  0  0  0
 14 28  1  0  0  0
 15 29  1  0  0  0
 16 30  1  0  0  0
 16 31  1  0  0  0
 18 32  1  0  0  0
 19 20  1  0  0  0
 19 33  1  0  0  0
 19 34  1  0  0  0
 20 21  1  0  0  0
 20 25  1  0  0  0
 20 35  1  0  0  0
 21 22  1  0  0  0
 21 36  1  0  0  0
 21 37  1  0  0  0
 22 23  1  0  0  0
 22 38  1  0  0  0
 22 39  1  0  0  0
 23 24  1  0  0  0
 23 40  1  0  0  0
 23 41  1  0  0  0
 24 25  1  0  0  0
 24 42  1  0  0  0
 25 43  1  0  0  0
 25 44  1  0  0  0
M  END
> <s_m_entry_id>
31802

> <s_m_entry_name>
dock_pv.65

> <s_m_Source_Path>
/home/csk/Desktop/cluster/DUD-E-result/src

> <s_m_Source_File>
dock_pv.maegz

> <i_m_Source_File_Index>
65

> <chembl_id>
CHEMBL1241858

> <chembl_pref_name>
None

> <i_lp_mmshare_version>
53161

> <r_lp_tautomer_probability>
0.999999999997365

> <s_lp_Force_Field>
OPLS_2005

> <r_lp_Energy>
19.019317

> <b_lp_Chiralities_Consistent>
1

> <s_lp_Variant>
CHEMBL267_lig1883-1

> <s_i_glide_gridfile>
glide-grid_3el8

> <i_i_glide_lignum>
2153

> <i_i_glide_rotatable_bonds>
4

> <r_i_docking_score>
-8.5960184829851

> <r_i_glide_ligand_efficiency>
-0.343840739319404

> <r_i_glide_ligand_efficiency_sa>
-1.00539641981141

> <r_i_glide_ligand_efficiency_ln>
-2.03751398235421

> <r_i_glide_gscore>
-8.5960184829851

> <r_i_glide_lipo>
-2.09188817095534

> <r_i_glide_hbond>
-0.767986207334855

> <r_i_glide_metal>
0

> <r_i_glide_rewards>
-2.43435412529819

> <r_i_glide_evdw>
-36.6785736083984

> <r_i_glide_ecoul>
-11.869101524353

> <r_i_glide_erotb>
0.312503929676169

> <r_i_glide_esite>
0

> <r_i_glide_emodel>
-67.9388590582145

> <r_i_glide_energy>
-48.5476751327515

> <r_i_glide_einternal>
8.98740386962891

> <i_i_glide_confnum>
19

> <i_i_glide_posenum>
112

> <r_i_glide_eff_state_penalty>
0

> <s_user_duplicate_titles>
CHEMBL267_lig1883

> <i_f3d_flags>
0

> <s_m_subgroup_title>
dock_pv

> <s_m_subgroupid>
dock_pv

> <b_m_subgroup_collapsed>
1

$$$$
CHEMBL267_lig3158
                    3D
 Schrodinger Suite 2021-1.
 44 47  0  0  1  0            999 V2000
    8.5973    8.2402    5.9999 N   0  0  0  0  0  0
    7.5111    7.7503    6.7072 C   0  0  0  0  0  0
    7.7079    6.6143    7.4076 N   0  0  0  0  0  0
    6.6043    6.0816    7.9883 C   0  0  0  0  0  0
    5.3434    6.6742    7.9045 C   0  0  0  0  0  0
    5.2231    7.8394    7.1306 C   0  0  0  0  0  0
    6.3315    8.3996    6.5665 N   0  0  0  0  0  0
    3.8775    8.4646    6.7941 C   0  0  0  0  0  0
    2.6062    8.2809    7.3996 C   0  0  0  0  0  0
    1.6804    9.0292    6.8278 N   0  0  0  0  0  0
    2.2883    9.6880    5.8922 C   0  0  0  0  0  0
    3.6192    9.3728    5.7569 N   0  0  0  0  0  0
    4.5337    9.9563    4.7425 C   0  0  0  0  0  0
    3.8286   10.1820    3.3788 C   0  0  0  0  0  0
    4.6904   11.0115    2.4063 C   0  0  0  0  0  0
    5.0874   12.2814    3.0116 N   0  0  1  0  0  0
    5.8540   12.1049    4.2440 C   0  0  0  0  0  0
    5.0583   11.3024    5.2928 C   0  0  0  0  0  0
    2.1550    7.4420    8.5579 C   0  0  0  0  0  0
    2.8423    7.4483    9.7760 C   0  0  0  0  0  0
    2.3430    6.7357   10.8655 C   0  0  0  0  0  0
    1.1383    6.0455   10.7492 C   0  0  0  0  0  0
    0.6033    5.4361   11.8294 F   0  0  0  0  0  0
    0.4623    6.0052    9.5349 C   0  0  0  0  0  0
    0.9733    6.6961    8.4401 C   0  0  0  0  0  0
    8.4302    9.0135    5.3782 H   0  0  0  0  0  0
    9.3622    7.5969    5.8126 H   0  0  0  0  0  0
    6.7425    5.1549    8.5293 H   0  0  0  0  0  0
    4.4941    6.1671    8.3289 H   0  0  0  0  0  0
    1.8185   10.4189    5.2550 H   0  0  0  0  0  0
    5.3249    9.2332    4.5706 H   0  0  0  0  0  0
    3.6965    9.2053    2.9121 H   0  0  0  0  0  0
    2.8194   10.5839    3.4283 H   0  0  0  0  0  0
    5.5769   10.4513    2.1019 H   0  0  0  0  0  0
    4.1216   11.2289    1.5008 H   0  0  0  0  0  0
    5.6175   12.8257    2.3423 H   0  0  0  0  0  0
    6.8026   11.6146    4.0221 H   0  0  0  0  0  0
    6.0911   13.0934    4.6379 H   0  0  0  0  0  0
    4.2894   11.9048    5.7793 H   0  0  0  0  0  0
    5.7673   11.0874    6.0923 H   0  0  0  0  0  0
    3.7492    8.0258    9.8879 H   0  0  0  0  0  0
    2.8674    6.7488   11.8102 H   0  0  0  0  0  0
   -0.4689    5.4633    9.4501 H   0  0  0  0  0  0
    0.4263    6.6743    7.5078 H   0  0  0  0  0  0
  1  2  1  0  0  0
  1 26  1  0  0  0
  1 27  1  0  0  0
  2  3  2  0  0  0
  2  7  1  0  0  0
  3  4  1  0  0  0
  4  5  2  0  0  0
  4 28  1  0  0  0
  5  6  1  0  0  0
  5 29  1  0  0  0
  6  7  2  0  0  0
  6  8  1  0  0  0
  8  9  2  0  0  0
  8 12  1  0  0  0
  9 10  1  0  0  0
  9 19  1  0  0  0
 10 11  2  0  0  0
 11 12  1  0  0  0
 11 30  1  0  0  0
 12 13  1  0  0  0
 13 14  1  0  0  0
 13 18  1  0  0  0
 13 31  1  0  0  0
 14 15  1  0  0  0
 14 32  1  0  0  0
 14 33  1  0  0  0
 15 16  1  0  0  0
 15 34  1  0  0  0
 15 35  1  0  0  0
 16 17  1  0  0  0
 16 36  1  0  0  0
 17 18  1  0  0  0
 17 37  1  0  0  0
 17 38  1  0  0  0
 18 39  1  0  0  0
 18 40  1  0  0  0
 19 20  2  0  0  0
 19 25  1  0  0  0
 20 21  1  0  0  0
 20 41  1  0  0  0
 21 22  2  0  0  0
 21 42  1  0  0  0
 22 23  1  0  0  0
 22 24  1  0  0  0
 24 25  2  0  0  0
 24 43  1  0  0  0
 25 44  1  0  0  0
M  END
> <s_m_entry_id>
31803

> <s_m_entry_name>
dock_pv.66

> <s_m_Source_Path>
/home/csk/Desktop/cluster/DUD-E-result/src

> <s_m_Source_File>
dock_pv.maegz

> <i_m_Source_File_Index>
66

> <chembl_id>
CHEMBL274064

> <chembl_pref_name>
SB-220025

> <i_lp_mmshare_version>
53161

> <r_lp_tautomer_probability>
0.999999987636

> <s_lp_Force_Field>
OPLS_2005

> <r_lp_Energy>
23.304277

> <b_lp_Chiralities_Consistent>
1

> <s_lp_Variant>
CHEMBL267_lig3158-1

> <s_i_glide_gridfile>
glide-grid_3el8

> <i_i_glide_lignum>
3676

> <i_i_glide_rotatable_bonds>
3

> <r_i_docking_score>
-8.59197155147607

> <r_i_glide_ligand_efficiency>
-0.343678862059043

> <r_i_glide_ligand_efficiency_sa>
-1.00492308783121

> <r_i_glide_ligand_efficiency_ln>
-2.03655473830982

> <r_i_glide_gscore>
-8.59197155147607

> <r_i_glide_lipo>
-2.45644913799255

> <r_i_glide_hbond>
-0.495288251572737

> <r_i_glide_metal>
0

> <r_i_glide_rewards>
-3.28578102917402

> <r_i_glide_evdw>
-37.2238578796387

> <r_i_glide_ecoul>
-5.60064744949341

> <r_i_glide_erotb>
0.346836878669186

> <r_i_glide_esite>
0

> <r_i_glide_emodel>
-63.2713921894105

> <r_i_glide_energy>
-42.8245053291321

> <r_i_glide_einternal>
1.52879738807678

> <i_i_glide_confnum>
14

> <i_i_glide_posenum>
124

> <r_i_glide_eff_state_penalty>
0

> <s_user_duplicate_titles>
CHEMBL267_lig3158

> <i_f3d_flags>
0

> <s_m_subgroup_title>
dock_pv

> <s_m_subgroupid>
dock_pv

> <b_m_subgroup_collapsed>
1

$$$$
CHEMBL267_lig3136
                    3D
 Schrodinger Suite 2021-1.
 47 50  0  0  1  0            999 V2000
   -3.7112    3.0370    9.5877 F   0  0  0  0  0  0
    1.1753    3.2721    8.8781 O   0  0  0  0  0  0
   -0.2020   -2.0893    9.1880 O   0  0  0  0  0  0
    8.3039    7.8370    6.7877 N   0  0  0  0  0  0
    8.0467    6.7677    7.5518 N   0  0  0  0  0  0
    6.1902    5.6604    8.3879 N   0  0  0  0  0  0
    0.1981    5.3059    8.5667 N   0  0  0  0  0  0
   -1.1051    3.5436    8.8312 N   0  0  0  0  0  0
    6.0736    7.7837    7.0155 C   0  0  0  0  0  0
    4.7407    8.2363    6.7987 C   0  0  0  0  0  0
    7.1524    8.4980    6.4168 C   0  0  0  0  0  0
    6.7511    6.6947    7.6882 C   0  0  0  0  0  0
    3.5315    7.5316    7.3299 C   0  0  0  0  0  0
    4.5792    9.3713    5.9880 C   0  0  0  0  0  0
    6.9667    9.6267    5.6167 C   0  0  0  0  0  0
    3.4800    7.0207    8.6347 C   0  0  0  0  0  0
    2.4185    7.3507    6.4968 C   0  0  0  0  0  0
    5.6552   10.0457    5.4208 C   0  0  0  0  0  0
    1.3187    6.0491    8.1942 C   0  0  0  0  0  0
   -1.6100    2.2263    8.7880 C   0  0  0  0  0  0
    2.3923    6.2582    9.0626 C   0  0  0  0  0  0
    1.3138    6.6250    6.9264 C   0  0  0  0  0  0
   -2.9393    2.0151    9.1880 C   0  0  0  0  0  0
    0.1723    3.9796    8.7879 C   0  0  0  0  0  0
   -0.8507    1.1163    8.3880 C   0  0  0  0  0  0
   -1.4159   -0.1620    8.3880 C   0  0  0  0  0  0
   -3.5003    0.7403    9.1880 C   0  0  0  0  0  0
   -2.7416   -0.3487    8.7829 C   0  0  0  0  0  0
   -0.5817   -1.3630    8.0345 C   0  0  0  0  0  0
    0.5220   -1.6064    9.6091 H   0  0  0  0  0  0
    9.2534    8.0479    6.5113 H   0  0  0  0  0  0
    5.2152    5.4204    8.2719 H   0  0  0  0  0  0
    6.7650    4.9548    8.8342 H   0  0  0  0  0  0
   -0.6932    5.7175    8.3180 H   0  0  0  0  0  0
   -1.8151    4.2552    8.9394 H   0  0  0  0  0  0
    3.5870    9.7526    5.7937 H   0  0  0  0  0  0
    7.7957   10.1551    5.1689 H   0  0  0  0  0  0
    4.3000    7.1867    9.3180 H   0  0  0  0  0  0
    2.4192    7.7391    5.4889 H   0  0  0  0  0  0
    5.4653   10.9159    4.8086 H   0  0  0  0  0  0
    2.3864    5.8336   10.0569 H   0  0  0  0  0  0
    0.4756    6.4803    6.2587 H   0  0  0  0  0  0
    0.1791    1.2266    8.0848 H   0  0  0  0  0  0
   -4.5283    0.6060    9.4886 H   0  0  0  0  0  0
   -3.1769   -1.3372    8.7904 H   0  0  0  0  0  0
    0.3103   -1.0759    7.4756 H   0  0  0  0  0  0
   -1.1537   -2.0162    7.3735 H   0  0  0  0  0  0
  1 23  1  0  0  0
  2 24  2  0  0  0
  3 29  1  0  0  0
  3 30  1  0  0  0
  4  5  1  0  0  0
  4 11  1  0  0  0
  4 31  1  0  0  0
  5 12  2  0  0  0
  6 12  1  0  0  0
  6 32  1  0  0  0
  6 33  1  0  0  0
  7 19  1  0  0  0
  7 24  1  0  0  0
  7 34  1  0  0  0
  8 20  1  0  0  0
  8 24  1  0  0  0
  8 35  1  0  0  0
  9 10  2  0  0  0
  9 11  1  0  0  0
  9 12  1  0  0  0
 10 13  1  0  0  0
 10 14  1  0  0  0
 11 15  2  0  0  0
 13 16  2  0  0  0
 13 17  1  0  0  0
 14 18  2  0  0  0
 14 36  1  0  0  0
 15 18  1  0  0  0
 15 37  1  0  0  0
 16 21  1  0  0  0
 16 38  1  0  0  0
 17 22  2  0  0  0
 17 39  1  0  0  0
 18 40  1  0  0  0
 19 21  2  0  0  0
 19 22  1  0  0  0
 20 23  1  0  0  0
 20 25  2  0  0  0
 21 41  1  0  0  0
 22 42  1  0  0  0
 23 27  2  0  0  0
 25 26  1  0  0  0
 25 43  1  0  0  0
 26 28  2  0  0  0
 26 29  1  0  0  0
 27 28  1  0  0  0
 27 44  1  0  0  0
 28 45  1  0  0  0
 29 46  1  0  0  0
 29 47  1  0  0  0
M  END
> <s_m_entry_id>
31804

> <s_m_entry_name>
dock_pv.67

> <s_m_Source_Path>
/home/csk/Desktop/cluster/DUD-E-result/src

> <s_m_Source_File>
dock_pv.maegz

> <i_m_Source_File_Index>
67

> <chembl_id>
CHEMBL1985311

> <chembl_pref_name>
None

> <i_lp_mmshare_version>
53161

> <r_lp_tautomer_probability>
1

> <s_lp_Force_Field>
OPLS_2005

> <r_lp_Energy>
30.096898

> <b_lp_Chiralities_Consistent>
1

> <s_lp_Variant>
CHEMBL267_lig3136-1

> <s_i_glide_gridfile>
glide-grid_3el8

> <i_i_glide_lignum>
3637

> <i_i_glide_rotatable_bonds>
7

> <r_i_docking_score>
-8.58356816453628

> <r_i_glide_ligand_efficiency>
-0.295985109121941

> <r_i_glide_ligand_efficiency_sa>
-0.909360029887105

> <r_i_glide_ligand_efficiency_ln>
-1.96541944917042

> <r_i_glide_gscore>
-8.58356816453628

> <r_i_glide_lipo>
-3.29871240119204

> <r_i_glide_hbond>
-1.22530769582611

> <r_i_glide_metal>
0

> <r_i_glide_rewards>
-0.782116850868371

> <r_i_glide_evdw>
-43.1772499084473

> <r_i_glide_ecoul>
-10.978009223938

> <r_i_glide_erotb>
0.535011040476608

> <r_i_glide_esite>
-0.00687837811330808

> <r_i_glide_emodel>
-71.6237402916934

> <r_i_glide_energy>
-54.1552591323853

> <r_i_glide_einternal>
8.4783239364624

> <i_i_glide_confnum>
1

> <i_i_glide_posenum>
87

> <r_i_glide_eff_state_penalty>
0

> <s_user_duplicate_titles>
CHEMBL267_lig3136

> <i_f3d_flags>
0

> <s_m_subgroup_title>
dock_pv

> <s_m_subgroupid>
dock_pv

> <b_m_subgroup_collapsed>
1

$$$$
CHEMBL267_lig1864
                    3D
 Schrodinger Suite 2021-1.
 35 37  0  0  1  0            999 V2000
    7.4343    6.6082    7.5880 N   0  0  0  0  0  0
    7.7149    7.5980    6.6997 C   0  0  0  0  0  0
    6.8441    8.4777    6.1329 N   0  0  0  0  0  0
    6.1421    6.4983    7.9880 C   0  0  0  0  0  0
    5.1599    7.3871    7.5291 C   0  0  0  0  0  0
    5.5841    8.3266    6.5680 C   0  0  0  0  0  0
    4.4372    8.9934    6.1685 N   0  0  0  0  0  0
    3.3614    8.5778    6.8890 N   0  0  0  0  0  0
    3.7638    7.6296    7.7053 C   0  0  0  0  0  0
    2.8568    6.9517    8.6692 C   0  0  0  0  0  0
    1.9126    6.0038    8.2565 C   0  0  0  0  0  0
    1.0940    5.3655    9.1997 C   0  0  0  0  0  0
    1.1822    5.7253   10.5491 C   0  0  0  0  0  0
    2.1497    6.6371   10.9626 C   0  0  0  0  0  0
    2.9855    7.2479   10.0288 C   0  0  0  0  0  0
    5.7988    5.4183    8.7880 N   0  0  0  0  0  0
    4.3239   10.0748    5.1772 C   0  0  0  0  0  0
    4.5798   11.4372    5.8496 C   0  0  0  0  0  0
    2.9777   10.0378    4.4207 C   0  0  0  0  0  0
    0.1963    4.2939    8.7874 C   0  0  0  0  0  0
   -0.5087    3.4370    8.4562 N   0  0  0  0  0  0
    0.3558    5.1841   11.4758 F   0  0  0  0  0  0
    8.7462    7.6785    6.3861 H   0  0  0  0  0  0
    1.8453    5.7492    7.2068 H   0  0  0  0  0  0
    2.2426    6.8813   12.0108 H   0  0  0  0  0  0
    3.7276    7.9592   10.3633 H   0  0  0  0  0  0
    4.8479    5.3224    9.1153 H   0  0  0  0  0  0
    6.5239    4.7720    9.0769 H   0  0  0  0  0  0
    5.1127    9.9038    4.4416 H   0  0  0  0  0  0
    4.6057   12.2396    5.1112 H   0  0  0  0  0  0
    3.7979   11.6819    6.5672 H   0  0  0  0  0  0
    5.5347   11.4517    6.3783 H   0  0  0  0  0  0
    2.9539   10.7849    3.6272 H   0  0  0  0  0  0
    2.8100    9.0647    3.9564 H   0  0  0  0  0  0
    2.1335   10.2391    5.0820 H   0  0  0  0  0  0
  1  2  2  0  0  0
  1  4  1  0  0  0
  2  3  1  0  0  0
  2 23  1  0  0  0
  3  6  2  0  0  0
  4  5  2  0  0  0
  4 16  1  0  0  0
  5  9  1  0  0  0
  5  6  1  0  0  0
  6  7  1  0  0  0
  7 17  1  0  0  0
  7  8  1  0  0  0
  8  9  2  0  0  0
  9 10  1  0  0  0
 10 11  2  0  0  0
 10 15  1  0  0  0
 11 12  1  0  0  0
 11 24  1  0  0  0
 12 13  2  0  0  0
 12 20  1  0  0  0
 13 14  1  0  0  0
 13 22  1  0  0  0
 14 15  2  0  0  0
 14 25  1  0  0  0
 15 26  1  0  0  0
 16 27  1  0  0  0
 16 28  1  0  0  0
 17 18  1  0  0  0
 17 19  1  0  0  0
 17 29  1  0  0  0
 18 30  1  0  0  0
 18 31  1  0  0  0
 18 32  1  0  0  0
 19 33  1  0  0  0
 19 34  1  0  0  0
 19 35  1  0  0  0
 20 21  3  0  0  0
M  END
> <s_m_entry_id>
31805

> <s_m_entry_name>
dock_pv.68

> <s_m_Source_Path>
/home/csk/Desktop/cluster/DUD-E-result/src

> <s_m_Source_File>
dock_pv.maegz

> <i_m_Source_File_Index>
68

> <chembl_id>
CHEMBL1241680

> <chembl_pref_name>
None

> <i_lp_mmshare_version>
53161

> <r_lp_tautomer_probability>
1

> <s_lp_Force_Field>
OPLS_2005

> <r_lp_Energy>
11.003203

> <b_lp_Chiralities_Consistent>
1

> <s_lp_Variant>
CHEMBL267_lig1864-1

> <s_i_glide_gridfile>
glide-grid_3el8

> <i_i_glide_lignum>
2132

> <i_i_glide_rotatable_bonds>
2

> <r_i_docking_score>
-8.56611842579582

> <r_i_glide_ligand_efficiency>
-0.389369019354356

> <r_i_glide_ligand_efficiency_sa>
-1.09102730524549

> <r_i_glide_ligand_efficiency_ln>
-2.09387180002592

> <r_i_glide_gscore>
-8.56611842579582

> <r_i_glide_lipo>
-2.24799095933532

> <r_i_glide_hbond>
-0.475553680750904

> <r_i_glide_metal>
0

> <r_i_glide_rewards>
-3.623080792593

> <r_i_glide_evdw>
-35.7499046325684

> <r_i_glide_ecoul>
-4.27094030380249

> <r_i_glide_erotb>
0.208643284082195

> <r_i_glide_esite>
0

> <r_i_glide_emodel>
-56.0209337708043

> <r_i_glide_energy>
-40.0208449363708

> <r_i_glide_einternal>
4.06772041320801

> <i_i_glide_confnum>
2

> <i_i_glide_posenum>
178

> <r_i_glide_eff_state_penalty>
0

> <s_user_duplicate_titles>
CHEMBL267_lig1864

> <i_f3d_flags>
0

> <s_m_subgroup_title>
dock_pv

> <s_m_subgroupid>
dock_pv

> <b_m_subgroup_collapsed>
1

$$$$
CHEMBL267_lig1898
                    3D
 Schrodinger Suite 2021-1.
 39 42  0  0  1  0            999 V2000
    8.0650    6.6370    7.5879 N   0  0  0  0  0  0
    8.5990    7.6462    6.8624 C   0  0  0  0  0  0
    7.9602    8.6370    6.1999 N   0  0  0  0  0  0
    6.7200    6.6260    7.7110 C   0  0  0  0  0  0
    5.9305    7.6495    7.1436 C   0  0  0  0  0  0
    6.6386    8.6029    6.3692 C   0  0  0  0  0  0
    5.6946    9.4596    5.8417 N   0  0  0  0  0  0
    4.4662    9.1187    6.2660 N   0  0  0  0  0  0
    4.5643    8.0803    7.0686 C   0  0  0  0  0  0
    3.3496    7.5422    7.7442 C   0  0  0  0  0  0
    2.1210    7.7014    7.1047 C   0  0  0  0  0  0
    0.9604    7.1940    7.6612 C   0  0  0  0  0  0
    0.9911    6.4679    8.8581 C   0  0  0  0  0  0
    2.2230    6.3283    9.5199 C   0  0  0  0  0  0
    3.3860    6.8733    8.9730 C   0  0  0  0  0  0
    6.1929    5.5308    8.3880 N   0  0  0  0  0  0
   -0.2020    7.4370    6.9921 O   0  0  0  0  0  0
   -0.2018    5.9435    9.3192 O   0  0  0  0  0  0
   -0.1971    5.0851   10.4572 C   0  0  0  0  0  0
    5.8614   10.7014    5.0807 C   0  0  0  0  0  0
    6.9206   10.8181    3.9884 C   0  0  0  0  0  0
    5.9021   10.6315    2.9574 N   0  0  1  0  0  0
    4.8958   11.0245    3.9419 C   0  0  0  0  0  0
    9.6768    7.6472    6.7877 H   0  0  0  0  0  0
    2.0544    8.2232    6.1603 H   0  0  0  0  0  0
    2.2976    5.8082   10.4633 H   0  0  0  0  0  0
    4.3069    6.7862    9.5278 H   0  0  0  0  0  0
    5.1921    5.4292    8.4653 H   0  0  0  0  0  0
    6.8226    4.8295    8.7597 H   0  0  0  0  0  0
   -0.8852    6.7754    7.1883 H   0  0  0  0  0  0
   -1.1839    4.6383   10.5844 H   0  0  0  0  0  0
    0.0394    5.6381   11.3676 H   0  0  0  0  0  0
    0.5105    4.2626   10.3430 H   0  0  0  0  0  0
    5.9303   11.4875    5.8333 H   0  0  0  0  0  0
    7.3955   11.8021    3.9879 H   0  0  0  0  0  0
    7.7002   10.0581    3.9887 H   0  0  0  0  0  0
    5.9721   11.1958    2.1185 H   0  0  0  0  0  0
    3.9833   10.4269    3.9011 H   0  0  0  0  0  0
    4.6274   12.0835    3.9221 H   0  0  0  0  0  0
  1  2  2  0  0  0
  1  4  1  0  0  0
  2  3  1  0  0  0
  2 24  1  0  0  0
  3  6  2  0  0  0
  4  5  2  0  0  0
  4 16  1  0  0  0
  5  9  1  0  0  0
  5  6  1  0  0  0
  6  7  1  0  0  0
  7  8  1  0  0  0
  7 20  1  0  0  0
  8  9  2  0  0  0
  9 10  1  0  0  0
 10 15  1  0  0  0
 10 11  2  0  0  0
 11 12  1  0  0  0
 11 25  1  0  0  0
 12 13  2  0  0  0
 12 17  1  0  0  0
 13 14  1  0  0  0
 13 18  1  0  0  0
 14 15  2  0  0  0
 14 26  1  0  0  0
 15 27  1  0  0  0
 16 28  1  0  0  0
 16 29  1  0  0  0
 17 30  1  0  0  0
 18 19  1  0  0  0
 19 31  1  0  0  0
 19 32  1  0  0  0
 19 33  1  0  0  0
 20 21  1  0  0  0
 20 23  1  0  0  0
 20 34  1  0  0  0
 21 22  1  0  0  0
 21 35  1  0  0  0
 21 36  1  0  0  0
 22 23  1  0  0  0
 22 37  1  0  0  0
 23 38  1  0  0  0
 23 39  1  0  0  0
M  END
> <s_m_entry_id>
31806

> <s_m_entry_name>
dock_pv.69

> <s_m_Source_Path>
/home/csk/Desktop/cluster/DUD-E-result/src

> <s_m_Source_File>
dock_pv.maegz

> <i_m_Source_File_Index>
69

> <chembl_id>
CHEMBL1242203

> <chembl_pref_name>
None

> <i_lp_mmshare_version>
53161

> <r_lp_tautomer_probability>
0.999999999999776

> <s_lp_Force_Field>
OPLS_2005

> <r_lp_Energy>
22.641148

> <b_lp_Chiralities_Consistent>
1

> <s_lp_Variant>
CHEMBL267_lig1898-1

> <s_i_glide_gridfile>
glide-grid_3el8

> <i_i_glide_lignum>
2173

> <i_i_glide_rotatable_bonds>
4

> <r_i_docking_score>
-8.56031263641537

> <r_i_glide_ligand_efficiency>
-0.372187505931103

> <r_i_glide_ligand_efficiency_sa>
-1.05845175732452

> <r_i_glide_ligand_efficiency_ln>
-2.06996121610874

> <r_i_glide_gscore>
-8.56031263641537

> <r_i_glide_lipo>
-1.92744878944322

> <r_i_glide_hbond>
-0.561384830856563

> <r_i_glide_metal>
0

> <r_i_glide_rewards>
-3.17959734392815

> <r_i_glide_evdw>
-31.519832611084

> <r_i_glide_ecoul>
-10.5482311248779

> <r_i_glide_erotb>
0.26634462709846

> <r_i_glide_esite>
0

> <r_i_glide_emodel>
-62.133810015093

> <r_i_glide_energy>
-42.0680637359619

> <r_i_glide_einternal>
2.56013560295105

> <i_i_glide_confnum>
13

> <i_i_glide_posenum>
179

> <r_i_glide_eff_state_penalty>
0

> <s_user_duplicate_titles>
CHEMBL267_lig1898

> <i_f3d_flags>
0

> <s_m_subgroup_title>
dock_pv

> <s_m_subgroupid>
dock_pv

> <b_m_subgroup_collapsed>
1

$$$$
CHEMBL267_lig101
                    3D
 Schrodinger Suite 2021-1.
 51 55  0  0  1  0            999 V2000
    5.1202    9.4947    5.5452 N   0  0  0  0  0  0
    6.1409    8.7325    6.0930 C   0  0  0  0  0  0
    5.5616    7.8068    7.0085 C   0  0  0  0  0  0
    4.1434    8.0562    7.0349 C   0  0  0  0  0  0
    3.9345    9.0559    6.1016 C   0  0  0  0  0  0
    7.4466    8.8161    5.8042 N   0  0  0  0  0  0
    6.4705    6.8951    7.5883 C   0  0  0  0  0  0
    5.2698   10.5279    4.4995 C   0  0  2  0  0  0
    7.7985    6.9586    7.3385 N   0  0  0  0  0  0
    3.1031    7.3667    7.8434 C   0  0  0  0  0  0
    8.2080    7.9161    6.4746 C   0  0  0  0  0  0
    4.3803   11.7753    4.6700 C   0  0  2  0  0  0
    0.3256    5.1460   10.0073 O   0  0  0  0  0  0
    1.9395    6.9220    7.2134 C   0  0  0  0  0  0
    3.3048    7.1064    9.2017 C   0  0  0  0  0  0
    6.0471    5.8373    8.3880 N   0  0  0  0  0  0
    1.2223    5.8919    9.2786 C   0  0  0  0  0  0
    1.0014    6.1874    7.9294 C   0  0  0  0  0  0
    2.3624    6.3740    9.9186 C   0  0  0  0  0  0
   -0.1658    3.9809    9.4651 C   0  0  0  0  0  0
    4.1648   12.2368    5.9871 O   0  0  0  0  0  0
    4.8857    9.9829    3.1165 C   0  0  0  0  0  0
    3.3908   10.2960    2.9562 C   0  0  0  0  0  0
    3.0965   11.5030    3.8667 C   0  0  0  0  0  0
   -1.5423    3.8358    9.3155 C   0  0  0  0  0  0
    0.6867    2.9344    9.1043 C   0  0  0  0  0  0
    0.1524    1.7573    8.5823 C   0  0  0  0  0  0
   -2.0755    2.6685    8.7832 C   0  0  0  0  0  0
   -1.2227    1.6417    8.3881 C   0  0  0  0  0  0
    3.0058    9.5163    5.8023 H   0  0  0  0  0  0
    6.3279   10.7908    4.5444 H   0  0  0  0  0  0
    9.2719    7.9610    6.2900 H   0  0  0  0  0  0
    4.9090   12.5772    4.1496 H   0  0  0  0  0  0
    1.7760    7.1138    6.1630 H   0  0  0  0  0  0
    4.1957    7.4599    9.7009 H   0  0  0  0  0  0
    5.0605    5.7268    8.5758 H   0  0  0  0  0  0
    6.7289    5.1880    8.7555 H   0  0  0  0  0  0
    0.1144    5.8267    7.4324 H   0  0  0  0  0  0
    2.5277    6.1549   10.9638 H   0  0  0  0  0  0
    4.9862   12.6123    6.3126 H   0  0  0  0  0  0
    5.4557   10.5097    2.3493 H   0  0  0  0  0  0
    5.1077    8.9211    2.9940 H   0  0  0  0  0  0
    2.7947    9.4357    3.2660 H   0  0  0  0  0  0
    3.1313   10.5029    1.9169 H   0  0  0  0  0  0
    2.2637   11.2601    4.5281 H   0  0  0  0  0  0
    2.7953   12.3836    3.2975 H   0  0  0  0  0  0
   -2.2035    4.6369    9.5918 H   0  0  0  0  0  0
    1.7510    3.0258    9.2619 H   0  0  0  0  0  0
    0.7811    0.9060    8.3878 H   0  0  0  0  0  0
   -3.1440    2.5662    8.6587 H   0  0  0  0  0  0
   -1.6397    0.7312    7.9821 H   0  0  0  0  0  0
  1  2  1  0  0  0
  1  5  1  0  0  0
  1  8  1  0  0  0
  2  3  1  0  0  0
  2  6  2  0  0  0
  3  7  2  0  0  0
  3  4  1  0  0  0
  4  5  2  0  0  0
  4 10  1  0  0  0
  5 30  1  0  0  0
  6 11  1  0  0  0
  7 16  1  0  0  0
  7  9  1  0  0  0
  8 12  1  0  0  0
  8 22  1  0  0  0
  8 31  1  0  0  0
  9 11  2  0  0  0
 10 14  1  0  0  0
 10 15  2  0  0  0
 11 32  1  0  0  0
 12 21  1  0  0  0
 12 24  1  0  0  0
 12 33  1  0  0  0
 13 17  1  0  0  0
 13 20  1  0  0  0
 14 18  2  0  0  0
 14 34  1  0  0  0
 15 19  1  0  0  0
 15 35  1  0  0  0
 16 36  1  0  0  0
 16 37  1  0  0  0
 17 19  2  0  0  0
 17 18  1  0  0  0
 18 38  1  0  0  0
 19 39  1  0  0  0
 20 25  1  0  0  0
 20 26  2  0  0  0
 21 40  1  0  0  0
 22 23  1  0  0  0
 22 41  1  0  0  0
 22 42  1  0  0  0
 23 24  1  0  0  0
 23 43  1  0  0  0
 23 44  1  0  0  0
 24 45  1  0  0  0
 24 46  1  0  0  0
 25 28  2  0  0  0
 25 47  1  0  0  0
 26 27  1  0  0  0
 26 48  1  0  0  0
 27 29  2  0  0  0
 27 49  1  0  0  0
 28 29  1  0  0  0
 28 50  1  0  0  0
 29 51  1  0  0  0
M  END
> <s_m_entry_id>
31807

> <s_m_entry_name>
dock_pv.70

> <s_m_Source_Path>
/home/csk/Desktop/cluster/DUD-E-result/src

> <s_m_Source_File>
dock_pv.maegz

> <i_m_Source_File_Index>
70

> <chembl_id>
CHEMBL419082

> <chembl_pref_name>
None

> <i_lp_mmshare_version>
53161

> <r_lp_tautomer_probability>
1

> <s_lp_Force_Field>
OPLS_2005

> <r_lp_Energy>
40.659398

> <b_lp_Chiralities_Consistent>
1

> <s_lp_Variant>
CHEMBL267_lig101-1

> <s_i_glide_gridfile>
glide-grid_3el8

> <i_i_glide_lignum>
136

> <i_i_glide_rotatable_bonds>
5

> <r_i_docking_score>
-8.55516209605569

> <r_i_glide_ligand_efficiency>
-0.295005589519162

> <r_i_glide_ligand_efficiency_sa>
-0.906350635333776

> <r_i_glide_ligand_efficiency_ln>
-1.95891517980411

> <r_i_glide_gscore>
-8.55516209605569

> <r_i_glide_lipo>
-3.51908240480441

> <r_i_glide_hbond>
-0.121540621632313

> <r_i_glide_metal>
0

> <r_i_glide_rewards>
-2.28894609298217

> <r_i_glide_evdw>
-44.1415672302246

> <r_i_glide_ecoul>
-5.22290992736816

> <r_i_glide_erotb>
0.364921873979661

> <r_i_glide_esite>
0

> <r_i_glide_emodel>
-71.1738910642691

> <r_i_glide_energy>
-49.3644771575928

> <r_i_glide_einternal>
5.73848390579224

> <i_i_glide_confnum>
3

> <i_i_glide_posenum>
298

> <r_i_glide_eff_state_penalty>
0

> <s_user_duplicate_titles>
CHEMBL267_lig101

> <i_f3d_flags>
0

> <s_m_subgroup_title>
dock_pv

> <s_m_subgroupid>
dock_pv

> <b_m_subgroup_collapsed>
1

$$$$
CHEMBL267_lig1530
                    3D
 Schrodinger Suite 2021-1.
 43 46  0  0  1  0            999 V2000
    7.5376    6.4805    7.5881 N   0  0  0  0  0  0
    7.9525    7.4375    6.7263 C   0  0  0  0  0  0
    7.2015    8.3806    6.1125 N   0  0  0  0  0  0
    6.2266    6.4863    7.9451 C   0  0  0  0  0  0
    5.3323    7.4370    7.4001 C   0  0  0  0  0  0
    5.9065    8.3391    6.4546 C   0  0  0  0  0  0
    4.8963    9.1207    5.9177 N   0  0  0  0  0  0
    3.7192    8.7488    6.5395 C   0  0  0  0  0  0
    3.9266    7.7438    7.4715 C   0  0  0  0  0  0
    2.8899    7.0803    8.3009 C   0  0  0  0  0  0
    3.0693    6.9171    9.6752 C   0  0  0  0  0  0
    2.1122    6.2357   10.4198 C   0  0  0  0  0  0
    0.9865    5.6879    9.8021 C   0  0  0  0  0  0
    0.8061    5.8729    8.4230 C   0  0  0  0  0  0
    1.7489    6.5723    7.6777 C   0  0  0  0  0  0
    5.7982    5.4403    8.7610 N   0  0  0  0  0  0
    5.0844   10.1386    4.8632 C   0  0  0  0  0  0
    3.7970   10.7460    4.2793 C   0  0  0  0  0  0
    3.5445   11.9896    5.1349 C   0  0  0  0  0  0
    4.9456   12.5436    5.4211 C   0  0  0  0  0  0
    5.9079   11.3450    5.3621 C   0  0  0  0  0  0
    0.1159    4.9858   10.6110 O   0  0  0  0  0  0
   -0.9496    4.2533   10.0111 C   0  0  0  0  0  0
    9.0003    7.4354    6.4661 H   0  0  0  0  0  0
    2.7926    9.2382    6.2824 H   0  0  0  0  0  0
    3.9479    7.3076   10.1686 H   0  0  0  0  0  0
    2.2602    6.0986   11.4811 H   0  0  0  0  0  0
   -0.0540    5.4751    7.9108 H   0  0  0  0  0  0
    1.6042    6.6897    6.6117 H   0  0  0  0  0  0
    4.8261    5.3909    9.0353 H   0  0  0  0  0  0
    6.4801    4.7646    9.0850 H   0  0  0  0  0  0
    5.6170    9.5573    4.1063 H   0  0  0  0  0  0
    3.9822   11.0507    3.2497 H   0  0  0  0  0  0
    2.9498   10.0615    4.2378 H   0  0  0  0  0  0
    2.9063   12.7163    4.6311 H   0  0  0  0  0  0
    3.0555   11.7102    6.0675 H   0  0  0  0  0  0
    5.2197   13.2823    4.6656 H   0  0  0  0  0  0
    4.9954   13.0365    6.3880 H   0  0  0  0  0  0
    6.3876   11.1612    6.3246 H   0  0  0  0  0  0
    6.7180   11.5520    4.6617 H   0  0  0  0  0  0
   -1.5884    3.8371   10.7874 H   0  0  0  0  0  0
   -0.5687    3.4277    9.4091 H   0  0  0  0  0  0
   -1.5808    4.8765    9.3778 H   0  0  0  0  0  0
  1  2  2  0  0  0
  1  4  1  0  0  0
  2  3  1  0  0  0
  2 24  1  0  0  0
  3  6  2  0  0  0
  4  5  2  0  0  0
  4 16  1  0  0  0
  5  9  1  0  0  0
  5  6  1  0  0  0
  6  7  1  0  0  0
  7 17  1  0  0  0
  7  8  1  0  0  0
  8  9  2  0  0  0
  8 25  1  0  0  0
  9 10  1  0  0  0
 10 15  1  0  0  0
 10 11  2  0  0  0
 11 12  1  0  0  0
 11 26  1  0  0  0
 12 13  2  0  0  0
 12 27  1  0  0  0
 13 14  1  0  0  0
 13 22  1  0  0  0
 14 15  2  0  0  0
 14 28  1  0  0  0
 15 29  1  0  0  0
 16 30  1  0  0  0
 16 31  1  0  0  0
 17 18  1  0  0  0
 17 21  1  0  0  0
 17 32  1  0  0  0
 18 19  1  0  0  0
 18 33  1  0  0  0
 18 34  1  0  0  0
 19 20  1  0  0  0
 19 35  1  0  0  0
 19 36  1  0  0  0
 20 21  1  0  0  0
 20 37  1  0  0  0
 20 38  1  0  0  0
 21 39  1  0  0  0
 21 40  1  0  0  0
 22 23  1  0  0  0
 23 41  1  0  0  0
 23 42  1  0  0  0
 23 43  1  0  0  0
M  END
> <s_m_entry_id>
31808

> <s_m_entry_name>
dock_pv.71

> <s_m_Source_Path>
/home/csk/Desktop/cluster/DUD-E-result/src

> <s_m_Source_File>
dock_pv.maegz

> <i_m_Source_File_Index>
71

> <chembl_id>
CHEMBL170724

> <chembl_pref_name>
None

> <i_lp_mmshare_version>
53161

> <r_lp_tautomer_probability>
1

> <s_lp_Force_Field>
OPLS_2005

> <r_lp_Energy>
37.099239

> <b_lp_Chiralities_Consistent>
1

> <s_lp_Variant>
CHEMBL267_lig1530-1

> <s_i_glide_gridfile>
glide-grid_3el8

> <i_i_glide_lignum>
1711

> <i_i_glide_rotatable_bonds>
3

> <r_i_docking_score>
-8.53839295177372

> <r_i_glide_ligand_efficiency>
-0.371234476164075

> <r_i_glide_ligand_efficiency_sa>
-1.05574146744208

> <r_i_glide_ligand_efficiency_ln>
-2.06466083760568

> <r_i_glide_gscore>
-8.53839295177372

> <r_i_glide_lipo>
-2.54847382429619

> <r_i_glide_hbond>
-0.457213734391684

> <r_i_glide_metal>
0

> <r_i_glide_rewards>
-3.26862974957732

> <r_i_glide_evdw>
-35.3322410583496

> <r_i_glide_ecoul>
-5.13218259811401

> <r_i_glide_erotb>
0.272363799126053

> <r_i_glide_esite>
0

> <r_i_glide_emodel>
-57.1192802510373

> <r_i_glide_energy>
-40.4644236564636

> <r_i_glide_einternal>
5.70736169815063

> <i_i_glide_confnum>
8

> <i_i_glide_posenum>
365

> <r_i_glide_eff_state_penalty>
0

> <s_user_duplicate_titles>
CHEMBL267_lig1530,281829

> <i_f3d_flags>
0

> <s_m_subgroup_title>
dock_pv

> <s_m_subgroupid>
dock_pv

> <b_m_subgroup_collapsed>
1

$$$$
CHEMBL267_lig1828
                    3D
 Schrodinger Suite 2021-1.
 43 46  0  0  1  0            999 V2000
    5.1928    9.7309    3.4914 C   0  0  0  0  0  0
    3.6637    9.7962    3.3502 C   0  0  0  0  0  0
    3.6971   10.8238    4.4936 C   0  0  0  0  0  0
    5.0141   10.1674    4.9592 C   0  0  0  0  0  0
    5.0133    9.1160    5.9832 N   0  0  0  0  0  0
    3.8591    8.6917    6.5477 N   0  0  0  0  0  0
    6.0928    8.4001    6.4649 C   0  0  0  0  0  0
    7.3858    8.5286    6.1419 N   0  0  0  0  0  0
    8.1804    7.6172    6.7615 C   0  0  0  0  0  0
    7.7978    6.6098    7.5880 N   0  0  0  0  0  0
    6.4750    6.5241    7.8851 C   0  0  0  0  0  0
    6.0520    5.4370    8.6420 N   0  0  0  0  0  0
    5.5565    7.4501    7.3616 C   0  0  0  0  0  0
    4.1583    7.7584    7.4223 C   0  0  0  0  0  0
    3.1241    7.1611    8.3061 C   0  0  0  0  0  0
    3.3021    7.1795    9.6911 C   0  0  0  0  0  0
    1.9791    6.5763    7.7697 C   0  0  0  0  0  0
    1.0302    5.9975    8.6075 C   0  0  0  0  0  0
    1.1990    6.0101   10.0043 C   0  0  0  0  0  0
    0.2883    5.4385   10.8752 O   0  0  0  0  0  0
   -0.7245    4.5696   10.3644 C   0  0  0  0  0  0
    2.3421    6.6240   10.5537 C   0  0  0  0  0  0
    2.4677    6.6370   11.9344 O   0  0  0  0  0  0
    3.6939    7.0462   12.5430 C   0  0  0  0  0  0
    5.7148   10.4691    2.8766 H   0  0  0  0  0  0
    5.6595    8.7578    3.3351 H   0  0  0  0  0  0
    3.2895   10.1611    2.3928 H   0  0  0  0  0  0
    3.1504    8.8656    3.6076 H   0  0  0  0  0  0
    2.8652   10.8057    5.1996 H   0  0  0  0  0  0
    3.8242   11.8510    4.1413 H   0  0  0  0  0  0
    5.7614   10.8810    5.3157 H   0  0  0  0  0  0
    9.2366    7.6903    6.5478 H   0  0  0  0  0  0
    5.0732    5.3462    8.8745 H   0  0  0  0  0  0
    6.7380    4.7697    8.9793 H   0  0  0  0  0  0
    4.1899    7.6508   10.0852 H   0  0  0  0  0  0
    1.8290    6.5558    6.6997 H   0  0  0  0  0  0
    0.1635    5.5443    8.1499 H   0  0  0  0  0  0
   -1.3531    4.2371   11.1877 H   0  0  0  0  0  0
   -0.2836    3.6818    9.9080 H   0  0  0  0  0  0
   -1.3934    5.0371    9.6398 H   0  0  0  0  0  0
    3.7193    6.7209   13.5865 H   0  0  0  0  0  0
    4.5759    6.6369   12.0534 H   0  0  0  0  0  0
    3.7983    8.1295   12.5284 H   0  0  0  0  0  0
  1  2  1  0  0  0
  1  4  1  0  0  0
  1 25  1  0  0  0
  1 26  1  0  0  0
  2  3  1  0  0  0
  2 27  1  0  0  0
  2 28  1  0  0  0
  3  4  1  0  0  0
  3 29  1  0  0  0
  3 30  1  0  0  0
  4  5  1  0  0  0
  4 31  1  0  0  0
  5  6  1  0  0  0
  5  7  1  0  0  0
  6 14  2  0  0  0
  7  8  2  0  0  0
  7 13  1  0  0  0
  8  9  1  0  0  0
  9 10  2  0  0  0
  9 32  1  0  0  0
 10 11  1  0  0  0
 11 12  1  0  0  0
 11 13  2  0  0  0
 12 33  1  0  0  0
 12 34  1  0  0  0
 13 14  1  0  0  0
 14 15  1  0  0  0
 15 16  2  0  0  0
 15 17  1  0  0  0
 16 22  1  0  0  0
 16 35  1  0  0  0
 17 18  2  0  0  0
 17 36  1  0  0  0
 18 19  1  0  0  0
 18 37  1  0  0  0
 19 20  1  0  0  0
 19 22  2  0  0  0
 20 21  1  0  0  0
 21 38  1  0  0  0
 21 39  1  0  0  0
 21 40  1  0  0  0
 22 23  1  0  0  0
 23 24  1  0  0  0
 24 41  1  0  0  0
 24 42  1  0  0  0
 24 43  1  0  0  0
M  END
> <s_m_entry_id>
31809

> <s_m_entry_name>
dock_pv.72

> <s_m_Source_Path>
/home/csk/Desktop/cluster/DUD-E-result/src

> <s_m_Source_File>
dock_pv.maegz

> <i_m_Source_File_Index>
72

> <chembl_id>
CHEMBL1233881

> <chembl_pref_name>
None

> <i_lp_mmshare_version>
53161

> <r_lp_tautomer_probability>
1

> <s_lp_Force_Field>
OPLS_2005

> <r_lp_Energy>
28.443608

> <b_lp_Chiralities_Consistent>
1

> <s_lp_Variant>
CHEMBL267_lig1828-1

> <s_i_glide_gridfile>
glide-grid_3el8

> <i_i_glide_lignum>
2094

> <i_i_glide_rotatable_bonds>
4

> <r_i_docking_score>
-8.53833075672358

> <r_i_glide_ligand_efficiency>
-0.355763781530149

> <r_i_glide_ligand_efficiency_sa>
-1.02620032099849

> <r_i_glide_ligand_efficiency_ln>
-2.04361434855245

> <r_i_glide_gscore>
-8.53833075672358

> <r_i_glide_lipo>
-2.23898559681874

> <r_i_glide_hbond>
-0.542949748186968

> <r_i_glide_metal>
0

> <r_i_glide_rewards>
-3.14597665096957

> <r_i_glide_evdw>
-38.3151512145996

> <r_i_glide_ecoul>
-6.28330326080322

> <r_i_glide_erotb>
0.247834289102161

> <r_i_glide_esite>
0

> <r_i_glide_emodel>
-65.1952661510532

> <r_i_glide_energy>
-44.5984544754028

> <r_i_glide_einternal>
3.95271062850952

> <i_i_glide_confnum>
21

> <i_i_glide_posenum>
354

> <r_i_glide_eff_state_penalty>
0

> <s_user_duplicate_titles>
CHEMBL267_lig1828

> <i_f3d_flags>
0

> <s_m_subgroup_title>
dock_pv

> <s_m_subgroupid>
dock_pv

> <b_m_subgroup_collapsed>
1

$$$$
CHEMBL267_lig1486
                    3D
 Schrodinger Suite 2021-1.
 36 39  0  0  1  0            999 V2000
    7.4152    6.3960    7.5880 N   0  0  0  0  0  0
    7.7294    7.4363    6.7800 C   0  0  0  0  0  0
    6.8924    8.3870    6.2938 N   0  0  0  0  0  0
    6.1237    6.2979    7.9886 C   0  0  0  0  0  0
    5.1484    7.2316    7.5878 C   0  0  0  0  0  0
    5.6192    8.2483    6.6995 C   0  0  0  0  0  0
    4.5253    9.0117    6.3017 N   0  0  0  0  0  0
    3.4158    8.5021    6.9434 C   0  0  0  0  0  0
    3.7363    7.4473    7.7761 C   0  0  0  0  0  0
    2.7566    6.6793    8.5827 C   0  0  0  0  0  0
    2.6870    6.8641    9.9661 C   0  0  0  0  0  0
    1.6677    6.2570   10.7030 C   0  0  0  0  0  0
    0.7353    5.4366   10.0666 C   0  0  0  0  0  0
    0.8138    5.2326    8.6893 C   0  0  0  0  0  0
    1.8157    5.8612    7.9477 C   0  0  0  0  0  0
    4.4998   10.1359    5.4448 C   0  0  0  0  0  0
    3.5034   10.2369    4.4669 C   0  0  0  0  0  0
    3.4818   11.3344    3.6104 C   0  0  0  0  0  0
    4.4515   12.3269    3.7336 C   0  0  0  0  0  0
    5.4502   12.2282    4.6989 C   0  0  0  0  0  0
    5.4838   11.1257    5.5490 C   0  0  0  0  0  0
    5.7981    5.2082    8.7880 N   0  0  0  0  0  0
    1.5143    6.5888   12.3881 Cl  0  0  0  0  0  0
    8.7609    7.5014    6.4616 H   0  0  0  0  0  0
    2.4533    8.9628    6.7735 H   0  0  0  0  0  0
    3.3906    7.5166   10.4619 H   0  0  0  0  0  0
   -0.0615    4.9769   10.6336 H   0  0  0  0  0  0
    0.0799    4.6116    8.1957 H   0  0  0  0  0  0
    1.8477    5.7292    6.8761 H   0  0  0  0  0  0
    2.7509    9.4686    4.3578 H   0  0  0  0  0  0
    2.7183   11.4150    2.8509 H   0  0  0  0  0  0
    4.4337   13.1776    3.0672 H   0  0  0  0  0  0
    6.1984   13.0026    4.7822 H   0  0  0  0  0  0
    6.2636   11.0555    6.2930 H   0  0  0  0  0  0
    4.8520    5.1090    9.1298 H   0  0  0  0  0  0
    6.5275    4.5540    9.0542 H   0  0  0  0  0  0
  1  2  2  0  0  0
  1  4  1  0  0  0
  2  3  1  0  0  0
  2 24  1  0  0  0
  3  6  2  0  0  0
  4  5  2  0  0  0
  4 22  1  0  0  0
  5  9  1  0  0  0
  5  6  1  0  0  0
  6  7  1  0  0  0
  7  8  1  0  0  0
  7 16  1  0  0  0
  8  9  2  0  0  0
  8 25  1  0  0  0
  9 10  1  0  0  0
 10 15  1  0  0  0
 10 11  2  0  0  0
 11 12  1  0  0  0
 11 26  1  0  0  0
 12 13  2  0  0  0
 12 23  1  0  0  0
 13 14  1  0  0  0
 13 27  1  0  0  0
 14 15  2  0  0  0
 14 28  1  0  0  0
 15 29  1  0  0  0
 16 17  2  0  0  0
 16 21  1  0  0  0
 17 18  1  0  0  0
 17 30  1  0  0  0
 18 19  2  0  0  0
 18 31  1  0  0  0
 19 20  1  0  0  0
 19 32  1  0  0  0
 20 21  2  0  0  0
 20 33  1  0  0  0
 21 34  1  0  0  0
 22 35  1  0  0  0
 22 36  1  0  0  0
M  END
> <s_m_entry_id>
31810

> <s_m_entry_name>
dock_pv.73

> <s_m_Source_Path>
/home/csk/Desktop/cluster/DUD-E-result/src

> <s_m_Source_File>
dock_pv.maegz

> <i_m_Source_File_Index>
73

> <chembl_id>
CHEMBL176309

> <chembl_pref_name>
None

> <i_lp_mmshare_version>
53161

> <r_lp_tautomer_probability>
1

> <s_lp_Force_Field>
OPLS_2005

> <r_lp_Energy>
16.488958

> <b_lp_Chiralities_Consistent>
1

> <s_lp_Variant>
CHEMBL267_lig1486-1

> <s_i_glide_gridfile>
glide-grid_3el8

> <i_i_glide_lignum>
1667

> <i_i_glide_rotatable_bonds>
2

> <r_i_docking_score>
-8.53045780004886

> <r_i_glide_ligand_efficiency>
-0.370889469567342

> <r_i_glide_ligand_efficiency_sa>
-1.05476031457483

> <r_i_glide_ligand_efficiency_ln>
-2.06274204596663

> <r_i_glide_gscore>
-8.53045780004886

> <r_i_glide_lipo>
-2.86568038321156

> <r_i_glide_hbond>
-0.413612798872525

> <r_i_glide_metal>
0

> <r_i_glide_rewards>
-3.08543010045508

> <r_i_glide_evdw>
-35.7915229797363

> <r_i_glide_ecoul>
-4.92793560028076

> <r_i_glide_erotb>
0.363031971519226

> <r_i_glide_esite>
0

> <r_i_glide_emodel>
-59.6879135653122

> <r_i_glide_energy>
-40.7194585800171

> <r_i_glide_einternal>
2.61646676063538

> <i_i_glide_confnum>
11

> <i_i_glide_posenum>
229

> <r_i_glide_eff_state_penalty>
0

> <s_user_duplicate_titles>
CHEMBL267_lig1486,290728

> <i_f3d_flags>
0

> <s_m_subgroup_title>
dock_pv

> <s_m_subgroupid>
dock_pv

> <b_m_subgroup_collapsed>
1

$$$$
CHEMBL267_lig3712
                    3D
 Schrodinger Suite 2021-1.
 38 40  0  0  1  0            999 V2000
    0.9980    5.6383   11.3819 F   0  0  0  0  0  0
    5.7980   10.6371    0.7882 O   0  0  0  0  0  0
    4.2576    9.4186    5.3420 N   0  0  0  0  0  0
    2.2014    9.0489    6.1450 N   0  0  0  0  0  0
    8.1750    6.8677    7.5880 N   0  0  0  0  0  0
    4.3965    8.6393    6.4893 C   0  0  0  0  0  0
    3.0703    8.4604    6.9520 C   0  0  0  0  0  0
    5.7103    8.1076    7.0060 C   0  0  0  0  0  0
    2.5409    7.6888    8.1287 C   0  0  0  0  0  0
    2.9097    9.6449    5.2313 C   0  0  0  0  0  0
    5.3019    9.9764    4.4655 C   0  0  0  0  0  0
    3.2349    7.6672    9.3442 C   0  0  0  0  0  0
    1.3256    6.9953    8.0235 C   0  0  0  0  0  0
    5.7618    6.8351    7.5880 C   0  0  0  0  0  0
    6.9217    8.8001    6.8643 C   0  0  0  0  0  0
    2.7270    6.9599   10.4322 C   0  0  0  0  0  0
    0.8150    6.2928    9.1117 C   0  0  0  0  0  0
    1.5159    6.2818   10.3135 C   0  0  0  0  0  0
    6.9984    6.2445    7.8463 C   0  0  0  0  0  0
    8.1213    8.1427    7.1380 C   0  0  0  0  0  0
    4.9150   10.0969    2.9736 C   0  0  0  0  0  0
    5.9494   10.9059    2.1641 C   0  0  0  0  0  0
    5.8933   11.4455    0.2530 H   0  0  0  0  0  0
    2.5121   10.2521    4.4333 H   0  0  0  0  0  0
    5.5791   10.9498    4.8730 H   0  0  0  0  0  0
    6.1817    9.3375    4.5030 H   0  0  0  0  0  0
    4.1651    8.2060    9.4510 H   0  0  0  0  0  0
    0.7718    6.9940    7.0953 H   0  0  0  0  0  0
    4.8645    6.2563    7.7432 H   0  0  0  0  0  0
    6.9517    9.8155    6.5030 H   0  0  0  0  0  0
    3.2635    6.9405   11.3699 H   0  0  0  0  0  0
   -0.1266    5.7681    9.0295 H   0  0  0  0  0  0
    7.0558    5.2395    8.2418 H   0  0  0  0  0  0
    9.0686    8.6348    6.9763 H   0  0  0  0  0  0
    4.8188    9.0902    2.5623 H   0  0  0  0  0  0
    3.9463   10.5769    2.8399 H   0  0  0  0  0  0
    5.8735   11.9725    2.3813 H   0  0  0  0  0  0
    6.9645   10.6219    2.4453 H   0  0  0  0  0  0
  1 18  1  0  0  0
  2 22  1  0  0  0
  2 23  1  0  0  0
  3  6  1  0  0  0
  3 10  1  0  0  0
  3 11  1  0  0  0
  4  7  1  0  0  0
  4 10  2  0  0  0
  5 19  2  0  0  0
  5 20  1  0  0  0
  6  7  2  0  0  0
  6  8  1  0  0  0
  7  9  1  0  0  0
  8 14  2  0  0  0
  8 15  1  0  0  0
  9 12  2  0  0  0
  9 13  1  0  0  0
 10 24  1  0  0  0
 11 21  1  0  0  0
 11 25  1  0  0  0
 11 26  1  0  0  0
 12 16  1  0  0  0
 12 27  1  0  0  0
 13 17  2  0  0  0
 13 28  1  0  0  0
 14 19  1  0  0  0
 14 29  1  0  0  0
 15 20  2  0  0  0
 15 30  1  0  0  0
 16 18  2  0  0  0
 16 31  1  0  0  0
 17 18  1  0  0  0
 17 32  1  0  0  0
 19 33  1  0  0  0
 20 34  1  0  0  0
 21 22  1  0  0  0
 21 35  1  0  0  0
 21 36  1  0  0  0
 22 37  1  0  0  0
 22 38  1  0  0  0
M  END
> <s_m_entry_id>
31811

> <s_m_entry_name>
dock_pv.74

> <s_m_Source_Path>
/home/csk/Desktop/cluster/DUD-E-result/src

> <s_m_Source_File>
dock_pv.maegz

> <i_m_Source_File_Index>
74

> <chembl_id>
CHEMBL2004871

> <chembl_pref_name>
None

> <i_lp_mmshare_version>
53161

> <r_lp_tautomer_probability>
1

> <s_lp_Force_Field>
OPLS_2005

> <r_lp_Energy>
14.272103

> <b_lp_Chiralities_Consistent>
1

> <s_lp_Variant>
CHEMBL267_lig3712-1

> <s_i_glide_gridfile>
glide-grid_3el8

> <i_i_glide_lignum>
4520

> <i_i_glide_rotatable_bonds>
6

> <r_i_docking_score>
-8.51874050524793

> <r_i_glide_ligand_efficiency>
-0.38721547751127

> <r_i_glide_ligand_efficiency_sa>
-1.08499299630716

> <r_i_glide_ligand_efficiency_ln>
-2.08229090809237

> <r_i_glide_gscore>
-8.51874050524793

> <r_i_glide_lipo>
-2.70049359290783

> <r_i_glide_hbond>
-0.973244845909444

> <r_i_glide_metal>
0

> <r_i_glide_rewards>
-3.08715140627598

> <r_i_glide_evdw>
-23.1158466339111

> <r_i_glide_ecoul>
-10.9266624450684

> <r_i_glide_erotb>
1.03694103830114

> <r_i_glide_esite>
0

> <r_i_glide_emodel>
-49.2043339396626

> <r_i_glide_energy>
-34.0425090789795

> <r_i_glide_einternal>
6.72200727462769

> <i_i_glide_confnum>
78

> <i_i_glide_posenum>
36

> <r_i_glide_eff_state_penalty>
0

> <s_user_duplicate_titles>
CHEMBL267_lig3712

> <i_f3d_flags>
0

> <s_m_subgroup_title>
dock_pv

> <s_m_subgroupid>
dock_pv

> <b_m_subgroup_collapsed>
1

$$$$
CHEMBL267_lig1538
                    3D
 Schrodinger Suite 2021-1.
 37 40  0  0  1  0            999 V2000
    7.9896    6.7401    7.5879 N   0  0  0  0  0  0
    8.5980    7.6670    6.8151 C   0  0  0  0  0  0
    8.0279    8.6370    6.0637 N   0  0  0  0  0  0
    6.6422    6.8016    7.6602 C   0  0  0  0  0  0
    5.9128    7.8191    7.0040 C   0  0  0  0  0  0
    6.6990    8.6965    6.1971 C   0  0  0  0  0  0
    5.8562    9.6193    5.6018 N   0  0  0  0  0  0
    4.5722    9.3096    5.9881 C   0  0  0  0  0  0
    4.5433    8.2434    6.8790 C   0  0  0  0  0  0
    3.3351    7.7562    7.5945 C   0  0  0  0  0  0
    2.1197    7.8049    6.9148 C   0  0  0  0  0  0
    0.9624    7.3306    7.5117 C   0  0  0  0  0  0
    0.9980    6.7716    8.7879 C   0  0  0  0  0  0
    2.2041    6.7405    9.4887 C   0  0  0  0  0  0
    3.3642    7.2464    8.8992 C   0  0  0  0  0  0
    6.0391    5.7805    8.3880 N   0  0  0  0  0  0
    6.2563   10.7194    4.7112 C   0  0  0  0  0  0
   -0.2020    7.4370    6.8199 O   0  0  0  0  0  0
    6.1979   10.4809    3.1921 C   0  0  0  0  0  0
    4.8401   11.1984    3.1827 C   0  0  0  0  0  0
    5.3074   11.9099    4.4627 C   0  0  0  0  0  0
    9.6769    7.6136    6.7880 H   0  0  0  0  0  0
    3.7544    9.9200    5.6345 H   0  0  0  0  0  0
    2.0646    8.2008    5.9114 H   0  0  0  0  0  0
    0.0985    6.3854    9.2466 H   0  0  0  0  0  0
    2.2408    6.3345   10.4895 H   0  0  0  0  0  0
    4.2774    7.2534    9.4737 H   0  0  0  0  0  0
    5.0317    5.7431    8.4500 H   0  0  0  0  0  0
    6.6220    5.0696    8.8091 H   0  0  0  0  0  0
    7.2367   11.0283    5.0792 H   0  0  0  0  0  0
   -0.8830    6.8053    7.0992 H   0  0  0  0  0  0
    6.9695   11.0191    2.6364 H   0  0  0  0  0  0
    6.1973    9.4378    2.8754 H   0  0  0  0  0  0
    4.6530   11.8440    2.3230 H   0  0  0  0  0  0
    3.9866   10.5327    3.3248 H   0  0  0  0  0  0
    4.5562   12.1010    5.2299 H   0  0  0  0  0  0
    5.8334   12.8462    4.2610 H   0  0  0  0  0  0
  1  2  2  0  0  0
  1  4  1  0  0  0
  2  3  1  0  0  0
  2 22  1  0  0  0
  3  6  2  0  0  0
  4  5  2  0  0  0
  4 16  1  0  0  0
  5  6  1  0  0  0
  5  9  1  0  0  0
  6  7  1  0  0  0
  7 17  1  0  0  0
  7  8  1  0  0  0
  8  9  2  0  0  0
  8 23  1  0  0  0
  9 10  1  0  0  0
 10 11  2  0  0  0
 10 15  1  0  0  0
 11 12  1  0  0  0
 11 24  1  0  0  0
 12 13  2  0  0  0
 12 18  1  0  0  0
 13 14  1  0  0  0
 13 25  1  0  0  0
 14 15  2  0  0  0
 14 26  1  0  0  0
 15 27  1  0  0  0
 16 28  1  0  0  0
 16 29  1  0  0  0
 17 19  1  0  0  0
 17 21  1  0  0  0
 17 30  1  0  0  0
 18 31  1  0  0  0
 19 20  1  0  0  0
 19 32  1  0  0  0
 19 33  1  0  0  0
 20 21  1  0  0  0
 20 34  1  0  0  0
 20 35  1  0  0  0
 21 36  1  0  0  0
 21 37  1  0  0  0
M  END
> <s_m_entry_id>
31812

> <s_m_entry_name>
dock_pv.75

> <s_m_Source_Path>
/home/csk/Desktop/cluster/DUD-E-result/src

> <s_m_Source_File>
dock_pv.maegz

> <i_m_Source_File_Index>
75

> <chembl_id>
CHEMBL355330

> <chembl_pref_name>
None

> <i_lp_mmshare_version>
53161

> <r_lp_tautomer_probability>
0.999999999997365

> <s_lp_Force_Field>
OPLS_2005

> <r_lp_Energy>
23.184609

> <b_lp_Chiralities_Consistent>
1

> <s_lp_Variant>
CHEMBL267_lig1538-1

> <s_i_glide_gridfile>
glide-grid_3el8

> <i_i_glide_lignum>
1719

> <i_i_glide_rotatable_bonds>
3

> <r_i_docking_score>
-8.5058644712264

> <r_i_glide_ligand_efficiency>
-0.405041165296495

> <r_i_glide_ligand_efficiency_sa>
-1.11747786223202

> <r_i_glide_ligand_efficiency_ln>
-2.1030578027932

> <r_i_glide_gscore>
-8.5058644712264

> <r_i_glide_lipo>
-1.97965383770442

> <r_i_glide_hbond>
-0.679490001821801

> <r_i_glide_metal>
0

> <r_i_glide_rewards>
-3.32060921061996

> <r_i_glide_evdw>
-30.5955562591553

> <r_i_glide_ecoul>
-8.78702831268311

> <r_i_glide_erotb>
0.321720638780007

> <r_i_glide_esite>
0

> <r_i_glide_emodel>
-58.6251042811685

> <r_i_glide_energy>
-39.3825845718384

> <r_i_glide_einternal>
1.72561979293823

> <i_i_glide_confnum>
29

> <i_i_glide_posenum>
331

> <r_i_glide_eff_state_penalty>
0

> <s_user_duplicate_titles>
CHEMBL267_lig1538,281928

> <i_f3d_flags>
0

> <s_m_subgroup_title>
dock_pv

> <s_m_subgroupid>
dock_pv

> <b_m_subgroup_collapsed>
1

$$$$
CHEMBL267_lig1930
                    3D
 Schrodinger Suite 2021-1.
 41 45  0  0  1  0            999 V2000
    7.7985    6.6371    7.5878 N   0  0  0  0  0  0
    8.1424    7.6403    6.7377 C   0  0  0  0  0  0
    7.3167    8.5295    6.1255 N   0  0  0  0  0  0
    6.4852    6.5298    7.9124 C   0  0  0  0  0  0
    5.5406    7.4370    7.4041 C   0  0  0  0  0  0
    6.0342    8.3816    6.4795 C   0  0  0  0  0  0
    4.9225    9.0545    6.0063 N   0  0  0  0  0  0
    3.7977    8.6366    6.6379 N   0  0  0  0  0  0
    4.1403    7.7032    7.4986 C   0  0  0  0  0  0
    3.1562    7.0445    8.3960 C   0  0  0  0  0  0
    2.1356    6.2562    7.8596 C   0  0  0  0  0  0
    2.3672    6.6372   10.6665 C   0  0  0  0  0  0
    3.2785    7.2104    9.7781 C   0  0  0  0  0  0
    6.0918    5.4371    8.6809 N   0  0  0  0  0  0
    1.3210    5.8622   10.1467 C   0  0  0  0  0  0
    1.2279    5.6427    8.7362 C   0  0  0  0  0  0
    0.1981    4.8089    8.4068 N   0  0  0  0  0  0
   -0.3963    4.5777    9.5890 N   0  0  0  0  0  0
    0.2019    5.1676   10.6741 C   0  0  0  0  0  0
    4.8732   10.1170    4.9977 C   0  0  0  0  0  0
    3.8515    9.8703    3.8765 C   0  0  0  0  0  0
    3.6508   11.2561    3.2613 C   0  0  0  0  0  0
    3.8075   12.2547    4.4207 C   0  0  0  0  0  0
    4.4982   11.4980    5.5681 C   0  0  0  0  0  0
    9.1896    7.7235    6.4835 H   0  0  0  0  0  0
    2.0547    6.1123    6.7910 H   0  0  0  0  0  0
    2.4654    6.7956   11.7310 H   0  0  0  0  0  0
    4.0847    7.8118   10.1729 H   0  0  0  0  0  0
    5.1191    5.3443    8.9405 H   0  0  0  0  0  0
    6.7925    4.7843    9.0163 H   0  0  0  0  0  0
   -1.2342    4.0156    9.6474 H   0  0  0  0  0  0
   -0.2109    5.0383   11.6641 H   0  0  0  0  0  0
    5.8663   10.1756    4.5439 H   0  0  0  0  0  0
    4.1955    9.1342    3.1476 H   0  0  0  0  0  0
    2.8966    9.5260    4.2798 H   0  0  0  0  0  0
    4.4190   11.4404    2.5085 H   0  0  0  0  0  0
    2.6838   11.3483    2.7633 H   0  0  0  0  0  0
    4.3916   13.1216    4.1076 H   0  0  0  0  0  0
    2.8333   12.6266    4.7439 H   0  0  0  0  0  0
    3.7858   11.3984    6.3878 H   0  0  0  0  0  0
    5.3714   12.0317    5.9458 H   0  0  0  0  0  0
  1  2  2  0  0  0
  1  4  1  0  0  0
  2  3  1  0  0  0
  2 25  1  0  0  0
  3  6  2  0  0  0
  4 14  1  0  0  0
  4  5  2  0  0  0
  5  9  1  0  0  0
  5  6  1  0  0  0
  6  7  1  0  0  0
  7  8  1  0  0  0
  7 20  1  0  0  0
  8  9  2  0  0  0
  9 10  1  0  0  0
 10 11  2  0  0  0
 10 13  1  0  0  0
 11 16  1  0  0  0
 11 26  1  0  0  0
 12 13  2  0  0  0
 12 27  1  0  0  0
 12 15  1  0  0  0
 13 28  1  0  0  0
 14 29  1  0  0  0
 14 30  1  0  0  0
 15 16  1  0  0  0
 15 19  2  0  0  0
 16 17  2  0  0  0
 17 18  1  0  0  0
 18 31  1  0  0  0
 18 19  1  0  0  0
 19 32  1  0  0  0
 20 21  1  0  0  0
 20 24  1  0  0  0
 20 33  1  0  0  0
 21 22  1  0  0  0
 21 34  1  0  0  0
 21 35  1  0  0  0
 22 23  1  0  0  0
 22 36  1  0  0  0
 22 37  1  0  0  0
 23 24  1  0  0  0
 23 38  1  0  0  0
 23 39  1  0  0  0
 24 40  1  0  0  0
 24 41  1  0  0  0
M  END
> <s_m_entry_id>
31813

> <s_m_entry_name>
dock_pv.76

> <s_m_Source_Path>
/home/csk/Desktop/cluster/DUD-E-result/src

> <s_m_Source_File>
dock_pv.maegz

> <i_m_Source_File_Index>
76

> <chembl_id>
CHEMBL1242572

> <chembl_pref_name>
None

> <i_lp_mmshare_version>
53161

> <r_lp_tautomer_probability>
0.0196078431372549

> <s_lp_Force_Field>
OPLS_2005

> <r_lp_Energy>
44.689059

> <b_lp_Chiralities_Consistent>
1

> <s_lp_Variant>
CHEMBL267_lig1930-2

> <s_i_glide_gridfile>
glide-grid_3el8

> <i_i_glide_lignum>
2210

> <i_i_glide_rotatable_bonds>
2

> <r_i_docking_score>
-8.50178553021629

> <r_i_glide_ligand_efficiency>
-0.354241063759012

> <r_i_glide_ligand_efficiency_sa>
-1.02180804290089

> <r_i_glide_ligand_efficiency_ln>
-2.03486739889808

> <r_i_glide_gscore>
-8.50178553021629

> <r_i_glide_lipo>
-2.41206824402864

> <r_i_glide_hbond>
-0.531169212194342

> <r_i_glide_metal>
0

> <r_i_glide_rewards>
-3.08762220664303

> <r_i_glide_evdw>
-38.4842643737793

> <r_i_glide_ecoul>
-5.35211563110352

> <r_i_glide_erotb>
0.256104696004212

> <r_i_glide_esite>
0

> <r_i_glide_emodel>
-65.5528457485937

> <r_i_glide_energy>
-43.8363800048828

> <r_i_glide_einternal>
3.38730406761169

> <i_i_glide_confnum>
10

> <i_i_glide_posenum>
168

> <r_i_glide_eff_state_penalty>
0

> <s_user_duplicate_titles>
CHEMBL267_lig1930,CHEMBL267_lig1930

> <i_f3d_flags>
0

> <s_m_subgroup_title>
dock_pv

> <s_m_subgroupid>
dock_pv

> <b_m_subgroup_collapsed>
1

$$$$
CHEMBL267_lig1830
                    3D
 Schrodinger Suite 2021-1.
 35 37  0  0  1  0            999 V2000
    5.2158   11.2990    5.4318 C   0  0  0  0  0  0
    4.3818   10.0528    5.0711 C   0  0  0  0  0  0
    4.7447    9.4797    3.6853 C   0  0  0  0  0  0
    4.5240    9.0191    6.1072 N   0  0  0  0  0  0
    3.4334    8.6369    6.8196 N   0  0  0  0  0  0
    5.6541    8.3265    6.5206 C   0  0  0  0  0  0
    6.9190    8.4274    6.0832 N   0  0  0  0  0  0
    7.7646    7.5419    6.6776 C   0  0  0  0  0  0
    7.4548    6.5805    7.5853 N   0  0  0  0  0  0
    6.1610    6.5137    7.9879 C   0  0  0  0  0  0
    5.7982    5.4371    8.7880 N   0  0  0  0  0  0
    5.2041    7.4275    7.5105 C   0  0  0  0  0  0
    3.8171    7.7326    7.6928 C   0  0  0  0  0  0
    2.9080    7.1640    8.7271 C   0  0  0  0  0  0
    1.6992    6.5297    8.4117 C   0  0  0  0  0  0
    3.3260    7.2143   10.0616 C   0  0  0  0  0  0
    2.5593    6.6371   11.0702 C   0  0  0  0  0  0
    1.3691    5.9918   10.7486 C   0  0  0  0  0  0
    0.9435    5.9280    9.4237 C   0  0  0  0  0  0
   -0.2076    5.2457    9.1460 O   0  0  0  0  0  0
    5.0914   12.0827    4.6840 H   0  0  0  0  0  0
    4.9101   11.7224    6.3885 H   0  0  0  0  0  0
    6.2824   11.0755    5.4902 H   0  0  0  0  0  0
    3.3312   10.3556    5.0381 H   0  0  0  0  0  0
    4.6174   10.2330    2.9075 H   0  0  0  0  0  0
    5.7794    9.1364    3.6402 H   0  0  0  0  0  0
    4.1039    8.6375    3.4227 H   0  0  0  0  0  0
    8.8008    7.5922    6.3751 H   0  0  0  0  0  0
    4.8453    5.3565    9.1147 H   0  0  0  0  0  0
    6.5124    4.7775    9.0722 H   0  0  0  0  0  0
    1.3762    6.4646    7.3832 H   0  0  0  0  0  0
    4.2536    7.6986   10.3246 H   0  0  0  0  0  0
    2.8979    6.6748   12.0954 H   0  0  0  0  0  0
    0.7806    5.5280   11.5268 H   0  0  0  0  0  0
   -0.6446    5.4397    8.3087 H   0  0  0  0  0  0
  1  2  1  0  0  0
  1 21  1  0  0  0
  1 22  1  0  0  0
  1 23  1  0  0  0
  2  3  1  0  0  0
  2  4  1  0  0  0
  2 24  1  0  0  0
  3 25  1  0  0  0
  3 26  1  0  0  0
  3 27  1  0  0  0
  4  5  1  0  0  0
  4  6  1  0  0  0
  5 13  2  0  0  0
  6  7  1  0  0  0
  6 12  2  0  0  0
  7  8  2  0  0  0
  8  9  1  0  0  0
  8 28  1  0  0  0
  9 10  2  0  0  0
 10 11  1  0  0  0
 10 12  1  0  0  0
 11 29  1  0  0  0
 11 30  1  0  0  0
 12 13  1  0  0  0
 13 14  1  0  0  0
 14 15  1  0  0  0
 14 16  2  0  0  0
 15 19  2  0  0  0
 15 31  1  0  0  0
 16 17  1  0  0  0
 16 32  1  0  0  0
 17 18  2  0  0  0
 17 33  1  0  0  0
 18 19  1  0  0  0
 18 34  1  0  0  0
 19 20  1  0  0  0
 20 35  1  0  0  0
M  END
> <s_m_entry_id>
31814

> <s_m_entry_name>
dock_pv.77

> <s_m_Source_Path>
/home/csk/Desktop/cluster/DUD-E-result/src

> <s_m_Source_File>
dock_pv.maegz

> <i_m_Source_File_Index>
77

> <chembl_id>
CHEMBL1230790

> <chembl_pref_name>
None

> <i_lp_mmshare_version>
53161

> <r_lp_tautomer_probability>
0.999999999997365

> <s_lp_Force_Field>
OPLS_2005

> <r_lp_Energy>
11.530342

> <b_lp_Chiralities_Consistent>
1

> <s_lp_Variant>
CHEMBL267_lig1830-1

> <s_i_glide_gridfile>
glide-grid_3el8

> <i_i_glide_lignum>
2096

> <i_i_glide_rotatable_bonds>
3

> <r_i_docking_score>
-8.49453333904094

> <r_i_glide_ligand_efficiency>
-0.424726666952047

> <r_i_glide_ligand_efficiency_sa>
-1.15288554586103

> <r_i_glide_ligand_efficiency_ln>
-2.12590152630159

> <r_i_glide_gscore>
-8.49453333904094

> <r_i_glide_lipo>
-2.16167205954142

> <r_i_glide_hbond>
-0.640363270826279

> <r_i_glide_metal>
0

> <r_i_glide_rewards>
-3.3757820168582

> <r_i_glide_evdw>
-32.4904518127441

> <r_i_glide_ecoul>
-6.25692892074585

> <r_i_glide_erotb>
0.24634593693405

> <r_i_glide_esite>
0

> <r_i_glide_emodel>
-55.9364305526139

> <r_i_glide_energy>
-38.74738073349

> <r_i_glide_einternal>
3.82381391525269

> <i_i_glide_confnum>
1

> <i_i_glide_posenum>
119

> <r_i_glide_eff_state_penalty>
0

> <s_user_duplicate_titles>
CHEMBL267_lig1830

> <i_f3d_flags>
0

> <s_m_subgroup_title>
dock_pv

> <s_m_subgroupid>
dock_pv

> <b_m_subgroup_collapsed>
1

$$$$
CHEMBL267_lig3429
                    3D
 Schrodinger Suite 2021-1.
 49 52  0  0  1  0            999 V2000
    3.7995    7.9450   10.8304 Cl  0  0  0  0  0  0
    1.6680    6.6369   12.7874 Cl  0  0  0  0  0  0
    0.5552    8.9889    4.0632 O   0  0  0  0  0  0
    8.7002    7.8379    6.7777 N   0  0  0  0  0  0
    8.1980    6.8972    7.5878 N   0  0  0  0  0  0
    2.6236   12.0070    4.0389 N   0  0  0  0  0  0
   -0.6018    8.2367    6.7866 N   0  0  0  0  0  0
    6.5079    8.0665    6.6838 C   0  0  0  0  0  0
    7.7147    8.5635    6.1482 C   0  0  0  0  0  0
    5.3055    9.6306    5.2839 C   0  0  0  0  0  0
    5.3008    8.6227    6.2568 C   0  0  0  0  0  0
    6.8969    7.0203    7.5766 C   0  0  0  0  0  0
    4.0116   10.1603    4.7838 C   0  0  0  0  0  0
    7.7521    9.5791    5.1880 C   0  0  0  0  0  0
    6.5232   10.0960    4.7748 C   0  0  0  0  0  0
    2.9250    9.2982    4.6094 C   0  0  0  0  0  0
    1.6803    9.7781    4.1931 C   0  0  0  0  0  0
    3.8080   11.5126    4.4816 C   0  0  0  0  0  0
    1.5878   11.1398    3.8987 C   0  0  0  0  0  0
    6.0239    6.0892    8.3868 C   0  0  0  0  0  0
    1.1606    6.3052    8.3086 C   0  0  0  0  0  0
    2.4633    7.0372   10.2171 C   0  0  0  0  0  0
    1.5313    6.4491   11.0786 C   0  0  0  0  0  0
    2.2789    6.9541    8.8382 C   0  0  0  0  0  0
    0.6243    7.7031    6.2087 C   0  0  1  0  0  0
    0.9277    6.3045    6.8011 C   0  0  0  0  0  0
    0.5141    7.6825    4.6564 C   0  0  0  0  0  0
    0.2480    5.6945    9.1749 C   0  0  0  0  0  0
    0.4337    5.7653   10.5549 C   0  0  0  0  0  0
    9.6951    7.8805    6.6020 H   0  0  0  0  0  0
   -0.9509    8.9602    6.1672 H   0  0  0  0  0  0
   -1.3032    7.5010    6.7721 H   0  0  0  0  0  0
    4.3740    8.2522    6.6629 H   0  0  0  0  0  0
    8.6830    9.9503    4.7849 H   0  0  0  0  0  0
    6.5221   10.8703    4.0204 H   0  0  0  0  0  0
    3.0536    8.2481    4.8137 H   0  0  0  0  0  0
    4.6036   12.2338    4.5988 H   0  0  0  0  0  0
    0.6554   11.5601    3.5531 H   0  0  0  0  0  0
    5.3545    6.6394    9.0402 H   0  0  0  0  0  0
    5.3978    5.4662    7.7530 H   0  0  0  0  0  0
    6.5957    5.4097    9.0179 H   0  0  0  0  0  0
    2.9872    7.4322    8.1814 H   0  0  0  0  0  0
    1.4274    8.3762    6.5064 H   0  0  0  0  0  0
    1.8237    5.8953    6.3318 H   0  0  0  0  0  0
    0.1318    5.6048    6.5455 H   0  0  0  0  0  0
    1.2968    7.0638    4.2152 H   0  0  0  0  0  0
   -0.4211    7.2076    4.3532 H   0  0  0  0  0  0
   -0.6249    5.1896    8.7883 H   0  0  0  0  0  0
   -0.2998    5.3242   11.2154 H   0  0  0  0  0  0
  1 22  1  0  0  0
  2 23  1  0  0  0
  3 17  1  0  0  0
  3 27  1  0  0  0
  4  5  1  0  0  0
  4  9  1  0  0  0
  4 30  1  0  0  0
  5 12  2  0  0  0
  6 18  1  0  0  0
  6 19  2  0  0  0
  7 25  1  0  0  0
  7 31  1  0  0  0
  7 32  1  0  0  0
  8  9  1  0  0  0
  8 11  2  0  0  0
  8 12  1  0  0  0
  9 14  2  0  0  0
 10 11  1  0  0  0
 10 13  1  0  0  0
 10 15  2  0  0  0
 11 33  1  0  0  0
 12 20  1  0  0  0
 13 16  1  0  0  0
 13 18  2  0  0  0
 14 15  1  0  0  0
 14 34  1  0  0  0
 15 35  1  0  0  0
 16 17  2  0  0  0
 16 36  1  0  0  0
 17 19  1  0  0  0
 18 37  1  0  0  0
 19 38  1  0  0  0
 20 39  1  0  0  0
 20 40  1  0  0  0
 20 41  1  0  0  0
 21 24  1  0  0  0
 21 26  1  0  0  0
 21 28  2  0  0  0
 22 23  1  0  0  0
 22 24  2  0  0  0
 23 29  2  0  0  0
 24 42  1  0  0  0
 25 26  1  0  0  0
 25 27  1  0  0  0
 25 43  1  0  0  0
 26 44  1  0  0  0
 26 45  1  0  0  0
 27 46  1  0  0  0
 27 47  1  0  0  0
 28 29  1  0  0  0
 28 48  1  0  0  0
 29 49  1  0  0  0
M  END
> <s_m_entry_id>
31815

> <s_m_entry_name>
dock_pv.78

> <s_m_Source_Path>
/home/csk/Desktop/cluster/DUD-E-result/src

> <s_m_Source_File>
dock_pv.maegz

> <i_m_Source_File_Index>
78

> <chembl_id>
CHEMBL1991063

> <chembl_pref_name>
None

> <i_lp_mmshare_version>
53161

> <r_lp_tautomer_probability>
0.980392156862745

> <s_lp_Force_Field>
OPLS_2005

> <r_lp_Energy>
23.665702

> <b_lp_Chiralities_Consistent>
1

> <s_lp_Variant>
CHEMBL267_lig3429-2

> <s_i_glide_gridfile>
glide-grid_3el8

> <i_i_glide_lignum>
4099

> <i_i_glide_rotatable_bonds>
6

> <r_i_docking_score>
-8.48361525704808

> <r_i_glide_ligand_efficiency>
-0.292538457139589

> <r_i_glide_ligand_efficiency_sa>
-0.898770823021328

> <r_i_glide_ligand_efficiency_ln>
-1.94253276794266

> <r_i_glide_gscore>
-8.48361525704808

> <r_i_glide_lipo>
-4.01803879853192

> <r_i_glide_hbond>
-0.71142380026757

> <r_i_glide_metal>
0

> <r_i_glide_rewards>
-1.0548324641371

> <r_i_glide_evdw>
-42.0095863342285

> <r_i_glide_ecoul>
-7.61642694473267

> <r_i_glide_erotb>
0.543623164309835

> <r_i_glide_esite>
0

> <r_i_glide_emodel>
-72.1123828912419

> <r_i_glide_energy>
-49.6260132789612

> <r_i_glide_einternal>
5.27800559997559

> <i_i_glide_confnum>
40

> <i_i_glide_posenum>
342

> <r_i_glide_eff_state_penalty>
0

> <s_user_duplicate_titles>
CHEMBL267_lig3429,CHEMBL267_lig3429

> <i_f3d_flags>
0

> <s_m_subgroup_title>
dock_pv

> <s_m_subgroupid>
dock_pv

> <b_m_subgroup_collapsed>
1

$$$$
CHEMBL267_lig1835
                    3D
 Schrodinger Suite 2021-1.
 32 34  0  0  1  0            999 V2000
    8.0347    6.7741    7.5860 N   0  0  0  0  0  0
    8.5981    7.7130    6.7891 C   0  0  0  0  0  0
    7.9829    8.6370    6.0128 N   0  0  0  0  0  0
    6.6860    6.7847    7.6704 C   0  0  0  0  0  0
    5.9253    7.7825    7.0216 C   0  0  0  0  0  0
    6.6584    8.6464    6.1773 C   0  0  0  0  0  0
    5.7311    9.4632    5.5658 N   0  0  0  0  0  0
    4.4866    9.1933    6.0014 N   0  0  0  0  0  0
    4.5684    8.2370    6.9056 C   0  0  0  0  0  0
    3.3665    7.7639    7.6511 C   0  0  0  0  0  0
    2.1112    7.8215    7.0457 C   0  0  0  0  0  0
    0.9930    7.2886    7.6746 C   0  0  0  0  0  0
    1.1197    6.6416    8.9153 C   0  0  0  0  0  0
    2.3626    6.6362    9.5510 C   0  0  0  0  0  0
    3.4695    7.2125    8.9330 C   0  0  0  0  0  0
    6.1212    5.7345    8.3880 N   0  0  0  0  0  0
   -0.0474    5.9641    9.6147 C   0  0  0  0  0  0
   -0.2020    7.4370    7.0305 O   0  0  0  0  0  0
    5.9467   10.5271    4.5981 C   0  0  0  0  0  0
    9.6780    7.7115    6.7638 H   0  0  0  0  0  0
    1.9983    8.2684    6.0684 H   0  0  0  0  0  0
    2.4775    6.1799   10.5247 H   0  0  0  0  0  0
    4.4078    7.2227    9.4647 H   0  0  0  0  0  0
    5.1162    5.6601    8.4501 H   0  0  0  0  0  0
    6.7262    5.0316    8.7934 H   0  0  0  0  0  0
   -0.0799    6.2411   10.6691 H   0  0  0  0  0  0
    0.0581    4.8799    9.5657 H   0  0  0  0  0  0
   -1.0047    6.2371    9.1875 H   0  0  0  0  0  0
   -0.8455    6.7303    7.1983 H   0  0  0  0  0  0
    6.5160   11.3285    5.0700 H   0  0  0  0  0  0
    6.5103   10.1330    3.7520 H   0  0  0  0  0  0
    4.9960   10.9250    4.2391 H   0  0  0  0  0  0
  1  4  1  0  0  0
  1  2  2  0  0  0
  2  3  1  0  0  0
  2 20  1  0  0  0
  3  6  2  0  0  0
  4  5  2  0  0  0
  4 16  1  0  0  0
  5  9  1  0  0  0
  5  6  1  0  0  0
  6  7  1  0  0  0
  7  8  1  0  0  0
  7 19  1  0  0  0
  8  9  2  0  0  0
  9 10  1  0  0  0
 10 11  2  0  0  0
 10 15  1  0  0  0
 11 12  1  0  0  0
 11 21  1  0  0  0
 12 13  2  0  0  0
 12 18  1  0  0  0
 13 14  1  0  0  0
 13 17  1  0  0  0
 14 15  2  0  0  0
 14 22  1  0  0  0
 15 23  1  0  0  0
 16 24  1  0  0  0
 16 25  1  0  0  0
 17 26  1  0  0  0
 17 27  1  0  0  0
 17 28  1  0  0  0
 18 29  1  0  0  0
 19 30  1  0  0  0
 19 31  1  0  0  0
 19 32  1  0  0  0
M  END
> <s_m_entry_id>
31816

> <s_m_entry_name>
dock_pv.79

> <s_m_Source_Path>
/home/csk/Desktop/cluster/DUD-E-result/src

> <s_m_Source_File>
dock_pv.maegz

> <i_m_Source_File_Index>
79

> <chembl_id>
CHEMBL1241271

> <chembl_pref_name>
None

> <i_lp_mmshare_version>
53161

> <r_lp_tautomer_probability>
0.999999999997365

> <s_lp_Force_Field>
OPLS_2005

> <r_lp_Energy>
5.672338

> <b_lp_Chiralities_Consistent>
1

> <s_lp_Variant>
CHEMBL267_lig1835-1

> <s_i_glide_gridfile>
glide-grid_3el8

> <i_i_glide_lignum>
2101

> <i_i_glide_rotatable_bonds>
2

> <r_i_docking_score>
-8.4824822235983

> <r_i_glide_ligand_efficiency>
-0.446446432820963

> <r_i_glide_ligand_efficiency_sa>
-1.19129839623625

> <r_i_glide_ligand_efficiency_ln>
-2.15049143069539

> <r_i_glide_gscore>
-8.4824822235983

> <r_i_glide_lipo>
-1.54688475841179

> <r_i_glide_hbond>
-0.745278512948216

> <r_i_glide_metal>
0

> <r_i_glide_rewards>
-3.44802137329233

> <r_i_glide_evdw>
-27.9621200561523

> <r_i_glide_ecoul>
-10.2219409942627

> <r_i_glide_erotb>
0.18909957300106

> <r_i_glide_esite>
0

> <r_i_glide_emodel>
-57.0365367514858

> <r_i_glide_energy>
-38.184061050415

> <r_i_glide_einternal>
0.637853741645813

> <i_i_glide_confnum>
1

> <i_i_glide_posenum>
345

> <r_i_glide_eff_state_penalty>
0

> <s_user_duplicate_titles>
CHEMBL267_lig1835

> <i_f3d_flags>
0

> <s_m_subgroup_title>
dock_pv

> <s_m_subgroupid>
dock_pv

> <b_m_subgroup_collapsed>
1

$$$$
CHEMBL267_lig138
                    3D
 Schrodinger Suite 2021-1.
 43 46  0  0  1  0            999 V2000
    5.7773    8.3381    6.5037 C   0  0  0  0  0  0
    4.7015    9.0657    5.9989 N   0  0  0  0  0  0
    5.2700    7.4347    7.4849 C   0  0  0  0  0  0
    3.8752    7.7201    7.6575 C   0  0  0  0  0  0
    3.5753    8.6673    6.6969 C   0  0  0  0  0  0
    7.0576    8.3925    6.1032 N   0  0  0  0  0  0
    6.1986    6.4976    7.9825 C   0  0  0  0  0  0
    4.7077   10.0497    4.9824 C   0  0  0  0  0  0
    2.9392    7.0491    8.5871 C   0  0  0  0  0  0
    7.4960    6.5140    7.5880 N   0  0  0  0  0  0
    2.5717   11.0224    1.9562 C   0  0  0  0  0  0
    3.6799   10.0671    4.0305 C   0  0  0  0  0  0
    3.6783   11.0038    2.9846 C   0  0  0  0  0  0
    7.8547    7.4690    6.6961 C   0  0  0  0  0  0
    1.9615    6.1813    8.0971 C   0  0  0  0  0  0
    2.4921   11.8805    1.0815 O   0  0  0  0  0  0
    5.7984    5.4370    8.7879 N   0  0  0  0  0  0
    1.6764   10.0016    2.0602 O   0  0  0  0  0  0
    1.0921    5.5186    8.9657 C   0  0  0  0  0  0
    5.7594   10.9675    4.8754 C   0  0  0  0  0  0
    3.0444    7.2707    9.9614 C   0  0  0  0  0  0
    0.1980    4.6397    8.3896 O   0  0  0  0  0  0
    4.7309   11.9290    2.9085 C   0  0  0  0  0  0
    5.7640   11.9087    3.8461 C   0  0  0  0  0  0
    2.1672    6.6365   10.8385 C   0  0  0  0  0  0
    1.1896    5.7708   10.3449 C   0  0  0  0  0  0
   -0.7316    3.9498    9.2198 C   0  0  0  0  0  0
    2.6224    9.1228    6.4693 H   0  0  0  0  0  0
    2.8853    9.3361    4.1016 H   0  0  0  0  0  0
    8.8919    7.4718    6.3898 H   0  0  0  0  0  0
    1.8891    5.9975    7.0344 H   0  0  0  0  0  0
    4.8420    5.3930    9.1136 H   0  0  0  0  0  0
    6.4903    4.7594    9.0866 H   0  0  0  0  0  0
    1.0369   10.0276    1.3441 H   0  0  0  0  0  0
    6.5715   10.9671    5.5887 H   0  0  0  0  0  0
    3.8037    7.9331   10.3501 H   0  0  0  0  0  0
    4.7635   12.6636    2.1141 H   0  0  0  0  0  0
    6.5710   12.6229    3.7714 H   0  0  0  0  0  0
    2.2480    6.8047   11.9038 H   0  0  0  0  0  0
    0.5290    5.2859   11.0482 H   0  0  0  0  0  0
   -1.3469    3.2926    8.6066 H   0  0  0  0  0  0
   -0.2211    3.3288    9.9577 H   0  0  0  0  0  0
   -1.4020    4.6370    9.7363 H   0  0  0  0  0  0
  1  2  1  0  0  0
  1  3  1  0  0  0
  1  6  2  0  0  0
  2  5  1  0  0  0
  2  8  1  0  0  0
  3  4  1  0  0  0
  3  7  2  0  0  0
  4  9  1  0  0  0
  4  5  2  0  0  0
  5 28  1  0  0  0
  6 14  1  0  0  0
  7 17  1  0  0  0
  7 10  1  0  0  0
  8 12  2  0  0  0
  8 20  1  0  0  0
  9 15  2  0  0  0
  9 21  1  0  0  0
 10 14  2  0  0  0
 11 13  1  0  0  0
 11 16  2  0  0  0
 11 18  1  0  0  0
 12 13  1  0  0  0
 12 29  1  0  0  0
 13 23  2  0  0  0
 14 30  1  0  0  0
 15 19  1  0  0  0
 15 31  1  0  0  0
 17 32  1  0  0  0
 17 33  1  0  0  0
 18 34  1  0  0  0
 19 22  1  0  0  0
 19 26  2  0  0  0
 20 24  2  0  0  0
 20 35  1  0  0  0
 21 25  2  0  0  0
 21 36  1  0  0  0
 22 27  1  0  0  0
 23 24  1  0  0  0
 23 37  1  0  0  0
 24 38  1  0  0  0
 25 26  1  0  0  0
 25 39  1  0  0  0
 26 40  1  0  0  0
 27 41  1  0  0  0
 27 42  1  0  0  0
 27 43  1  0  0  0
M  END
> <s_m_entry_id>
31817

> <s_m_entry_name>
dock_pv.80

> <s_m_Source_Path>
/home/csk/Desktop/cluster/DUD-E-result/src

> <s_m_Source_File>
dock_pv.maegz

> <i_m_Source_File_Index>
80

> <chembl_id>
CHEMBL105005

> <chembl_pref_name>
None

> <i_lp_mmshare_version>
53161

> <r_lp_tautomer_probability>
1

> <s_lp_Force_Field>
OPLS_2005

> <r_lp_Energy>
24.672674

> <b_lp_Chiralities_Consistent>
1

> <s_lp_Variant>
CHEMBL267_lig138-1

> <s_i_glide_gridfile>
glide-grid_3el8

> <i_i_glide_lignum>
187

> <i_i_glide_rotatable_bonds>
5

> <r_i_docking_score>
-8.46689697800852

> <r_i_glide_ligand_efficiency>
-0.313588776963278

> <r_i_glide_ligand_efficiency_sa>
-0.940766329856298

> <r_i_glide_ligand_efficiency_ln>
-1.97095402877433

> <r_i_glide_gscore>
-8.46689697800852

> <r_i_glide_lipo>
-2.75587187501045

> <r_i_glide_hbond>
-0.414834067370869

> <r_i_glide_metal>
0

> <r_i_glide_rewards>
-2.80181979718285

> <r_i_glide_evdw>
-41.2503929138184

> <r_i_glide_ecoul>
-5.83259201049805

> <r_i_glide_erotb>
0.443037208821273

> <r_i_glide_esite>
0

> <r_i_glide_emodel>
-69.313449889751

> <r_i_glide_energy>
-47.0829849243164

> <r_i_glide_einternal>
5.80793571472168

> <i_i_glide_confnum>
1

> <i_i_glide_posenum>
2

> <r_i_glide_eff_state_penalty>
0

> <s_user_duplicate_titles>
CHEMBL267_lig138

> <i_f3d_flags>
0

> <s_m_subgroup_title>
dock_pv

> <s_m_subgroupid>
dock_pv

> <b_m_subgroup_collapsed>
1

$$$$
CHEMBL267_lig1845
                    3D
 Schrodinger Suite 2021-1.
 46 49  0  0  1  0            999 V2000
    7.8014    6.6356    7.5879 N   0  0  0  0  0  0
    8.1921    7.6593    6.7869 C   0  0  0  0  0  0
    7.4031    8.5790    6.1750 N   0  0  0  0  0  0
    6.4752    6.5372    7.8609 C   0  0  0  0  0  0
    5.5596    7.4653    7.3383 C   0  0  0  0  0  0
    6.1061    8.4374    6.4712 C   0  0  0  0  0  0
    5.0284    9.1571    5.9864 N   0  0  0  0  0  0
    3.8686    8.7244    6.5362 N   0  0  0  0  0  0
    4.1590    7.7622    7.3818 C   0  0  0  0  0  0
    3.1161    7.1300    8.2314 C   0  0  0  0  0  0
    3.2423    7.1471    9.6222 C   0  0  0  0  0  0
    2.2499    6.5866   10.4435 C   0  0  0  0  0  0
    1.1483    5.9441    9.8537 C   0  0  0  0  0  0
    1.0360    5.9225    8.4534 C   0  0  0  0  0  0
    2.0009    6.5252    7.6537 C   0  0  0  0  0  0
    6.0498    5.4371    8.5992 N   0  0  0  0  0  0
    2.2839    6.6367   11.8256 O   0  0  0  0  0  0
    0.2223    5.3649   10.7034 O   0  0  0  0  0  0
   -0.7931    4.5296   10.1592 C   0  0  0  0  0  0
    3.4759    7.0368   12.4969 C   0  0  0  0  0  0
    5.0377   10.2665    5.0289 C   0  0  0  0  0  0
    4.1402   10.0360    3.8046 C   0  0  0  0  0  0
    3.9543   11.4433    3.2333 C   0  0  0  0  0  0
    3.8918   12.3701    4.4560 C   0  0  0  0  0  0
    4.5560   11.6063    5.6148 C   0  0  0  0  0  0
    9.2497    7.7335    6.5865 H   0  0  0  0  0  0
    4.1057    7.6306   10.0537 H   0  0  0  0  0  0
    0.1984    5.4502    7.9622 H   0  0  0  0  0  0
    1.8896    6.5081    6.5777 H   0  0  0  0  0  0
    5.0696    5.3400    8.8237 H   0  0  0  0  0  0
    6.7347    4.7658    8.9317 H   0  0  0  0  0  0
   -1.4577    4.2105   10.9598 H   0  0  0  0  0  0
   -0.3641    3.6335    9.7068 H   0  0  0  0  0  0
   -1.4023    5.0387    9.4144 H   0  0  0  0  0  0
    3.2872    7.0113   13.5689 H   0  0  0  0  0  0
    4.2910    6.3442   12.3129 H   0  0  0  0  0  0
    3.8040    8.0430   12.2395 H   0  0  0  0  0  0
    6.0659   10.3847    4.6819 H   0  0  0  0  0  0
    4.5787    9.3460    3.0830 H   0  0  0  0  0  0
    3.1629    9.6444    4.0962 H   0  0  0  0  0  0
    4.8141   11.7110    2.6135 H   0  0  0  0  0  0
    3.0661   11.5241    2.6041 H   0  0  0  0  0  0
    4.3972   13.3187    4.2582 H   0  0  0  0  0  0
    2.8533   12.6044    4.6993 H   0  0  0  0  0  0
    3.8026   11.4477    6.3875 H   0  0  0  0  0  0
    5.3771   12.1720    6.0598 H   0  0  0  0  0  0
  1  2  2  0  0  0
  1  4  1  0  0  0
  2  3  1  0  0  0
  2 26  1  0  0  0
  3  6  2  0  0  0
  4  5  2  0  0  0
  4 16  1  0  0  0
  5  9  1  0  0  0
  5  6  1  0  0  0
  6  7  1  0  0  0
  7  8  1  0  0  0
  7 21  1  0  0  0
  8  9  2  0  0  0
  9 10  1  0  0  0
 10 15  1  0  0  0
 10 11  2  0  0  0
 11 12  1  0  0  0
 11 27  1  0  0  0
 12 13  2  0  0  0
 12 17  1  0  0  0
 13 14  1  0  0  0
 13 18  1  0  0  0
 14 15  2  0  0  0
 14 28  1  0  0  0
 15 29  1  0  0  0
 16 30  1  0  0  0
 16 31  1  0  0  0
 17 20  1  0  0  0
 18 19  1  0  0  0
 19 32  1  0  0  0
 19 33  1  0  0  0
 19 34  1  0  0  0
 20 35  1  0  0  0
 20 36  1  0  0  0
 20 37  1  0  0  0
 21 22  1  0  0  0
 21 25  1  0  0  0
 21 38  1  0  0  0
 22 23  1  0  0  0
 22 39  1  0  0  0
 22 40  1  0  0  0
 23 24  1  0  0  0
 23 41  1  0  0  0
 23 42  1  0  0  0
 24 25  1  0  0  0
 24 43  1  0  0  0
 24 44  1  0  0  0
 25 45  1  0  0  0
 25 46  1  0  0  0
M  END
> <s_m_entry_id>
31818

> <s_m_entry_name>
dock_pv.81

> <s_m_Source_Path>
/home/csk/Desktop/cluster/DUD-E-result/src

> <s_m_Source_File>
dock_pv.maegz

> <i_m_Source_File_Index>
81

> <chembl_id>
CHEMBL1240553

> <chembl_pref_name>
None

> <i_lp_mmshare_version>
53161

> <r_lp_tautomer_probability>
1

> <s_lp_Force_Field>
OPLS_2005

> <r_lp_Energy>
38.250703

> <b_lp_Chiralities_Consistent>
1

> <s_lp_Variant>
CHEMBL267_lig1845-1

> <s_i_glide_gridfile>
glide-grid_3el8

> <i_i_glide_lignum>
2112

> <i_i_glide_rotatable_bonds>
4

> <r_i_docking_score>
-8.45828670332514

> <r_i_glide_ligand_efficiency>
-0.338331468133006

> <r_i_glide_ligand_efficiency_sa>
-0.989287213155045

> <r_i_glide_ligand_efficiency_ln>
-2.00486742308643

> <r_i_glide_gscore>
-8.45828670332514

> <r_i_glide_lipo>
-2.22420799220365

> <r_i_glide_hbond>
-0.53341121825089

> <r_i_glide_metal>
0

> <r_i_glide_rewards>
-3.06977258952428

> <r_i_glide_evdw>
-38.3251113891602

> <r_i_glide_ecoul>
-6.29764270782471

> <r_i_glide_erotb>
0.23000707228539

> <r_i_glide_esite>
0

> <r_i_glide_emodel>
-65.7828543640169

> <r_i_glide_energy>
-44.6227540969849

> <r_i_glide_einternal>
3.60732054710388

> <i_i_glide_confnum>
1

> <i_i_glide_posenum>
316

> <r_i_glide_eff_state_penalty>
0

> <s_user_duplicate_titles>
CHEMBL267_lig1845

> <i_f3d_flags>
0

> <s_m_subgroup_title>
dock_pv

> <s_m_subgroupid>
dock_pv

> <b_m_subgroup_collapsed>
1

$$$$
CHEMBL267_lig2040
                    3D
 Schrodinger Suite 2021-1.
 50 53  0  0  1  0            999 V2000
    1.0188    3.7133    8.6618 C   0  0  0  0  0  0
   -0.0086    3.8371    9.5881 C   0  0  0  0  0  0
   -0.2019    5.0282   10.2753 C   0  0  0  0  0  0
    0.6165    6.1183   10.0063 C   0  0  0  0  0  0
    1.6465    6.0219    9.0627 C   0  0  0  0  0  0
    1.8358    4.8073    8.3880 C   0  0  0  0  0  0
    2.4495    7.2433    8.7187 C   0  0  0  0  0  0
    3.8860    7.1335    8.2935 C   0  0  0  0  0  0
    1.9211    8.3571    8.7879 O   0  0  0  0  0  0
    4.6858    6.0738    8.7463 C   0  0  0  0  0  0
    6.0280    5.9554    8.3880 C   0  0  0  0  0  0
    4.4377    8.1539    7.4989 C   0  0  0  0  0  0
    5.7929    8.0532    7.1652 C   0  0  0  0  0  0
    6.5905    6.9609    7.5880 C   0  0  0  0  0  0
    7.8686    7.0670    7.1139 N   0  0  0  0  0  0
    7.8674    8.1801    6.4292 C   0  0  0  0  0  0
    6.6604    8.8546    6.4434 N   0  0  0  0  0  0
    8.9572    8.6370    5.7524 N   0  0  0  0  0  0
    6.3527   10.1403    5.8124 C   0  0  0  0  0  0
    5.5410    9.9593    4.5125 C   0  0  0  0  0  0
    5.1884   11.2712    3.7662 C   0  0  0  0  0  0
    4.3874   12.2840    4.6126 C   0  0  0  0  0  0
    3.9836   13.5154    3.7733 C   0  0  0  0  0  0
    5.1574   14.1701    3.1882 N   0  0  2  0  0  0
    5.9798   13.2605    2.3830 C   0  0  0  0  0  0
    6.4121   12.0230    3.2020 C   0  0  0  0  0  0
    1.1632    2.7806    8.1362 H   0  0  0  0  0  0
   -0.6689    3.0063    9.7768 H   0  0  0  0  0  0
   -1.0020    5.1124   10.9965 H   0  0  0  0  0  0
    0.4389    7.0370   10.5398 H   0  0  0  0  0  0
    2.5980    4.7027    7.6289 H   0  0  0  0  0  0
    4.2679    5.3175    9.3954 H   0  0  0  0  0  0
    6.6202    5.1202    8.7337 H   0  0  0  0  0  0
    3.8408    8.9914    7.1651 H   0  0  0  0  0  0
    9.7273    7.9966    5.5824 H   0  0  0  0  0  0
    8.9572    9.5037    5.2386 H   0  0  0  0  0  0
    5.8079   10.7488    6.5319 H   0  0  0  0  0  0
    7.2813   10.6759    5.6183 H   0  0  0  0  0  0
    6.0904    9.3052    3.8330 H   0  0  0  0  0  0
    4.6142    9.4284    4.7361 H   0  0  0  0  0  0
    4.5615   11.0023    2.9128 H   0  0  0  0  0  0
    3.4897   11.7993    4.9980 H   0  0  0  0  0  0
    4.9264   12.5965    5.5077 H   0  0  0  0  0  0
    3.3093   13.2219    2.9669 H   0  0  0  0  0  0
    3.4475   14.2373    4.3893 H   0  0  0  0  0  0
    5.7362   14.5558    3.9282 H   0  0  0  0  0  0
    5.4136   12.9584    1.4996 H   0  0  0  0  0  0
    6.8567   13.8033    2.0279 H   0  0  0  0  0  0
    7.1193   12.3089    3.9812 H   0  0  0  0  0  0
    6.9826   11.3507    2.5602 H   0  0  0  0  0  0
  1  6  1  0  0  0
  1  2  2  0  0  0
  1 27  1  0  0  0
  2  3  1  0  0  0
  2 28  1  0  0  0
  3  4  2  0  0  0
  3 29  1  0  0  0
  4  5  1  0  0  0
  4 30  1  0  0  0
  5  7  1  0  0  0
  5  6  2  0  0  0
  6 31  1  0  0  0
  7  8  1  0  0  0
  7  9  2  0  0  0
  8 12  1  0  0  0
  8 10  2  0  0  0
 10 11  1  0  0  0
 10 32  1  0  0  0
 11 14  2  0  0  0
 11 33  1  0  0  0
 12 13  2  0  0  0
 12 34  1  0  0  0
 13 14  1  0  0  0
 13 17  1  0  0  0
 14 15  1  0  0  0
 15 16  2  0  0  0
 16 17  1  0  0  0
 16 18  1  0  0  0
 17 19  1  0  0  0
 18 35  1  0  0  0
 18 36  1  0  0  0
 19 20  1  0  0  0
 19 37  1  0  0  0
 19 38  1  0  0  0
 20 21  1  0  0  0
 20 39  1  0  0  0
 20 40  1  0  0  0
 21 22  1  0  0  0
 21 26  1  0  0  0
 21 41  1  0  0  0
 22 23  1  0  0  0
 22 42  1  0  0  0
 22 43  1  0  0  0
 23 24  1  0  0  0
 23 44  1  0  0  0
 23 45  1  0  0  0
 24 25  1  0  0  0
 24 46  1  0  0  0
 25 26  1  0  0  0
 25 47  1  0  0  0
 25 48  1  0  0  0
 26 49  1  0  0  0
 26 50  1  0  0  0
M  END
> <s_m_entry_id>
31819

> <s_m_entry_name>
dock_pv.82

> <s_m_Source_Path>
/home/csk/Desktop/cluster/DUD-E-result/src

> <s_m_Source_File>
dock_pv.maegz

> <i_m_Source_File_Index>
82

> <chembl_id>
CHEMBL2059176

> <chembl_pref_name>
None

> <i_lp_mmshare_version>
53161

> <r_lp_tautomer_probability>
1

> <s_lp_Force_Field>
OPLS_2005

> <r_lp_Energy>
34.36724

> <b_lp_Chiralities_Consistent>
1

> <s_lp_Variant>
CHEMBL267_lig2040-1

> <s_i_glide_gridfile>
glide-grid_3el8

> <i_i_glide_lignum>
2324

> <i_i_glide_rotatable_bonds>
5

> <r_i_docking_score>
-8.45293940365424

> <r_i_glide_ligand_efficiency>
-0.325113053986701

> <r_i_glide_ligand_efficiency_sa>
-0.963146143177508

> <r_i_glide_ligand_efficiency_ln>
-1.98514508259174

> <r_i_glide_gscore>
-8.45293940365424

> <r_i_glide_lipo>
-2.82236606246557

> <r_i_glide_hbond>
-0.621040325209878

> <r_i_glide_metal>
0

> <r_i_glide_rewards>
-2.86400726323641

> <r_i_glide_evdw>
-35.401927947998

> <r_i_glide_ecoul>
-6.13942670822144

> <r_i_glide_erotb>
0.548780342084289

> <r_i_glide_esite>
-0.00329569119355451

> <r_i_glide_emodel>
-59.9683477457641

> <r_i_glide_energy>
-41.5413546562195

> <r_i_glide_einternal>
4.28070545196533

> <i_i_glide_confnum>
138

> <i_i_glide_posenum>
70

> <r_i_glide_eff_state_penalty>
0

> <s_user_duplicate_titles>
CHEMBL267_lig2040

> <i_f3d_flags>
0

> <s_m_subgroup_title>
dock_pv

> <s_m_subgroupid>
dock_pv

> <b_m_subgroup_collapsed>
1

$$$$
CHEMBL267_lig3479
                    3D
 Schrodinger Suite 2021-1.
 49 53  0  0  1  0            999 V2000
    3.7893    7.4390   10.2056 S   0  0  0  0  0  0
    7.2091    9.5108    5.8872 O   0  0  0  0  0  0
    1.4033    9.1102    2.7875 N   0  0  0  0  0  0
    0.3344    5.5338   11.2675 N   0  0  0  0  0  0
    7.7963    6.2502    7.3780 N   0  0  0  0  0  0
    4.6310   11.8766    4.5501 N   0  0  0  0  0  0
    4.3137    6.5873    8.7662 C   0  0  0  0  0  0
    2.3863    6.3879   10.3500 C   0  0  0  0  0  0
    2.3213    5.4526    9.2849 C   0  0  0  0  0  0
    5.5958    6.9618    8.0952 C   0  0  0  0  0  0
    3.4408    5.5672    8.4256 C   0  0  0  0  0  0
    1.8506    8.3518    4.8407 C   0  0  0  0  0  0
    2.8385    9.3343    4.4930 C   0  0  0  0  0  0
    1.0035    8.1815    3.7141 C   0  0  0  0  0  0
    5.8277    8.2168    7.5113 C   0  0  0  0  0  0
    6.9703    8.4334    6.7227 C   0  0  0  0  0  0
    1.3966    6.3701   11.3395 C   0  0  0  0  0  0
    1.2223    4.5774    9.2281 C   0  0  0  0  0  0
    6.6129    6.0090    7.9899 C   0  0  0  0  0  0
    2.4949    9.8024    3.2413 C   0  0  0  0  0  0
    4.0111    9.6594    5.3748 C   0  0  0  0  0  0
    1.6280    7.5619    5.9806 C   0  0  0  0  0  0
    7.9420    7.4354    6.7367 C   0  0  0  0  0  0
    0.0019    7.2122    3.6711 C   0  0  0  0  0  0
    0.2524    4.6741   10.2259 C   0  0  0  0  0  0
    5.1454   10.5412    4.8219 C   0  0  2  0  0  0
    6.3438   10.6480    5.8077 C   0  0  0  0  0  0
    0.5891    6.6360    5.9625 C   0  0  0  0  0  0
   -0.1989    6.4664    4.8273 C   0  0  0  0  0  0
    1.0126    9.2345    1.8616 H   0  0  0  0  0  0
    4.2622   12.2876    5.3958 H   0  0  0  0  0  0
    5.3723   12.4840    4.2275 H   0  0  0  0  0  0
    3.5742    4.9004    7.5925 H   0  0  0  0  0  0
    5.0803    8.9835    7.5885 H   0  0  0  0  0  0
    1.4277    7.0370   12.1878 H   0  0  0  0  0  0
    1.1254    3.8518    8.4367 H   0  0  0  0  0  0
    6.4971    5.0297    8.4335 H   0  0  0  0  0  0
    2.9711   10.5427    2.6135 H   0  0  0  0  0  0
    3.6548   10.0474    6.3298 H   0  0  0  0  0  0
    4.4420    8.6780    5.5448 H   0  0  0  0  0  0
    2.2545    7.6654    6.8537 H   0  0  0  0  0  0
    8.8587    7.5694    6.1822 H   0  0  0  0  0  0
   -0.6018    7.0422    2.7908 H   0  0  0  0  0  0
   -0.6155    4.0285   10.2146 H   0  0  0  0  0  0
    5.5020   10.1209    3.8792 H   0  0  0  0  0  0
    6.9978   11.4367    5.4375 H   0  0  0  0  0  0
    6.0333   10.9957    6.7879 H   0  0  0  0  0  0
    0.3898    6.0318    6.8365 H   0  0  0  0  0  0
   -0.9945    5.7419    4.8382 H   0  0  0  0  0  0
  1  7  1  0  0  0
  1  8  1  0  0  0
  2 16  1  0  0  0
  2 27  1  0  0  0
  3 14  1  0  0  0
  3 20  1  0  0  0
  3 30  1  0  0  0
  4 17  1  0  0  0
  4 25  2  0  0  0
  5 19  2  0  0  0
  5 23  1  0  0  0
  6 26  1  0  0  0
  6 31  1  0  0  0
  6 32  1  0  0  0
  7 10  1  0  0  0
  7 11  2  0  0  0
  8  9  1  0  0  0
  8 17  2  0  0  0
  9 11  1  0  0  0
  9 18  2  0  0  0
 10 15  2  0  0  0
 10 19  1  0  0  0
 11 33  1  0  0  0
 12 13  1  0  0  0
 12 14  1  0  0  0
 12 22  2  0  0  0
 13 20  2  0  0  0
 13 21  1  0  0  0
 14 24  2  0  0  0
 15 16  1  0  0  0
 15 34  1  0  0  0
 16 23  2  0  0  0
 17 35  1  0  0  0
 18 25  1  0  0  0
 18 36  1  0  0  0
 19 37  1  0  0  0
 20 38  1  0  0  0
 21 26  1  0  0  0
 21 39  1  0  0  0
 21 40  1  0  0  0
 22 28  1  0  0  0
 22 41  1  0  0  0
 23 42  1  0  0  0
 24 29  1  0  0  0
 24 43  1  0  0  0
 25 44  1  0  0  0
 26 27  1  0  0  0
 26 45  1  0  0  0
 27 46  1  0  0  0
 27 47  1  0  0  0
 28 29  2  0  0  0
 28 48  1  0  0  0
 29 49  1  0  0  0
M  END
> <s_m_entry_id>
31820

> <s_m_entry_name>
dock_pv.83

> <s_m_Source_Path>
/home/csk/Desktop/cluster/DUD-E-result/src

> <s_m_Source_File>
dock_pv.maegz

> <i_m_Source_File_Index>
83

> <chembl_id>
CHEMBL1966524

> <chembl_pref_name>
None

> <i_lp_mmshare_version>
53161

> <r_lp_tautomer_probability>
1

> <s_lp_Force_Field>
OPLS_2005

> <r_lp_Energy>
19.541467

> <b_lp_Chiralities_Consistent>
1

> <s_lp_Variant>
CHEMBL267_lig3479-1

> <s_i_glide_gridfile>
glide-grid_3el8

> <i_i_glide_lignum>
4176

> <i_i_glide_rotatable_bonds>
6

> <r_i_docking_score>
-8.44481426574236

> <r_i_glide_ligand_efficiency>
-0.29120049192215

> <r_i_glide_ligand_efficiency_sa>
-0.894660169976223

> <r_i_glide_ligand_efficiency_ln>
-1.9336483248419

> <r_i_glide_gscore>
-8.44481426574236

> <r_i_glide_lipo>
-4.32357827465816

> <r_i_glide_hbond>
-0.47469890928355

> <r_i_glide_metal>
0

> <r_i_glide_rewards>
-1.50409478228593

> <r_i_glide_evdw>
-41.071834564209

> <r_i_glide_ecoul>
-4.45509338378906

> <r_i_glide_erotb>
0.611132172806542

> <r_i_glide_esite>
-0.0317187365424616

> <r_i_glide_emodel>
-61.2589435734321

> <r_i_glide_energy>
-45.526927947998

> <r_i_glide_einternal>
4.10354852676392

> <i_i_glide_confnum>
31

> <i_i_glide_posenum>
24

> <r_i_glide_eff_state_penalty>
0

> <s_user_duplicate_titles>
CHEMBL267_lig3479

> <i_f3d_flags>
0

> <s_m_subgroup_title>
dock_pv

> <s_m_subgroupid>
dock_pv

> <b_m_subgroup_collapsed>
1

$$$$
CHEMBL267_lig431
                    3D
 Schrodinger Suite 2021-1.
 48 51  0  0  1  0            999 V2000
    5.6998    8.3194    6.4891 C   0  0  0  0  0  0
    4.6173    9.0274    5.9873 N   0  0  0  0  0  0
    5.2148    7.4324    7.4937 C   0  0  0  0  0  0
    3.8143    7.7131    7.6780 C   0  0  0  0  0  0
    3.5019    8.6563    6.7170 C   0  0  0  0  0  0
    4.6684   10.0011    4.8803 C   0  0  1  0  0  0
    6.9738    8.3971    6.0747 N   0  0  0  0  0  0
    6.1661    6.5131    7.9879 C   0  0  0  0  0  0
    2.8824    7.0915    8.6526 C   0  0  0  0  0  0
    2.8199   11.4982    5.0373 N   0  0  2  0  0  0
    7.4621    6.5552    7.5881 N   0  0  0  0  0  0
    3.3015   10.3512    4.2747 C   0  0  0  0  0  0
    7.7975    7.5051    6.6822 C   0  0  0  0  0  0
    5.1960   11.3667    5.3452 C   0  0  0  0  0  0
    0.8623   13.1668    5.1950 C   0  0  0  0  0  0
    1.7241    6.4240    8.2346 C   0  0  0  0  0  0
    1.6757   12.1433    4.3734 C   0  0  0  0  0  0
    4.0230   12.3259    5.1071 C   0  0  0  0  0  0
   -0.1968   13.6054    4.7433 O   0  0  0  0  0  0
    5.7980    5.4373    8.7879 N   0  0  0  0  0  0
    0.8966    5.8051    9.1754 C   0  0  0  0  0  0
    1.3981   13.5211    6.3867 O   0  0  0  0  0  0
    3.1828    7.1660   10.0158 C   0  0  0  0  0  0
   -0.2020    5.0852    8.7899 O   0  0  0  0  0  0
    2.3366    6.5801   10.9553 C   0  0  0  0  0  0
    1.2013    5.8893   10.5331 C   0  0  0  0  0  0
    0.7504   14.4833    7.2066 C   0  0  0  0  0  0
    2.5480    9.1198    6.5104 H   0  0  0  0  0  0
    5.3164    9.5185    4.1466 H   0  0  0  0  0  0
    2.5905    9.5238    4.2521 H   0  0  0  0  0  0
    3.3949   10.6207    3.2195 H   0  0  0  0  0  0
    8.8373    7.5345    6.3875 H   0  0  0  0  0  0
    6.0604   11.6687    4.7525 H   0  0  0  0  0  0
    5.5117   11.3693    6.3882 H   0  0  0  0  0  0
    1.4936    6.3498    7.1820 H   0  0  0  0  0  0
    0.9751   11.3625    4.0755 H   0  0  0  0  0  0
    2.0005   12.6169    3.4459 H   0  0  0  0  0  0
    4.1667   12.9305    4.2088 H   0  0  0  0  0  0
    3.9243   13.0367    5.9240 H   0  0  0  0  0  0
    4.8439    5.3633    9.1140 H   0  0  0  0  0  0
    6.5090    4.7761    9.0775 H   0  0  0  0  0  0
    4.0741    7.6774   10.3506 H   0  0  0  0  0  0
   -0.7284    5.4371    8.0591 H   0  0  0  0  0  0
    2.5758    6.6375   12.0074 H   0  0  0  0  0  0
    0.5583    5.4133   11.2595 H   0  0  0  0  0  0
    1.3555   14.6872    8.0897 H   0  0  0  0  0  0
   -0.2246   14.1220    7.5370 H   0  0  0  0  0  0
    0.6076   15.4240    6.6718 H   0  0  0  0  0  0
  1  2  1  0  0  0
  1  3  2  0  0  0
  1  7  1  0  0  0
  2  5  1  0  0  0
  2  6  1  0  0  0
  3  4  1  0  0  0
  3  8  1  0  0  0
  4  9  1  0  0  0
  4  5  2  0  0  0
  5 28  1  0  0  0
  6 12  1  0  0  0
  6 14  1  0  0  0
  6 29  1  0  0  0
  7 13  2  0  0  0
  8 20  1  0  0  0
  8 11  2  0  0  0
  9 16  2  0  0  0
  9 23  1  0  0  0
 10 12  1  0  0  0
 10 17  1  0  0  0
 10 18  1  0  0  0
 11 13  1  0  0  0
 12 30  1  0  0  0
 12 31  1  0  0  0
 13 32  1  0  0  0
 14 18  1  0  0  0
 14 33  1  0  0  0
 14 34  1  0  0  0
 15 17  1  0  0  0
 15 19  2  0  0  0
 15 22  1  0  0  0
 16 21  1  0  0  0
 16 35  1  0  0  0
 17 36  1  0  0  0
 17 37  1  0  0  0
 18 38  1  0  0  0
 18 39  1  0  0  0
 20 40  1  0  0  0
 20 41  1  0  0  0
 21 24  1  0  0  0
 21 26  2  0  0  0
 22 27  1  0  0  0
 23 25  2  0  0  0
 23 42  1  0  0  0
 24 43  1  0  0  0
 25 26  1  0  0  0
 25 44  1  0  0  0
 26 45  1  0  0  0
 27 46  1  0  0  0
 27 47  1  0  0  0
 27 48  1  0  0  0
M  END
> <s_m_entry_id>
31821

> <s_m_entry_name>
dock_pv.84

> <s_m_Source_Path>
/home/csk/Desktop/cluster/DUD-E-result/src

> <s_m_Source_File>
dock_pv.maegz

> <i_m_Source_File_Index>
84

> <chembl_id>
CHEMBL355019

> <chembl_pref_name>
None

> <i_lp_mmshare_version>
53161

> <r_lp_tautomer_probability>
0.999999999997365

> <s_lp_Force_Field>
OPLS_2005

> <r_lp_Energy>
36.657212

> <b_lp_Chiralities_Consistent>
1

> <s_lp_Variant>
CHEMBL267_lig431-2

> <s_i_glide_gridfile>
glide-grid_3el8

> <i_i_glide_lignum>
513

> <i_i_glide_rotatable_bonds>
6

> <r_i_docking_score>
-8.44112577442765

> <r_i_glide_ligand_efficiency>
-0.312634287941765

> <r_i_glide_ligand_efficiency_sa>
-0.937902862794903

> <r_i_glide_ligand_efficiency_ln>
-1.9649549174522

> <r_i_glide_gscore>
-8.44112577442765

> <r_i_glide_lipo>
-2.43666929260638

> <r_i_glide_hbond>
-0.653640196226261

> <r_i_glide_metal>
0

> <r_i_glide_rewards>
-2.84098028440882

> <r_i_glide_evdw>
-39.439567565918

> <r_i_glide_ecoul>
-7.39026737213135

> <r_i_glide_erotb>
0.570682482929404

> <r_i_glide_esite>
0

> <r_i_glide_emodel>
-66.0005240592251

> <r_i_glide_energy>
-46.8298349380493

> <r_i_glide_einternal>
7.21865701675415

> <i_i_glide_confnum>
52

> <i_i_glide_posenum>
152

> <r_i_glide_eff_state_penalty>
0

> <s_user_duplicate_titles>
CHEMBL267_lig431,281740

> <i_f3d_flags>
0

> <s_m_subgroup_title>
dock_pv

> <s_m_subgroupid>
dock_pv

> <b_m_subgroup_collapsed>
1

$$$$
CHEMBL267_lig454
                    3D
 Schrodinger Suite 2021-1.
 42 45  0  0  1  0            999 V2000
    5.9828    8.3760    6.4406 C   0  0  0  0  0  0
    5.4200    7.4375    7.3542 C   0  0  0  0  0  0
    4.9505    9.1272    5.8981 N   0  0  0  0  0  0
    4.0078    7.7034    7.4196 C   0  0  0  0  0  0
    3.7756    8.7007    6.4897 C   0  0  0  0  0  0
    7.2841    8.4706    6.1296 N   0  0  0  0  0  0
    6.3336    6.5081    7.8974 C   0  0  0  0  0  0
    7.6540    6.5633    7.5880 N   0  0  0  0  0  0
    2.9854    7.0231    8.2510 C   0  0  0  0  0  0
    8.0557    7.5490    6.7522 C   0  0  0  0  0  0
    5.1054   10.1783    4.8729 C   0  0  2  0  0  0
    3.4287   11.8320    5.1869 N   0  0  2  0  0  0
    1.8606    6.4766    7.6338 C   0  0  0  0  0  0
    3.1504    6.9052    9.6311 C   0  0  0  0  0  0
    5.9098    5.4373    8.6777 N   0  0  0  0  0  0
    1.0790    5.6586    9.7770 C   0  0  0  0  0  0
    5.7867   11.4304    5.4439 C   0  0  0  0  0  0
    2.1918    6.2370   10.3888 C   0  0  0  0  0  0
    0.9161    5.7905    8.3897 C   0  0  0  0  0  0
    3.7962   10.7381    4.3005 C   0  0  0  0  0  0
    0.1983    4.9830   10.5979 O   0  0  0  0  0  0
    4.6941   12.5067    5.4339 C   0  0  0  0  0  0
   -0.8733    4.2498   10.0053 C   0  0  0  0  0  0
    2.8357    9.1553    6.2161 H   0  0  0  0  0  0
    9.1116    7.5903    6.5282 H   0  0  0  0  0  0
    5.7051    9.6826    4.1071 H   0  0  0  0  0  0
    3.0993   11.4477    6.0609 H   0  0  0  0  0  0
    1.7244    6.5585    6.5646 H   0  0  0  0  0  0
    4.0183    7.3268   10.1172 H   0  0  0  0  0  0
    4.9334    5.3597    8.9268 H   0  0  0  0  0  0
    6.5965    4.7718    9.0160 H   0  0  0  0  0  0
    6.1989   11.2713    6.4426 H   0  0  0  0  0  0
    6.6121   11.7321    4.7958 H   0  0  0  0  0  0
    2.3261    6.1435   11.4578 H   0  0  0  0  0  0
    0.0675    5.3659    7.8761 H   0  0  0  0  0  0
    3.9756   11.1413    3.3003 H   0  0  0  0  0  0
    3.0136    9.9881    4.1806 H   0  0  0  0  0  0
    4.6492   13.0365    6.3852 H   0  0  0  0  0  0
    4.8880   13.2534    4.6606 H   0  0  0  0  0  0
   -1.5080    3.8369   10.7879 H   0  0  0  0  0  0
   -0.4984    3.4201    9.4041 H   0  0  0  0  0  0
   -1.5019    4.8799    9.3789 H   0  0  0  0  0  0
  1  2  2  0  0  0
  1  3  1  0  0  0
  1  6  1  0  0  0
  2  4  1  0  0  0
  2  7  1  0  0  0
  3  5  1  0  0  0
  3 11  1  0  0  0
  4  9  1  0  0  0
  4  5  2  0  0  0
  5 24  1  0  0  0
  6 10  2  0  0  0
  7 15  1  0  0  0
  7  8  2  0  0  0
  8 10  1  0  0  0
  9 13  2  0  0  0
  9 14  1  0  0  0
 10 25  1  0  0  0
 11 17  1  0  0  0
 11 20  1  0  0  0
 11 26  1  0  0  0
 12 20  1  0  0  0
 12 22  1  0  0  0
 12 27  1  0  0  0
 13 19  1  0  0  0
 13 28  1  0  0  0
 14 18  2  0  0  0
 14 29  1  0  0  0
 15 30  1  0  0  0
 15 31  1  0  0  0
 16 18  1  0  0  0
 16 21  1  0  0  0
 16 19  2  0  0  0
 17 22  1  0  0  0
 17 32  1  0  0  0
 17 33  1  0  0  0
 18 34  1  0  0  0
 19 35  1  0  0  0
 20 36  1  0  0  0
 20 37  1  0  0  0
 21 23  1  0  0  0
 22 38  1  0  0  0
 22 39  1  0  0  0
 23 40  1  0  0  0
 23 41  1  0  0  0
 23 42  1  0  0  0
M  END
> <s_m_entry_id>
31822

> <s_m_entry_name>
dock_pv.85

> <s_m_Source_Path>
/home/csk/Desktop/cluster/DUD-E-result/src

> <s_m_Source_File>
dock_pv.maegz

> <i_m_Source_File_Index>
85

> <chembl_id>
CHEMBL352652

> <chembl_pref_name>
None

> <i_lp_mmshare_version>
53161

> <r_lp_tautomer_probability>
1

> <s_lp_Force_Field>
OPLS_2005

> <r_lp_Energy>
37.382675

> <b_lp_Chiralities_Consistent>
1

> <s_lp_Variant>
CHEMBL267_lig454-1

> <s_i_glide_gridfile>
glide-grid_3el8

> <i_i_glide_lignum>
543

> <i_i_glide_rotatable_bonds>
3

> <r_i_docking_score>
-8.43757510519591

> <r_i_glide_ligand_efficiency>
-0.366851091530257

> <r_i_glide_ligand_efficiency_sa>
-1.04327570463501

> <r_i_glide_ligand_efficiency_ln>
-2.04028216813747

> <r_i_glide_gscore>
-8.43757510519591

> <r_i_glide_lipo>
-2.44770045940617

> <r_i_glide_hbond>
-0.482774289564428

> <r_i_glide_metal>
0

> <r_i_glide_rewards>
-3.27664301328189

> <r_i_glide_evdw>
-34.9764137268066

> <r_i_glide_ecoul>
-5.01650190353394

> <r_i_glide_erotb>
0.270838628927

> <r_i_glide_esite>
0

> <r_i_glide_emodel>
-59.0428621514577

> <r_i_glide_energy>
-39.9929156303406

> <r_i_glide_einternal>
2.2436363697052

> <i_i_glide_confnum>
19

> <i_i_glide_posenum>
31

> <r_i_glide_eff_state_penalty>
0

> <s_user_duplicate_titles>
CHEMBL267_lig454,282935

> <i_f3d_flags>
0

> <s_m_subgroup_title>
dock_pv

> <s_m_subgroupid>
dock_pv

> <b_m_subgroup_collapsed>
1

$$$$
CHEMBL267_lig1863
                    3D
 Schrodinger Suite 2021-1.
 35 37  0  0  1  0            999 V2000
    7.4277    6.6309    7.5874 N   0  0  0  0  0  0
    7.7057    7.6128    6.6897 C   0  0  0  0  0  0
    6.8345    8.4889    6.1180 N   0  0  0  0  0  0
    6.1355    6.5206    7.9878 C   0  0  0  0  0  0
    5.1522    7.4089    7.5236 C   0  0  0  0  0  0
    5.5745    8.3498    6.5602 C   0  0  0  0  0  0
    4.4266    9.0337    6.1820 N   0  0  0  0  0  0
    3.3466    8.5814    6.8676 N   0  0  0  0  0  0
    3.7545    7.6452    7.6942 C   0  0  0  0  0  0
    2.8479    6.9664    8.6562 C   0  0  0  0  0  0
    1.9078    6.0134    8.2442 C   0  0  0  0  0  0
    1.1055    5.3595    9.1901 C   0  0  0  0  0  0
    1.2109    5.7012   10.5400 C   0  0  0  0  0  0
    2.1567    6.6371   10.9539 C   0  0  0  0  0  0
    2.9742    7.2655   10.0160 C   0  0  0  0  0  0
    5.7982    5.4370    8.7879 N   0  0  0  0  0  0
    4.2376   10.0719    5.1587 C   0  0  0  0  0  0
    4.3980    9.4589    3.7549 C   0  0  0  0  0  0
    5.1851   11.2666    5.3942 C   0  0  0  0  0  0
    0.2003    4.2910    8.7881 C   0  0  0  0  0  0
   -0.5129    3.4369    8.4665 N   0  0  0  0  0  0
    8.7355    7.6869    6.3709 H   0  0  0  0  0  0
    1.8346    5.7628    7.1951 H   0  0  0  0  0  0
    0.5919    5.2163   11.2830 H   0  0  0  0  0  0
    2.2592    6.8713   12.0038 H   0  0  0  0  0  0
    3.7076    7.9860   10.3496 H   0  0  0  0  0  0
    4.8490    5.3385    9.1208 H   0  0  0  0  0  0
    6.5271    4.7943    9.0747 H   0  0  0  0  0  0
    3.2134   10.4437    5.2453 H   0  0  0  0  0  0
    4.2399   10.2090    2.9793 H   0  0  0  0  0  0
    5.3940    9.0363    3.6060 H   0  0  0  0  0  0
    3.6702    8.6659    3.5875 H   0  0  0  0  0  0
    4.9881   12.0629    4.6767 H   0  0  0  0  0  0
    5.0531   11.6940    6.3881 H   0  0  0  0  0  0
    6.2339   10.9877    5.2840 H   0  0  0  0  0  0
  1  2  2  0  0  0
  1  4  1  0  0  0
  2  3  1  0  0  0
  2 22  1  0  0  0
  3  6  2  0  0  0
  4  5  2  0  0  0
  4 16  1  0  0  0
  5  6  1  0  0  0
  5  9  1  0  0  0
  6  7  1  0  0  0
  7 17  1  0  0  0
  7  8  1  0  0  0
  8  9  2  0  0  0
  9 10  1  0  0  0
 10 11  2  0  0  0
 10 15  1  0  0  0
 11 12  1  0  0  0
 11 23  1  0  0  0
 12 13  2  0  0  0
 12 20  1  0  0  0
 13 14  1  0  0  0
 13 24  1  0  0  0
 14 15  2  0  0  0
 14 25  1  0  0  0
 15 26  1  0  0  0
 16 27  1  0  0  0
 16 28  1  0  0  0
 17 18  1  0  0  0
 17 19  1  0  0  0
 17 29  1  0  0  0
 18 30  1  0  0  0
 18 31  1  0  0  0
 18 32  1  0  0  0
 19 33  1  0  0  0
 19 34  1  0  0  0
 19 35  1  0  0  0
 20 21  3  0  0  0
M  END
> <s_m_entry_id>
31823

> <s_m_entry_name>
dock_pv.86

> <s_m_Source_Path>
/home/csk/Desktop/cluster/DUD-E-result/src

> <s_m_Source_File>
dock_pv.maegz

> <i_m_Source_File_Index>
86

> <chembl_id>
CHEMBL1241679

> <chembl_pref_name>
None

> <i_lp_mmshare_version>
53161

> <r_lp_tautomer_probability>
1

> <s_lp_Force_Field>
OPLS_2005

> <r_lp_Energy>
12.1351

> <b_lp_Chiralities_Consistent>
1

> <s_lp_Variant>
CHEMBL267_lig1863-1

> <s_i_glide_gridfile>
glide-grid_3el8

> <i_i_glide_lignum>
2131

> <i_i_glide_rotatable_bonds>
2

> <r_i_docking_score>
-8.43515313584821

> <r_i_glide_ligand_efficiency>
-0.401673958849915

> <r_i_glide_ligand_efficiency_sa>
-1.10818799496911

> <r_i_glide_ligand_efficiency_ln>
-2.08557456800665

> <r_i_glide_gscore>
-8.43515313584821

> <r_i_glide_lipo>
-2.3431626835024

> <r_i_glide_hbond>
-0.456932124574595

> <r_i_glide_metal>
0

> <r_i_glide_rewards>
-3.463606030081

> <r_i_glide_evdw>
-35.5971603393555

> <r_i_glide_ecoul>
-4.16191911697388

> <r_i_glide_erotb>
0.232693586823643

> <r_i_glide_esite>
0

> <r_i_glide_emodel>
-56.2899297923767

> <r_i_glide_energy>
-39.7590794563293

> <r_i_glide_einternal>
4.47354793548584

> <i_i_glide_confnum>
1

> <i_i_glide_posenum>
99

> <r_i_glide_eff_state_penalty>
0

> <s_user_duplicate_titles>
CHEMBL267_lig1863

> <i_f3d_flags>
0

> <s_m_subgroup_title>
dock_pv

> <s_m_subgroupid>
dock_pv

> <b_m_subgroup_collapsed>
1

$$$$
CHEMBL267_lig1801
                    3D
 Schrodinger Suite 2021-1.
 36 39  0  0  1  0            999 V2000
    7.4950    6.5331    7.5880 N   0  0  0  0  0  0
    7.8308    7.4754    6.6707 C   0  0  0  0  0  0
    7.0083    8.3623    6.0492 N   0  0  0  0  0  0
    6.1980    6.4986    7.9835 C   0  0  0  0  0  0
    5.2657    7.4204    7.4739 C   0  0  0  0  0  0
    5.7359    8.2922    6.4671 C   0  0  0  0  0  0
    4.6112    8.9709    6.0110 N   0  0  0  0  0  0
    3.5207    8.6385    6.7436 N   0  0  0  0  0  0
    3.8848    7.7421    7.6295 C   0  0  0  0  0  0
    2.9551    7.1862    8.6413 C   0  0  0  0  0  0
    1.7558    6.5621    8.2829 C   0  0  0  0  0  0
    0.9468    5.9914    9.2678 C   0  0  0  0  0  0
    1.3135    6.0887   10.6132 C   0  0  0  0  0  0
    2.5155    6.6923   10.9692 C   0  0  0  0  0  0
    3.3341    7.2370    9.9859 C   0  0  0  0  0  0
    5.7988    5.4370    8.7880 N   0  0  0  0  0  0
    0.1749    5.4370   11.9880 Br  0  0  0  0  0  0
   -0.2020    5.3335    8.9226 O   0  0  0  0  0  0
    4.4502    9.9851    4.9574 C   0  0  0  0  0  0
    4.6609   11.4647    5.3293 C   0  0  0  0  0  0
    6.0822   11.3444    4.7584 C   0  0  0  0  0  0
    5.5397   10.1986    3.8892 C   0  0  0  0  0  0
    8.8729    7.5079    6.3865 H   0  0  0  0  0  0
    1.4767    6.4931    7.2416 H   0  0  0  0  0  0
    2.8089    6.7475   12.0079 H   0  0  0  0  0  0
    4.2627    7.7060   10.2749 H   0  0  0  0  0  0
    4.8408    5.3797    9.1042 H   0  0  0  0  0  0
    6.4959    4.7663    9.0895 H   0  0  0  0  0  0
   -0.5465    5.5027    8.0397 H   0  0  0  0  0  0
    3.4712    9.7721    4.5207 H   0  0  0  0  0  0
    4.0292   12.1512    4.7612 H   0  0  0  0  0  0
    4.5769   11.7109    6.3878 H   0  0  0  0  0  0
    6.4504   12.2160    4.2157 H   0  0  0  0  0  0
    6.8303   11.0355    5.4916 H   0  0  0  0  0  0
    6.2012    9.3546    3.6974 H   0  0  0  0  0  0
    5.1448   10.5437    2.9305 H   0  0  0  0  0  0
  1  2  2  0  0  0
  1  4  1  0  0  0
  2  3  1  0  0  0
  2 23  1  0  0  0
  3  6  2  0  0  0
  4  5  2  0  0  0
  4 16  1  0  0  0
  5  9  1  0  0  0
  5  6  1  0  0  0
  6  7  1  0  0  0
  7  8  1  0  0  0
  7 19  1  0  0  0
  8  9  2  0  0  0
  9 10  1  0  0  0
 10 11  2  0  0  0
 10 15  1  0  0  0
 11 12  1  0  0  0
 11 24  1  0  0  0
 12 13  2  0  0  0
 12 18  1  0  0  0
 13 14  1  0  0  0
 13 17  1  0  0  0
 14 15  2  0  0  0
 14 25  1  0  0  0
 15 26  1  0  0  0
 16 27  1  0  0  0
 16 28  1  0  0  0
 18 29  1  0  0  0
 19 20  1  0  0  0
 19 22  1  0  0  0
 19 30  1  0  0  0
 20 21  1  0  0  0
 20 31  1  0  0  0
 20 32  1  0  0  0
 21 22  1  0  0  0
 21 33  1  0  0  0
 21 34  1  0  0  0
 22 35  1  0  0  0
 22 36  1  0  0  0
M  END
> <s_m_entry_id>
31824

> <s_m_entry_name>
dock_pv.87

> <s_m_Source_Path>
/home/csk/Desktop/cluster/DUD-E-result/src

> <s_m_Source_File>
dock_pv.maegz

> <i_m_Source_File_Index>
87

> <chembl_id>
CHEMBL1242287

> <chembl_pref_name>
None

> <i_lp_mmshare_version>
53161

> <r_lp_tautomer_probability>
0.999999999997365

> <s_lp_Force_Field>
OPLS_2005

> <r_lp_Energy>
20.487491

> <b_lp_Chiralities_Consistent>
1

> <s_lp_Variant>
CHEMBL267_lig1801-1

> <s_i_glide_gridfile>
glide-grid_3el8

> <i_i_glide_lignum>
2064

> <i_i_glide_rotatable_bonds>
3

> <r_i_docking_score>
-8.43488890548584

> <r_i_glide_ligand_efficiency>
-0.383404041158447

> <r_i_glide_ligand_efficiency_sa>
-1.07431320175127

> <r_i_glide_ligand_efficiency_ln>
-2.0617945185491

> <r_i_glide_gscore>
-8.43488890548584

> <r_i_glide_lipo>
-2.53658083583163

> <r_i_glide_hbond>
-0.621557744103743

> <r_i_glide_metal>
0

> <r_i_glide_rewards>
-2.76996801501374

> <r_i_glide_evdw>
-37.3518562316895

> <r_i_glide_ecoul>
-6.23185253143311

> <r_i_glide_erotb>
0.295588380762705

> <r_i_glide_esite>
0

> <r_i_glide_emodel>
-61.1712587207754

> <r_i_glide_energy>
-43.5837087631226

> <r_i_glide_einternal>
5.48184585571289

> <i_i_glide_confnum>
31

> <i_i_glide_posenum>
367

> <r_i_glide_eff_state_penalty>
0

> <s_user_duplicate_titles>
CHEMBL267_lig1801

> <i_f3d_flags>
0

> <s_m_subgroup_title>
dock_pv

> <s_m_subgroupid>
dock_pv

> <b_m_subgroup_collapsed>
1

$$$$
CHEMBL267_lig853
                    3D
 Schrodinger Suite 2021-1.
 48 52  0  0  1  0            999 V2000
    6.0628    8.7993    6.1118 C   0  0  0  0  0  0
    5.5506    7.8366    7.0349 C   0  0  0  0  0  0
    4.9844    9.5014    5.5819 N   0  0  0  0  0  0
    4.1222    8.0250    7.1013 C   0  0  0  0  0  0
    3.8427    9.0224    6.1860 C   0  0  0  0  0  0
    7.3588    8.9516    5.8046 N   0  0  0  0  0  0
    6.5148    6.9640    7.5880 C   0  0  0  0  0  0
    7.8328    7.0918    7.3029 N   0  0  0  0  0  0
    3.1174    7.3061    7.9277 C   0  0  0  0  0  0
    8.1802    8.0789    6.4418 C   0  0  0  0  0  0
    4.9867   10.5807    4.5783 C   0  0  2  0  0  0
    6.5407   12.2633    4.0377 O   0  0  0  0  0  0
    0.3672    5.0733   10.1131 O   0  0  0  0  0  0
    3.3580    7.0036    9.2705 C   0  0  0  0  0  0
    1.9293    6.8937    7.3216 C   0  0  0  0  0  0
    6.1577    5.8799    8.3879 N   0  0  0  0  0  0
    1.2550    5.8273    9.3806 C   0  0  0  0  0  0
    2.4245    6.2689    9.9965 C   0  0  0  0  0  0
    0.9996    6.1611    8.0470 C   0  0  0  0  0  0
    5.7199   10.2282    3.2902 C   0  0  0  0  0  0
   -0.1995    3.9616    9.5314 C   0  0  0  0  0  0
    5.6465   11.8708    5.0776 C   0  0  0  0  0  0
    6.9615   11.1149    3.3141 C   0  0  0  0  0  0
    0.5920    2.9612    8.9560 C   0  0  0  0  0  0
   -1.5875    3.8364    9.5331 C   0  0  0  0  0  0
   -2.1947    2.7301    8.9476 C   0  0  0  0  0  0
   -0.0118    1.8424    8.3880 C   0  0  0  0  0  0
   -1.4011    1.7326    8.3880 C   0  0  0  0  0  0
    2.8849    9.4470    5.9206 H   0  0  0  0  0  0
    9.2348    8.1732    6.2230 H   0  0  0  0  0  0
    3.9294   10.7445    4.3593 H   0  0  0  0  0  0
    4.2654    7.3338    9.7545 H   0  0  0  0  0  0
    1.7339    7.1156    6.2825 H   0  0  0  0  0  0
    5.1809    5.7200    8.5899 H   0  0  0  0  0  0
    6.8738    5.2549    8.7317 H   0  0  0  0  0  0
    2.6192    6.0176   11.0293 H   0  0  0  0  0  0
    0.0903    5.8318    7.5685 H   0  0  0  0  0  0
    5.9540    9.1673    3.1892 H   0  0  0  0  0  0
    5.1005   10.4953    2.4323 H   0  0  0  0  0  0
    4.9202   12.6646    5.2557 H   0  0  0  0  0  0
    6.1977   11.7286    6.0078 H   0  0  0  0  0  0
    7.8186   10.6591    3.8114 H   0  0  0  0  0  0
    7.3014   11.3945    2.3159 H   0  0  0  0  0  0
    1.6683    3.0482    8.9644 H   0  0  0  0  0  0
   -2.1997    4.6074    9.9690 H   0  0  0  0  0  0
   -3.2718    2.6415    8.9292 H   0  0  0  0  0  0
    0.5933    1.0574    7.9604 H   0  0  0  0  0  0
   -1.8737    0.8702    7.9398 H   0  0  0  0  0  0
  1  2  1  0  0  0
  1  3  1  0  0  0
  1  6  2  0  0  0
  2  4  1  0  0  0
  2  7  2  0  0  0
  3  5  1  0  0  0
  3 11  1  0  0  0
  4  9  1  0  0  0
  4  5  2  0  0  0
  5 29  1  0  0  0
  6 10  1  0  0  0
  7 16  1  0  0  0
  7  8  1  0  0  0
  8 10  2  0  0  0
  9 14  1  0  0  0
  9 15  2  0  0  0
 10 30  1  0  0  0
 11 20  1  0  0  0
 11 22  1  0  0  0
 11 31  1  0  0  0
 12 22  1  0  0  0
 12 23  1  0  0  0
 13 17  1  0  0  0
 13 21  1  0  0  0
 14 18  2  0  0  0
 14 32  1  0  0  0
 15 19  1  0  0  0
 15 33  1  0  0  0
 16 34  1  0  0  0
 16 35  1  0  0  0
 17 19  2  0  0  0
 17 18  1  0  0  0
 18 36  1  0  0  0
 19 37  1  0  0  0
 20 23  1  0  0  0
 20 38  1  0  0  0
 20 39  1  0  0  0
 21 24  2  0  0  0
 21 25  1  0  0  0
 22 40  1  0  0  0
 22 41  1  0  0  0
 23 42  1  0  0  0
 23 43  1  0  0  0
 24 27  1  0  0  0
 24 44  1  0  0  0
 25 26  2  0  0  0
 25 45  1  0  0  0
 26 28  1  0  0  0
 26 46  1  0  0  0
 27 28  2  0  0  0
 27 47  1  0  0  0
 28 48  1  0  0  0
M  END
> <s_m_entry_id>
31825

> <s_m_entry_name>
dock_pv.88

> <s_m_Source_Path>
/home/csk/Desktop/cluster/DUD-E-result/src

> <s_m_Source_File>
dock_pv.maegz

> <i_m_Source_File_Index>
88

> <chembl_id>
CHEMBL48554

> <chembl_pref_name>
None

> <i_lp_mmshare_version>
53161

> <r_lp_tautomer_probability>
1

> <s_lp_Force_Field>
OPLS_2005

> <r_lp_Energy>
38.161044

> <b_lp_Chiralities_Consistent>
1

> <s_lp_Variant>
CHEMBL267_lig853-1

> <s_i_glide_gridfile>
glide-grid_3el8

> <i_i_glide_lignum>
981

> <i_i_glide_rotatable_bonds>
4

> <r_i_docking_score>
-8.43320299904378

> <r_i_glide_ligand_efficiency>
-0.301185821394421

> <r_i_glide_ligand_efficiency_sa>
-0.914577542715757

> <r_i_glide_ligand_efficiency_ln>
-1.94663086177866

> <r_i_glide_gscore>
-8.43320299904378

> <r_i_glide_lipo>
-3.56891904994357

> <r_i_glide_hbond>
-0.0545485413616608

> <r_i_glide_metal>
0

> <r_i_glide_rewards>
-2.58018484705295

> <r_i_glide_evdw>
-44.7593383789062

> <r_i_glide_ecoul>
-3.65731000900269

> <r_i_glide_erotb>
0.557012859610121

> <r_i_glide_esite>
0

> <r_i_glide_emodel>
-69.5747135999452

> <r_i_glide_energy>
-48.4166483879089

> <r_i_glide_einternal>
5.69707345962524

> <i_i_glide_confnum>
4

> <i_i_glide_posenum>
259

> <r_i_glide_eff_state_penalty>
0

> <s_user_duplicate_titles>
CHEMBL267_lig853

> <i_f3d_flags>
0

> <s_m_subgroup_title>
dock_pv

> <s_m_subgroupid>
dock_pv

> <b_m_subgroup_collapsed>
1

$$$$
CHEMBL267_lig2066
                    3D
 Schrodinger Suite 2021-1.
 49 53  0  0  1  0            999 V2000
    7.7988    6.6269    7.5880 N   0  0  0  0  0  0
    8.2698    7.6885    6.8891 C   0  0  0  0  0  0
    7.5556    8.6834    6.3088 N   0  0  0  0  0  0
    6.4551    6.5506    7.7444 C   0  0  0  0  0  0
    5.6006    7.5306    7.2125 C   0  0  0  0  0  0
    6.2383    8.5631    6.4992 C   0  0  0  0  0  0
    5.2368    9.4368    6.1349 N   0  0  0  0  0  0
    4.0168    8.9542    6.4625 N   0  0  0  0  0  0
    4.2053    7.8575    7.1635 C   0  0  0  0  0  0
    5.9585    5.4366    8.4067 N   0  0  0  0  0  0
    5.3824   10.8276    5.7168 C   0  0  0  0  0  0
    5.6243   10.9747    4.2091 C   0  0  0  0  0  0
    3.0837    7.1723    7.8550 C   0  0  0  0  0  0
    2.0376    6.5939    7.1320 C   0  0  0  0  0  0
    0.9987    5.9016    7.7596 C   0  0  0  0  0  0
    3.1014    7.1167    9.2514 C   0  0  0  0  0  0
    2.0510    6.4684    9.9131 C   0  0  0  0  0  0
    1.0256    5.8502    9.1572 C   0  0  0  0  0  0
    0.1916    5.2642   10.0935 N   0  0  0  0  0  0
    0.5887    5.5248   11.3541 N   0  0  0  0  0  0
    1.6808    6.2387   11.2686 C   0  0  0  0  0  0
   -0.9775    4.4276    9.8691 C   0  0  0  0  0  0
    4.3681   10.6452    3.3838 C   0  0  0  0  0  0
    4.6354   10.8264    1.8832 C   0  0  0  0  0  0
    5.1153   12.1756    1.5879 N   0  0  1  0  0  0
    6.3019   12.5746    2.3423 C   0  0  0  0  0  0
    6.0581   12.4115    3.8514 C   0  0  0  0  0  0
    9.3426    7.7644    6.7939 H   0  0  0  0  0  0
    4.9630    5.3584    8.5585 H   0  0  0  0  0  0
    6.6073    4.7525    8.7763 H   0  0  0  0  0  0
    6.2168   11.2465    6.2813 H   0  0  0  0  0  0
    4.4971   11.3905    6.0202 H   0  0  0  0  0  0
    6.4277   10.3040    3.8949 H   0  0  0  0  0  0
    2.0455    6.6584    6.0531 H   0  0  0  0  0  0
    0.2040    5.4376    7.1932 H   0  0  0  0  0  0
    3.9015    7.5776    9.8127 H   0  0  0  0  0  0
    2.1948    6.5792   12.1556 H   0  0  0  0  0  0
   -0.6660    3.4786    9.4347 H   0  0  0  0  0  0
   -1.5050    4.2369   10.8052 H   0  0  0  0  0  0
   -1.6571    4.9361    9.1880 H   0  0  0  0  0  0
    3.5225   11.2660    3.6843 H   0  0  0  0  0  0
    4.0362    9.6266    3.5887 H   0  0  0  0  0  0
    3.7257   10.6374    1.3116 H   0  0  0  0  0  0
    5.3962   10.1160    1.5605 H   0  0  0  0  0  0
    5.2911   12.2781    0.5842 H   0  0  0  0  0  0
    6.5357   13.6135    2.1062 H   0  0  0  0  0  0
    7.1498   11.9672    2.0220 H   0  0  0  0  0  0
    6.9680   12.6751    4.3883 H   0  0  0  0  0  0
    5.3259   13.1478    4.1886 H   0  0  0  0  0  0
  1  2  2  0  0  0
  1  4  1  0  0  0
  2  3  1  0  0  0
  2 28  1  0  0  0
  3  6  2  0  0  0
  4  5  2  0  0  0
  4 10  1  0  0  0
  5  9  1  0  0  0
  5  6  1  0  0  0
  6  7  1  0  0  0
  7  8  1  0  0  0
  7 11  1  0  0  0
  8  9  2  0  0  0
  9 13  1  0  0  0
 10 29  1  0  0  0
 10 30  1  0  0  0
 11 12  1  0  0  0
 11 31  1  0  0  0
 11 32  1  0  0  0
 12 23  1  0  0  0
 12 27  1  0  0  0
 12 33  1  0  0  0
 13 14  2  0  0  0
 13 16  1  0  0  0
 14 15  1  0  0  0
 14 34  1  0  0  0
 15 18  2  0  0  0
 15 35  1  0  0  0
 16 17  2  0  0  0
 16 36  1  0  0  0
 17 18  1  0  0  0
 17 21  1  0  0  0
 18 19  1  0  0  0
 19 20  1  0  0  0
 19 22  1  0  0  0
 20 21  2  0  0  0
 21 37  1  0  0  0
 22 38  1  0  0  0
 22 39  1  0  0  0
 22 40  1  0  0  0
 23 24  1  0  0  0
 23 41  1  0  0  0
 23 42  1  0  0  0
 24 25  1  0  0  0
 24 43  1  0  0  0
 24 44  1  0  0  0
 25 26  1  0  0  0
 25 45  1  0  0  0
 26 27  1  0  0  0
 26 46  1  0  0  0
 26 47  1  0  0  0
 27 48  1  0  0  0
 27 49  1  0  0  0
M  END
> <s_m_entry_id>
31826

> <s_m_entry_name>
dock_pv.89

> <s_m_Source_Path>
/home/csk/Desktop/cluster/DUD-E-result/src

> <s_m_Source_File>
dock_pv.maegz

> <i_m_Source_File_Index>
89

> <chembl_id>
CHEMBL2069953

> <chembl_pref_name>
None

> <i_lp_mmshare_version>
53161

> <r_lp_tautomer_probability>
1

> <s_lp_Force_Field>
OPLS_2005

> <r_lp_Energy>
18.346751

> <b_lp_Chiralities_Consistent>
1

> <s_lp_Variant>
CHEMBL267_lig2066-1

> <s_i_glide_gridfile>
glide-grid_3el8

> <i_i_glide_lignum>
2350

> <i_i_glide_rotatable_bonds>
3

> <r_i_docking_score>
-8.42324223080134

> <r_i_glide_ligand_efficiency>
-0.311971934474124

> <r_i_glide_ligand_efficiency_sa>
-0.935915802394162

> <r_i_glide_ligand_efficiency_ln>
-1.96079192332925

> <r_i_glide_gscore>
-8.42324223080134

> <r_i_glide_lipo>
-2.1427223049925

> <r_i_glide_hbond>
-0.614586175241464

> <r_i_glide_metal>
0

> <r_i_glide_rewards>
-3.03890965299463

> <r_i_glide_evdw>
-38.4550323486328

> <r_i_glide_ecoul>
-6.74169158935547

> <r_i_glide_erotb>
0.306981258262213

> <r_i_glide_esite>
0

> <r_i_glide_emodel>
-63.7962753980527

> <r_i_glide_energy>
-45.1967239379883

> <r_i_glide_einternal>
6.33574771881104

> <i_i_glide_confnum>
9

> <i_i_glide_posenum>
163

> <r_i_glide_eff_state_penalty>
0

> <s_user_duplicate_titles>
CHEMBL267_lig2066

> <i_f3d_flags>
0

> <s_m_subgroup_title>
dock_pv

> <s_m_subgroupid>
dock_pv

> <b_m_subgroup_collapsed>
1

$$$$
CHEMBL267_lig1517
                    3D
 Schrodinger Suite 2021-1.
 43 46  0  0  1  0            999 V2000
    7.4656    6.5318    7.5879 N   0  0  0  0  0  0
    7.8229    7.4767    6.6870 C   0  0  0  0  0  0
    7.0234    8.3922    6.0867 N   0  0  0  0  0  0
    6.1671    6.5068    7.9799 C   0  0  0  0  0  0
    5.2266    7.4344    7.4710 C   0  0  0  0  0  0
    5.7444    8.3319    6.4848 C   0  0  0  0  0  0
    4.6909    9.0908    5.9959 N   0  0  0  0  0  0
    3.5498    8.6890    6.6621 C   0  0  0  0  0  0
    3.8170    7.7211    7.6155 C   0  0  0  0  0  0
    2.8191    7.1285    8.5523 C   0  0  0  0  0  0
    1.5459    6.7807    8.0866 C   0  0  0  0  0  0
    0.6039    6.2372    8.9588 C   0  0  0  0  0  0
    0.9352    6.0437   10.2977 C   0  0  0  0  0  0
    2.2007    6.3834   10.7670 C   0  0  0  0  0  0
    3.1461    6.9181    9.8948 C   0  0  0  0  0  0
    4.7531   10.1256    4.9486 C   0  0  2  0  0  0
    5.7975    5.4371    8.7876 N   0  0  0  0  0  0
    4.0737   11.4400    5.3639 C   0  0  0  0  0  0
    2.7051   11.3423    4.8778 N   0  0  2  0  0  0
    2.8586   10.7391    3.5605 C   0  0  1  0  0  0
    3.9810    9.6945    3.6927 C   0  0  0  0  0  0
    1.5606   10.1915    2.9351 C   0  0  0  0  0  0
    1.7979    9.8372    1.5879 O   0  0  0  0  0  0
    0.0081    5.5307   11.1633 O   0  0  0  0  0  0
    8.8625    7.4851    6.3897 H   0  0  0  0  0  0
    2.6107    9.1665    6.4208 H   0  0  0  0  0  0
    1.2865    6.9250    7.0481 H   0  0  0  0  0  0
   -0.3757    5.9662    8.5942 H   0  0  0  0  0  0
    2.4516    6.2369   11.8075 H   0  0  0  0  0  0
    4.1239    7.1856   10.2700 H   0  0  0  0  0  0
    5.8172   10.2687    4.7574 H   0  0  0  0  0  0
    4.8363    5.3461    9.0873 H   0  0  0  0  0  0
    6.5077    4.7751    9.0748 H   0  0  0  0  0  0
    4.1311   11.6273    6.4365 H   0  0  0  0  0  0
    4.5676   12.2805    4.8714 H   0  0  0  0  0  0
    2.2669   12.2497    4.7987 H   0  0  0  0  0  0
    3.1980   11.5138    2.8684 H   0  0  0  0  0  0
    4.6591    9.7719    2.8415 H   0  0  0  0  0  0
    3.6083    8.6704    3.7321 H   0  0  0  0  0  0
    1.1977    9.3209    3.4850 H   0  0  0  0  0  0
    0.7710   10.9443    2.9533 H   0  0  0  0  0  0
    1.1315    9.1985    1.2938 H   0  0  0  0  0  0
   -0.8756    5.4696   10.7847 H   0  0  0  0  0  0
  1  2  2  0  0  0
  1  4  1  0  0  0
  2  3  1  0  0  0
  2 25  1  0  0  0
  3  6  2  0  0  0
  4  5  2  0  0  0
  4 17  1  0  0  0
  5  9  1  0  0  0
  5  6  1  0  0  0
  6  7  1  0  0  0
  7 16  1  0  0  0
  7  8  1  0  0  0
  8  9  2  0  0  0
  8 26  1  0  0  0
  9 10  1  0  0  0
 10 15  1  0  0  0
 10 11  2  0  0  0
 11 12  1  0  0  0
 11 27  1  0  0  0
 12 13  2  0  0  0
 12 28  1  0  0  0
 13 14  1  0  0  0
 13 24  1  0  0  0
 14 15  2  0  0  0
 14 29  1  0  0  0
 15 30  1  0  0  0
 16 18  1  0  0  0
 16 21  1  0  0  0
 16 31  1  0  0  0
 17 32  1  0  0  0
 17 33  1  0  0  0
 18 19  1  0  0  0
 18 34  1  0  0  0
 18 35  1  0  0  0
 19 20  1  0  0  0
 19 36  1  0  0  0
 20 21  1  0  0  0
 20 22  1  0  0  0
 20 37  1  0  0  0
 21 38  1  0  0  0
 21 39  1  0  0  0
 22 23  1  0  0  0
 22 40  1  0  0  0
 22 41  1  0  0  0
 23 42  1  0  0  0
 24 43  1  0  0  0
M  END
> <s_m_entry_id>
31827

> <s_m_entry_name>
dock_pv.90

> <s_m_Source_Path>
/home/csk/Desktop/cluster/DUD-E-result/src

> <s_m_Source_File>
dock_pv.maegz

> <i_m_Source_File_Index>
90

> <chembl_id>
CHEMBL471575

> <chembl_pref_name>
None

> <i_lp_mmshare_version>
53161

> <r_lp_tautomer_probability>
0.999999999997365

> <s_lp_Force_Field>
OPLS_2005

> <r_lp_Energy>
42.411785

> <b_lp_Chiralities_Consistent>
1

> <s_lp_Variant>
CHEMBL267_lig1517-1

> <s_i_glide_gridfile>
glide-grid_3el8

> <i_i_glide_lignum>
1698

> <i_i_glide_rotatable_bonds>
5

> <r_i_docking_score>
-8.40740448193245

> <r_i_glide_ligand_efficiency>
-0.350308520080519

> <r_i_glide_ligand_efficiency_sa>
-1.01046462405187

> <r_i_glide_ligand_efficiency_ln>
-2.01227768317966

> <r_i_glide_gscore>
-8.40740448193245

> <r_i_glide_lipo>
-2.06778367972206

> <r_i_glide_hbond>
-0.685629387060617

> <r_i_glide_metal>
0

> <r_i_glide_rewards>
-3.01851272962685

> <r_i_glide_evdw>
-34.2908821105957

> <r_i_glide_ecoul>
-9.6800537109375

> <r_i_glide_erotb>
0.531073476647489

> <r_i_glide_esite>
0

> <r_i_glide_emodel>
-64.5800081145277

> <r_i_glide_energy>
-43.9709358215332

> <r_i_glide_einternal>
1.36769008636475

> <i_i_glide_confnum>
17

> <i_i_glide_posenum>
211

> <r_i_glide_eff_state_penalty>
0

> <s_user_duplicate_titles>
CHEMBL267_lig1517,459511

> <i_f3d_flags>
0

> <s_m_subgroup_title>
dock_pv

> <s_m_subgroupid>
dock_pv

> <b_m_subgroup_collapsed>
1

$$$$
CHEMBL267_lig855
                    3D
 Schrodinger Suite 2021-1.
 44 47  0  0  1  0            999 V2000
    4.0579    7.6119    7.3139 C   0  0  0  0  0  0
    5.5097    7.4368    7.3169 C   0  0  0  0  0  0
    6.0525    8.4576    6.4727 C   0  0  0  0  0  0
    5.0070    9.2212    5.9878 N   0  0  0  0  0  0
    3.8355    8.7001    6.4825 C   0  0  0  0  0  0
    6.4916    6.5605    7.8616 C   0  0  0  0  0  0
    7.3499    8.6374    6.1902 N   0  0  0  0  0  0
    7.8097    6.7077    7.5880 N   0  0  0  0  0  0
    2.9587    6.8246    7.9756 C   0  0  0  0  0  0
    8.1652    7.7351    6.7846 C   0  0  0  0  0  0
   -0.0591    4.6364    9.8476 O   0  0  0  0  0  0
    3.1670    5.5107    8.3880 C   0  0  0  0  0  0
    1.6936    7.3897    8.1921 C   0  0  0  0  0  0
    6.1980    5.4568    8.6569 N   0  0  0  0  0  0
    0.9395    5.3488    9.2416 C   0  0  0  0  0  0
    5.0978   10.3527    5.0673 C   0  0  0  0  0  0
    0.6792    6.6372    8.7880 C   0  0  0  0  0  0
    2.2102    4.8146    9.0983 C   0  0  0  0  0  0
   -0.5820    3.5137    9.2426 C   0  0  0  0  0  0
    5.1194   10.9551    2.7371 O   0  0  0  0  0  0
    5.0177    9.8540    3.6146 C   0  0  0  0  0  0
   -1.9704    3.4166    9.2245 C   0  0  0  0  0  0
    0.1934    2.4320    8.7880 C   0  0  0  0  0  0
   -2.5796    2.2449    8.7982 C   0  0  0  0  0  0
   -0.4166    1.2502    8.3880 C   0  0  0  0  0  0
   -1.8020    1.1641    8.3880 C   0  0  0  0  0  0
    2.9013    9.1540    6.1846 H   0  0  0  0  0  0
    9.2207    7.8365    6.5730 H   0  0  0  0  0  0
    4.0357    4.9627    8.1045 H   0  0  0  0  0  0
    1.4820    8.3996    7.8770 H   0  0  0  0  0  0
    5.2673    5.3685    9.0361 H   0  0  0  0  0  0
    6.9518    4.8689    8.9977 H   0  0  0  0  0  0
    4.2662   11.0197    5.2987 H   0  0  0  0  0  0
    6.0486   10.8514    5.2641 H   0  0  0  0  0  0
   -0.3116    7.0370    8.9137 H   0  0  0  0  0  0
    2.4643    3.8497    9.5015 H   0  0  0  0  0  0
    4.8516   10.6937    1.8526 H   0  0  0  0  0  0
    5.8007    9.1221    3.4084 H   0  0  0  0  0  0
    4.0867    9.3095    3.4466 H   0  0  0  0  0  0
   -2.5760    4.2371    9.5796 H   0  0  0  0  0  0
    1.2655    2.4303    8.8001 H   0  0  0  0  0  0
   -3.6575    2.1682    8.7881 H   0  0  0  0  0  0
    0.1817    0.4063    8.0756 H   0  0  0  0  0  0
   -2.2876    0.2574    8.0578 H   0  0  0  0  0  0
  1  2  1  0  0  0
  1  5  2  0  0  0
  1  9  1  0  0  0
  2  3  1  0  0  0
  2  6  2  0  0  0
  3  7  2  0  0  0
  3  4  1  0  0  0
  4  5  1  0  0  0
  4 16  1  0  0  0
  5 27  1  0  0  0
  6  8  1  0  0  0
  6 14  1  0  0  0
  7 10  1  0  0  0
  8 10  2  0  0  0
  9 12  1  0  0  0
  9 13  2  0  0  0
 10 28  1  0  0  0
 11 15  1  0  0  0
 11 19  1  0  0  0
 12 18  2  0  0  0
 12 29  1  0  0  0
 13 17  1  0  0  0
 13 30  1  0  0  0
 14 31  1  0  0  0
 14 32  1  0  0  0
 15 17  2  0  0  0
 15 18  1  0  0  0
 16 21  1  0  0  0
 16 33  1  0  0  0
 16 34  1  0  0  0
 17 35  1  0  0  0
 18 36  1  0  0  0
 19 22  2  0  0  0
 19 23  1  0  0  0
 20 21  1  0  0  0
 20 37  1  0  0  0
 21 38  1  0  0  0
 21 39  1  0  0  0
 22 24  1  0  0  0
 22 40  1  0  0  0
 23 25  2  0  0  0
 23 41  1  0  0  0
 24 26  2  0  0  0
 24 42  1  0  0  0
 25 26  1  0  0  0
 25 43  1  0  0  0
 26 44  1  0  0  0
M  END
> <s_m_entry_id>
31828

> <s_m_entry_name>
dock_pv.91

> <s_m_Source_Path>
/home/csk/Desktop/cluster/DUD-E-result/src

> <s_m_Source_File>
dock_pv.maegz

> <i_m_Source_File_Index>
91

> <chembl_id>
CHEMBL297359

> <chembl_pref_name>
None

> <i_lp_mmshare_version>
53161

> <r_lp_tautomer_probability>
1

> <s_lp_Force_Field>
OPLS_2005

> <r_lp_Energy>
17.697675

> <b_lp_Chiralities_Consistent>
1

> <s_lp_Variant>
CHEMBL267_lig855-1

> <s_i_glide_gridfile>
glide-grid_3el8

> <i_i_glide_lignum>
984

> <i_i_glide_rotatable_bonds>
6

> <r_i_docking_score>
-8.40101859838576

> <r_i_glide_ligand_efficiency>
-0.323116099937914

> <r_i_glide_ligand_efficiency_sa>
-0.95723017466561

> <r_i_glide_ligand_efficiency_ln>
-1.97295165184049

> <r_i_glide_gscore>
-8.40101859838576

> <r_i_glide_lipo>
-3.11813615763506

> <r_i_glide_hbond>
-0.504751007116166

> <r_i_glide_metal>
0

> <r_i_glide_rewards>
-2.95495537548423

> <r_i_glide_evdw>
-36.0397720336914

> <r_i_glide_ecoul>
-3.83850741386414

> <r_i_glide_erotb>
0.554588655613883

> <r_i_glide_esite>
0

> <r_i_glide_emodel>
-53.884130224974

> <r_i_glide_energy>
-39.8782794475555

> <r_i_glide_einternal>
7.44702434539795

> <i_i_glide_confnum>
14

> <i_i_glide_posenum>
394

> <r_i_glide_eff_state_penalty>
0

> <s_user_duplicate_titles>
CHEMBL267_lig855

> <i_f3d_flags>
0

> <s_m_subgroup_title>
dock_pv

> <s_m_subgroupid>
dock_pv

> <b_m_subgroup_collapsed>
1

$$$$
CHEMBL267_lig1808
                    3D
 Schrodinger Suite 2021-1.
 36 39  0  0  1  0            999 V2000
    8.0681    6.8821    7.5434 N   0  0  0  0  0  0
    8.6004    7.8369    6.7465 C   0  0  0  0  0  0
    7.9549    8.7534    5.9867 N   0  0  0  0  0  0
    6.7202    6.8603    7.6396 C   0  0  0  0  0  0
    5.9277    7.8309    6.9881 C   0  0  0  0  0  0
    6.6326    8.7287    6.1541 C   0  0  0  0  0  0
    5.6860    9.5454    5.5676 N   0  0  0  0  0  0
    4.4530    9.2148    5.9926 N   0  0  0  0  0  0
    4.5583    8.2370    6.8687 C   0  0  0  0  0  0
    3.3560    7.7328    7.5888 C   0  0  0  0  0  0
    2.1216    7.7878    6.9405 C   0  0  0  0  0  0
    0.9812    7.2963    7.5545 C   0  0  0  0  0  0
    1.0546    6.7097    8.8197 C   0  0  0  0  0  0
    2.2784    6.6633    9.4858 C   0  0  0  0  0  0
    3.4201    7.1886    8.8787 C   0  0  0  0  0  0
    6.1904    5.8131    8.3852 N   0  0  0  0  0  0
   -0.0537    6.2187    9.4181 F   0  0  0  0  0  0
   -0.2020    7.4370    6.8954 O   0  0  0  0  0  0
    5.8752   10.6875    4.6629 C   0  0  0  0  0  0
    4.9282   10.8689    3.4595 C   0  0  0  0  0  0
    4.1233   11.8716    4.3009 C   0  0  0  0  0  0
    5.3992   12.0778    5.1304 C   0  0  0  0  0  0
    9.6772    7.8373    6.6626 H   0  0  0  0  0  0
    2.0382    8.2145    5.9500 H   0  0  0  0  0  0
    2.3403    6.2334   10.4758 H   0  0  0  0  0  0
    4.3454    7.1874    9.4337 H   0  0  0  0  0  0
    5.1894    5.7054    8.4531 H   0  0  0  0  0  0
    6.8194    5.1385    8.8003 H   0  0  0  0  0  0
   -0.8834    6.8091    7.1867 H   0  0  0  0  0  0
    6.9293   10.6534    4.3814 H   0  0  0  0  0  0
    5.4085   11.3323    2.5950 H   0  0  0  0  0  0
    4.3985    9.9743    3.1269 H   0  0  0  0  0  0
    3.7619   12.7504    3.7654 H   0  0  0  0  0  0
    3.2978   11.4224    4.8570 H   0  0  0  0  0  0
    5.2683   12.1979    6.2071 H   0  0  0  0  0  0
    6.0168   12.8992    4.7606 H   0  0  0  0  0  0
  1  2  2  0  0  0
  1  4  1  0  0  0
  2  3  1  0  0  0
  2 23  1  0  0  0
  3  6  2  0  0  0
  4  5  2  0  0  0
  4 16  1  0  0  0
  5  9  1  0  0  0
  5  6  1  0  0  0
  6  7  1  0  0  0
  7  8  1  0  0  0
  7 19  1  0  0  0
  8  9  2  0  0  0
  9 10  1  0  0  0
 10 11  2  0  0  0
 10 15  1  0  0  0
 11 12  1  0  0  0
 11 24  1  0  0  0
 12 13  2  0  0  0
 12 18  1  0  0  0
 13 14  1  0  0  0
 13 17  1  0  0  0
 14 15  2  0  0  0
 14 25  1  0  0  0
 15 26  1  0  0  0
 16 27  1  0  0  0
 16 28  1  0  0  0
 18 29  1  0  0  0
 19 20  1  0  0  0
 19 22  1  0  0  0
 19 30  1  0  0  0
 20 21  1  0  0  0
 20 31  1  0  0  0
 20 32  1  0  0  0
 21 22  1  0  0  0
 21 33  1  0  0  0
 21 34  1  0  0  0
 22 35  1  0  0  0
 22 36  1  0  0  0
M  END
> <s_m_entry_id>
31829

> <s_m_entry_name>
dock_pv.92

> <s_m_Source_Path>
/home/csk/Desktop/cluster/DUD-E-result/src

> <s_m_Source_File>
dock_pv.maegz

> <i_m_Source_File_Index>
92

> <chembl_id>
CHEMBL1242566

> <chembl_pref_name>
None

> <i_lp_mmshare_version>
53161

> <r_lp_tautomer_probability>
0.999999999997365

> <s_lp_Force_Field>
OPLS_2005

> <r_lp_Energy>
21.086361

> <b_lp_Chiralities_Consistent>
1

> <s_lp_Variant>
CHEMBL267_lig1808-1

> <s_i_glide_gridfile>
glide-grid_3el8

> <i_i_glide_lignum>
2071

> <i_i_glide_rotatable_bonds>
3

> <r_i_docking_score>
-8.39513114930168

> <r_i_glide_ligand_efficiency>
-0.381596870422804

> <r_i_glide_ligand_efficiency_sa>
-1.069249438278

> <r_i_glide_ligand_efficiency_ln>
-2.0520762727383

> <r_i_glide_gscore>
-8.39513114930168

> <r_i_glide_lipo>
-1.89244610868206

> <r_i_glide_hbond>
-0.665462178417482

> <r_i_glide_metal>
0

> <r_i_glide_rewards>
-3.24265507170298

> <r_i_glide_evdw>
-31.556791305542

> <r_i_glide_ecoul>
-8.33286666870117

> <r_i_glide_erotb>
0.286999123868769

> <r_i_glide_esite>
-0.053797348785651

> <r_i_glide_emodel>
-58.9441973244602

> <r_i_glide_energy>
-39.8896579742432

> <r_i_glide_einternal>
1.24757564067841

> <i_i_glide_confnum>
39

> <i_i_glide_posenum>
229

> <r_i_glide_eff_state_penalty>
0

> <s_user_duplicate_titles>
CHEMBL267_lig1808

> <i_f3d_flags>
0

> <s_m_subgroup_title>
dock_pv

> <s_m_subgroupid>
dock_pv

> <b_m_subgroup_collapsed>
1

$$$$
CHEMBL267_lig1961
                    3D
 Schrodinger Suite 2021-1.
 49 52  0  0  1  0            999 V2000
    7.8708    6.6370    7.1422 N   0  0  0  0  0  0
    7.1347    5.8757    7.9880 C   0  0  0  0  0  0
    5.8572    6.0820    8.3880 N   0  0  0  0  0  0
    7.2327    7.6553    6.5212 C   0  0  0  0  0  0
    7.9723    8.3633    5.5879 N   0  0  0  0  0  0
    5.8880    7.9499    6.8092 C   0  0  0  0  0  0
    5.2983    7.1450    7.8074 C   0  0  0  0  0  0
    4.0821    7.7244    8.0816 N   0  0  0  0  0  0
    3.7675    8.6370    7.1390 N   0  0  0  0  0  0
    4.8332    8.8255    6.3880 C   0  0  0  0  0  0
    4.8493    9.8455    5.3035 C   0  0  0  0  0  0
    5.8775   10.7907    5.2413 C   0  0  0  0  0  0
    5.9079   11.7207    4.2050 C   0  0  0  0  0  0
    4.9132   11.6990    3.2297 C   0  0  0  0  0  0
    3.8832   10.7624    3.2860 C   0  0  0  0  0  0
    3.8494    9.8369    4.3260 C   0  0  0  0  0  0
    3.1624    7.4459    9.1836 C   0  0  0  0  0  0
    2.0468    6.4873    8.8409 C   0  0  0  0  0  0
    1.6287    6.3412    7.5966 N   0  0  0  0  0  0
    0.5980    5.4370    7.5881 N   0  0  0  0  0  0
    0.4070    5.0386    8.8483 N   0  0  0  0  0  0
    1.2872    5.6777    9.6805 C   0  0  0  0  0  0
   -0.6879    4.1273    9.1820 C   0  0  0  0  0  0
   -0.5063    2.6887    8.6697 C   0  0  0  0  0  0
   -1.7645    1.8154    8.5764 C   0  0  0  0  0  0
    0.5981    2.2372    8.3880 O   0  0  0  0  0  0
   -1.5706    0.2844    8.7848 C   0  0  0  0  0  0
   -1.1681   -0.5546    7.5597 C   0  0  0  0  0  0
   -2.2020   -0.5630    6.5965 O   0  0  0  0  0  0
    7.6418    5.0370    8.4342 H   0  0  0  0  0  0
    7.5322    9.0989    5.0570 H   0  0  0  0  0  0
    8.9155    8.0486    5.3996 H   0  0  0  0  0  0
    6.6439   10.8145    6.0028 H   0  0  0  0  0  0
    6.6972   12.4567    4.1562 H   0  0  0  0  0  0
    4.9397   12.4170    2.4222 H   0  0  0  0  0  0
    3.1157   10.7525    2.5255 H   0  0  0  0  0  0
    3.0550    9.1047    4.3654 H   0  0  0  0  0  0
    2.7583    8.3973    9.5312 H   0  0  0  0  0  0
    3.7532    7.0566   10.0145 H   0  0  0  0  0  0
    1.2874    5.5101   10.7473 H   0  0  0  0  0  0
   -1.6143    4.5503    8.7966 H   0  0  0  0  0  0
   -0.7793    4.0975   10.2672 H   0  0  0  0  0  0
   -2.2020    2.0043    7.5997 H   0  0  0  0  0  0
   -2.4839    2.1866    9.3069 H   0  0  0  0  0  0
   -2.4953   -0.1293    9.1881 H   0  0  0  0  0  0
   -0.8175    0.1043    9.5521 H   0  0  0  0  0  0
   -0.9365   -1.5798    7.8517 H   0  0  0  0  0  0
   -0.2653   -0.1630    7.0972 H   0  0  0  0  0  0
   -2.7197    0.2607    6.6575 H   0  0  0  0  0  0
  1  2  2  0  0  0
  1  4  1  0  0  0
  2  3  1  0  0  0
  2 30  1  0  0  0
  3  7  2  0  0  0
  4  6  2  0  0  0
  4  5  1  0  0  0
  5 31  1  0  0  0
  5 32  1  0  0  0
  6 10  1  0  0  0
  6  7  1  0  0  0
  7  8  1  0  0  0
  8 17  1  0  0  0
  8  9  1  0  0  0
  9 10  2  0  0  0
 10 11  1  0  0  0
 11 16  1  0  0  0
 11 12  2  0  0  0
 12 13  1  0  0  0
 12 33  1  0  0  0
 13 14  2  0  0  0
 13 34  1  0  0  0
 14 15  1  0  0  0
 14 35  1  0  0  0
 15 16  2  0  0  0
 15 36  1  0  0  0
 16 37  1  0  0  0
 17 18  1  0  0  0
 17 38  1  0  0  0
 17 39  1  0  0  0
 18 19  1  0  0  0
 18 22  2  0  0  0
 19 20  2  0  0  0
 20 21  1  0  0  0
 21 22  1  0  0  0
 21 23  1  0  0  0
 22 40  1  0  0  0
 23 24  1  0  0  0
 23 41  1  0  0  0
 23 42  1  0  0  0
 24 25  1  0  0  0
 24 26  2  0  0  0
 25 27  1  0  0  0
 25 43  1  0  0  0
 25 44  1  0  0  0
 27 28  1  0  0  0
 27 45  1  0  0  0
 27 46  1  0  0  0
 28 29  1  0  0  0
 28 47  1  0  0  0
 28 48  1  0  0  0
 29 49  1  0  0  0
M  END
> <s_m_entry_id>
31830

> <s_m_entry_name>
dock_pv.93

> <s_m_Source_Path>
/home/csk/Desktop/cluster/DUD-E-result/src

> <s_m_Source_File>
dock_pv.maegz

> <i_m_Source_File_Index>
93

> <chembl_id>
CHEMBL1683308

> <chembl_pref_name>
None

> <i_lp_mmshare_version>
53161

> <r_lp_tautomer_probability>
0.99990000499975

> <s_lp_Force_Field>
OPLS_2005

> <r_lp_Energy>
10.860083

> <b_lp_Chiralities_Consistent>
1

> <s_lp_Variant>
CHEMBL267_lig1961-1

> <s_i_glide_gridfile>
glide-grid_3el8

> <i_i_glide_lignum>
2243

> <i_i_glide_rotatable_bonds>
9

> <r_i_docking_score>
-8.38963191230292

> <r_i_glide_ligand_efficiency>
-0.289297652148376

> <r_i_glide_ligand_efficiency_sa>
-0.888814043329235

> <r_i_glide_ligand_efficiency_ln>
-1.92101296520802

> <r_i_glide_gscore>
-8.38963191230292

> <r_i_glide_lipo>
-2.46878007405188

> <r_i_glide_hbond>
-0.560232985011588

> <r_i_glide_metal>
0

> <r_i_glide_rewards>
-2.7472796146856

> <r_i_glide_evdw>
-41.7373199462891

> <r_i_glide_ecoul>
-8.22538185119629

> <r_i_glide_erotb>
0.710032506420068

> <r_i_glide_esite>
-0.00269846998003232

> <r_i_glide_emodel>
-77.8016410351711

> <r_i_glide_energy>
-49.9627017974854

> <r_i_glide_einternal>
4.25828123092651

> <i_i_glide_confnum>
47

> <i_i_glide_posenum>
12

> <r_i_glide_eff_state_penalty>
0

> <s_user_duplicate_titles>
CHEMBL267_lig1961

> <i_f3d_flags>
0

> <s_m_subgroup_title>
dock_pv

> <s_m_subgroupid>
dock_pv

> <b_m_subgroup_collapsed>
1

$$$$
CHEMBL267_lig420
                    3D
 Schrodinger Suite 2021-1.
 55 58  0  0  1  0            999 V2000
    7.9114    6.7977    7.5875 N   0  0  0  0  0  0
    8.3750    7.7802    6.7783 C   0  0  0  0  0  0
    7.6531    8.6370    6.0155 N   0  0  0  0  0  0
    6.5675    6.6854    7.6959 C   0  0  0  0  0  0
    5.6906    7.5851    7.0530 C   0  0  0  0  0  0
    6.3287    8.5075    6.1699 C   0  0  0  0  0  0
    5.3421    9.1987    5.4825 N   0  0  0  0  0  0
    4.1302    8.7938    5.9984 C   0  0  0  0  0  0
    4.2703    7.8370    6.9812 C   0  0  0  0  0  0
    3.1505    7.2936    7.8024 C   0  0  0  0  0  0
    3.3313    6.9824    9.1541 C   0  0  0  0  0  0
    2.2620    6.5145    9.9174 C   0  0  0  0  0  0
    1.0075    6.3377    9.3363 C   0  0  0  0  0  0
    0.8212    6.6307    7.9867 C   0  0  0  0  0  0
    1.8878    7.1066    7.2240 C   0  0  0  0  0  0
    6.0984    5.5750    8.3882 N   0  0  0  0  0  0
    5.5457   10.2589    4.4805 C   0  0  0  0  0  0
    4.6745   10.1451    3.2108 C   0  0  0  0  0  0
    3.2364   10.6953    3.3677 C   0  0  0  0  0  0
    3.1791   11.9935    4.0656 N   0  0  2  0  0  0
    3.9568   12.0412    5.3181 C   0  0  0  0  0  0
    5.4286   11.6551    5.0980 C   0  0  0  0  0  0
    2.4402    6.2373   11.2418 O   0  0  0  0  0  0
    1.7820   12.4355    4.2614 C   0  0  0  0  0  0
    1.6356   13.9806    4.4013 C   0  0  0  0  0  0
    0.4313   14.4981    4.7624 N   0  0  0  0  0  0
    2.5986   14.7154    4.1678 O   0  0  0  0  0  0
   -0.7625   13.7124    5.0825 C   0  0  0  0  0  0
    0.1982   15.9438    4.8464 C   0  0  0  0  0  0
    9.4490    7.8551    6.6860 H   0  0  0  0  0  0
    3.2192    9.2559    5.6618 H   0  0  0  0  0  0
    4.2898    7.1445    9.6239 H   0  0  0  0  0  0
    0.1804    5.9721    9.9288 H   0  0  0  0  0  0
   -0.1496    6.4908    7.5338 H   0  0  0  0  0  0
    1.7262    7.3300    6.1792 H   0  0  0  0  0  0
    5.1029    5.4158    8.4480 H   0  0  0  0  0  0
    6.7601    4.9229    8.7916 H   0  0  0  0  0  0
    6.5762   10.1060    4.1560 H   0  0  0  0  0  0
    4.6590    9.1109    2.8619 H   0  0  0  0  0  0
    5.1644   10.6548    2.3796 H   0  0  0  0  0  0
    2.5918    9.9645    3.8527 H   0  0  0  0  0  0
    2.7980   10.8347    2.3774 H   0  0  0  0  0  0
    3.9262   13.0372    5.7380 H   0  0  0  0  0  0
    3.4881   11.4068    6.0695 H   0  0  0  0  0  0
    5.9438   12.4004    4.4887 H   0  0  0  0  0  0
    5.9878   11.6950    6.0338 H   0  0  0  0  0  0
    3.3436    5.9786   11.4553 H   0  0  0  0  0  0
    1.3727   11.9307    5.1373 H   0  0  0  0  0  0
    1.1690   12.1487    3.4046 H   0  0  0  0  0  0
   -1.5572   13.9329    4.3683 H   0  0  0  0  0  0
   -1.1280   13.9764    6.0761 H   0  0  0  0  0  0
   -0.6042   12.6367    5.0739 H   0  0  0  0  0  0
    1.0667   16.5404    4.5640 H   0  0  0  0  0  0
   -0.6215   16.2340    4.1881 H   0  0  0  0  0  0
   -0.0737   16.2221    5.8643 H   0  0  0  0  0  0
  1  2  2  0  0  0
  1  4  1  0  0  0
  2  3  1  0  0  0
  2 30  1  0  0  0
  3  6  2  0  0  0
  4  5  2  0  0  0
  4 16  1  0  0  0
  5  9  1  0  0  0
  5  6  1  0  0  0
  6  7  1  0  0  0
  7  8  1  0  0  0
  7 17  1  0  0  0
  8  9  2  0  0  0
  8 31  1  0  0  0
  9 10  1  0  0  0
 10 15  1  0  0  0
 10 11  2  0  0  0
 11 12  1  0  0  0
 11 32  1  0  0  0
 12 23  1  0  0  0
 12 13  2  0  0  0
 13 14  1  0  0  0
 13 33  1  0  0  0
 14 15  2  0  0  0
 14 34  1  0  0  0
 15 35  1  0  0  0
 16 36  1  0  0  0
 16 37  1  0  0  0
 17 18  1  0  0  0
 17 22  1  0  0  0
 17 38  1  0  0  0
 18 19  1  0  0  0
 18 39  1  0  0  0
 18 40  1  0  0  0
 19 20  1  0  0  0
 19 41  1  0  0  0
 19 42  1  0  0  0
 20 21  1  0  0  0
 20 24  1  0  0  0
 21 22  1  0  0  0
 21 43  1  0  0  0
 21 44  1  0  0  0
 22 45  1  0  0  0
 22 46  1  0  0  0
 23 47  1  0  0  0
 24 25  1  0  0  0
 24 48  1  0  0  0
 24 49  1  0  0  0
 25 26  1  0  0  0
 25 27  2  0  0  0
 26 28  1  0  0  0
 26 29  1  0  0  0
 28 50  1  0  0  0
 28 51  1  0  0  0
 28 52  1  0  0  0
 29 53  1  0  0  0
 29 54  1  0  0  0
 29 55  1  0  0  0
M  END
> <s_m_entry_id>
31831

> <s_m_entry_name>
dock_pv.94

> <s_m_Source_Path>
/home/csk/Desktop/cluster/DUD-E-result/src

> <s_m_Source_File>
dock_pv.maegz

> <i_m_Source_File_Index>
94

> <chembl_id>
CHEMBL169920

> <chembl_pref_name>
None

> <i_lp_mmshare_version>
53161

> <r_lp_tautomer_probability>
0.999999999997365

> <s_lp_Force_Field>
OPLS_2005

> <r_lp_Energy>
31.184129

> <b_lp_Chiralities_Consistent>
1

> <s_lp_Variant>
CHEMBL267_lig420-1

> <s_i_glide_gridfile>
glide-grid_3el8

> <i_i_glide_lignum>
498

> <i_i_glide_rotatable_bonds>
6

> <r_i_docking_score>
-8.38615961673359

> <r_i_glide_ligand_efficiency>
-0.2891779178184

> <r_i_glide_ligand_efficiency_sa>
-0.888446181533048

> <r_i_glide_ligand_efficiency_ln>
-1.92021789757246

> <r_i_glide_gscore>
-8.38615961673359

> <r_i_glide_lipo>
-2.37704446298287

> <r_i_glide_hbond>
-0.636206535454905

> <r_i_glide_metal>
0

> <r_i_glide_rewards>
-2.72173826197596

> <r_i_glide_evdw>
-38.179370880127

> <r_i_glide_ecoul>
-7.29266548156738

> <r_i_glide_erotb>
0.351698009921606

> <r_i_glide_esite>
0

> <r_i_glide_emodel>
-63.5693838156909

> <r_i_glide_energy>
-45.4720363616943

> <r_i_glide_einternal>
6.18332767486572

> <i_i_glide_confnum>
25

> <i_i_glide_posenum>
166

> <r_i_glide_eff_state_penalty>
0

> <s_user_duplicate_titles>
CHEMBL267_lig420,282595

> <i_f3d_flags>
0

> <s_m_subgroup_title>
dock_pv

> <s_m_subgroupid>
dock_pv

> <b_m_subgroup_collapsed>
1

$$$$
CHEMBL267_lig1667
                    3D
 Schrodinger Suite 2021-1.
 53 57  0  0  1  0            999 V2000
    7.9765    6.8310    7.2408 N   0  0  0  0  0  0
    7.5891    7.8377    6.4190 C   0  0  0  0  0  0
    6.2634    8.2590    6.3231 C   0  0  0  0  0  0
    5.3148    7.6402    7.1537 C   0  0  0  0  0  0
    5.6975    6.6388    7.9997 N   0  0  0  0  0  0
    6.9984    6.2631    7.9878 C   0  0  0  0  0  0
    3.9208    7.9781    7.1077 N   0  0  0  0  0  0
    1.6705    7.7667    7.3888 N   0  0  0  0  0  0
    2.8432    7.2289    7.6036 C   0  0  0  0  0  0
    1.9290    8.9101    6.7106 C   0  0  0  0  0  0
    3.3228    9.1072    6.5256 C   0  0  0  0  0  0
    3.7898   10.2818    5.8992 C   0  0  0  0  0  0
    2.8379   11.1896    5.4297 C   0  0  0  0  0  0
    1.4722   10.9752    5.5867 C   0  0  0  0  0  0
    0.9978    9.8393    6.2367 C   0  0  0  0  0  0
    2.9820    6.0189    8.2537 N   0  0  0  0  0  0
    1.9636    5.4092    8.9968 C   0  0  0  0  0  0
    1.4002    4.2255    8.5181 C   0  0  0  0  0  0
    0.2903    3.6688    9.1526 C   0  0  0  0  0  0
   -0.2401    4.2974   10.2860 C   0  0  0  0  0  0
    0.3610    5.4371   10.8096 C   0  0  0  0  0  0
    1.4838    5.9833   10.1866 C   0  0  0  0  0  0
    2.1975    7.1576   10.8387 C   0  0  0  0  0  0
   -0.2268    2.4586    8.6647 N   0  0  0  0  0  0
   -1.5356    2.1208    8.6212 C   0  0  0  0  0  0
   -1.8500    0.6478    8.3879 C   0  0  0  0  0  0
   -2.4292    2.9526    8.7881 O   0  0  0  0  0  0
    8.5617    8.4369    5.6287 N   0  0  0  0  0  0
   -0.9273   -0.1891    7.7305 C   0  0  0  0  0  0
   -1.2701   -1.5120    7.4532 C   0  0  0  0  0  0
   -2.4442   -2.0684    7.8253 N   0  0  0  0  0  0
   -3.3207   -1.2811    8.4892 C   0  0  0  0  0  0
   -3.0787    0.0615    8.7880 C   0  0  0  0  0  0
   -4.3564    0.9181    9.5881 Cl  0  0  0  0  0  0
    6.0125    8.9855    5.5762 H   0  0  0  0  0  0
    7.2731    5.4371    8.6322 H   0  0  0  0  0  0
    4.8283   10.5408    5.7969 H   0  0  0  0  0  0
    3.1688   12.0950    4.9390 H   0  0  0  0  0  0
    0.7731   11.7071    5.2076 H   0  0  0  0  0  0
   -0.0609    9.6763    6.3729 H   0  0  0  0  0  0
    3.8079    5.4557    8.1150 H   0  0  0  0  0  0
    1.7997    3.7655    7.6244 H   0  0  0  0  0  0
   -1.1038    3.8852   10.7866 H   0  0  0  0  0  0
   -0.0411    5.8758   11.7116 H   0  0  0  0  0  0
    3.2389    6.8983   11.0382 H   0  0  0  0  0  0
    2.1982    8.0263   10.1817 H   0  0  0  0  0  0
    1.7294    7.4366   11.7822 H   0  0  0  0  0  0
    0.4503    1.7610    8.4057 H   0  0  0  0  0  0
    8.3074    9.1684    4.9843 H   0  0  0  0  0  0
    9.4726    7.9924    5.5878 H   0  0  0  0  0  0
    0.0345    0.1689    7.3979 H   0  0  0  0  0  0
   -0.6018   -2.1564    6.9020 H   0  0  0  0  0  0
   -4.2588   -1.7407    8.7644 H   0  0  0  0  0  0
  1  2  1  0  0  0
  1  6  2  0  0  0
  2  3  2  0  0  0
  2 28  1  0  0  0
  3  4  1  0  0  0
  3 35  1  0  0  0
  4  5  2  0  0  0
  4  7  1  0  0  0
  5  6  1  0  0  0
  6 36  1  0  0  0
  7  9  1  0  0  0
  7 11  1  0  0  0
  8 10  1  0  0  0
  8  9  2  0  0  0
  9 16  1  0  0  0
 10 11  2  0  0  0
 10 15  1  0  0  0
 11 12  1  0  0  0
 12 13  2  0  0  0
 12 37  1  0  0  0
 13 14  1  0  0  0
 13 38  1  0  0  0
 14 15  2  0  0  0
 14 39  1  0  0  0
 15 40  1  0  0  0
 16 17  1  0  0  0
 16 41  1  0  0  0
 17 18  2  0  0  0
 17 22  1  0  0  0
 18 19  1  0  0  0
 18 42  1  0  0  0
 19 20  2  0  0  0
 19 24  1  0  0  0
 20 21  1  0  0  0
 20 43  1  0  0  0
 21 22  2  0  0  0
 21 44  1  0  0  0
 22 23  1  0  0  0
 23 45  1  0  0  0
 23 46  1  0  0  0
 23 47  1  0  0  0
 24 25  1  0  0  0
 24 48  1  0  0  0
 25 26  1  0  0  0
 25 27  2  0  0  0
 26 29  2  0  0  0
 26 33  1  0  0  0
 28 49  1  0  0  0
 28 50  1  0  0  0
 29 30  1  0  0  0
 29 51  1  0  0  0
 30 31  2  0  0  0
 30 52  1  0  0  0
 31 32  1  0  0  0
 32 33  2  0  0  0
 32 53  1  0  0  0
 33 34  1  0  0  0
M  END
> <s_m_entry_id>
31832

> <s_m_entry_name>
dock_pv.95

> <s_m_Source_Path>
/home/csk/Desktop/cluster/DUD-E-result/src

> <s_m_Source_File>
dock_pv.maegz

> <i_m_Source_File_Index>
95

> <chembl_id>
CHEMBL1086730

> <chembl_pref_name>
None

> <i_lp_mmshare_version>
53161

> <r_lp_tautomer_probability>
1

> <s_lp_Force_Field>
OPLS_2005

> <r_lp_Energy>
26.862398

> <b_lp_Chiralities_Consistent>
1

> <s_lp_Variant>
CHEMBL267_lig1667-1

> <s_i_glide_gridfile>
glide-grid_3el8

> <i_i_glide_lignum>
1895

> <i_i_glide_rotatable_bonds>
6

> <r_i_docking_score>
-8.38353911384124

> <r_i_glide_ligand_efficiency>
-0.24657467981886

> <r_i_glide_ligand_efficiency_sa>
-0.798806241698436

> <r_i_glide_ligand_efficiency_ln>
-1.8521589405546

> <r_i_glide_gscore>
-8.38353911384124

> <r_i_glide_lipo>
-3.28135539145768

> <r_i_glide_hbond>
-0.475114745556007

> <r_i_glide_metal>
0

> <r_i_glide_rewards>
-2.05263534926507

> <r_i_glide_evdw>
-51.8058967590332

> <r_i_glide_ecoul>
-2.44586038589478

> <r_i_glide_erotb>
0.382740268273393

> <r_i_glide_esite>
0

> <r_i_glide_emodel>
-73.3922106019521

> <r_i_glide_energy>
-54.251757144928

> <r_i_glide_einternal>
11.1272497177124

> <i_i_glide_confnum>
8

> <i_i_glide_posenum>
97

> <r_i_glide_eff_state_penalty>
0

> <s_user_duplicate_titles>
CHEMBL267_lig1667

> <i_f3d_flags>
0

> <s_m_subgroup_title>
dock_pv

> <s_m_subgroupid>
dock_pv

> <b_m_subgroup_collapsed>
1

$$$$
CHEMBL267_lig1870
                    3D
 Schrodinger Suite 2021-1.
 39 41  0  0  1  0            999 V2000
    7.4255    6.6269    7.5778 N   0  0  0  0  0  0
    7.6963    7.6036    6.6716 C   0  0  0  0  0  0
    6.8183    8.4720    6.0972 N   0  0  0  0  0  0
    6.1367    6.5201    7.9880 C   0  0  0  0  0  0
    5.1527    7.4117    7.5355 C   0  0  0  0  0  0
    5.5642    8.3330    6.5531 C   0  0  0  0  0  0
    4.4113    8.9924    6.1569 N   0  0  0  0  0  0
    3.3474    8.5996    6.9080 N   0  0  0  0  0  0
    3.7644    7.6751    7.7439 C   0  0  0  0  0  0
    2.8943    7.0507    8.7763 C   0  0  0  0  0  0
    1.8069    6.2302    8.4516 C   0  0  0  0  0  0
    1.0566    5.6028    9.4625 C   0  0  0  0  0  0
    1.3978    5.8372   10.8014 C   0  0  0  0  0  0
    2.4866    6.6397   11.1261 C   0  0  0  0  0  0
    3.2330    7.2431   10.1183 C   0  0  0  0  0  0
    5.7985    5.4370    8.7880 N   0  0  0  0  0  0
    4.2842   10.0495    5.1420 C   0  0  0  0  0  0
    4.5622   11.4258    5.7753 C   0  0  0  0  0  0
    2.9221   10.0042    4.4152 C   0  0  0  0  0  0
   -0.0301    4.6372    9.1131 C   0  0  0  0  0  0
   -1.0007    4.2117   10.2030 C   0  0  0  0  0  0
   -0.2020    4.1781    7.9880 O   0  0  0  0  0  0
    8.7246    7.6807    6.3466 H   0  0  0  0  0  0
    1.5737    6.0569    7.4093 H   0  0  0  0  0  0
    0.8566    5.3742   11.6140 H   0  0  0  0  0  0
    2.7604    6.7865   12.1612 H   0  0  0  0  0  0
    4.0834    7.8554   10.3835 H   0  0  0  0  0  0
    4.8486    5.3407    9.1197 H   0  0  0  0  0  0
    6.5245    4.7888    9.0691 H   0  0  0  0  0  0
    5.0562    9.8547    4.3951 H   0  0  0  0  0  0
    4.5756   12.2092    5.0168 H   0  0  0  0  0  0
    3.7989   11.6921    6.5050 H   0  0  0  0  0  0
    5.5290   11.4472    6.2806 H   0  0  0  0  0  0
    2.8862   10.7341    3.6057 H   0  0  0  0  0  0
    2.7396    9.0226    3.9759 H   0  0  0  0  0  0
    2.0937   10.2254    5.0893 H   0  0  0  0  0  0
   -0.5235    3.4372   10.7882 H   0  0  0  0  0  0
   -1.9271    3.8309    9.7724 H   0  0  0  0  0  0
   -1.2565    5.0371   10.8611 H   0  0  0  0  0  0
  1  2  2  0  0  0
  1  4  1  0  0  0
  2  3  1  0  0  0
  2 23  1  0  0  0
  3  6  2  0  0  0
  4  5  2  0  0  0
  4 16  1  0  0  0
  5  9  1  0  0  0
  5  6  1  0  0  0
  6  7  1  0  0  0
  7 17  1  0  0  0
  7  8  1  0  0  0
  8  9  2  0  0  0
  9 10  1  0  0  0
 10 11  2  0  0  0
 10 15  1  0  0  0
 11 12  1  0  0  0
 11 24  1  0  0  0
 12 13  2  0  0  0
 12 20  1  0  0  0
 13 14  1  0  0  0
 13 25  1  0  0  0
 14 15  2  0  0  0
 14 26  1  0  0  0
 15 27  1  0  0  0
 16 28  1  0  0  0
 16 29  1  0  0  0
 17 18  1  0  0  0
 17 19  1  0  0  0
 17 30  1  0  0  0
 18 31  1  0  0  0
 18 32  1  0  0  0
 18 33  1  0  0  0
 19 34  1  0  0  0
 19 35  1  0  0  0
 19 36  1  0  0  0
 20 21  1  0  0  0
 20 22  2  0  0  0
 21 37  1  0  0  0
 21 38  1  0  0  0
 21 39  1  0  0  0
M  END
> <s_m_entry_id>
31833

> <s_m_entry_name>
dock_pv.96

> <s_m_Source_Path>
/home/csk/Desktop/cluster/DUD-E-result/src

> <s_m_Source_File>
dock_pv.maegz

> <i_m_Source_File_Index>
96

> <chembl_id>
CHEMBL1241946

> <chembl_pref_name>
None

> <i_lp_mmshare_version>
53161

> <r_lp_tautomer_probability>
0.99995

> <s_lp_Force_Field>
OPLS_2005

> <r_lp_Energy>
18.665065

> <b_lp_Chiralities_Consistent>
1

> <s_lp_Variant>
CHEMBL267_lig1870-1

> <s_i_glide_gridfile>
glide-grid_3el8

> <i_i_glide_lignum>
2138

> <i_i_glide_rotatable_bonds>
3

> <r_i_docking_score>
-8.38260697074268

> <r_i_glide_ligand_efficiency>
-0.381027589579213

> <r_i_glide_ligand_efficiency_sa>
-1.06765429096572

> <r_i_glide_ligand_efficiency_ln>
-2.04901490666797

> <r_i_glide_gscore>
-8.38260697074268

> <r_i_glide_lipo>
-2.11817241541877

> <r_i_glide_hbond>
-0.608

> <r_i_glide_metal>
0

> <r_i_glide_rewards>
-3.37741248005064

> <r_i_glide_evdw>
-33.5601081848145

> <r_i_glide_ecoul>
-5.40566968917847

> <r_i_glide_erotb>
0.209833787344225

> <r_i_glide_esite>
0

> <r_i_glide_emodel>
-55.0526633089092

> <r_i_glide_energy>
-38.9657778739929

> <r_i_glide_einternal>
3.85910105705261

> <i_i_glide_confnum>
1

> <i_i_glide_posenum>
22

> <r_i_glide_eff_state_penalty>
0

> <s_user_duplicate_titles>
CHEMBL267_lig1870

> <i_f3d_flags>
0

> <s_m_subgroup_title>
dock_pv

> <s_m_subgroupid>
dock_pv

> <b_m_subgroup_collapsed>
1

$$$$
CHEMBL267_lig615
                    3D
 Schrodinger Suite 2021-1.
 36 39  0  0  1  0            999 V2000
    7.5313    6.4812    7.5882 N   0  0  0  0  0  0
    7.9442    7.4385    6.7286 C   0  0  0  0  0  0
    7.1876    8.3850    6.1230 N   0  0  0  0  0  0
    6.2218    6.4890    7.9478 C   0  0  0  0  0  0
    5.3242    7.4362    7.4113 C   0  0  0  0  0  0
    5.8918    8.3473    6.4670 C   0  0  0  0  0  0
    4.8657    9.1181    5.9338 N   0  0  0  0  0  0
    3.6964    8.7274    6.5560 C   0  0  0  0  0  0
    3.9158    7.7301    7.4940 C   0  0  0  0  0  0
    2.8840    7.0876    8.3524 C   0  0  0  0  0  0
    1.6833    6.6524    7.7838 C   0  0  0  0  0  0
    0.7240    6.0289    8.5768 C   0  0  0  0  0  0
    0.9652    5.8393    9.9357 C   0  0  0  0  0  0
    2.1612    6.2705   10.5077 C   0  0  0  0  0  0
    3.1223    6.8910    9.7151 C   0  0  0  0  0  0
    4.9623   10.1246    4.9450 C   0  0  0  0  0  0
    4.0254   10.1585    3.9031 C   0  0  0  0  0  0
    4.1453   11.1074    2.8923 C   0  0  0  0  0  0
    5.1990   12.0177    2.9204 C   0  0  0  0  0  0
    6.1386   11.9873    3.9485 C   0  0  0  0  0  0
    6.0255   11.0367    4.9590 C   0  0  0  0  0  0
    5.7963    5.4378    8.7564 N   0  0  0  0  0  0
    8.9930    7.4370    6.4696 H   0  0  0  0  0  0
    2.7729    9.2199    6.2897 H   0  0  0  0  0  0
    1.4967    6.7809    6.7279 H   0  0  0  0  0  0
   -0.2018    5.6813    8.1398 H   0  0  0  0  0  0
    0.2193    5.3516   10.5506 H   0  0  0  0  0  0
    2.3480    6.1169   11.5613 H   0  0  0  0  0  0
    4.0487    7.2227   10.1625 H   0  0  0  0  0  0
    3.2129    9.4453    3.8655 H   0  0  0  0  0  0
    3.4273   11.1340    2.0849 H   0  0  0  0  0  0
    5.2927   12.7484    2.1302 H   0  0  0  0  0  0
    6.9549   12.6973    3.9568 H   0  0  0  0  0  0
    6.7630   11.0185    5.7470 H   0  0  0  0  0  0
    4.8255    5.3822    9.0402 H   0  0  0  0  0  0
    6.4816    4.7601    9.0757 H   0  0  0  0  0  0
  1  2  2  0  0  0
  1  4  1  0  0  0
  2  3  1  0  0  0
  2 23  1  0  0  0
  3  6  2  0  0  0
  4  5  2  0  0  0
  4 22  1  0  0  0
  5  9  1  0  0  0
  5  6  1  0  0  0
  6  7  1  0  0  0
  7  8  1  0  0  0
  7 16  1  0  0  0
  8  9  2  0  0  0
  8 24  1  0  0  0
  9 10  1  0  0  0
 10 11  2  0  0  0
 10 15  1  0  0  0
 11 12  1  0  0  0
 11 25  1  0  0  0
 12 13  2  0  0  0
 12 26  1  0  0  0
 13 14  1  0  0  0
 13 27  1  0  0  0
 14 15  2  0  0  0
 14 28  1  0  0  0
 15 29  1  0  0  0
 16 17  2  0  0  0
 16 21  1  0  0  0
 17 18  1  0  0  0
 17 30  1  0  0  0
 18 19  2  0  0  0
 18 31  1  0  0  0
 19 20  1  0  0  0
 19 32  1  0  0  0
 20 21  2  0  0  0
 20 33  1  0  0  0
 21 34  1  0  0  0
 22 35  1  0  0  0
 22 36  1  0  0  0
M  END
> <s_m_entry_id>
31834

> <s_m_entry_name>
dock_pv.97

> <s_m_Source_Path>
/home/csk/Desktop/cluster/DUD-E-result/src

> <s_m_Source_File>
dock_pv.maegz

> <i_m_Source_File_Index>
97

> <chembl_id>
CHEMBL169757

> <chembl_pref_name>
None

> <i_lp_mmshare_version>
53161

> <r_lp_tautomer_probability>
1

> <s_lp_Force_Field>
OPLS_2005

> <r_lp_Energy>
16.802423

> <b_lp_Chiralities_Consistent>
1

> <s_lp_Variant>
CHEMBL267_lig615-1

> <s_i_glide_gridfile>
glide-grid_3el8

> <i_i_glide_lignum>
718

> <i_i_glide_rotatable_bonds>
2

> <r_i_docking_score>
-8.38018029993921

> <r_i_glide_ligand_efficiency>
-0.380917286360873

> <r_i_glide_ligand_efficiency_sa>
-1.06734521700995

> <r_i_glide_ligand_efficiency_ln>
-2.04842173980863

> <r_i_glide_gscore>
-8.38018029993921

> <r_i_glide_lipo>
-2.2614156865435

> <r_i_glide_hbond>
-0.452705081437682

> <r_i_glide_metal>
0

> <r_i_glide_rewards>
-3.45204202483528

> <r_i_glide_evdw>
-33.2347412109375

> <r_i_glide_ecoul>
-5.74903917312622

> <r_i_glide_erotb>
0.310075429393065

> <r_i_glide_esite>
0

> <r_i_glide_emodel>
-58.0158811842924

> <r_i_glide_energy>
-38.9837803840637

> <r_i_glide_einternal>
0.190613061189651

> <i_i_glide_confnum>
4

> <i_i_glide_posenum>
339

> <r_i_glide_eff_state_penalty>
0

> <s_user_duplicate_titles>
CHEMBL267_lig615,282345

> <i_f3d_flags>
0

> <s_m_subgroup_title>
dock_pv

> <s_m_subgroupid>
dock_pv

> <b_m_subgroup_collapsed>
1

$$$$
CHEMBL267_lig2051
                    3D
 Schrodinger Suite 2021-1.
 37 39  0  0  1  0            999 V2000
    7.8390    6.6444    7.5864 N   0  0  0  0  0  0
    8.3032    7.6781    6.8423 C   0  0  0  0  0  0
    7.5797    8.6374    6.2134 N   0  0  0  0  0  0
    6.4988    6.5734    7.7480 C   0  0  0  0  0  0
    5.6339    7.5496    7.2107 C   0  0  0  0  0  0
    6.2578    8.5430    6.4162 C   0  0  0  0  0  0
    5.2342    9.3399    5.9100 N   0  0  0  0  0  0
    4.0407    8.9050    6.3866 N   0  0  0  0  0  0
    4.2363    7.8810    7.1873 C   0  0  0  0  0  0
    6.0249    5.4368    8.3884 N   0  0  0  0  0  0
    5.2519   10.5558    5.0451 C   0  0  0  0  0  0
    4.2304   10.3774    3.8928 C   0  0  0  0  0  0
    6.6450   10.8074    4.4193 C   0  0  0  0  0  0
    4.8642   11.7796    5.9099 C   0  0  0  0  0  0
    3.0957    7.2669    7.9376 C   0  0  0  0  0  0
    1.8350    7.1445    7.3376 C   0  0  0  0  0  0
    0.7753    6.5701    8.0364 C   0  0  0  0  0  0
    0.9750    6.1078    9.3375 C   0  0  0  0  0  0
    2.2253    6.2197    9.9422 C   0  0  0  0  0  0
    3.2825    6.7978    9.2436 C   0  0  0  0  0  0
    9.3758    7.7345    6.7140 H   0  0  0  0  0  0
    5.0307    5.3141    8.5151 H   0  0  0  0  0  0
    6.6906    4.7609    8.7461 H   0  0  0  0  0  0
    3.2105   10.2622    4.2593 H   0  0  0  0  0  0
    4.2306   11.2383    3.2230 H   0  0  0  0  0  0
    4.4580    9.4958    3.2921 H   0  0  0  0  0  0
    7.3948   11.0402    5.1753 H   0  0  0  0  0  0
    6.9964    9.9442    3.8567 H   0  0  0  0  0  0
    6.6228   11.6510    3.7308 H   0  0  0  0  0  0
    5.5628   11.9141    6.7365 H   0  0  0  0  0  0
    4.8701   12.6992    5.3243 H   0  0  0  0  0  0
    3.8672   11.6757    6.3406 H   0  0  0  0  0  0
    1.6728    7.4947    6.3272 H   0  0  0  0  0  0
   -0.1977    6.4783    7.5750 H   0  0  0  0  0  0
    0.1511    5.6637    9.8797 H   0  0  0  0  0  0
    2.3795    5.8603   10.9504 H   0  0  0  0  0  0
    4.2399    6.8970    9.7333 H   0  0  0  0  0  0
  1  4  1  0  0  0
  1  2  2  0  0  0
  2  3  1  0  0  0
  2 21  1  0  0  0
  3  6  2  0  0  0
  4 10  1  0  0  0
  4  5  2  0  0  0
  5  6  1  0  0  0
  5  9  1  0  0  0
  6  7  1  0  0  0
  7 11  1  0  0  0
  7  8  1  0  0  0
  8  9  2  0  0  0
  9 15  1  0  0  0
 10 22  1  0  0  0
 10 23  1  0  0  0
 11 12  1  0  0  0
 11 13  1  0  0  0
 11 14  1  0  0  0
 12 24  1  0  0  0
 12 25  1  0  0  0
 12 26  1  0  0  0
 13 27  1  0  0  0
 13 28  1  0  0  0
 13 29  1  0  0  0
 14 30  1  0  0  0
 14 31  1  0  0  0
 14 32  1  0  0  0
 15 16  2  0  0  0
 15 20  1  0  0  0
 16 17  1  0  0  0
 16 33  1  0  0  0
 17 18  2  0  0  0
 17 34  1  0  0  0
 18 19  1  0  0  0
 18 35  1  0  0  0
 19 20  2  0  0  0
 19 36  1  0  0  0
 20 37  1  0  0  0
M  END
> <s_m_entry_id>
31835

> <s_m_entry_name>
dock_pv.98

> <s_m_Source_Path>
/home/csk/Desktop/cluster/DUD-E-result/src

> <s_m_Source_File>
dock_pv.maegz

> <i_m_Source_File_Index>
98

> <chembl_id>
CHEMBL2069938

> <chembl_pref_name>
None

> <i_lp_mmshare_version>
53161

> <r_lp_tautomer_probability>
1

> <s_lp_Force_Field>
OPLS_2005

> <r_lp_Energy>
18.98696

> <b_lp_Chiralities_Consistent>
1

> <s_lp_Variant>
CHEMBL267_lig2051-1

> <s_i_glide_gridfile>
glide-grid_3el8

> <i_i_glide_lignum>
2335

> <i_i_glide_rotatable_bonds>
2

> <r_i_docking_score>
-8.37962562890475

> <r_i_glide_ligand_efficiency>
-0.418981281445238

> <r_i_glide_ligand_efficiency_sa>
-1.13729017024279

> <r_i_glide_ligand_efficiency_ln>
-2.09714391636443

> <r_i_glide_gscore>
-8.37962562890475

> <r_i_glide_lipo>
-2.11058669404033

> <r_i_glide_hbond>
-0.518937873696206

> <r_i_glide_metal>
0

> <r_i_glide_rewards>
-3.60229083560744

> <r_i_glide_evdw>
-30.6102066040039

> <r_i_glide_ecoul>
-5.27965068817139

> <r_i_glide_erotb>
0.174647707865127

> <r_i_glide_esite>
0

> <r_i_glide_emodel>
-53.1443066825248

> <r_i_glide_energy>
-35.8898572921753

> <r_i_glide_einternal>
1.3892570734024

> <i_i_glide_confnum>
3

> <i_i_glide_posenum>
27

> <r_i_glide_eff_state_penalty>
0

> <s_user_duplicate_titles>
CHEMBL267_lig2051

> <i_f3d_flags>
0

> <s_m_subgroup_title>
dock_pv

> <s_m_subgroupid>
dock_pv

> <b_m_subgroup_collapsed>
1

$$$$
CHEMBL267_lig1347
                    3D
 Schrodinger Suite 2021-1.
 43 46  0  0  1  0            999 V2000
    0.7248    6.3457    8.6954 C   0  0  0  0  0  0
    1.5295    5.3774    9.2947 C   0  0  0  0  0  0
    2.9137    5.4370    9.1417 C   0  0  0  0  0  0
    1.3059    7.3695    7.9415 C   0  0  0  0  0  0
    2.7008    7.4302    7.7783 C   0  0  0  0  0  0
    3.4744    6.4689    8.3929 C   0  0  0  0  0  0
    4.7927    6.7230    8.1067 N   0  0  0  0  0  0
    4.9679    7.7788    7.2387 C   0  0  0  0  0  0
    3.6190    8.3212    7.0208 C   0  0  0  0  0  0
    6.1550    8.1943    6.6828 C   0  0  0  0  0  0
    7.3873    7.4370    6.9380 C   0  0  0  0  0  0
    8.3712    8.0491    6.2828 N   0  0  0  0  0  0
    6.5813    9.2851    5.7597 C   0  0  0  0  0  0
    7.9421    9.1294    5.5788 C   0  0  0  0  0  0
    8.7060    9.9877    4.7880 C   0  0  0  0  0  0
    8.0704   11.0370    4.1275 C   0  0  0  0  0  0
    6.6963   11.2181    4.2812 C   0  0  0  0  0  0
    5.9573   10.3564    5.0964 C   0  0  0  0  0  0
    3.3119    9.3270    6.3064 N   0  0  0  0  0  0
    7.5547    6.4051    7.5880 O   0  0  0  0  0  0
    1.9402    9.6101    6.2646 O   0  0  0  0  0  0
    1.6155   10.1940    5.0064 C   0  0  0  0  0  0
    1.7080    9.1844    3.8365 C   0  0  1  0  0  0
    0.8644    7.9137    4.0824 C   0  0  0  0  0  0
    1.2607    9.8370    2.6585 O   0  0  0  0  0  0
    1.2190    6.8807    3.1880 O   0  0  0  0  0  0
   -0.3498    6.2861    8.8016 H   0  0  0  0  0  0
    1.0812    4.5788    9.8681 H   0  0  0  0  0  0
    3.5326    4.6752    9.5880 H   0  0  0  0  0  0
    0.6452    8.0831    7.4759 H   0  0  0  0  0  0
    5.6231    6.1947    8.3495 H   0  0  0  0  0  0
    9.3035    7.6642    6.2180 H   0  0  0  0  0  0
    9.7708    9.8463    4.6710 H   0  0  0  0  0  0
    8.6399   11.7101    3.5032 H   0  0  0  0  0  0
    6.2029   12.0355    3.7754 H   0  0  0  0  0  0
    4.9128   10.5824    5.1697 H   0  0  0  0  0  0
    2.2309   11.0761    4.8144 H   0  0  0  0  0  0
    0.5980   10.5637    5.0950 H   0  0  0  0  0  0
    2.7519    8.9000    3.6897 H   0  0  0  0  0  0
   -0.2020    8.1209    4.0098 H   0  0  0  0  0  0
    1.0455    7.5239    5.0832 H   0  0  0  0  0  0
    1.2139    9.1976    1.9394 H   0  0  0  0  0  0
    0.8478    7.0721    2.3169 H   0  0  0  0  0  0
  1  2  2  0  0  0
  1  4  1  0  0  0
  1 27  1  0  0  0
  2  3  1  0  0  0
  2 28  1  0  0  0
  3  6  2  0  0  0
  3 29  1  0  0  0
  4  5  2  0  0  0
  4 30  1  0  0  0
  5  9  1  0  0  0
  5  6  1  0  0  0
  6  7  1  0  0  0
  7  8  1  0  0  0
  7 31  1  0  0  0
  8 10  2  0  0  0
  8  9  1  0  0  0
  9 19  2  0  0  0
 10 13  1  0  0  0
 10 11  1  0  0  0
 11 20  2  0  0  0
 11 12  1  0  0  0
 12 14  1  0  0  0
 12 32  1  0  0  0
 13 14  2  0  0  0
 13 18  1  0  0  0
 14 15  1  0  0  0
 15 16  2  0  0  0
 15 33  1  0  0  0
 16 17  1  0  0  0
 16 34  1  0  0  0
 17 18  2  0  0  0
 17 35  1  0  0  0
 18 36  1  0  0  0
 19 21  1  0  0  0
 21 22  1  0  0  0
 22 23  1  0  0  0
 22 37  1  0  0  0
 22 38  1  0  0  0
 23 24  1  0  0  0
 23 25  1  0  0  0
 23 39  1  0  0  0
 24 26  1  0  0  0
 24 40  1  0  0  0
 24 41  1  0  0  0
 25 42  1  0  0  0
 26 43  1  0  0  0
M  END
> <s_m_entry_id>
31836

> <s_m_entry_name>
dock_pv.99

> <s_m_Source_Path>
/home/csk/Desktop/cluster/DUD-E-result/src

> <s_m_Source_File>
dock_pv.maegz

> <i_m_Source_File_Index>
99

> <chembl_id>
CHEMBL1276317

> <chembl_pref_name>
None

> <i_lp_mmshare_version>
53161

> <r_lp_tautomer_probability>
1

> <s_lp_Force_Field>
OPLS_2005

> <r_lp_Energy>
76.407968

> <b_lp_Chiralities_Consistent>
1

> <s_lp_Variant>
CHEMBL267_lig1347-2

> <s_i_glide_gridfile>
glide-grid_3el8

> <i_i_glide_lignum>
1501

> <i_i_glide_rotatable_bonds>
6

> <r_i_docking_score>
-8.3736750641605

> <r_i_glide_ligand_efficiency>
-0.322064425544635

> <r_i_glide_ligand_efficiency_sa>
-0.954114593413659

> <r_i_glide_ligand_efficiency_ln>
-1.96653011254914

> <r_i_glide_gscore>
-8.3736750641605

> <r_i_glide_lipo>
-2.62204416860892

> <r_i_glide_hbond>
-0.372938239156308

> <r_i_glide_metal>
0

> <r_i_glide_rewards>
-2.37934286302999

> <r_i_glide_evdw>
-36.7789344787598

> <r_i_glide_ecoul>
-10.6198282241821

> <r_i_glide_erotb>
0.43257116420003

> <r_i_glide_esite>
0

> <r_i_glide_emodel>
-68.2482597309825

> <r_i_glide_energy>
-47.3987627029419

> <r_i_glide_einternal>
2.3341748714447

> <i_i_glide_confnum>
1

> <i_i_glide_posenum>
318

> <r_i_glide_eff_state_penalty>
0

> <s_user_duplicate_titles>
CHEMBL267_lig1347

> <i_f3d_flags>
0

> <s_m_subgroup_title>
dock_pv

> <s_m_subgroupid>
dock_pv

> <b_m_subgroup_collapsed>
1

$$$$
CHEMBL267_lig1880
                    3D
 Schrodinger Suite 2021-1.
 37 40  0  0  1  0            999 V2000
    7.8703    7.0374    7.2731 N   0  0  0  0  0  0
    8.1969    8.0139    6.3883 C   0  0  0  0  0  0
    7.3581    8.8736    5.7518 N   0  0  0  0  0  0
    6.5579    6.9152    7.5880 C   0  0  0  0  0  0
    5.5925    7.7835    7.0424 C   0  0  0  0  0  0
    6.0729    8.7175    6.0974 C   0  0  0  0  0  0
    4.9516    9.3839    5.6221 N   0  0  0  0  0  0
    3.8371    8.9611    6.2636 N   0  0  0  0  0  0
    4.1816    8.0300    7.1221 C   0  0  0  0  0  0
    3.1864    7.4199    8.0468 C   0  0  0  0  0  0
    3.5144    7.2953    9.3985 C   0  0  0  0  0  0
    2.6211    6.7223   10.2997 C   0  0  0  0  0  0
    1.3865    6.2370    9.8468 C   0  0  0  0  0  0
    1.0526    6.3583    8.4956 C   0  0  0  0  0  0
    1.9458    6.9513    7.6001 C   0  0  0  0  0  0
    6.1978    5.8370    8.3880 N   0  0  0  0  0  0
    0.2582    5.4916   10.9275 Cl  0  0  0  0  0  0
    2.9978    6.6370   11.6134 O   0  0  0  0  0  0
    4.8356   10.5055    4.6759 C   0  0  2  0  0  0
    5.6766   10.3450    3.4148 C   0  0  0  0  0  0
    6.8027   11.3598    3.5898 C   0  0  0  0  0  0
    6.1977   12.4009    4.3462 O   0  0  0  0  0  0
    5.2872   11.8394    5.2892 C   0  0  0  0  0  0
    9.2464    8.1106    6.1482 H   0  0  0  0  0  0
    4.4632    7.6654    9.7586 H   0  0  0  0  0  0
    0.1007    5.9879    8.1402 H   0  0  0  0  0  0
    1.6788    7.0343    6.5561 H   0  0  0  0  0  0
    5.2225    5.6786    8.5936 H   0  0  0  0  0  0
    6.9125    5.2041    8.7213 H   0  0  0  0  0  0
    3.6869    5.9713   11.7389 H   0  0  0  0  0  0
    3.7767   10.5237    4.4053 H   0  0  0  0  0  0
    6.0370    9.3295    3.2447 H   0  0  0  0  0  0
    5.0811   10.6151    2.5413 H   0  0  0  0  0  0
    7.6687   10.9709    4.1264 H   0  0  0  0  0  0
    7.1791   11.7428    2.6406 H   0  0  0  0  0  0
    4.4535   12.5229    5.4514 H   0  0  0  0  0  0
    5.7951   11.7138    6.2477 H   0  0  0  0  0  0
  1  2  2  0  0  0
  1  4  1  0  0  0
  2  3  1  0  0  0
  2 24  1  0  0  0
  3  6  2  0  0  0
  4  5  2  0  0  0
  4 16  1  0  0  0
  5  9  1  0  0  0
  5  6  1  0  0  0
  6  7  1  0  0  0
  7  8  1  0  0  0
  7 19  1  0  0  0
  8  9  2  0  0  0
  9 10  1  0  0  0
 10 15  1  0  0  0
 10 11  2  0  0  0
 11 12  1  0  0  0
 11 25  1  0  0  0
 12 13  2  0  0  0
 12 18  1  0  0  0
 13 14  1  0  0  0
 13 17  1  0  0  0
 14 15  2  0  0  0
 14 26  1  0  0  0
 15 27  1  0  0  0
 16 28  1  0  0  0
 16 29  1  0  0  0
 18 30  1  0  0  0
 19 20  1  0  0  0
 19 23  1  0  0  0
 19 31  1  0  0  0
 20 21  1  0  0  0
 20 32  1  0  0  0
 20 33  1  0  0  0
 21 22  1  0  0  0
 21 34  1  0  0  0
 21 35  1  0  0  0
 22 23  1  0  0  0
 23 36  1  0  0  0
 23 37  1  0  0  0
M  END
> <s_m_entry_id>
31837

> <s_m_entry_name>
dock_pv.100

> <s_m_Source_Path>
/home/csk/Desktop/cluster/DUD-E-result/src

> <s_m_Source_File>
dock_pv.maegz

> <i_m_Source_File_Index>
100

> <chembl_id>
CHEMBL1241768

> <chembl_pref_name>
None

> <i_lp_mmshare_version>
53161

> <r_lp_tautomer_probability>
0.999999999997365

> <s_lp_Force_Field>
OPLS_2005

> <r_lp_Energy>
26.894429

> <b_lp_Chiralities_Consistent>
1

> <s_lp_Variant>
CHEMBL267_lig1880-1

> <s_i_glide_gridfile>
glide-grid_3el8

> <i_i_glide_lignum>
2148

> <i_i_glide_rotatable_bonds>
3

> <r_i_docking_score>
-8.36432367255323

> <r_i_glide_ligand_efficiency>
-0.363666246632749

> <r_i_glide_ligand_efficiency_sa>
-1.0342184294045

> <r_i_glide_ligand_efficiency_ln>
-2.02256930751721

> <r_i_glide_gscore>
-8.36432367255323

> <r_i_glide_lipo>
-2.35707960212667

> <r_i_glide_hbond>
-0.461261460354524

> <r_i_glide_metal>
0

> <r_i_glide_rewards>
-2.7724484297738

> <r_i_glide_evdw>
-39.8835792541504

> <r_i_glide_ecoul>
-6.79211044311523

> <r_i_glide_erotb>
0.239461348876563

> <r_i_glide_esite>
0

> <r_i_glide_emodel>
-65.2268490415012

> <r_i_glide_energy>
-46.6756896972656

> <r_i_glide_einternal>
5.94407272338867

> <i_i_glide_confnum>
20

> <i_i_glide_posenum>
204

> <r_i_glide_eff_state_penalty>
0

> <s_user_duplicate_titles>
CHEMBL267_lig1880

> <i_f3d_flags>
0

> <s_m_subgroup_title>
dock_pv

> <s_m_subgroupid>
dock_pv

> <b_m_subgroup_collapsed>
1

$$$$
CHEMBL267_lig1513
                    3D
 Schrodinger Suite 2021-1.
 51 54  0  0  1  0            999 V2000
    7.8158    6.6458    7.5875 N   0  0  0  0  0  0
    8.2560    7.6761    6.8275 C   0  0  0  0  0  0
    7.5177    8.6344    6.2190 N   0  0  0  0  0  0
    6.4819    6.5736    7.8022 C   0  0  0  0  0  0
    5.5932    7.5437    7.2903 C   0  0  0  0  0  0
    6.2050    8.5329    6.4639 C   0  0  0  0  0  0
    5.2060    9.3401    5.9471 N   0  0  0  0  0  0
    4.0043    8.8692    6.4324 C   0  0  0  0  0  0
    4.1798    7.8399    7.3402 C   0  0  0  0  0  0
    3.0999    7.2313    8.1760 C   0  0  0  0  0  0
    1.8048    7.1274    7.6615 C   0  0  0  0  0  0
    0.7854    6.5627    8.4250 C   0  0  0  0  0  0
    1.0571    6.1180    9.7168 C   0  0  0  0  0  0
    2.3417    6.2263   10.2413 C   0  0  0  0  0  0
    3.3617    6.7773    9.4715 C   0  0  0  0  0  0
    5.3726   10.4871    5.0419 C   0  0  2  0  0  0
    6.0327    5.4370    8.4632 N   0  0  0  0  0  0
    4.7792   11.7937    5.5882 C   0  0  0  0  0  0
    4.1585   12.4480    4.4449 N   0  0  1  0  0  0
    3.6409   11.4013    3.5779 C   0  0  1  0  0  0
    4.7101   10.2957    3.6741 C   0  0  0  0  0  0
    2.2044   11.0126    4.0061 C   0  0  0  0  0  0
    1.6340    9.8342    3.2176 C   0  0  0  0  0  0
    1.1718    8.8352    4.0089 O   0  0  0  0  0  0
    1.6646    9.8371    1.9879 O   0  0  0  0  0  0
    0.6140    7.6676    3.4146 C   0  0  0  0  0  0
    0.1632    6.6498    4.4646 C   0  0  0  0  0  0
    0.0623    5.5786   10.4875 O   0  0  0  0  0  0
    9.3236    7.7313    6.6652 H   0  0  0  0  0  0
    3.0917    9.3671    6.1574 H   0  0  0  0  0  0
    1.5874    7.4864    6.6685 H   0  0  0  0  0  0
   -0.2053    6.4700    8.0090 H   0  0  0  0  0  0
    2.5518    5.8764   11.2418 H   0  0  0  0  0  0
    4.3470    6.8712    9.9007 H   0  0  0  0  0  0
    6.4500   10.5912    4.9080 H   0  0  0  0  0  0
    5.0436    5.3163    8.6263 H   0  0  0  0  0  0
    6.7100    4.7582    8.7922 H   0  0  0  0  0  0
    4.0058   11.6078    6.3359 H   0  0  0  0  0  0
    5.5364   12.4266    6.0487 H   0  0  0  0  0  0
    3.4386   13.1087    4.6984 H   0  0  0  0  0  0
    3.6268   11.8140    2.5671 H   0  0  0  0  0  0
    4.2951    9.2929    3.5608 H   0  0  0  0  0  0
    5.4197   10.3926    2.8507 H   0  0  0  0  0  0
    1.5388   11.8581    3.8383 H   0  0  0  0  0  0
    2.1480   10.8031    5.0697 H   0  0  0  0  0  0
    1.3477    7.2039    2.7545 H   0  0  0  0  0  0
   -0.2385    7.9509    2.7956 H   0  0  0  0  0  0
   -0.3828    5.8318    3.9916 H   0  0  0  0  0  0
   -0.4985    7.1013    5.2035 H   0  0  0  0  0  0
    1.0162    6.2119    4.9809 H   0  0  0  0  0  0
   -0.8176    5.6088   10.0950 H   0  0  0  0  0  0
  1  2  2  0  0  0
  1  4  1  0  0  0
  2  3  1  0  0  0
  2 29  1  0  0  0
  3  6  2  0  0  0
  4  5  2  0  0  0
  4 17  1  0  0  0
  5  9  1  0  0  0
  5  6  1  0  0  0
  6  7  1  0  0  0
  7 16  1  0  0  0
  7  8  1  0  0  0
  8  9  2  0  0  0
  8 30  1  0  0  0
  9 10  1  0  0  0
 10 15  1  0  0  0
 10 11  2  0  0  0
 11 12  1  0  0  0
 11 31  1  0  0  0
 12 13  2  0  0  0
 12 32  1  0  0  0
 13 14  1  0  0  0
 13 28  1  0  0  0
 14 15  2  0  0  0
 14 33  1  0  0  0
 15 34  1  0  0  0
 16 18  1  0  0  0
 16 21  1  0  0  0
 16 35  1  0  0  0
 17 36  1  0  0  0
 17 37  1  0  0  0
 18 19  1  0  0  0
 18 38  1  0  0  0
 18 39  1  0  0  0
 19 20  1  0  0  0
 19 40  1  0  0  0
 20 21  1  0  0  0
 20 22  1  0  0  0
 20 41  1  0  0  0
 21 42  1  0  0  0
 21 43  1  0  0  0
 22 23  1  0  0  0
 22 44  1  0  0  0
 22 45  1  0  0  0
 23 24  1  0  0  0
 23 25  2  0  0  0
 24 26  1  0  0  0
 26 27  1  0  0  0
 26 46  1  0  0  0
 26 47  1  0  0  0
 27 48  1  0  0  0
 27 49  1  0  0  0
 27 50  1  0  0  0
 28 51  1  0  0  0
M  END
> <s_m_entry_id>
31838

> <s_m_entry_name>
dock_pv.101

> <s_m_Source_Path>
/home/csk/Desktop/cluster/DUD-E-result/src

> <s_m_Source_File>
dock_pv.maegz

> <i_m_Source_File_Index>
101

> <chembl_id>
CHEMBL470527

> <chembl_pref_name>
None

> <i_lp_mmshare_version>
53161

> <r_lp_tautomer_probability>
0.999999999997365

> <s_lp_Force_Field>
OPLS_2005

> <r_lp_Energy>
31.232063

> <b_lp_Chiralities_Consistent>
1

> <s_lp_Variant>
CHEMBL267_lig1513-1

> <s_i_glide_gridfile>
glide-grid_3el8

> <i_i_glide_lignum>
1694

> <i_i_glide_rotatable_bonds>
7

> <r_i_docking_score>
-8.35626928223443

> <r_i_glide_ligand_efficiency>
-0.29843818865123

> <r_i_glide_ligand_efficiency_sa>
-0.906234111438287

> <r_i_glide_ligand_efficiency_ln>
-1.92887230106699

> <r_i_glide_gscore>
-8.35626928223443

> <r_i_glide_lipo>
-2.43537166309305

> <r_i_glide_hbond>
-0.552940807345597

> <r_i_glide_metal>
0

> <r_i_glide_rewards>
-2.80307278092513

> <r_i_glide_evdw>
-44.7257843017578

> <r_i_glide_ecoul>
-5.30376958847046

> <r_i_glide_erotb>
0.466970622487809

> <r_i_glide_esite>
0

> <r_i_glide_emodel>
-72.9117266049796

> <r_i_glide_energy>
-50.0295538902283

> <r_i_glide_einternal>
3.39793586730957

> <i_i_glide_confnum>
49

> <i_i_glide_posenum>
113

> <r_i_glide_eff_state_penalty>
0

> <s_user_duplicate_titles>
CHEMBL267_lig1513,459507

> <i_f3d_flags>
0

> <s_m_subgroup_title>
dock_pv

> <s_m_subgroupid>
dock_pv

> <b_m_subgroup_collapsed>
1

$$$$
CHEMBL267_lig436
                    3D
 Schrodinger Suite 2021-1.
 42 45  0  0  1  0            999 V2000
    5.5970    8.4322    6.4634 C   0  0  0  0  0  0
    5.1538    7.5015    7.4507 C   0  0  0  0  0  0
    3.7494    7.7105    7.6383 C   0  0  0  0  0  0
    4.4802    9.1369    6.0158 N   0  0  0  0  0  0
    3.3842    8.6571    6.7049 C   0  0  0  0  0  0
    6.8704    8.5595    6.0564 N   0  0  0  0  0  0
    6.1376    6.6347    7.9602 C   0  0  0  0  0  0
    2.8559    7.0029    8.5769 C   0  0  0  0  0  0
    7.4347    6.7394    7.5800 N   0  0  0  0  0  0
    7.7296    7.6971    6.6644 C   0  0  0  0  0  0
    4.3997   10.2132    5.0130 C   0  0  1  0  0  0
    1.9212    6.0836    8.0986 C   0  0  0  0  0  0
    6.2073   10.2201    3.4820 N   0  0  1  0  0  0
    5.7980    5.5634    8.7864 N   0  0  0  0  0  0
    1.0612    5.4237    8.9758 C   0  0  0  0  0  0
    5.3234   11.3992    5.3380 C   0  0  0  0  0  0
    4.8369    9.7635    3.6137 C   0  0  0  0  0  0
    2.9361    7.2716    9.9435 C   0  0  0  0  0  0
    0.1979    4.5080    8.4086 O   0  0  0  0  0  0
    6.1838   11.5443    4.0823 C   0  0  0  0  0  0
    2.0662    6.6369   10.8280 C   0  0  0  0  0  0
    1.1283    5.7209   10.3480 C   0  0  0  0  0  0
   -0.7832    3.8917    9.2321 C   0  0  0  0  0  0
    2.4037    9.0641    6.5014 H   0  0  0  0  0  0
    8.7654    7.7633    6.3585 H   0  0  0  0  0  0
    3.3507   10.5126    4.9936 H   0  0  0  0  0  0
    1.8666    5.8690    7.0414 H   0  0  0  0  0  0
    6.7723    9.6290    4.0858 H   0  0  0  0  0  0
    4.8402    5.4557    9.0917 H   0  0  0  0  0  0
    6.5230    4.9265    9.0917 H   0  0  0  0  0  0
    4.7540   12.3128    5.5141 H   0  0  0  0  0  0
    5.9492   11.2354    6.2178 H   0  0  0  0  0  0
    4.7339    8.6879    3.4482 H   0  0  0  0  0  0
    4.2344   10.2653    2.8516 H   0  0  0  0  0  0
    3.6623    7.9788   10.3215 H   0  0  0  0  0  0
    5.7779   12.2895    3.3935 H   0  0  0  0  0  0
    7.2065   11.8399    4.3304 H   0  0  0  0  0  0
    2.1235    6.8415   11.8866 H   0  0  0  0  0  0
    0.4710    5.2390   11.0559 H   0  0  0  0  0  0
   -1.4329    3.2650    8.6207 H   0  0  0  0  0  0
   -0.3185    3.2571    9.9868 H   0  0  0  0  0  0
   -1.4086    4.6357    9.7257 H   0  0  0  0  0  0
  1  2  2  0  0  0
  1  4  1  0  0  0
  1  6  1  0  0  0
  2  3  1  0  0  0
  2  7  1  0  0  0
  3  8  1  0  0  0
  3  5  2  0  0  0
  4  5  1  0  0  0
  4 11  1  0  0  0
  5 24  1  0  0  0
  6 10  2  0  0  0
  7 14  1  0  0  0
  7  9  2  0  0  0
  8 12  2  0  0  0
  8 18  1  0  0  0
  9 10  1  0  0  0
 10 25  1  0  0  0
 11 16  1  0  0  0
 11 17  1  0  0  0
 11 26  1  0  0  0
 12 15  1  0  0  0
 12 27  1  0  0  0
 13 17  1  0  0  0
 13 20  1  0  0  0
 13 28  1  0  0  0
 14 29  1  0  0  0
 14 30  1  0  0  0
 15 19  1  0  0  0
 15 22  2  0  0  0
 16 20  1  0  0  0
 16 31  1  0  0  0
 16 32  1  0  0  0
 17 33  1  0  0  0
 17 34  1  0  0  0
 18 21  2  0  0  0
 18 35  1  0  0  0
 19 23  1  0  0  0
 20 36  1  0  0  0
 20 37  1  0  0  0
 21 22  1  0  0  0
 21 38  1  0  0  0
 22 39  1  0  0  0
 23 40  1  0  0  0
 23 41  1  0  0  0
 23 42  1  0  0  0
M  END
> <s_m_entry_id>
31839

> <s_m_entry_name>
dock_pv.102

> <s_m_Source_Path>
/home/csk/Desktop/cluster/DUD-E-result/src

> <s_m_Source_File>
dock_pv.maegz

> <i_m_Source_File_Index>
102

> <chembl_id>
CHEMBL169519

> <chembl_pref_name>
None

> <i_lp_mmshare_version>
53161

> <r_lp_tautomer_probability>
1

> <s_lp_Force_Field>
OPLS_2005

> <r_lp_Energy>
38.220065

> <b_lp_Chiralities_Consistent>
1

> <s_lp_Variant>
CHEMBL267_lig436-2

> <s_i_glide_gridfile>
glide-grid_3el8

> <i_i_glide_lignum>
521

> <i_i_glide_rotatable_bonds>
3

> <r_i_docking_score>
-8.34742140223226

> <r_i_glide_ligand_efficiency>
-0.362931365314446

> <r_i_glide_ligand_efficiency_sa>
-1.03212852469145

> <r_i_glide_ligand_efficiency_ln>
-2.01848218529228

> <r_i_glide_gscore>
-8.34742140223226

> <r_i_glide_lipo>
-2.9096642139097

> <r_i_glide_hbond>
-0.268356978812641

> <r_i_glide_metal>
0

> <r_i_glide_rewards>
-3.08817982609165

> <r_i_glide_evdw>
-35.9620361328125

> <r_i_glide_ecoul>
-4.46687269210815

> <r_i_glide_erotb>
0.386912327038572

> <r_i_glide_esite>
0

> <r_i_glide_emodel>
-58.7644453561512

> <r_i_glide_energy>
-40.4289088249207

> <r_i_glide_einternal>
3.29258584976196

> <i_i_glide_confnum>
44

> <i_i_glide_posenum>
292

> <r_i_glide_eff_state_penalty>
0

> <s_user_duplicate_titles>
CHEMBL267_lig436,282751

> <i_f3d_flags>
0

> <s_m_subgroup_title>
dock_pv

> <s_m_subgroupid>
dock_pv

> <b_m_subgroup_collapsed>
1

$$$$
CHEMBL267_lig1878
                    3D
 Schrodinger Suite 2021-1.
 38 41  0  0  1  0            999 V2000
    7.8083    7.0648    7.2477 N   0  0  0  0  0  0
    8.1099    8.0589    6.3731 C   0  0  0  0  0  0
    7.2525    8.9232    5.7669 N   0  0  0  0  0  0
    6.5035    6.9263    7.5880 C   0  0  0  0  0  0
    5.5205    7.7946    7.0750 C   0  0  0  0  0  0
    5.9764    8.7483    6.1374 C   0  0  0  0  0  0
    4.8429    9.4169    5.7005 N   0  0  0  0  0  0
    3.7408    8.9686    6.3437 N   0  0  0  0  0  0
    4.1092    8.0316    7.1857 C   0  0  0  0  0  0
    3.1343    7.4111    8.1241 C   0  0  0  0  0  0
    3.4843    7.2885    9.4704 C   0  0  0  0  0  0
    2.6043    6.7187   10.3864 C   0  0  0  0  0  0
    1.3637    6.2319    9.9532 C   0  0  0  0  0  0
    1.0085    6.3491    8.6073 C   0  0  0  0  0  0
    1.8871    6.9414    7.6972 C   0  0  0  0  0  0
    6.1711    5.8373    8.3880 N   0  0  0  0  0  0
    0.2600    5.4742   11.0504 Cl  0  0  0  0  0  0
    2.9980    6.6370   11.6953 O   0  0  0  0  0  0
    4.7129   10.5357    4.7599 C   0  0  2  0  0  0
    5.4162   10.3474    3.4085 C   0  0  0  0  0  0
    6.2967   11.5940    3.2761 C   0  0  0  0  0  0
    5.7036   12.5950    4.1501 N   0  0  1  0  0  0
    5.2863   11.8413    5.3205 C   0  0  0  0  0  0
    9.1531    8.1640    6.1094 H   0  0  0  0  0  0
    4.4380    7.6603    9.8152 H   0  0  0  0  0  0
    0.0519    5.9755    8.2679 H   0  0  0  0  0  0
    1.6032    7.0242    6.6577 H   0  0  0  0  0  0
    5.2022    5.6689    8.6154 H   0  0  0  0  0  0
    6.8986    5.2088    8.7007 H   0  0  0  0  0  0
    3.6963    5.9798   11.8129 H   0  0  0  0  0  0
    3.6394   10.6660    4.6008 H   0  0  0  0  0  0
    6.0174    9.4393    3.3553 H   0  0  0  0  0  0
    4.6920   10.3022    2.5939 H   0  0  0  0  0  0
    7.3314   11.3802    3.5518 H   0  0  0  0  0  0
    6.2984   11.9691    2.2511 H   0  0  0  0  0  0
    6.3670   13.3242    4.3819 H   0  0  0  0  0  0
    4.5635   12.3817    5.9334 H   0  0  0  0  0  0
    6.1586   11.6485    5.9491 H   0  0  0  0  0  0
  1  2  2  0  0  0
  1  4  1  0  0  0
  2  3  1  0  0  0
  2 24  1  0  0  0
  3  6  2  0  0  0
  4  5  2  0  0  0
  4 16  1  0  0  0
  5  9  1  0  0  0
  5  6  1  0  0  0
  6  7  1  0  0  0
  7  8  1  0  0  0
  7 19  1  0  0  0
  8  9  2  0  0  0
  9 10  1  0  0  0
 10 15  1  0  0  0
 10 11  2  0  0  0
 11 12  1  0  0  0
 11 25  1  0  0  0
 12 13  2  0  0  0
 12 18  1  0  0  0
 13 14  1  0  0  0
 13 17  1  0  0  0
 14 15  2  0  0  0
 14 26  1  0  0  0
 15 27  1  0  0  0
 16 28  1  0  0  0
 16 29  1  0  0  0
 18 30  1  0  0  0
 19 20  1  0  0  0
 19 23  1  0  0  0
 19 31  1  0  0  0
 20 21  1  0  0  0
 20 32  1  0  0  0
 20 33  1  0  0  0
 21 22  1  0  0  0
 21 34  1  0  0  0
 21 35  1  0  0  0
 22 23  1  0  0  0
 22 36  1  0  0  0
 23 37  1  0  0  0
 23 38  1  0  0  0
M  END
> <s_m_entry_id>
31840

> <s_m_entry_name>
dock_pv.103

> <s_m_Source_Path>
/home/csk/Desktop/cluster/DUD-E-result/src

> <s_m_Source_File>
dock_pv.maegz

> <i_m_Source_File_Index>
103

> <chembl_id>
CHEMBL1241677

> <chembl_pref_name>
None

> <i_lp_mmshare_version>
53161

> <r_lp_tautomer_probability>
0.999999999997365

> <s_lp_Force_Field>
OPLS_2005

> <r_lp_Energy>
31.328746

> <b_lp_Chiralities_Consistent>
1

> <s_lp_Variant>
CHEMBL267_lig1878-1

> <s_i_glide_gridfile>
glide-grid_3el8

> <i_i_glide_lignum>
2146

> <i_i_glide_rotatable_bonds>
3

> <r_i_docking_score>
-8.34607265906792

> <r_i_glide_ligand_efficiency>
-0.362872724307301

> <r_i_glide_ligand_efficiency_sa>
-1.03196175746774

> <r_i_glide_ligand_efficiency_ln>
-2.01815604696542

> <r_i_glide_gscore>
-8.34607265906792

> <r_i_glide_lipo>
-2.32061270740458

> <r_i_glide_hbond>
-0.396200352182962

> <r_i_glide_metal>
0

> <r_i_glide_rewards>
-2.88705232500678

> <r_i_glide_evdw>
-39.9802856445312

> <r_i_glide_ecoul>
-7.24722290039062

> <r_i_glide_erotb>
0.343890442811549

> <r_i_glide_esite>
0

> <r_i_glide_emodel>
-66.1149229596424

> <r_i_glide_energy>
-47.2275085449219

> <r_i_glide_einternal>
5.71754837036133

> <i_i_glide_confnum>
8

> <i_i_glide_posenum>
358

> <r_i_glide_eff_state_penalty>
0

> <s_user_duplicate_titles>
CHEMBL267_lig1878

> <i_f3d_flags>
0

> <s_m_subgroup_title>
dock_pv

> <s_m_subgroupid>
dock_pv

> <b_m_subgroup_collapsed>
1

$$$$
CHEMBL267_lig1498
                    3D
 Schrodinger Suite 2021-1.
 53 56  0  0  1  0            999 V2000
    8.0192    8.2377    6.4717 N   0  0  0  0  0  0
    7.4115    7.4196    7.3594 C   0  0  0  0  0  0
    6.0821    7.2909    7.5881 N   0  0  0  0  0  0
    7.2175    9.0229    5.7130 C   0  0  0  0  0  0
    5.8110    8.9547    5.8031 C   0  0  0  0  0  0
    5.3141    8.0632    6.8020 C   0  0  0  0  0  0
    3.9231    8.1255    6.7884 N   0  0  0  0  0  0
    3.5682    9.0372    5.8128 C   0  0  0  0  0  0
    4.6720    9.5605    5.1589 C   0  0  0  0  0  0
    4.6481   10.5088    4.0087 C   0  0  0  0  0  0
    5.4964   10.3234    2.9113 C   0  0  0  0  0  0
    5.4993   11.2297    1.8509 C   0  0  0  0  0  0
    4.6369   12.3250    1.8746 C   0  0  0  0  0  0
    3.7783   12.5139    2.9581 C   0  0  0  0  0  0
    3.7849   11.6096    4.0214 C   0  0  0  0  0  0
    3.0106    7.4141    7.6083 C   0  0  0  0  0  0
    1.8562    6.8606    7.0421 C   0  0  0  0  0  0
    1.0076    6.0732    7.8161 C   0  0  0  0  0  0
    1.2991    5.8322    9.1661 C   0  0  0  0  0  0
    2.4408    6.4014    9.7284 C   0  0  0  0  0  0
    3.3012    7.1776    8.9570 C   0  0  0  0  0  0
    7.8588    9.9256    4.8734 N   0  0  0  0  0  0
    6.3448   11.0370    0.7880 O   0  0  0  0  0  0
    0.5168    5.0659   10.0082 O   0  0  0  0  0  0
   -0.4451    4.1523    9.4748 C   0  0  0  0  0  0
    0.2302    2.9180    8.8401 C   0  0  0  0  0  0
   -0.7743    1.9566    8.3880 N   0  0  1  0  0  0
   -0.2080    0.6088    8.3165 C   0  0  0  0  0  0
   -1.2682   -0.4739    8.0514 C   0  0  0  0  0  0
   -1.8020   -0.3777    6.7485 O   0  0  0  0  0  0
    8.0608    6.8087    7.9684 H   0  0  0  0  0  0
    2.5206    9.2339    5.6353 H   0  0  0  0  0  0
    6.1479    9.4638    2.8722 H   0  0  0  0  0  0
    4.6280   13.0274    1.0527 H   0  0  0  0  0  0
    3.1110   13.3630    2.9735 H   0  0  0  0  0  0
    3.1237   11.7714    4.8602 H   0  0  0  0  0  0
    1.6251    7.0055    5.9961 H   0  0  0  0  0  0
    0.1362    5.6492    7.3456 H   0  0  0  0  0  0
    2.6749    6.2148   10.7670 H   0  0  0  0  0  0
    4.1903    7.5842    9.4169 H   0  0  0  0  0  0
    7.3087   10.5771    4.3323 H   0  0  0  0  0  0
    8.8678    9.9448    4.8687 H   0  0  0  0  0  0
    6.1979   11.6808    0.0650 H   0  0  0  0  0  0
   -1.1348    4.6369    8.7881 H   0  0  0  0  0  0
   -1.0628    3.8334   10.3155 H   0  0  0  0  0  0
    0.8864    2.4730    9.5907 H   0  0  0  0  0  0
    0.8562    3.2081    7.9958 H   0  0  0  0  0  0
   -1.5772    1.9657    9.0049 H   0  0  0  0  0  0
    0.2310    0.3698    9.2853 H   0  0  0  0  0  0
    0.5979    0.5287    7.5883 H   0  0  0  0  0  0
   -2.0773   -0.4158    8.7809 H   0  0  0  0  0  0
   -0.8150   -1.4598    8.1616 H   0  0  0  0  0  0
   -2.4341    0.3587    6.7251 H   0  0  0  0  0  0
  1  4  1  0  0  0
  1  2  2  0  0  0
  2  3  1  0  0  0
  2 31  1  0  0  0
  3  6  2  0  0  0
  4  5  2  0  0  0
  4 22  1  0  0  0
  5  9  1  0  0  0
  5  6  1  0  0  0
  6  7  1  0  0  0
  7  8  1  0  0  0
  7 16  1  0  0  0
  8  9  2  0  0  0
  8 32  1  0  0  0
  9 10  1  0  0  0
 10 15  1  0  0  0
 10 11  2  0  0  0
 11 12  1  0  0  0
 11 33  1  0  0  0
 12 23  1  0  0  0
 12 13  2  0  0  0
 13 14  1  0  0  0
 13 34  1  0  0  0
 14 15  2  0  0  0
 14 35  1  0  0  0
 15 36  1  0  0  0
 16 17  2  0  0  0
 16 21  1  0  0  0
 17 18  1  0  0  0
 17 37  1  0  0  0
 18 19  2  0  0  0
 18 38  1  0  0  0
 19 20  1  0  0  0
 19 24  1  0  0  0
 20 21  2  0  0  0
 20 39  1  0  0  0
 21 40  1  0  0  0
 22 41  1  0  0  0
 22 42  1  0  0  0
 23 43  1  0  0  0
 24 25  1  0  0  0
 25 26  1  0  0  0
 25 44  1  0  0  0
 25 45  1  0  0  0
 26 27  1  0  0  0
 26 46  1  0  0  0
 26 47  1  0  0  0
 27 28  1  0  0  0
 27 48  1  0  0  0
 28 29  1  0  0  0
 28 49  1  0  0  0
 28 50  1  0  0  0
 29 30  1  0  0  0
 29 51  1  0  0  0
 29 52  1  0  0  0
 30 53  1  0  0  0
M  END
> <s_m_entry_id>
31841

> <s_m_entry_name>
dock_pv.104

> <s_m_Source_Path>
/home/csk/Desktop/cluster/DUD-E-result/src

> <s_m_Source_File>
dock_pv.maegz

> <i_m_Source_File_Index>
104

> <chembl_id>
CHEMBL474998

> <chembl_pref_name>
None

> <i_lp_mmshare_version>
53161

> <r_lp_tautomer_probability>
0.999999999997365

> <s_lp_Force_Field>
OPLS_2005

> <r_lp_Energy>
30.026335

> <b_lp_Chiralities_Consistent>
1

> <s_lp_Variant>
CHEMBL267_lig1498-1

> <s_i_glide_gridfile>
glide-grid_3el8

> <i_i_glide_lignum>
1679

> <i_i_glide_rotatable_bonds>
10

> <r_i_docking_score>
-8.3457227650785

> <r_i_glide_ligand_efficiency>
-0.27819075883595

> <r_i_glide_ligand_efficiency_sa>
-0.864403367731032

> <r_i_glide_ligand_efficiency_ln>
-1.8962391461586

> <r_i_glide_gscore>
-8.3457227650785

> <r_i_glide_lipo>
-3.00473229802268

> <r_i_glide_hbond>
-0.576

> <r_i_glide_metal>
0

> <r_i_glide_rewards>
-1.54532550209943

> <r_i_glide_evdw>
-42.9088973999023

> <r_i_glide_ecoul>
-13.5374898910522

> <r_i_glide_erotb>
0.956403388696563

> <r_i_glide_esite>
0

> <r_i_glide_emodel>
-83.6094935081145

> <r_i_glide_energy>
-56.4463872909546

> <r_i_glide_einternal>
5.63311004638672

> <i_i_glide_confnum>
2

> <i_i_glide_posenum>
18

> <r_i_glide_eff_state_penalty>
0

> <s_user_duplicate_titles>
CHEMBL267_lig1498,460063

> <i_f3d_flags>
0

> <s_m_subgroup_title>
dock_pv

> <s_m_subgroupid>
dock_pv

> <b_m_subgroup_collapsed>
1

$$$$
CHEMBL267_lig3857
                    3D
 Schrodinger Suite 2021-1.
 53 58  0  0  1  0            999 V2000
    1.5164    6.3643   11.7334 C   0  0  0  0  0  0
    0.2755    5.8370   11.3735 C   0  0  0  0  0  0
   -0.1193    5.6117   10.0936 N   0  0  0  0  0  0
    2.4656    6.6370   10.7501 C   0  0  0  0  0  0
    2.0983    6.4312    9.4116 C   0  0  0  0  0  0
    0.7821    5.9419    9.1668 C   0  0  0  0  0  0
    0.5980    5.9123    7.8067 N   0  0  0  0  0  0
    1.7609    6.3043    7.1905 C   0  0  0  0  0  0
    2.7296    6.6093    8.1355 C   0  0  0  0  0  0
    4.1245    7.0370    7.8786 C   0  0  0  0  0  0
    4.3113    8.0843    7.0356 N   0  0  0  0  0  0
    5.5953    8.3591    6.6697 C   0  0  0  0  0  0
    6.6660    7.5775    7.1336 C   0  0  0  0  0  0
    6.3614    6.5146    7.9880 C   0  0  0  0  0  0
    5.0948    6.2380    8.3880 N   0  0  0  0  0  0
    7.9485    7.8250    6.7747 F   0  0  0  0  0  0
    5.8620    9.4536    5.8274 N   0  0  0  0  0  0
    4.8249   10.3452    5.2885 C   0  0  1  0  0  0
    5.3980   11.7897    5.1690 C   0  0  1  0  0  0
    4.2230   12.6904    4.7034 C   0  0  0  0  0  0
    3.6476   12.2102    3.3405 C   0  0  0  0  0  0
    4.4061   10.9558    2.8234 C   0  0  1  0  0  0
    4.2756    9.8284    3.9036 C   0  0  2  0  0  0
    1.7980    6.6370   13.0239 F   0  0  0  0  0  0
    2.8758    9.2043    3.9499 C   0  0  0  0  0  0
    1.9945    9.0029    5.0327 C   0  0  0  0  0  0
    0.9273    8.3055    4.5197 C   0  0  0  0  0  0
    1.1745    8.1908    3.1880 N   0  0  0  0  0  0
    2.3432    8.7345    2.8353 N   0  0  0  0  0  0
   -0.2020    7.7656    5.0702 O   0  0  0  0  0  0
    6.4850   11.8184    4.0535 C   0  0  0  0  0  0
    5.9097   11.3261    2.6967 C   0  0  0  0  0  0
   -0.4626    5.6242   12.1323 H   0  0  0  0  0  0
    3.4408    7.0189   11.0131 H   0  0  0  0  0  0
   -0.2552    5.6742    7.3112 H   0  0  0  0  0  0
    1.8127    6.3173    6.1114 H   0  0  0  0  0  0
    7.1294    5.8517    8.3579 H   0  0  0  0  0  0
    6.7963    9.5356    5.4541 H   0  0  0  0  0  0
    4.0103   10.3801    6.0104 H   0  0  0  0  0  0
    5.7980   12.1405    6.1218 H   0  0  0  0  0  0
    3.4357   12.6955    5.4588 H   0  0  0  0  0  0
    4.5616   13.7247    4.6210 H   0  0  0  0  0  0
    2.5828   11.9925    3.4370 H   0  0  0  0  0  0
    3.7170   13.0120    2.6035 H   0  0  0  0  0  0
    4.0164   10.6379    1.8551 H   0  0  0  0  0  0
    4.9273    9.0197    3.5658 H   0  0  0  0  0  0
    2.1356    9.2762    6.0664 H   0  0  0  0  0  0
    0.5594    7.7588    2.5101 H   0  0  0  0  0  0
   -0.9326    8.3904    5.0417 H   0  0  0  0  0  0
    6.8674   12.8348    3.9441 H   0  0  0  0  0  0
    7.3479   11.2161    4.3402 H   0  0  0  0  0  0
    6.0391   12.0950    1.9324 H   0  0  0  0  0  0
    6.4776   10.4644    2.3440 H   0  0  0  0  0  0
  1  2  2  0  0  0
  1  4  1  0  0  0
  1 24  1  0  0  0
  2  3  1  0  0  0
  2 33  1  0  0  0
  3  6  2  0  0  0
  4  5  2  0  0  0
  4 34  1  0  0  0
  5  6  1  0  0  0
  5  9  1  0  0  0
  6  7  1  0  0  0
  7  8  1  0  0  0
  7 35  1  0  0  0
  8  9  2  0  0  0
  8 36  1  0  0  0
  9 10  1  0  0  0
 10 11  2  0  0  0
 10 15  1  0  0  0
 11 12  1  0  0  0
 12 13  2  0  0  0
 12 17  1  0  0  0
 13 14  1  0  0  0
 13 16  1  0  0  0
 14 15  2  0  0  0
 14 37  1  0  0  0
 17 18  1  0  0  0
 17 38  1  0  0  0
 18 19  1  0  0  0
 18 23  1  0  0  0
 18 39  1  0  0  0
 19 20  1  0  0  0
 19 31  1  0  0  0
 19 40  1  0  0  0
 20 21  1  0  0  0
 20 41  1  0  0  0
 20 42  1  0  0  0
 21 22  1  0  0  0
 21 43  1  0  0  0
 21 44  1  0  0  0
 22 23  1  0  0  0
 22 32  1  0  0  0
 22 45  1  0  0  0
 23 46  1  0  0  0
 23 25  1  0  0  0
 25 26  1  0  0  0
 25 29  2  0  0  0
 26 47  1  0  0  0
 26 27  2  0  0  0
 27 28  1  0  0  0
 27 30  1  0  0  0
 28 29  1  0  0  0
 28 48  1  0  0  0
 30 49  1  0  0  0
 31 32  1  0  0  0
 31 50  1  0  0  0
 31 51  1  0  0  0
 32 52  1  0  0  0
 32 53  1  0  0  0
M  END
> <s_m_entry_id>
31842

> <s_m_entry_name>
dock_pv.105

> <s_m_Source_Path>
/home/csk/Desktop/cluster/DUD-E-result/src

> <s_m_Source_File>
dock_pv.maegz

> <i_m_Source_File_Index>
105

> <chembl_id>
CHEMBL3401985

> <chembl_pref_name>
None

> <i_lp_mmshare_version>
53161

> <r_lp_tautomer_probability>
0.0227396266879145

> <s_lp_Force_Field>
OPLS_2005

> <r_lp_Energy>
38.807884

> <b_lp_Chiralities_Consistent>
1

> <s_lp_Variant>
CHEMBL267_lig3857-2

> <s_i_glide_gridfile>
glide-grid_3el8

> <i_i_glide_lignum>
4746

> <i_i_glide_rotatable_bonds>
5

> <r_i_docking_score>
-8.34562366807352

> <r_i_glide_ligand_efficiency>
-0.260800739627297

> <r_i_glide_ligand_efficiency_sa>
-0.82799073592038

> <r_i_glide_ligand_efficiency_ln>
-1.86881263239086

> <r_i_glide_gscore>
-8.34562366807352

> <r_i_glide_lipo>
-3.06665977577585

> <r_i_glide_hbond>
-0.533007760781062

> <r_i_glide_metal>
0

> <r_i_glide_rewards>
-2.08703301138484

> <r_i_glide_evdw>
-45.4404335021973

> <r_i_glide_ecoul>
-5.03667211532593

> <r_i_glide_erotb>
0.416838811440442

> <r_i_glide_esite>
-0.0482394391634473

> <r_i_glide_emodel>
-71.8075104094333

> <r_i_glide_energy>
-50.4771056175232

> <r_i_glide_einternal>
5.93027257919312

> <i_i_glide_confnum>
5

> <i_i_glide_posenum>
105

> <r_i_glide_eff_state_penalty>
0

> <s_user_duplicate_titles>
CHEMBL267_lig3857

> <i_f3d_flags>
0

> <s_m_subgroup_title>
dock_pv

> <s_m_subgroupid>
dock_pv

> <b_m_subgroup_collapsed>
1

$$$$
CHEMBL267_lig1811
                    3D
 Schrodinger Suite 2021-1.
 42 45  0  0  1  0            999 V2000
    7.7568    7.0680    7.1955 N   0  0  0  0  0  0
    7.9709    8.0755    6.3085 C   0  0  0  0  0  0
    7.0472    8.8983    5.7427 N   0  0  0  0  0  0
    6.4748    6.8754    7.5949 C   0  0  0  0  0  0
    5.4360    7.7015    7.1390 C   0  0  0  0  0  0
    5.8017    8.6728    6.1829 C   0  0  0  0  0  0
    4.6211    9.2887    5.8011 N   0  0  0  0  0  0
    3.5681    8.7599    6.4705 N   0  0  0  0  0  0
    4.0249    7.8621    7.3117 C   0  0  0  0  0  0
    3.1275    7.1684    8.2719 C   0  0  0  0  0  0
    2.0461    6.4055    7.8222 C   0  0  0  0  0  0
    1.2090    5.7651    8.7364 C   0  0  0  0  0  0
    1.4290    5.9111   10.1096 C   0  0  0  0  0  0
    2.5187    6.6535   10.5612 C   0  0  0  0  0  0
    3.3676    7.2752    9.6457 C   0  0  0  0  0  0
    6.2012    5.7670    8.3864 N   0  0  0  0  0  0
    0.5924    5.3438   11.0087 F   0  0  0  0  0  0
    0.1977    4.9703    8.2715 O   0  0  0  0  0  0
    4.4101   10.3044    4.7545 C   0  0  2  0  0  0
    3.4474   11.4302    5.1581 C   0  0  0  0  0  0
    2.0612   10.9528    4.7060 C   0  0  0  0  0  0
    2.2891    9.9954    3.5148 C   0  0  1  0  0  0
    3.8069    9.7072    3.4721 C   0  0  0  0  0  0
    1.4354    8.7156    3.5924 C   0  0  0  0  0  0
    8.9948    8.2385    6.0031 H   0  0  0  0  0  0
    1.8641    6.2958    6.7626 H   0  0  0  0  0  0
    2.7029    6.7464   11.6215 H   0  0  0  0  0  0
    4.1983    7.8594   10.0101 H   0  0  0  0  0  0
    5.2501    5.5931    8.6776 H   0  0  0  0  0  0
    6.9552    5.1596    8.6766 H   0  0  0  0  0  0
   -0.6744    5.3909    8.2611 H   0  0  0  0  0  0
    5.4209   10.6843    4.5950 H   0  0  0  0  0  0
    3.4876   11.6667    6.2227 H   0  0  0  0  0  0
    3.7154   12.3428    4.6228 H   0  0  0  0  0  0
    1.5544   10.4432    5.5275 H   0  0  0  0  0  0
    1.4293   11.7969    4.4269 H   0  0  0  0  0  0
    2.0100   10.5155    2.5962 H   0  0  0  0  0  0
    4.2473   10.1987    2.6027 H   0  0  0  0  0  0
    4.0398    8.6460    3.3596 H   0  0  0  0  0  0
    1.6509    8.1407    4.4936 H   0  0  0  0  0  0
    0.3704    8.9512    3.5959 H   0  0  0  0  0  0
    1.6209    8.0645    2.7377 H   0  0  0  0  0  0
  1  2  2  0  0  0
  1  4  1  0  0  0
  2  3  1  0  0  0
  2 25  1  0  0  0
  3  6  2  0  0  0
  4  5  2  0  0  0
  4 16  1  0  0  0
  5  9  1  0  0  0
  5  6  1  0  0  0
  6  7  1  0  0  0
  7  8  1  0  0  0
  7 19  1  0  0  0
  8  9  2  0  0  0
  9 10  1  0  0  0
 10 15  1  0  0  0
 10 11  2  0  0  0
 11 12  1  0  0  0
 11 26  1  0  0  0
 12 13  2  0  0  0
 12 18  1  0  0  0
 13 14  1  0  0  0
 13 17  1  0  0  0
 14 15  2  0  0  0
 14 27  1  0  0  0
 15 28  1  0  0  0
 16 29  1  0  0  0
 16 30  1  0  0  0
 18 31  1  0  0  0
 19 20  1  0  0  0
 19 23  1  0  0  0
 19 32  1  0  0  0
 20 21  1  0  0  0
 20 33  1  0  0  0
 20 34  1  0  0  0
 21 22  1  0  0  0
 21 35  1  0  0  0
 21 36  1  0  0  0
 22 23  1  0  0  0
 22 24  1  0  0  0
 22 37  1  0  0  0
 23 38  1  0  0  0
 23 39  1  0  0  0
 24 40  1  0  0  0
 24 41  1  0  0  0
 24 42  1  0  0  0
M  END
> <s_m_entry_id>
31843

> <s_m_entry_name>
dock_pv.106

> <s_m_Source_Path>
/home/csk/Desktop/cluster/DUD-E-result/src

> <s_m_Source_File>
dock_pv.maegz

> <i_m_Source_File_Index>
106

> <chembl_id>
CHEMBL1242656

> <chembl_pref_name>
None

> <i_lp_mmshare_version>
53161

> <r_lp_tautomer_probability>
0.999999999997365

> <s_lp_Force_Field>
OPLS_2005

> <r_lp_Energy>
30.144383

> <b_lp_Chiralities_Consistent>
1

> <s_lp_Variant>
CHEMBL267_lig1811-3

> <s_i_glide_gridfile>
glide-grid_3el8

> <i_i_glide_lignum>
2076

> <i_i_glide_rotatable_bonds>
3

> <r_i_docking_score>
-8.34014932120745

> <r_i_glide_ligand_efficiency>
-0.347506221716977

> <r_i_glide_ligand_efficiency_sa>
-1.00238139683905

> <r_i_glide_ligand_efficiency_ln>
-1.99618043707993

> <r_i_glide_gscore>
-8.34014932120745

> <r_i_glide_lipo>
-2.18939249559445

> <r_i_glide_hbond>
-0.390591487549281

> <r_i_glide_metal>
0

> <r_i_glide_rewards>
-3.29977564534643

> <r_i_glide_evdw>
-38.1640777587891

> <r_i_glide_ecoul>
-6.01627922058105

> <r_i_glide_erotb>
0.350256078309327

> <r_i_glide_esite>
0

> <r_i_glide_emodel>
-61.5196770508885

> <r_i_glide_energy>
-44.1803569793701

> <r_i_glide_einternal>
5.7943320274353

> <i_i_glide_confnum>
40

> <i_i_glide_posenum>
394

> <r_i_glide_eff_state_penalty>
0

> <s_user_duplicate_titles>
CHEMBL267_lig1811

> <i_f3d_flags>
0

> <s_m_subgroup_title>
dock_pv

> <s_m_subgroupid>
dock_pv

> <b_m_subgroup_collapsed>
1

$$$$
CHEMBL267_lig1537
                    3D
 Schrodinger Suite 2021-1.
 40 43  0  0  1  0            999 V2000
    7.4977    6.5212    7.5880 N   0  0  0  0  0  0
    7.8549    7.4794    6.6978 C   0  0  0  0  0  0
    7.0541    8.3991    6.1010 N   0  0  0  0  0  0
    6.1981    6.4954    7.9775 C   0  0  0  0  0  0
    5.2675    7.4265    7.4747 C   0  0  0  0  0  0
    5.7749    8.3291    6.4970 C   0  0  0  0  0  0
    4.7093    9.0713    6.0113 N   0  0  0  0  0  0
    3.5716    8.6613    6.6811 C   0  0  0  0  0  0
    3.8708    7.7100    7.6397 C   0  0  0  0  0  0
    2.9349    7.0374    8.5684 C   0  0  0  0  0  0
    1.9571    6.1664    8.0854 C   0  0  0  0  0  0
    1.0901    5.5076    8.9587 C   0  0  0  0  0  0
    1.1910    5.7658   10.3366 C   0  0  0  0  0  0
    2.1677    6.6354   10.8238 C   0  0  0  0  0  0
    3.0420    7.2660    9.9414 C   0  0  0  0  0  0
    5.7997    5.4377    8.7878 N   0  0  0  0  0  0
    4.7920   10.0986    4.9639 C   0  0  0  0  0  0
    0.1969    4.6243    8.3881 O   0  0  0  0  0  0
   -0.7368    3.9438    9.2201 C   0  0  0  0  0  0
    5.0098    9.6244    3.5136 C   0  0  0  0  0  0
    3.4874    9.7281    3.3225 C   0  0  0  0  0  0
    3.5223   10.7950    4.4278 C   0  0  0  0  0  0
    8.8967    7.4982    6.4090 H   0  0  0  0  0  0
    2.6168    9.1066    6.4471 H   0  0  0  0  0  0
    1.8827    5.9760    7.0247 H   0  0  0  0  0  0
    0.5327    5.2839   11.0437 H   0  0  0  0  0  0
    2.2526    6.8112   11.8864 H   0  0  0  0  0  0
    3.8012    7.9317   10.3257 H   0  0  0  0  0  0
    4.8418    5.3911    9.1096 H   0  0  0  0  0  0
    6.4950    4.7671    9.0933 H   0  0  0  0  0  0
    5.5516   10.7896    5.3346 H   0  0  0  0  0  0
   -1.3579    3.2896    8.6083 H   0  0  0  0  0  0
   -0.2310    3.3235    9.9607 H   0  0  0  0  0  0
   -1.4019    4.6393    9.7323 H   0  0  0  0  0  0
    5.5718   10.3339    2.9016 H   0  0  0  0  0  0
    5.4582    8.6374    3.3943 H   0  0  0  0  0  0
    3.1490   10.0721    2.3442 H   0  0  0  0  0  0
    2.9417    8.8209    3.5929 H   0  0  0  0  0  0
    2.6653   10.8516    5.0974 H   0  0  0  0  0  0
    3.7090   11.8015    4.0448 H   0  0  0  0  0  0
  1  2  2  0  0  0
  1  4  1  0  0  0
  2  3  1  0  0  0
  2 23  1  0  0  0
  3  6  2  0  0  0
  4  5  2  0  0  0
  4 16  1  0  0  0
  5  9  1  0  0  0
  5  6  1  0  0  0
  6  7  1  0  0  0
  7 17  1  0  0  0
  7  8  1  0  0  0
  8  9  2  0  0  0
  8 24  1  0  0  0
  9 10  1  0  0  0
 10 11  2  0  0  0
 10 15  1  0  0  0
 11 12  1  0  0  0
 11 25  1  0  0  0
 12 13  2  0  0  0
 12 18  1  0  0  0
 13 14  1  0  0  0
 13 26  1  0  0  0
 14 15  2  0  0  0
 14 27  1  0  0  0
 15 28  1  0  0  0
 16 29  1  0  0  0
 16 30  1  0  0  0
 17 20  1  0  0  0
 17 22  1  0  0  0
 17 31  1  0  0  0
 18 19  1  0  0  0
 19 32  1  0  0  0
 19 33  1  0  0  0
 19 34  1  0  0  0
 20 21  1  0  0  0
 20 35  1  0  0  0
 20 36  1  0  0  0
 21 22  1  0  0  0
 21 37  1  0  0  0
 21 38  1  0  0  0
 22 39  1  0  0  0
 22 40  1  0  0  0
M  END
> <s_m_entry_id>
31844

> <s_m_entry_name>
dock_pv.107

> <s_m_Source_Path>
/home/csk/Desktop/cluster/DUD-E-result/src

> <s_m_Source_File>
dock_pv.maegz

> <i_m_Source_File_Index>
107

> <chembl_id>
CHEMBL355191

> <chembl_pref_name>
None

> <i_lp_mmshare_version>
53161

> <r_lp_tautomer_probability>
1

> <s_lp_Force_Field>
OPLS_2005

> <r_lp_Energy>
27.416806

> <b_lp_Chiralities_Consistent>
1

> <s_lp_Variant>
CHEMBL267_lig1537-1

> <s_i_glide_gridfile>
glide-grid_3el8

> <i_i_glide_lignum>
1718

> <i_i_glide_rotatable_bonds>
3

> <r_i_docking_score>
-8.33924018442287

> <r_i_glide_ligand_efficiency>
-0.379056372019221

> <r_i_glide_ligand_efficiency_sa>
-1.06213086183903

> <r_i_glide_ligand_efficiency_ln>
-2.03841448224944

> <r_i_glide_gscore>
-8.33924018442287

> <r_i_glide_lipo>
-2.79455503608976

> <r_i_glide_hbond>
-0.412866191473868

> <r_i_glide_metal>
0

> <r_i_glide_rewards>
-3.19139385795036

> <r_i_glide_evdw>
-34.745719909668

> <r_i_glide_ecoul>
-4.16846942901611

> <r_i_glide_erotb>
0.422131310926944

> <r_i_glide_esite>
0

> <r_i_glide_emodel>
-55.2640542382925

> <r_i_glide_energy>
-38.9141893386841

> <r_i_glide_einternal>
5.799644947052

> <i_i_glide_confnum>
16

> <i_i_glide_posenum>
127

> <r_i_glide_eff_state_penalty>
0

> <s_user_duplicate_titles>
CHEMBL267_lig1537,282182

> <i_f3d_flags>
0

> <s_m_subgroup_title>
dock_pv

> <s_m_subgroupid>
dock_pv

> <b_m_subgroup_collapsed>
1

$$$$
CHEMBL267_lig1834
                    3D
 Schrodinger Suite 2021-1.
 29 31  0  0  1  0            999 V2000
    7.4757    6.5653    7.5880 N   0  0  0  0  0  0
    7.7980    7.5299    6.6863 C   0  0  0  0  0  0
    6.9649    8.4297    6.0949 N   0  0  0  0  0  0
    6.1790    6.5076    7.9880 C   0  0  0  0  0  0
    5.2330    7.4250    7.4987 C   0  0  0  0  0  0
    5.7023    8.3280    6.5250 C   0  0  0  0  0  0
    4.5918    9.0251    6.1019 N   0  0  0  0  0  0
    3.4831    8.6453    6.7744 N   0  0  0  0  0  0
    3.8431    7.7299    7.6455 C   0  0  0  0  0  0
    2.8962    7.1434    8.6274 C   0  0  0  0  0  0
    1.7231    6.4945    8.2277 C   0  0  0  0  0  0
    0.8961    5.8964    9.1810 C   0  0  0  0  0  0
    1.2074    5.9958   10.5432 C   0  0  0  0  0  0
    2.3822    6.6370   10.9389 C   0  0  0  0  0  0
    3.2262    7.1989    9.9848 C   0  0  0  0  0  0
    5.7980    5.4370    8.7880 N   0  0  0  0  0  0
    0.2856    5.4035   11.5948 C   0  0  0  0  0  0
   -0.2020    5.1784    8.7880 O   0  0  0  0  0  0
    8.8362    7.5723    6.3880 H   0  0  0  0  0  0
    4.5453    9.7346    5.3862 H   0  0  0  0  0  0
    1.4826    6.4157    7.1776 H   0  0  0  0  0  0
    2.6487    6.6972   11.9847 H   0  0  0  0  0  0
    4.1380    7.6824   10.3058 H   0  0  0  0  0  0
    4.8420    5.3682    9.1090 H   0  0  0  0  0  0
    6.5034    4.7718    9.0821 H   0  0  0  0  0  0
    0.7774    5.2919   12.5603 H   0  0  0  0  0  0
   -0.0414    4.4150   11.2709 H   0  0  0  0  0  0
   -0.6020    6.0236   11.7160 H   0  0  0  0  0  0
   -0.7319    5.5286    8.0587 H   0  0  0  0  0  0
  1  4  1  0  0  0
  1  2  2  0  0  0
  2  3  1  0  0  0
  2 19  1  0  0  0
  3  6  2  0  0  0
  4  5  2  0  0  0
  4 16  1  0  0  0
  5  9  1  0  0  0
  5  6  1  0  0  0
  6  7  1  0  0  0
  7  8  1  0  0  0
  7 20  1  0  0  0
  8  9  2  0  0  0
  9 10  1  0  0  0
 10 11  2  0  0  0
 10 15  1  0  0  0
 11 12  1  0  0  0
 11 21  1  0  0  0
 12 13  2  0  0  0
 12 18  1  0  0  0
 13 14  1  0  0  0
 13 17  1  0  0  0
 14 15  2  0  0  0
 14 22  1  0  0  0
 15 23  1  0  0  0
 16 24  1  0  0  0
 16 25  1  0  0  0
 17 26  1  0  0  0
 17 27  1  0  0  0
 17 28  1  0  0  0
 18 29  1  0  0  0
M  END
> <s_m_entry_id>
31845

> <s_m_entry_name>
dock_pv.108

> <s_m_Source_Path>
/home/csk/Desktop/cluster/DUD-E-result/src

> <s_m_Source_File>
dock_pv.maegz

> <i_m_Source_File_Index>
108

> <chembl_id>
CHEMBL1241270

> <chembl_pref_name>
None

> <i_lp_mmshare_version>
53161

> <r_lp_tautomer_probability>
0.999999999997365

> <s_lp_Force_Field>
OPLS_2005

> <r_lp_Energy>
6.272206

> <b_lp_Chiralities_Consistent>
1

> <s_lp_Variant>
CHEMBL267_lig1834-1

> <s_i_glide_gridfile>
glide-grid_3el8

> <i_i_glide_lignum>
2100

> <i_i_glide_rotatable_bonds>
2

> <r_i_docking_score>
-8.33765954583478

> <r_i_glide_ligand_efficiency>
-0.463203308101932

> <r_i_glide_ligand_efficiency_sa>
-1.21393608230766

> <r_i_glide_ligand_efficiency_ln>
-2.14315239383283

> <r_i_glide_gscore>
-8.33765954583478

> <r_i_glide_lipo>
-1.94560331531005

> <r_i_glide_hbond>
-0.65745254993231

> <r_i_glide_metal>
0

> <r_i_glide_rewards>
-3.35290778226947

> <r_i_glide_evdw>
-29.8913459777832

> <r_i_glide_ecoul>
-7.8981785774231

> <r_i_glide_erotb>
0.297598187179666

> <r_i_glide_esite>
0

> <r_i_glide_emodel>
-54.3621144808154

> <r_i_glide_energy>
-37.7895245552063

> <r_i_glide_einternal>
3.23838376998901

> <i_i_glide_confnum>
1

> <i_i_glide_posenum>
203

> <r_i_glide_eff_state_penalty>
0

> <s_user_duplicate_titles>
CHEMBL267_lig1834

> <i_f3d_flags>
0

> <s_m_subgroup_title>
dock_pv

> <s_m_subgroupid>
dock_pv

> <b_m_subgroup_collapsed>
1

$$$$
CHEMBL267_lig103
                    3D
 Schrodinger Suite 2021-1.
 51 55  0  0  1  0            999 V2000
    5.8624    9.2058    5.6988 C   0  0  0  0  0  0
    4.7127    9.8368    5.2387 N   0  0  0  0  0  0
    5.4704    8.2233    6.6570 C   0  0  0  0  0  0
    4.0335    8.2949    6.7876 C   0  0  0  0  0  0
    3.6376    9.2800    5.8991 C   0  0  0  0  0  0
    7.1223    9.4282    5.2969 N   0  0  0  0  0  0
    4.6043   10.8438    4.1710 C   0  0  2  0  0  0
    6.5261    7.4369    7.1654 C   0  0  0  0  0  0
    7.8119    7.6440    6.8017 N   0  0  0  0  0  0
    3.1364    7.4727    7.6487 C   0  0  0  0  0  0
    5.0474   10.2661    2.8104 C   0  0  0  0  0  0
    8.0375    8.6193    5.8895 C   0  0  0  0  0  0
    5.4387   12.1230    4.4187 C   0  0  0  0  0  0
    0.8004    4.9143    9.9783 O   0  0  0  0  0  0
    3.4766    7.1862    8.9736 C   0  0  0  0  0  0
    1.9655    6.9373    7.1050 C   0  0  0  0  0  0
    6.2961    6.3460    7.9913 N   0  0  0  0  0  0
    1.5360    5.7625    9.1775 C   0  0  0  0  0  0
    6.2836   11.0581    2.3938 C   0  0  2  0  0  0
    1.1643    6.0902    7.8667 C   0  0  0  0  0  0
    2.6766    6.3373    9.7329 C   0  0  0  0  0  0
    6.1894   12.4074    3.1071 C   0  0  0  0  0  0
    0.0815    3.8815    9.4185 C   0  0  0  0  0  0
    6.5983   11.0368    1.0194 O   0  0  0  0  0  0
    0.7250    2.7587    8.8945 C   0  0  0  0  0  0
   -1.3092    3.9510    9.4044 C   0  0  0  0  0  0
   -2.0655    2.9144    8.8692 C   0  0  0  0  0  0
   -0.0296    1.7007    8.3873 C   0  0  0  0  0  0
   -1.4187    1.7866    8.3736 C   0  0  0  0  0  0
    2.6399    9.6243    5.6683 H   0  0  0  0  0  0
    3.5400   11.0849    4.1203 H   0  0  0  0  0  0
    5.2334    9.1899    2.8124 H   0  0  0  0  0  0
    4.2545   10.4263    2.0770 H   0  0  0  0  0  0
    9.0676    8.7549    5.5884 H   0  0  0  0  0  0
    4.8110   12.9675    4.7102 H   0  0  0  0  0  0
    6.1611   11.9810    5.2248 H   0  0  0  0  0  0
    4.3648    7.6149    9.4155 H   0  0  0  0  0  0
    1.6880    7.1521    6.0826 H   0  0  0  0  0  0
    5.3453    6.1125    8.2455 H   0  0  0  0  0  0
    7.0721    5.7765    8.2957 H   0  0  0  0  0  0
    7.1499   10.5768    2.8507 H   0  0  0  0  0  0
    0.2632    5.6822    7.4328 H   0  0  0  0  0  0
    2.9565    6.1035   10.7507 H   0  0  0  0  0  0
    7.1681   12.8590    3.2756 H   0  0  0  0  0  0
    5.6231   13.1069    2.4909 H   0  0  0  0  0  0
    6.1955   11.7940    0.5645 H   0  0  0  0  0  0
    1.7978    2.7071    8.9186 H   0  0  0  0  0  0
   -1.7988    4.8327    9.7714 H   0  0  0  0  0  0
   -3.1452    2.9774    8.8430 H   0  0  0  0  0  0
    0.4541    0.8133    8.0090 H   0  0  0  0  0  0
   -2.0055    0.9783    7.9614 H   0  0  0  0  0  0
  1  2  1  0  0  0
  1  3  1  0  0  0
  1  6  2  0  0  0
  2  5  1  0  0  0
  2  7  1  0  0  0
  3  4  1  0  0  0
  3  8  2  0  0  0
  4 10  1  0  0  0
  4  5  2  0  0  0
  5 30  1  0  0  0
  6 12  1  0  0  0
  7 11  1  0  0  0
  7 13  1  0  0  0
  7 31  1  0  0  0
  8 17  1  0  0  0
  8  9  1  0  0  0
  9 12  2  0  0  0
 10 15  2  0  0  0
 10 16  1  0  0  0
 11 19  1  0  0  0
 11 32  1  0  0  0
 11 33  1  0  0  0
 12 34  1  0  0  0
 13 22  1  0  0  0
 13 35  1  0  0  0
 13 36  1  0  0  0
 14 18  1  0  0  0
 14 23  1  0  0  0
 15 21  1  0  0  0
 15 37  1  0  0  0
 16 20  2  0  0  0
 16 38  1  0  0  0
 17 39  1  0  0  0
 17 40  1  0  0  0
 18 20  1  0  0  0
 18 21  2  0  0  0
 19 24  1  0  0  0
 19 22  1  0  0  0
 19 41  1  0  0  0
 20 42  1  0  0  0
 21 43  1  0  0  0
 22 44  1  0  0  0
 22 45  1  0  0  0
 23 25  1  0  0  0
 23 26  2  0  0  0
 24 46  1  0  0  0
 25 28  2  0  0  0
 25 47  1  0  0  0
 26 27  1  0  0  0
 26 48  1  0  0  0
 27 29  2  0  0  0
 27 49  1  0  0  0
 28 29  1  0  0  0
 28 50  1  0  0  0
 29 51  1  0  0  0
M  END
> <s_m_entry_id>
31846

> <s_m_entry_name>
dock_pv.109

> <s_m_Source_Path>
/home/csk/Desktop/cluster/DUD-E-result/src

> <s_m_Source_File>
dock_pv.maegz

> <i_m_Source_File_Index>
109

> <chembl_id>
CHEMBL69129

> <chembl_pref_name>
None

> <i_lp_mmshare_version>
53161

> <r_lp_tautomer_probability>
1

> <s_lp_Force_Field>
OPLS_2005

> <r_lp_Energy>
42.296531

> <b_lp_Chiralities_Consistent>
1

> <s_lp_Variant>
CHEMBL267_lig103-3

> <s_i_glide_gridfile>
glide-grid_3el8

> <i_i_glide_lignum>
143

> <i_i_glide_rotatable_bonds>
5

> <r_i_docking_score>
-8.33155511993951

> <r_i_glide_ligand_efficiency>
-0.287295004135845

> <r_i_glide_ligand_efficiency_sa>
-0.882661274151315

> <r_i_glide_ligand_efficiency_ln>
-1.90771485245718

> <r_i_glide_gscore>
-8.33155511993951

> <r_i_glide_lipo>
-3.31566968150707

> <r_i_glide_hbond>
-0.420492486891156

> <r_i_glide_metal>
0

> <r_i_glide_rewards>
-1.67955848233202

> <r_i_glide_evdw>
-43.2781677246094

> <r_i_glide_ecoul>
-8.4882869720459

> <r_i_glide_erotb>
0.521316962828087

> <r_i_glide_esite>
0

> <r_i_glide_emodel>
-71.6060634416872

> <r_i_glide_energy>
-51.7664546966553

> <r_i_glide_einternal>
8.81005954742432

> <i_i_glide_confnum>
1

> <i_i_glide_posenum>
68

> <r_i_glide_eff_state_penalty>
0

> <s_user_duplicate_titles>
CHEMBL267_lig103

> <i_f3d_flags>
0

> <s_m_subgroup_title>
dock_pv

> <s_m_subgroupid>
dock_pv

> <b_m_subgroup_collapsed>
1

$$$$
CHEMBL267_lig454
                    3D
 Schrodinger Suite 2021-1.
 42 45  0  0  1  0            999 V2000
    6.3186    8.5453    6.3988 C   0  0  0  0  0  0
    5.7050    7.5515    7.2146 C   0  0  0  0  0  0
    5.3212    9.3565    5.8768 N   0  0  0  0  0  0
    4.2900    7.8345    7.2384 C   0  0  0  0  0  0
    4.1154    8.9055    6.3792 C   0  0  0  0  0  0
    7.6333    8.6420    6.1643 N   0  0  0  0  0  0
    6.5917    6.5837    7.7391 C   0  0  0  0  0  0
    7.9316    6.6778    7.5663 N   0  0  0  0  0  0
    3.2283    7.1273    8.0064 C   0  0  0  0  0  0
    8.3733    7.7070    6.8052 C   0  0  0  0  0  0
    5.5162   10.5249    4.9957 C   0  0  1  0  0  0
    3.9602   12.2285    5.5882 N   0  0  1  0  0  0
    2.0476    6.7267    7.3781 C   0  0  0  0  0  0
    3.4283    6.8282    9.3552 C   0  0  0  0  0  0
    6.1413    5.4383    8.3882 N   0  0  0  0  0  0
    1.2877    5.7035    9.4423 C   0  0  0  0  0  0
    4.4723   10.6210    3.8700 C   0  0  0  0  0  0
    2.4589    6.1295   10.0669 C   0  0  0  0  0  0
    1.0832    6.0149    8.0886 C   0  0  0  0  0  0
    5.3578   11.8573    5.7437 C   0  0  0  0  0  0
    0.4041    4.9863   10.2253 O   0  0  0  0  0  0
    3.6572   11.8758    4.2084 C   0  0  0  0  0  0
   -0.7558    4.4188    9.6247 C   0  0  0  0  0  0
    3.2022    9.4148    6.1061 H   0  0  0  0  0  0
    9.4421    7.7778    6.6664 H   0  0  0  0  0  0
    6.5229   10.3959    4.5958 H   0  0  0  0  0  0
    3.4027   11.6567    6.2059 H   0  0  0  0  0  0
    1.8881    6.9445    6.3323 H   0  0  0  0  0  0
    4.3368    7.1325    9.8553 H   0  0  0  0  0  0
    5.1488    5.3169    8.5359 H   0  0  0  0  0  0
    6.8126    4.7691    8.7449 H   0  0  0  0  0  0
    4.9706   10.7526    2.9093 H   0  0  0  0  0  0
    3.8479    9.7310    3.7827 H   0  0  0  0  0  0
    2.6296    5.8878   11.1058 H   0  0  0  0  0  0
    0.1909    5.7025    7.5707 H   0  0  0  0  0  0
    5.6758   11.8169    6.7876 H   0  0  0  0  0  0
    5.9722   12.6215    5.2629 H   0  0  0  0  0  0
    3.9133   12.6980    3.5383 H   0  0  0  0  0  0
    2.5871   11.6935    4.0993 H   0  0  0  0  0  0
   -1.3355    3.8955   10.3853 H   0  0  0  0  0  0
   -0.4925    3.6946    8.8531 H   0  0  0  0  0  0
   -1.4007    5.1803    9.1881 H   0  0  0  0  0  0
  1  2  2  0  0  0
  1  3  1  0  0  0
  1  6  1  0  0  0
  2  4  1  0  0  0
  2  7  1  0  0  0
  3  5  1  0  0  0
  3 11  1  0  0  0
  4  9  1  0  0  0
  4  5  2  0  0  0
  5 24  1  0  0  0
  6 10  2  0  0  0
  7 15  1  0  0  0
  7  8  2  0  0  0
  8 10  1  0  0  0
  9 13  2  0  0  0
  9 14  1  0  0  0
 10 25  1  0  0  0
 11 17  1  0  0  0
 11 20  1  0  0  0
 11 26  1  0  0  0
 12 20  1  0  0  0
 12 22  1  0  0  0
 12 27  1  0  0  0
 13 19  1  0  0  0
 13 28  1  0  0  0
 14 18  2  0  0  0
 14 29  1  0  0  0
 15 30  1  0  0  0
 15 31  1  0  0  0
 16 18  1  0  0  0
 16 21  1  0  0  0
 16 19  2  0  0  0
 17 22  1  0  0  0
 17 32  1  0  0  0
 17 33  1  0  0  0
 18 34  1  0  0  0
 19 35  1  0  0  0
 20 36  1  0  0  0
 20 37  1  0  0  0
 21 23  1  0  0  0
 22 38  1  0  0  0
 22 39  1  0  0  0
 23 40  1  0  0  0
 23 41  1  0  0  0
 23 42  1  0  0  0
M  END
> <s_m_entry_id>
31847

> <s_m_entry_name>
dock_pv.110

> <s_m_Source_Path>
/home/csk/Desktop/cluster/DUD-E-result/src

> <s_m_Source_File>
dock_pv.maegz

> <i_m_Source_File_Index>
110

> <chembl_id>
CHEMBL352652

> <chembl_pref_name>
None

> <i_lp_mmshare_version>
53161

> <r_lp_tautomer_probability>
1

> <s_lp_Force_Field>
OPLS_2005

> <r_lp_Energy>
38.371487

> <b_lp_Chiralities_Consistent>
1

> <s_lp_Variant>
CHEMBL267_lig454-2

> <s_i_glide_gridfile>
glide-grid_3el8

> <i_i_glide_lignum>
544

> <i_i_glide_rotatable_bonds>
3

> <r_i_docking_score>
-8.32153957338721

> <r_i_glide_ligand_efficiency>
-0.361806068408139

> <r_i_glide_ligand_efficiency_sa>
-1.02892832998042

> <r_i_glide_ligand_efficiency_ln>
-2.0122237243941

> <r_i_glide_gscore>
-8.32153957338721

> <r_i_glide_lipo>
-2.15333181515972

> <r_i_glide_hbond>
-0.582650008796029

> <r_i_glide_metal>
0

> <r_i_glide_rewards>
-3.25445019133911

> <r_i_glide_evdw>
-34.5780906677246

> <r_i_glide_ecoul>
-5.82027769088745

> <r_i_glide_erotb>
0.270838628927

> <r_i_glide_esite>
0

> <r_i_glide_emodel>
-60.3989118239808

> <r_i_glide_energy>
-40.3983683586121

> <r_i_glide_einternal>
0.196460604667664

> <i_i_glide_confnum>
24

> <i_i_glide_posenum>
10

> <r_i_glide_eff_state_penalty>
0

> <s_user_duplicate_titles>
CHEMBL267_lig454

> <i_f3d_flags>
0

> <s_m_subgroup_title>
dock_pv

> <s_m_subgroupid>
dock_pv

> <b_m_subgroup_collapsed>
1

$$$$
CHEMBL267_lig1837
                    3D
 Schrodinger Suite 2021-1.
 41 43  0  0  1  0            999 V2000
    7.7420    6.8058    7.4325 N   0  0  0  0  0  0
    8.1593    7.8366    6.6553 C   0  0  0  0  0  0
    7.3966    8.8022    6.0784 N   0  0  0  0  0  0
    6.4102    6.7271    7.6773 C   0  0  0  0  0  0
    5.5122    7.6866    7.1685 C   0  0  0  0  0  0
    6.0911    8.6879    6.3574 C   0  0  0  0  0  0
    5.0416    9.4951    5.9423 N   0  0  0  0  0  0
    3.8635    9.0290    6.4031 N   0  0  0  0  0  0
    4.1084    7.9977    7.1807 C   0  0  0  0  0  0
    3.0080    7.3604    7.9536 C   0  0  0  0  0  0
    3.2009    7.0443    9.3005 C   0  0  0  0  0  0
    2.1672    6.4864   10.0506 C   0  0  0  0  0  0
    0.9321    6.2037    9.4510 C   0  0  0  0  0  0
    0.7455    6.5045    8.0986 C   0  0  0  0  0  0
    1.7737    7.0826    7.3559 C   0  0  0  0  0  0
    5.9728    5.6168    8.3898 N   0  0  0  0  0  0
   -0.1968    5.5499   10.2377 C   0  0  0  0  0  0
    2.3787    6.2370   11.3781 O   0  0  0  0  0  0
    5.0570   10.7486    5.1730 C   0  0  1  0  0  0
    5.7910   11.8312    5.9719 C   0  0  0  0  0  0
    5.6773   10.5447    3.7807 C   0  0  0  0  0  0
    4.8576    9.6021    2.9049 C   0  0  0  0  0  0
    9.2195    7.8799    6.4481 H   0  0  0  0  0  0
    4.1440    7.2729    9.7765 H   0  0  0  0  0  0
   -0.1989    6.2904    7.6193 H   0  0  0  0  0  0
    1.6116    7.3154    6.3128 H   0  0  0  0  0  0
    4.9850    5.4874    8.5503 H   0  0  0  0  0  0
    6.6509    4.9368    8.7089 H   0  0  0  0  0  0
   -0.5990    6.2376   10.9815 H   0  0  0  0  0  0
   -1.0026    5.2116    9.5867 H   0  0  0  0  0  0
    0.1738    4.6739   10.7713 H   0  0  0  0  0  0
    3.3020    6.0511   11.5850 H   0  0  0  0  0  0
    4.0253   11.0813    5.0324 H   0  0  0  0  0  0
    6.0243   12.6965    5.3507 H   0  0  0  0  0  0
    5.1726   12.1922    6.7880 H   0  0  0  0  0  0
    6.7184   11.4369    6.3871 H   0  0  0  0  0  0
    5.7566   11.5059    3.2695 H   0  0  0  0  0  0
    6.7001   10.1756    3.8650 H   0  0  0  0  0  0
    5.3969    9.4350    1.9866 H   0  0  0  0  0  0
    4.7058    8.6370    3.3810 H   0  0  0  0  0  0
    3.8786   10.0181    2.6633 H   0  0  0  0  0  0
  1  2  2  0  0  0
  1  4  1  0  0  0
  2  3  1  0  0  0
  2 23  1  0  0  0
  3  6  2  0  0  0
  4  5  2  0  0  0
  4 16  1  0  0  0
  5  9  1  0  0  0
  5  6  1  0  0  0
  6  7  1  0  0  0
  7  8  1  0  0  0
  7 19  1  0  0  0
  8  9  2  0  0  0
  9 10  1  0  0  0
 10 11  2  0  0  0
 10 15  1  0  0  0
 11 12  1  0  0  0
 11 24  1  0  0  0
 12 13  2  0  0  0
 12 18  1  0  0  0
 13 14  1  0  0  0
 13 17  1  0  0  0
 14 15  2  0  0  0
 14 25  1  0  0  0
 15 26  1  0  0  0
 16 27  1  0  0  0
 16 28  1  0  0  0
 17 29  1  0  0  0
 17 30  1  0  0  0
 17 31  1  0  0  0
 18 32  1  0  0  0
 19 20  1  0  0  0
 19 21  1  0  0  0
 19 33  1  0  0  0
 20 34  1  0  0  0
 20 35  1  0  0  0
 20 36  1  0  0  0
 21 22  1  0  0  0
 21 37  1  0  0  0
 21 38  1  0  0  0
 22 39  1  0  0  0
 22 40  1  0  0  0
 22 41  1  0  0  0
M  END
> <s_m_entry_id>
31848

> <s_m_entry_name>
dock_pv.111

> <s_m_Source_Path>
/home/csk/Desktop/cluster/DUD-E-result/src

> <s_m_Source_File>
dock_pv.maegz

> <i_m_Source_File_Index>
111

> <chembl_id>
CHEMBL1242109

> <chembl_pref_name>
None

> <i_lp_mmshare_version>
53161

> <r_lp_tautomer_probability>
0.999999999997365

> <s_lp_Force_Field>
OPLS_2005

> <r_lp_Energy>
12.13947

> <b_lp_Chiralities_Consistent>
1

> <s_lp_Variant>
CHEMBL267_lig1837-2

> <s_i_glide_gridfile>
glide-grid_3el8

> <i_i_glide_lignum>
2104

> <i_i_glide_rotatable_bonds>
4

> <r_i_docking_score>
-8.31438916318506

> <r_i_glide_ligand_efficiency>
-0.377926780144775

> <r_i_glide_ligand_efficiency_sa>
-1.05896570098251

> <r_i_glide_ligand_efficiency_ln>
-2.0323399861959

> <r_i_glide_gscore>
-8.31438916318506

> <r_i_glide_lipo>
-2.17781413077912

> <r_i_glide_hbond>
-0.409419377268834

> <r_i_glide_metal>
0

> <r_i_glide_rewards>
-3.31202493283773

> <r_i_glide_evdw>
-32.8155326843262

> <r_i_glide_ecoul>
-7.09766387939453

> <r_i_glide_erotb>
0.290295493826114

> <r_i_glide_esite>
0

> <r_i_glide_emodel>
-56.4784340084536

> <r_i_glide_energy>
-39.9131965637207

> <r_i_glide_einternal>
3.39059495925903

> <i_i_glide_confnum>
4

> <i_i_glide_posenum>
122

> <r_i_glide_eff_state_penalty>
0

> <s_user_duplicate_titles>
CHEMBL267_lig1837

> <i_f3d_flags>
0

> <s_m_subgroup_title>
dock_pv

> <s_m_subgroupid>
dock_pv

> <b_m_subgroup_collapsed>
1

$$$$
CHEMBL267_lig448
                    3D
 Schrodinger Suite 2021-1.
 54 57  0  0  1  0            999 V2000
    5.6724    8.3481    6.5196 C   0  0  0  0  0  0
    4.5850    9.0929    6.0720 N   0  0  0  0  0  0
    5.1979    7.4350    7.5076 C   0  0  0  0  0  0
    3.7960    7.6951    7.7035 C   0  0  0  0  0  0
    3.4684    8.6374    6.7504 C   0  0  0  0  0  0
    3.0893   13.4374    4.1700 C   0  0  0  0  0  0
    3.8807   12.3294    4.4887 N   0  0  0  0  0  0
    4.5644   10.1115    5.0045 C   0  0  1  0  0  0
    6.9448    8.4253    6.0988 N   0  0  0  0  0  0
    6.1563    6.5163    7.9866 C   0  0  0  0  0  0
    2.8712    7.0516    8.6691 C   0  0  0  0  0  0
    7.4515    6.5694    7.5880 N   0  0  0  0  0  0
    3.3887   11.1004    5.1184 C   0  0  0  0  0  0
    1.8245   13.3023    4.6736 O   0  0  0  0  0  0
    7.7772    7.5282    6.6886 C   0  0  0  0  0  0
    5.7831   11.0345    4.9584 C   0  0  0  0  0  0
    5.3128   12.2785    4.1998 C   0  0  0  0  0  0
    3.4826   14.4232    3.5484 O   0  0  0  0  0  0
    1.7223    6.3734    8.2459 C   0  0  0  0  0  0
    0.7243   14.1968    4.4250 C   0  0  0  0  0  0
    5.7982    5.4375    8.7876 N   0  0  0  0  0  0
    0.8937    5.7502    9.1823 C   0  0  0  0  0  0
    3.1621    7.1316   10.0335 C   0  0  0  0  0  0
   -0.2019    5.0318    8.7881 O   0  0  0  0  0  0
    2.3146    6.5396   10.9689 C   0  0  0  0  0  0
    1.0249   15.6694    4.7932 C   0  0  0  0  0  0
   -0.3843   13.6901    5.3652 C   0  0  0  0  0  0
    0.2725   14.0784    2.9541 C   0  0  0  0  0  0
    1.1882    5.8382   10.5420 C   0  0  0  0  0  0
    2.4977    9.0607    6.5327 H   0  0  0  0  0  0
    4.4736    9.5470    4.0742 H   0  0  0  0  0  0
    3.1350   11.3010    6.1588 H   0  0  0  0  0  0
    2.4945   10.7096    4.6311 H   0  0  0  0  0  0
    8.8165    7.5676    6.3874 H   0  0  0  0  0  0
    6.6615   10.5872    4.4943 H   0  0  0  0  0  0
    6.0620   11.3368    5.9706 H   0  0  0  0  0  0
    5.4584   12.1670    3.1238 H   0  0  0  0  0  0
    5.8278   13.1831    4.5293 H   0  0  0  0  0  0
    1.4957    6.2992    7.1927 H   0  0  0  0  0  0
    4.8459    5.3574    9.1182 H   0  0  0  0  0  0
    6.5124    4.7775    9.0720 H   0  0  0  0  0  0
    4.0445    7.6575   10.3736 H   0  0  0  0  0  0
   -0.7561    5.4367    8.1064 H   0  0  0  0  0  0
    2.5428    6.6062   12.0233 H   0  0  0  0  0  0
    0.1256   16.2844    4.7322 H   0  0  0  0  0  0
    1.7636   16.1240    4.1351 H   0  0  0  0  0  0
    1.3988   15.7407    5.8139 H   0  0  0  0  0  0
   -0.5994   12.6374    5.1885 H   0  0  0  0  0  0
   -0.0928   13.7805    6.4122 H   0  0  0  0  0  0
   -1.3141   14.2412    5.2276 H   0  0  0  0  0  0
    0.0370   13.0474    2.6941 H   0  0  0  0  0  0
   -0.6158   14.6790    2.7611 H   0  0  0  0  0  0
    1.0506   14.4105    2.2664 H   0  0  0  0  0  0
    0.5430    5.3564   11.2641 H   0  0  0  0  0  0
  1  2  1  0  0  0
  1  3  2  0  0  0
  1  9  1  0  0  0
  2  5  1  0  0  0
  2  8  1  0  0  0
  3  4  1  0  0  0
  3 10  1  0  0  0
  4 11  1  0  0  0
  4  5  2  0  0  0
  5 30  1  0  0  0
  6  7  1  0  0  0
  6 14  1  0  0  0
  6 18  2  0  0  0
  7 13  1  0  0  0
  7 17  1  0  0  0
  8 13  1  0  0  0
  8 16  1  0  0  0
  8 31  1  0  0  0
  9 15  2  0  0  0
 10 21  1  0  0  0
 10 12  2  0  0  0
 11 19  2  0  0  0
 11 23  1  0  0  0
 12 15  1  0  0  0
 13 32  1  0  0  0
 13 33  1  0  0  0
 14 20  1  0  0  0
 15 34  1  0  0  0
 16 17  1  0  0  0
 16 35  1  0  0  0
 16 36  1  0  0  0
 17 37  1  0  0  0
 17 38  1  0  0  0
 19 22  1  0  0  0
 19 39  1  0  0  0
 20 26  1  0  0  0
 20 27  1  0  0  0
 20 28  1  0  0  0
 21 40  1  0  0  0
 21 41  1  0  0  0
 22 24  1  0  0  0
 22 29  2  0  0  0
 23 25  2  0  0  0
 23 42  1  0  0  0
 24 43  1  0  0  0
 25 29  1  0  0  0
 25 44  1  0  0  0
 26 45  1  0  0  0
 26 46  1  0  0  0
 26 47  1  0  0  0
 27 48  1  0  0  0
 27 49  1  0  0  0
 27 50  1  0  0  0
 28 51  1  0  0  0
 28 52  1  0  0  0
 28 53  1  0  0  0
 29 54  1  0  0  0
M  END
> <s_m_entry_id>
31849

> <s_m_entry_name>
dock_pv.112

> <s_m_Source_Path>
/home/csk/Desktop/cluster/DUD-E-result/src

> <s_m_Source_File>
dock_pv.maegz

> <i_m_Source_File_Index>
112

> <chembl_id>
CHEMBL168921

> <chembl_pref_name>
None

> <i_lp_mmshare_version>
53161

> <r_lp_tautomer_probability>
0.999999999997365

> <s_lp_Force_Field>
OPLS_2005

> <r_lp_Energy>
38.093724

> <b_lp_Chiralities_Consistent>
1

> <s_lp_Variant>
CHEMBL267_lig448-2

> <s_i_glide_gridfile>
glide-grid_3el8

> <i_i_glide_lignum>
536

> <i_i_glide_rotatable_bonds>
6

> <r_i_docking_score>
-8.3103292642895

> <r_i_glide_ligand_efficiency>
-0.286563078078948

> <r_i_glide_ligand_efficiency_sa>
-0.880412565414077

> <r_i_glide_ligand_efficiency_ln>
-1.90285466975459

> <r_i_glide_gscore>
-8.3103292642895

> <r_i_glide_lipo>
-2.38522518535522

> <r_i_glide_hbond>
-0.642501201720549

> <r_i_glide_metal>
0

> <r_i_glide_rewards>
-2.62519438299159

> <r_i_glide_evdw>
-41.9142456054688

> <r_i_glide_ecoul>
-7.07916450500488

> <r_i_glide_erotb>
0.500178461802028

> <r_i_glide_esite>
0

> <r_i_glide_emodel>
-66.9092674998546

> <r_i_glide_energy>
-48.9934101104736

> <r_i_glide_einternal>
7.70430088043213

> <i_i_glide_confnum>
2

> <i_i_glide_posenum>
27

> <r_i_glide_eff_state_penalty>
0

> <s_user_duplicate_titles>
CHEMBL267_lig448,282897

> <i_f3d_flags>
0

> <s_m_subgroup_title>
dock_pv

> <s_m_subgroupid>
dock_pv

> <b_m_subgroup_collapsed>
1

$$$$
CHEMBL267_lig1543
                    3D
 Schrodinger Suite 2021-1.
 35 38  0  0  1  0            999 V2000
    7.8503    6.6371    7.5879 N   0  0  0  0  0  0
    8.3239    7.6694    6.8502 C   0  0  0  0  0  0
    7.6093    8.6370    6.2259 N   0  0  0  0  0  0
    6.5088    6.5723    7.7521 C   0  0  0  0  0  0
    5.6530    7.5569    7.2193 C   0  0  0  0  0  0
    6.2877    8.5499    6.4340 C   0  0  0  0  0  0
    5.2788    9.3783    5.9581 N   0  0  0  0  0  0
    4.0760    8.9273    6.3879 N   0  0  0  0  0  0
    4.2578    7.9004    7.1887 C   0  0  0  0  0  0
    3.1027    7.2935    7.9248 C   0  0  0  0  0  0
    3.2698    6.8040    9.2251 C   0  0  0  0  0  0
    2.1968    6.2358    9.9072 C   0  0  0  0  0  0
    0.9498    6.1596    9.2910 C   0  0  0  0  0  0
    0.7691    6.6442    7.9978 C   0  0  0  0  0  0
    1.8450    7.2051    7.3144 C   0  0  0  0  0  0
    6.0263    5.4371    8.3888 N   0  0  0  0  0  0
    5.3497   10.5144    5.1086 C   0  0  0  0  0  0
    6.3708   10.6268    4.1552 C   0  0  0  0  0  0
    6.4677   11.7666    3.3622 C   0  0  0  0  0  0
    5.5517   12.8015    3.5266 C   0  0  0  0  0  0
    4.5395   12.7076    4.4777 C   0  0  0  0  0  0
    4.4417   11.5705    5.2743 C   0  0  0  0  0  0
    9.3971    7.7162    6.7270 H   0  0  0  0  0  0
    4.2236    6.8815    9.7260 H   0  0  0  0  0  0
    2.3339    5.8587   10.9108 H   0  0  0  0  0  0
    0.1136    5.7215    9.8182 H   0  0  0  0  0  0
   -0.2012    6.5819    7.5256 H   0  0  0  0  0  0
    1.6993    7.5722    6.3081 H   0  0  0  0  0  0
    5.0307    5.3199    8.5093 H   0  0  0  0  0  0
    6.6840    4.7512    8.7388 H   0  0  0  0  0  0
    7.0904    9.8368    4.0103 H   0  0  0  0  0  0
    7.2507   11.8502    2.6225 H   0  0  0  0  0  0
    5.6297   13.6873    2.9125 H   0  0  0  0  0  0
    3.8376   13.5187    4.6002 H   0  0  0  0  0  0
    3.6605   11.5187    6.0194 H   0  0  0  0  0  0
  1  2  2  0  0  0
  1  4  1  0  0  0
  2  3  1  0  0  0
  2 23  1  0  0  0
  3  6  2  0  0  0
  4  5  2  0  0  0
  4 16  1  0  0  0
  5  9  1  0  0  0
  5  6  1  0  0  0
  6  7  1  0  0  0
  7 17  1  0  0  0
  7  8  1  0  0  0
  8  9  2  0  0  0
  9 10  1  0  0  0
 10 11  2  0  0  0
 10 15  1  0  0  0
 11 12  1  0  0  0
 11 24  1  0  0  0
 12 13  2  0  0  0
 12 25  1  0  0  0
 13 14  1  0  0  0
 13 26  1  0  0  0
 14 15  2  0  0  0
 14 27  1  0  0  0
 15 28  1  0  0  0
 16 29  1  0  0  0
 16 30  1  0  0  0
 17 18  2  0  0  0
 17 22  1  0  0  0
 18 19  1  0  0  0
 18 31  1  0  0  0
 19 20  2  0  0  0
 19 32  1  0  0  0
 20 21  1  0  0  0
 20 33  1  0  0  0
 21 22  2  0  0  0
 21 34  1  0  0  0
 22 35  1  0  0  0
M  END
> <s_m_entry_id>
31850

> <s_m_entry_name>
dock_pv.113

> <s_m_Source_Path>
/home/csk/Desktop/cluster/DUD-E-result/src

> <s_m_Source_File>
dock_pv.maegz

> <i_m_Source_File_Index>
113

> <chembl_id>
CHEMBL122243

> <chembl_pref_name>
None

> <i_lp_mmshare_version>
53161

> <r_lp_tautomer_probability>
1

> <s_lp_Force_Field>
OPLS_2005

> <r_lp_Energy>
15.829224

> <b_lp_Chiralities_Consistent>
1

> <s_lp_Variant>
CHEMBL267_lig1543-1

> <s_i_glide_gridfile>
glide-grid_3el8

> <i_i_glide_lignum>
1724

> <i_i_glide_rotatable_bonds>
2

> <r_i_docking_score>
-8.30838084083012

> <r_i_glide_ligand_efficiency>
-0.377653674583187

> <r_i_glide_ligand_efficiency_sa>
-1.05820044845831

> <r_i_glide_ligand_efficiency_ln>
-2.03087133305347

> <r_i_glide_gscore>
-8.30838084083012

> <r_i_glide_lipo>
-2.17201915230067

> <r_i_glide_hbond>
-0.527410798747977

> <r_i_glide_metal>
0

> <r_i_glide_rewards>
-3.45974251595233

> <r_i_glide_evdw>
-33.3808898925781

> <r_i_glide_ecoul>
-5.25589799880981

> <r_i_glide_erotb>
0.308220820621233

> <r_i_glide_esite>
0

> <r_i_glide_emodel>
-57.7179457741368

> <r_i_glide_energy>
-38.6367878913879

> <r_i_glide_einternal>
0.0376938693225384

> <i_i_glide_confnum>
7

> <i_i_glide_posenum>
372

> <r_i_glide_eff_state_penalty>
0

> <s_user_duplicate_titles>
CHEMBL267_lig1543,198029

> <i_f3d_flags>
0

> <s_m_subgroup_title>
dock_pv

> <s_m_subgroupid>
dock_pv

> <b_m_subgroup_collapsed>
1

$$$$
CHEMBL267_lig2577
                    3D
 Schrodinger Suite 2021-1.
 43 47  0  0  1  0            999 V2000
    3.7569    7.8688    7.8324 C   0  0  0  0  0  0
    2.3646    8.0212    8.2326 C   0  0  0  0  0  0
    1.7678    6.8631    8.8539 C   0  0  0  0  0  0
    1.6776    9.0015    7.9341 O   0  0  0  0  0  0
    1.8693    6.3974   10.1694 C   0  0  0  0  0  0
    1.1852    5.2919   10.3522 N   0  0  0  0  0  0
    0.6953    4.9725    9.1430 N   0  0  0  0  0  0
    0.9996    5.9294    8.1978 C   0  0  0  0  0  0
    4.2079    8.6370    6.7880 N   0  0  0  0  0  0
    4.7832    7.0620    8.2853 C   0  0  0  0  0  0
    5.9497    7.4301    7.5406 C   0  0  0  0  0  0
    5.5567    8.4356    6.6027 C   0  0  0  0  0  0
    6.4610    9.0355    5.7211 C   0  0  0  0  0  0
    7.7925    8.6370    5.8243 C   0  0  0  0  0  0
    8.1980    7.6669    6.7341 C   0  0  0  0  0  0
    7.2863    7.0153    7.5588 C   0  0  0  0  0  0
   -0.0376    3.7829    8.9761 C   0  0  0  0  0  0
    0.5953    2.6182    8.5463 C   0  0  0  0  0  0
   -2.2257    2.7060    9.0303 C   0  0  0  0  0  0
   -1.3999    3.8060    9.2288 C   0  0  0  0  0  0
    0.5980    5.8829    6.8956 N   0  0  0  0  0  0
   -1.6228    1.5211    8.6063 C   0  0  0  0  0  0
   -0.2193    1.4836    8.3880 C   0  0  0  0  0  0
   -0.0004    0.1738    8.0188 N   0  0  0  0  0  0
   -1.2173   -0.4660    8.0264 C   0  0  0  0  0  0
   -2.2020    0.3029    8.3880 N   0  0  0  0  0  0
   -1.4020   -1.9122    7.6743 C   0  0  0  0  0  0
    2.4162    6.8627   10.9776 H   0  0  0  0  0  0
    3.6045    9.2869    6.3047 H   0  0  0  0  0  0
    4.7059    6.3309    9.0781 H   0  0  0  0  0  0
    6.1570    9.7938    5.0146 H   0  0  0  0  0  0
    8.5354    9.0970    5.1880 H   0  0  0  0  0  0
    9.2454    7.4194    6.7880 H   0  0  0  0  0  0
    7.6003    6.2103    8.2021 H   0  0  0  0  0  0
    1.6525    2.6370    8.3604 H   0  0  0  0  0  0
   -3.2888    2.7559    9.2164 H   0  0  0  0  0  0
   -1.8020    4.7134    9.5880 H   0  0  0  0  0  0
    0.8943    6.5992    6.2490 H   0  0  0  0  0  0
   -0.2850    5.4370    6.6773 H   0  0  0  0  0  0
    0.8685   -0.2882    7.7986 H   0  0  0  0  0  0
   -2.4537   -2.1747    7.5541 H   0  0  0  0  0  0
   -0.9049   -2.1629    6.7392 H   0  0  0  0  0  0
   -1.0020   -2.5630    8.4507 H   0  0  0  0  0  0
  1  2  1  0  0  0
  1  9  1  0  0  0
  1 10  2  0  0  0
  2  3  1  0  0  0
  2  4  2  0  0  0
  3  5  1  0  0  0
  3  8  2  0  0  0
  5  6  2  0  0  0
  5 28  1  0  0  0
  6  7  1  0  0  0
  7  8  1  0  0  0
  7 17  1  0  0  0
  8 21  1  0  0  0
  9 12  1  0  0  0
  9 29  1  0  0  0
 10 11  1  0  0  0
 10 30  1  0  0  0
 11 12  2  0  0  0
 11 16  1  0  0  0
 12 13  1  0  0  0
 13 14  2  0  0  0
 13 31  1  0  0  0
 14 15  1  0  0  0
 14 32  1  0  0  0
 15 16  2  0  0  0
 15 33  1  0  0  0
 16 34  1  0  0  0
 17 18  2  0  0  0
 17 20  1  0  0  0
 18 23  1  0  0  0
 18 35  1  0  0  0
 19 22  1  0  0  0
 19 20  2  0  0  0
 19 36  1  0  0  0
 20 37  1  0  0  0
 21 38  1  0  0  0
 21 39  1  0  0  0
 22 23  2  0  0  0
 22 26  1  0  0  0
 23 24  1  0  0  0
 24 25  1  0  0  0
 24 40  1  0  0  0
 25 26  2  0  0  0
 25 27  1  0  0  0
 27 41  1  0  0  0
 27 42  1  0  0  0
 27 43  1  0  0  0
M  END
> <s_m_entry_id>
31851

> <s_m_entry_name>
dock_pv.114

> <s_m_Source_Path>
/home/csk/Desktop/cluster/DUD-E-result/src

> <s_m_Source_File>
dock_pv.maegz

> <i_m_Source_File_Index>
114

> <chembl_id>
CHEMBL3907479

> <chembl_pref_name>
None

> <i_lp_mmshare_version>
53161

> <r_lp_tautomer_probability>
1

> <s_lp_Force_Field>
OPLS_2005

> <r_lp_Energy>
21.223208

> <b_lp_Chiralities_Consistent>
1

> <s_lp_Variant>
CHEMBL267_lig2577-1

> <s_i_glide_gridfile>
glide-grid_3el8

> <i_i_glide_lignum>
2889

> <i_i_glide_rotatable_bonds>
3

> <r_i_docking_score>
-8.3083681683699

> <r_i_glide_ligand_efficiency>
-0.307717339569256

> <r_i_glide_ligand_efficiency_sa>
-0.923152017693581

> <r_i_glide_ligand_efficiency_ln>
-1.93405113544215

> <r_i_glide_gscore>
-8.3083681683699

> <r_i_glide_lipo>
-4.0754736052992

> <r_i_glide_hbond>
-0.231566687039777

> <r_i_glide_metal>
0

> <r_i_glide_rewards>
-1.9311394762902

> <r_i_glide_evdw>
-39.5685234069824

> <r_i_glide_ecoul>
-3.55181384086609

> <r_i_glide_erotb>
0.451903830535205

> <r_i_glide_esite>
-0.0108939837968965

> <r_i_glide_emodel>
-52.3158628000544

> <r_i_glide_energy>
-43.1203372478485

> <r_i_glide_einternal>
12.255352973938

> <i_i_glide_confnum>
1

> <i_i_glide_posenum>
14

> <r_i_glide_eff_state_penalty>
0

> <s_user_duplicate_titles>
CHEMBL267_lig2577

> <i_f3d_flags>
0

> <s_m_subgroup_title>
dock_pv

> <s_m_subgroupid>
dock_pv

> <b_m_subgroup_collapsed>
1

$$$$
CHEMBL267_lig1934
                    3D
 Schrodinger Suite 2021-1.
 42 46  0  0  1  0            999 V2000
    7.8470    6.7382    7.5855 N   0  0  0  0  0  0
    8.4219    7.6888    6.8087 C   0  0  0  0  0  0
    7.8094    8.6376    6.0609 N   0  0  0  0  0  0
    6.4973    6.7656    7.6717 C   0  0  0  0  0  0
    5.7448    7.7580    7.0162 C   0  0  0  0  0  0
    6.4810    8.6473    6.2075 C   0  0  0  0  0  0
    5.5552    9.4909    5.6198 N   0  0  0  0  0  0
    4.2981    9.1477    5.9915 N   0  0  0  0  0  0
    4.3825    8.1600    6.8569 C   0  0  0  0  0  0
    3.1865    7.5614    7.5084 C   0  0  0  0  0  0
    3.2097    7.2965    8.8828 C   0  0  0  0  0  0
    1.0046    6.5266    7.2604 C   0  0  0  0  0  0
    2.0979    7.1939    6.7187 C   0  0  0  0  0  0
    5.9009    5.7348    8.3885 N   0  0  0  0  0  0
    0.9912    6.2357    8.6317 C   0  0  0  0  0  0
    2.1052    6.6357    9.4280 C   0  0  0  0  0  0
    1.8318    6.2375   10.7218 N   0  0  0  0  0  0
    0.6064    5.6219   10.7768 C   0  0  0  0  0  0
    0.0698    5.5810    9.5086 C   0  0  0  0  0  0
    5.7851   10.5845    4.6594 C   0  0  0  0  0  0
    5.3738   10.2105    3.2294 C   0  0  0  0  0  0
    3.9178   10.6691    3.1106 C   0  0  0  0  0  0
    3.7893   11.8931    4.0333 C   0  0  0  0  0  0
    4.9984   11.8688    4.9870 C   0  0  0  0  0  0
    9.4963    7.6982    6.7881 H   0  0  0  0  0  0
    4.0544    7.5840    9.4933 H   0  0  0  0  0  0
    0.1979    6.2232    6.6177 H   0  0  0  0  0  0
    2.1160    7.3946    5.6558 H   0  0  0  0  0  0
    4.8943    5.6951    8.4558 H   0  0  0  0  0  0
    6.4883    5.0215    8.8010 H   0  0  0  0  0  0
    2.4217    6.3511   11.5350 H   0  0  0  0  0  0
    0.2200    5.2543   11.7178 H   0  0  0  0  0  0
   -0.8836    5.1420    9.2524 H   0  0  0  0  0  0
    6.8606   10.7442    4.7479 H   0  0  0  0  0  0
    5.9961   10.7546    2.5150 H   0  0  0  0  0  0
    5.4953    9.1476    3.0113 H   0  0  0  0  0  0
    3.6452   10.9011    2.0802 H   0  0  0  0  0  0
    3.2492    9.8753    3.4483 H   0  0  0  0  0  0
    3.7883   12.8140    3.4478 H   0  0  0  0  0  0
    2.8487   11.8649    4.5866 H   0  0  0  0  0  0
    4.7072   11.9274    6.0369 H   0  0  0  0  0  0
    5.6288   12.7399    4.8021 H   0  0  0  0  0  0
  1  2  2  0  0  0
  1  4  1  0  0  0
  2  3  1  0  0  0
  2 25  1  0  0  0
  3  6  2  0  0  0
  4 14  1  0  0  0
  4  5  2  0  0  0
  5  9  1  0  0  0
  5  6  1  0  0  0
  6  7  1  0  0  0
  7  8  1  0  0  0
  7 20  1  0  0  0
  8  9  2  0  0  0
  9 10  1  0  0  0
 10 13  1  0  0  0
 10 11  2  0  0  0
 11 16  1  0  0  0
 11 26  1  0  0  0
 12 15  1  0  0  0
 12 13  2  0  0  0
 12 27  1  0  0  0
 13 28  1  0  0  0
 14 29  1  0  0  0
 14 30  1  0  0  0
 15 16  2  0  0  0
 15 19  1  0  0  0
 16 17  1  0  0  0
 17 18  1  0  0  0
 17 31  1  0  0  0
 18 19  2  0  0  0
 18 32  1  0  0  0
 19 33  1  0  0  0
 20 21  1  0  0  0
 20 24  1  0  0  0
 20 34  1  0  0  0
 21 22  1  0  0  0
 21 35  1  0  0  0
 21 36  1  0  0  0
 22 23  1  0  0  0
 22 37  1  0  0  0
 22 38  1  0  0  0
 23 24  1  0  0  0
 23 39  1  0  0  0
 23 40  1  0  0  0
 24 41  1  0  0  0
 24 42  1  0  0  0
M  END
> <s_m_entry_id>
31852

> <s_m_entry_name>
dock_pv.115

> <s_m_Source_Path>
/home/csk/Desktop/cluster/DUD-E-result/src

> <s_m_Source_File>
dock_pv.maegz

> <i_m_Source_File_Index>
115

> <chembl_id>
CHEMBL1242664

> <chembl_pref_name>
None

> <i_lp_mmshare_version>
53161

> <r_lp_tautomer_probability>
1

> <s_lp_Force_Field>
OPLS_2005

> <r_lp_Energy>
29.155983

> <b_lp_Chiralities_Consistent>
1

> <s_lp_Variant>
CHEMBL267_lig1934-1

> <s_i_glide_gridfile>
glide-grid_3el8

> <i_i_glide_lignum>
2215

> <i_i_glide_rotatable_bonds>
2

> <r_i_docking_score>
-8.30530480186042

> <r_i_glide_ligand_efficiency>
-0.346054366744184

> <r_i_glide_ligand_efficiency_sa>
-0.998193522422166

> <r_i_glide_ligand_efficiency_ln>
-1.98784054468938

> <r_i_glide_gscore>
-8.30530480186042

> <r_i_glide_lipo>
-2.37182903565188

> <r_i_glide_hbond>
-0.297056756488541

> <r_i_glide_metal>
0

> <r_i_glide_rewards>
-3.23230457911028

> <r_i_glide_evdw>
-39.2262649536133

> <r_i_glide_ecoul>
-4.6687159538269

> <r_i_glide_erotb>
0.257506210144981

> <r_i_glide_esite>
0

> <r_i_glide_emodel>
-65.4598462070888

> <r_i_glide_energy>
-43.8949809074402

> <r_i_glide_einternal>
0.816428184509277

> <i_i_glide_confnum>
30

> <i_i_glide_posenum>
270

> <r_i_glide_eff_state_penalty>
0

> <s_user_duplicate_titles>
CHEMBL267_lig1934

> <i_f3d_flags>
0

> <s_m_subgroup_title>
dock_pv

> <s_m_subgroupid>
dock_pv

> <b_m_subgroup_collapsed>
1

$$$$
CHEMBL267_lig1824
                    3D
 Schrodinger Suite 2021-1.
 36 39  0  0  1  0            999 V2000
    7.8639    7.0375    7.2658 N   0  0  0  0  0  0
    8.1880    8.0219    6.3881 C   0  0  0  0  0  0
    7.3494    8.8926    5.7659 N   0  0  0  0  0  0
    6.5530    6.9165    7.5881 C   0  0  0  0  0  0
    5.5869    7.7937    7.0599 C   0  0  0  0  0  0
    6.0697    8.7395    6.1308 C   0  0  0  0  0  0
    4.9579    9.4277    5.6833 N   0  0  0  0  0  0
    3.8314    8.9701    6.2765 N   0  0  0  0  0  0
    4.1745    8.0399    7.1382 C   0  0  0  0  0  0
    3.1734    7.4177    8.0491 C   0  0  0  0  0  0
    3.4868    7.2863    9.4038 C   0  0  0  0  0  0
    2.5795    6.7175   10.2945 C   0  0  0  0  0  0
    1.3475    6.2371    9.8268 C   0  0  0  0  0  0
    1.0319    6.3595    8.4713 C   0  0  0  0  0  0
    1.9370    6.9522    7.5875 C   0  0  0  0  0  0
    6.1965    5.8370    8.3879 N   0  0  0  0  0  0
    0.1980    5.4996   10.8930 Cl  0  0  0  0  0  0
    2.9361    6.6369   11.6138 O   0  0  0  0  0  0
    4.8975   10.4719    4.6554 C   0  0  0  0  0  0
    4.9483   10.0178    3.1858 C   0  0  0  0  0  0
    3.4140   10.1018    3.1718 C   0  0  0  0  0  0
    3.5564   11.1454    4.2909 C   0  0  0  0  0  0
    9.2358    8.1157    6.1405 H   0  0  0  0  0  0
    4.4320    7.6545    9.7756 H   0  0  0  0  0  0
    0.0829    5.9936    8.1040 H   0  0  0  0  0  0
    1.6813    7.0403    6.5411 H   0  0  0  0  0  0
    5.2224    5.6806    8.6009 H   0  0  0  0  0  0
    6.9121    5.2006    8.7127 H   0  0  0  0  0  0
    3.6539    6.0045   11.7469 H   0  0  0  0  0  0
    5.6831   11.1729    4.9438 H   0  0  0  0  0  0
    5.4246   10.7419    2.5205 H   0  0  0  0  0  0
    5.3893    9.0367    3.0033 H   0  0  0  0  0  0
    2.9657   10.4579    2.2434 H   0  0  0  0  0  0
    2.9163    9.1803    3.4818 H   0  0  0  0  0  0
    2.7878   11.1505    5.0650 H   0  0  0  0  0  0
    3.6693   12.1652    3.9150 H   0  0  0  0  0  0
  1  2  2  0  0  0
  1  4  1  0  0  0
  2  3  1  0  0  0
  2 23  1  0  0  0
  3  6  2  0  0  0
  4  5  2  0  0  0
  4 16  1  0  0  0
  5  9  1  0  0  0
  5  6  1  0  0  0
  6  7  1  0  0  0
  7  8  1  0  0  0
  7 19  1  0  0  0
  8  9  2  0  0  0
  9 10  1  0  0  0
 10 11  2  0  0  0
 10 15  1  0  0  0
 11 12  1  0  0  0
 11 24  1  0  0  0
 12 13  2  0  0  0
 12 18  1  0  0  0
 13 14  1  0  0  0
 13 17  1  0  0  0
 14 15  2  0  0  0
 14 25  1  0  0  0
 15 26  1  0  0  0
 16 27  1  0  0  0
 16 28  1  0  0  0
 18 29  1  0  0  0
 19 20  1  0  0  0
 19 22  1  0  0  0
 19 30  1  0  0  0
 20 21  1  0  0  0
 20 31  1  0  0  0
 20 32  1  0  0  0
 21 22  1  0  0  0
 21 33  1  0  0  0
 21 34  1  0  0  0
 22 35  1  0  0  0
 22 36  1  0  0  0
M  END
> <s_m_entry_id>
31853

> <s_m_entry_name>
dock_pv.116

> <s_m_Source_Path>
/home/csk/Desktop/cluster/DUD-E-result/src

> <s_m_Source_File>
dock_pv.maegz

> <i_m_Source_File_Index>
116

> <chembl_id>
CHEMBL1241580

> <chembl_pref_name>
None

> <i_lp_mmshare_version>
53161

> <r_lp_tautomer_probability>
0.999999999997365

> <s_lp_Force_Field>
OPLS_2005

> <r_lp_Energy>
21.091776

> <b_lp_Chiralities_Consistent>
1

> <s_lp_Variant>
CHEMBL267_lig1824-1

> <s_i_glide_gridfile>
glide-grid_3el8

> <i_i_glide_lignum>
2090

> <i_i_glide_rotatable_bonds>
3

> <r_i_docking_score>
-8.29403883682822

> <r_i_glide_ligand_efficiency>
-0.377001765310373

> <r_i_glide_ligand_efficiency_sa>
-1.05637377303775

> <r_i_glide_ligand_efficiency_ln>
-2.02736562413809

> <r_i_glide_gscore>
-8.29403883682822

> <r_i_glide_lipo>
-2.20936093488902

> <r_i_glide_hbond>
-0.455739745916264

> <r_i_glide_metal>
0

> <r_i_glide_rewards>
-2.93252126358183

> <r_i_glide_evdw>
-37.6902046203613

> <r_i_glide_ecoul>
-7.15455675125122

> <r_i_glide_erotb>
0.261276851264649

> <r_i_glide_esite>
0

> <r_i_glide_emodel>
-64.3283682255945

> <r_i_glide_energy>
-44.8447613716125

> <r_i_glide_einternal>
2.33235001564026

> <i_i_glide_confnum>
38

> <i_i_glide_posenum>
172

> <r_i_glide_eff_state_penalty>
0

> <s_user_duplicate_titles>
CHEMBL267_lig1824

> <i_f3d_flags>
0

> <s_m_subgroup_title>
dock_pv

> <s_m_subgroupid>
dock_pv

> <b_m_subgroup_collapsed>
1

$$$$
CHEMBL267_lig1816
                    3D
 Schrodinger Suite 2021-1.
 45 48  0  0  1  0            999 V2000
    7.7779    6.6412    7.1866 N   0  0  0  0  0  0
    6.9978    5.8776    7.9880 C   0  0  0  0  0  0
    5.6969    6.0749    8.3194 N   0  0  0  0  0  0
    7.1762    7.6863    6.5657 C   0  0  0  0  0  0
    5.8085    7.9664    6.7649 C   0  0  0  0  0  0
    5.1450    7.1218    7.6894 C   0  0  0  0  0  0
    3.8444    7.5954    7.7782 N   0  0  0  0  0  0
    3.6554    8.6233    6.9216 N   0  0  0  0  0  0
    4.7919    8.8759    6.3085 C   0  0  0  0  0  0
    4.8773    9.9765    5.3005 C   0  0  0  0  0  0
    5.5214    9.7896    4.0709 C   0  0  0  0  0  0
    5.5926   10.8328    3.1436 C   0  0  0  0  0  0
    5.0380   12.0778    3.4482 C   0  0  0  0  0  0
    4.3997   12.2735    4.6702 C   0  0  0  0  0  0
    4.3146   11.2274    5.5877 C   0  0  0  0  0  0
    7.9751    8.4375    5.7151 N   0  0  0  0  0  0
    5.1096   13.0965    2.5597 F   0  0  0  0  0  0
    6.1986   10.6377    1.9307 O   0  0  0  0  0  0
    2.6894    7.0898    8.5424 C   0  0  0  0  0  0
    1.9544    6.0115    7.7100 C   0  0  0  0  0  0
    0.6148    5.5093    8.2833 C   0  0  0  0  0  0
    3.1264    6.5986    9.9433 C   0  0  0  0  0  0
    2.0537    6.6284   11.0398 C   0  0  0  0  0  0
    0.7417    5.8368   10.8394 C   0  0  0  0  0  0
    0.6761    4.8439    9.6678 C   0  0  0  0  0  0
    7.4802    5.0373    8.4587 H   0  0  0  0  0  0
    5.9401    8.8258    3.8201 H   0  0  0  0  0  0
    3.9669   13.2354    4.8992 H   0  0  0  0  0  0
    3.8065   11.3937    6.5255 H   0  0  0  0  0  0
    7.5943    9.2456    5.2476 H   0  0  0  0  0  0
    8.9352    8.1447    5.5888 H   0  0  0  0  0  0
    6.1568   11.4355    1.3890 H   0  0  0  0  0  0
    2.0071    7.9310    8.6829 H   0  0  0  0  0  0
    2.6142    5.1522    7.5783 H   0  0  0  0  0  0
    1.7709    6.3924    6.7035 H   0  0  0  0  0  0
    0.1998    4.7811    7.5890 H   0  0  0  0  0  0
   -0.1088    6.3253    8.3002 H   0  0  0  0  0  0
    3.9763    7.1832   10.3015 H   0  0  0  0  0  0
    3.4963    5.5764    9.8635 H   0  0  0  0  0  0
    2.5173    6.3084   11.9745 H   0  0  0  0  0  0
    1.7981    7.6680   11.1878 H   0  0  0  0  0  0
    0.5275    5.2938   11.7618 H   0  0  0  0  0  0
   -0.0896    6.5369   10.7409 H   0  0  0  0  0  0
    1.5029    4.1340    9.7161 H   0  0  0  0  0  0
   -0.2276    4.2443    9.7932 H   0  0  0  0  0  0
  1  2  2  0  0  0
  1  4  1  0  0  0
  2  3  1  0  0  0
  2 26  1  0  0  0
  3  6  2  0  0  0
  4  5  2  0  0  0
  4 16  1  0  0  0
  5  9  1  0  0  0
  5  6  1  0  0  0
  6  7  1  0  0  0
  7  8  1  0  0  0
  7 19  1  0  0  0
  8  9  2  0  0  0
  9 10  1  0  0  0
 10 15  1  0  0  0
 10 11  2  0  0  0
 11 12  1  0  0  0
 11 27  1  0  0  0
 12 13  2  0  0  0
 12 18  1  0  0  0
 13 14  1  0  0  0
 13 17  1  0  0  0
 14 15  2  0  0  0
 14 28  1  0  0  0
 15 29  1  0  0  0
 16 30  1  0  0  0
 16 31  1  0  0  0
 18 32  1  0  0  0
 19 20  1  0  0  0
 19 22  1  0  0  0
 19 33  1  0  0  0
 20 21  1  0  0  0
 20 34  1  0  0  0
 20 35  1  0  0  0
 21 25  1  0  0  0
 21 36  1  0  0  0
 21 37  1  0  0  0
 22 23  1  0  0  0
 22 38  1  0  0  0
 22 39  1  0  0  0
 23 24  1  0  0  0
 23 40  1  0  0  0
 23 41  1  0  0  0
 24 25  1  0  0  0
 24 42  1  0  0  0
 24 43  1  0  0  0
 25 44  1  0  0  0
 25 45  1  0  0  0
M  END
> <s_m_entry_id>
31854

> <s_m_entry_name>
dock_pv.117

> <s_m_Source_Path>
/home/csk/Desktop/cluster/DUD-E-result/src

> <s_m_Source_File>
dock_pv.maegz

> <i_m_Source_File_Index>
117

> <chembl_id>
CHEMBL1242750

> <chembl_pref_name>
None

> <i_lp_mmshare_version>
53161

> <r_lp_tautomer_probability>
0.999999999997365

> <s_lp_Force_Field>
OPLS_2005

> <r_lp_Energy>
24.101263

> <b_lp_Chiralities_Consistent>
1

> <s_lp_Variant>
CHEMBL267_lig1816-1

> <s_i_glide_gridfile>
glide-grid_3el8

> <i_i_glide_lignum>
2082

> <i_i_glide_rotatable_bonds>
3

> <r_i_docking_score>
-8.29253873369036

> <r_i_glide_ligand_efficiency>
-0.331701549347614

> <r_i_glide_ligand_efficiency_sa>
-0.969901213044451

> <r_i_glide_ligand_efficiency_ln>
-1.96558018721715

> <r_i_glide_gscore>
-8.29253873369036

> <r_i_glide_lipo>
-2.72760762370693

> <r_i_glide_hbond>
-0.548004803591209

> <r_i_glide_metal>
0

> <r_i_glide_rewards>
-2.76584602068127

> <r_i_glide_evdw>
-36.9030532836914

> <r_i_glide_ecoul>
-4.16197109222412

> <r_i_glide_erotb>
0.227634087778268

> <r_i_glide_esite>
-0.00926604547102614

> <r_i_glide_emodel>
-58.114403229451

> <r_i_glide_energy>
-41.0650243759155

> <r_i_glide_einternal>
2.07433104515076

> <i_i_glide_confnum>
40

> <i_i_glide_posenum>
103

> <r_i_glide_eff_state_penalty>
0

> <s_user_duplicate_titles>
CHEMBL267_lig1816

> <i_f3d_flags>
0

> <s_m_subgroup_title>
dock_pv

> <s_m_subgroupid>
dock_pv

> <b_m_subgroup_collapsed>
1

$$$$
CHEMBL267_lig2154
                    3D
 Schrodinger Suite 2021-1.
 41 45  0  0  1  0            999 V2000
    7.7582    8.5597    5.7777 C   0  0  0  0  0  0
    4.9760    9.0373    6.1979 C   0  0  0  0  0  0
    5.6144    7.9481    6.8676 C   0  0  0  0  0  0
    7.0128    7.6997    6.6307 C   0  0  0  0  0  0
    7.6509    6.6370    7.1913 N   0  0  0  0  0  0
    6.9039    5.8370    7.9880 C   0  0  0  0  0  0
    5.6120    6.0122    8.3554 N   0  0  0  0  0  0
    4.9656    7.0556    7.7781 C   0  0  0  0  0  0
    7.0871    9.6219    5.1880 C   0  0  0  0  0  0
    5.7564    9.8450    5.3830 C   0  0  0  0  0  0
    5.3846   10.9664    4.7121 O   0  0  0  0  0  0
    6.4869   11.3222    3.9218 C   0  0  0  0  0  0
    7.5933   10.5972    4.3880 O   0  0  0  0  0  0
    3.5975    7.2100    8.0561 N   0  0  0  0  0  0
    2.7782    6.5748    8.9970 C   0  0  0  0  0  0
    1.9451    5.5145    8.6233 C   0  0  0  0  0  0
    0.9980    4.9926    9.5191 C   0  0  0  0  0  0
    0.8951    5.5657   10.7908 C   0  0  0  0  0  0
    1.7647    6.5821   11.1880 C   0  0  0  0  0  0
    2.7033    7.0871   10.2913 C   0  0  0  0  0  0
    0.1397    3.8370    9.1435 C   0  0  0  0  0  0
   -1.2548    3.9110    9.1880 C   0  0  0  0  0  0
   -2.0419    2.8342    8.7880 C   0  0  0  0  0  0
   -1.4315    1.6501    8.3880 C   0  0  0  0  0  0
   -0.0465    1.5394    8.3880 C   0  0  0  0  0  0
    0.7283    2.6370    8.7511 C   0  0  0  0  0  0
    8.8102    8.3773    5.6086 H   0  0  0  0  0  0
    3.9282    9.2471    6.3492 H   0  0  0  0  0  0
    7.3980    4.9660    8.3880 H   0  0  0  0  0  0
    6.2875   11.0495    2.8835 H   0  0  0  0  0  0
    6.6743   12.3952    3.9880 H   0  0  0  0  0  0
    3.1507    7.9673    7.5652 H   0  0  0  0  0  0
    2.0146    5.1111    7.6235 H   0  0  0  0  0  0
    0.1676    5.1867   11.4950 H   0  0  0  0  0  0
    1.6963    6.9890   12.1862 H   0  0  0  0  0  0
    3.3486    7.8991   10.5936 H   0  0  0  0  0  0
   -1.7374    4.8257    9.4934 H   0  0  0  0  0  0
   -3.1197    2.9140    8.7904 H   0  0  0  0  0  0
   -2.0430    0.8128    8.0831 H   0  0  0  0  0  0
    0.4220    0.6096    8.0994 H   0  0  0  0  0  0
    1.7980    2.5542    8.7428 H   0  0  0  0  0  0
  1  9  1  0  0  0
  1  4  2  0  0  0
  1 27  1  0  0  0
  2  3  2  0  0  0
  2 10  1  0  0  0
  2 28  1  0  0  0
  3  4  1  0  0  0
  3  8  1  0  0  0
  4  5  1  0  0  0
  5  6  2  0  0  0
  6  7  1  0  0  0
  6 29  1  0  0  0
  7  8  2  0  0  0
  8 14  1  0  0  0
  9 10  2  0  0  0
  9 13  1  0  0  0
 10 11  1  0  0  0
 11 12  1  0  0  0
 12 13  1  0  0  0
 12 30  1  0  0  0
 12 31  1  0  0  0
 14 15  1  0  0  0
 14 32  1  0  0  0
 15 16  2  0  0  0
 15 20  1  0  0  0
 16 17  1  0  0  0
 16 33  1  0  0  0
 17 18  2  0  0  0
 17 21  1  0  0  0
 18 19  1  0  0  0
 18 34  1  0  0  0
 19 20  2  0  0  0
 19 35  1  0  0  0
 20 36  1  0  0  0
 21 22  2  0  0  0
 21 26  1  0  0  0
 22 23  1  0  0  0
 22 37  1  0  0  0
 23 24  2  0  0  0
 23 38  1  0  0  0
 24 25  1  0  0  0
 24 39  1  0  0  0
 25 26  2  0  0  0
 25 40  1  0  0  0
 26 41  1  0  0  0
M  END
> <s_m_entry_id>
31855

> <s_m_entry_name>
dock_pv.118

> <s_m_Source_Path>
/home/csk/Desktop/cluster/DUD-E-result/src

> <s_m_Source_File>
dock_pv.maegz

> <i_m_Source_File_Index>
118

> <chembl_id>
CHEMBL2419760

> <chembl_pref_name>
None

> <i_lp_mmshare_version>
53161

> <r_lp_tautomer_probability>
0.999978000241998

> <s_lp_Force_Field>
OPLS_2005

> <r_lp_Energy>
32.282474

> <b_lp_Chiralities_Consistent>
1

> <s_lp_Variant>
CHEMBL267_lig2154-1

> <s_i_glide_gridfile>
glide-grid_3el8

> <i_i_glide_lignum>
2439

> <i_i_glide_rotatable_bonds>
3

> <r_i_docking_score>
-8.28420909488363

> <r_i_glide_ligand_efficiency>
-0.318623426726294

> <r_i_glide_ligand_efficiency_sa>
-0.943920647954001

> <r_i_glide_ligand_efficiency_ln>
-1.94551932322626

> <r_i_glide_gscore>
-8.28420909488363

> <r_i_glide_lipo>
-4.39400867737828

> <r_i_glide_hbond>
-0.133579859765731

> <r_i_glide_metal>
0

> <r_i_glide_rewards>
-1.90171678672215

> <r_i_glide_evdw>
-40.8768997192383

> <r_i_glide_ecoul>
-1.99264538288116

> <r_i_glide_erotb>
0.487838022376623

> <r_i_glide_esite>
0

> <r_i_glide_emodel>
-59.386788285589

> <r_i_glide_energy>
-42.8695451021194

> <r_i_glide_einternal>
8.08532238006592

> <i_i_glide_confnum>
9

> <i_i_glide_posenum>
397

> <r_i_glide_eff_state_penalty>
0

> <s_user_duplicate_titles>
CHEMBL267_lig2154,CHEMBL267_lig2174

> <i_f3d_flags>
0

> <s_m_subgroup_title>
dock_pv

> <s_m_subgroupid>
dock_pv

> <b_m_subgroup_collapsed>
1

$$$$
CHEMBL267_lig2076
                    3D
 Schrodinger Suite 2021-1.
 48 52  0  0  1  0            999 V2000
    2.1261    7.0299    6.9183 C   0  0  0  0  0  0
    1.0265    6.4204    7.5141 C   0  0  0  0  0  0
    3.2561    7.1766    9.0535 C   0  0  0  0  0  0
    3.2387    7.3956    7.6764 C   0  0  0  0  0  0
    2.1367    6.5980    9.6932 C   0  0  0  0  0  0
    1.0146    6.1928    8.9081 C   0  0  0  0  0  0
   -0.0765    5.6034    9.4660 N   0  0  0  0  0  0
   -0.1010    5.4369   10.8103 C   0  0  0  0  0  0
    0.9311    5.8369   11.6510 C   0  0  0  0  0  0
    2.0723    6.4086   11.0942 C   0  0  0  0  0  0
    7.9437    6.6538    7.5877 N   0  0  0  0  0  0
    8.4730    7.6636    6.8507 C   0  0  0  0  0  0
    7.8103    8.6374    6.1747 N   0  0  0  0  0  0
    6.5958    6.6366    7.7108 C   0  0  0  0  0  0
    5.7964    7.6296    7.1207 C   0  0  0  0  0  0
    6.4837    8.5842    6.3405 C   0  0  0  0  0  0
    5.5122    9.4132    5.8087 N   0  0  0  0  0  0
    4.2875    9.0372    6.2258 N   0  0  0  0  0  0
    4.4189    8.0021    7.0169 C   0  0  0  0  0  0
    6.0419    5.5578    8.3885 N   0  0  0  0  0  0
    5.6758   10.6233    5.0005 C   0  0  0  0  0  0
    4.8926   10.6142    3.6581 C   0  0  0  0  0  0
    3.3644   10.8121    3.7933 C   0  0  0  0  0  0
    2.6557   10.7687    2.4250 C   0  0  0  0  0  0
    3.2167   11.7510    1.4951 N   0  0  1  0  0  0
    4.6761   11.7306    1.3665 C   0  0  0  0  0  0
    5.3807   11.7494    2.7373 C   0  0  0  0  0  0
    2.1254    7.1955    5.8501 H   0  0  0  0  0  0
    0.1787    6.1216    6.9149 H   0  0  0  0  0  0
    4.1093    7.4705    9.6480 H   0  0  0  0  0  0
   -0.9976    4.9871   11.2119 H   0  0  0  0  0  0
    0.8530    5.6956   12.7186 H   0  0  0  0  0  0
    2.9019    6.7058   11.7199 H   0  0  0  0  0  0
    9.5514    7.6837    6.7851 H   0  0  0  0  0  0
    5.0396    5.5052    8.5025 H   0  0  0  0  0  0
    6.6554    4.8577    8.7873 H   0  0  0  0  0  0
    6.7430   10.7429    4.8054 H   0  0  0  0  0  0
    5.3828   11.4783    5.6132 H   0  0  0  0  0  0
    5.0715    9.6677    3.1436 H   0  0  0  0  0  0
    3.1275   11.7420    4.3115 H   0  0  0  0  0  0
    2.9191   10.0473    4.4247 H   0  0  0  0  0  0
    1.5907   10.9733    2.5489 H   0  0  0  0  0  0
    2.7401    9.7741    1.9865 H   0  0  0  0  0  0
    2.7863   11.6863    0.5820 H   0  0  0  0  0  0
    4.9743   12.6064    0.7882 H   0  0  0  0  0  0
    4.9772   10.8507    0.7958 H   0  0  0  0  0  0
    6.4572   11.6596    2.5840 H   0  0  0  0  0  0
    5.2686   12.7279    3.2080 H   0  0  0  0  0  0
  1  2  2  0  0  0
  1  4  1  0  0  0
  1 28  1  0  0  0
  2  6  1  0  0  0
  2 29  1  0  0  0
  3  5  1  0  0  0
  3  4  2  0  0  0
  3 30  1  0  0  0
  4 19  1  0  0  0
  5 10  2  0  0  0
  5  6  1  0  0  0
  6  7  2  0  0  0
  7  8  1  0  0  0
  8  9  2  0  0  0
  8 31  1  0  0  0
  9 10  1  0  0  0
  9 32  1  0  0  0
 10 33  1  0  0  0
 11 14  1  0  0  0
 11 12  2  0  0  0
 12 13  1  0  0  0
 12 34  1  0  0  0
 13 16  2  0  0  0
 14 15  2  0  0  0
 14 20  1  0  0  0
 15 16  1  0  0  0
 15 19  1  0  0  0
 16 17  1  0  0  0
 17 18  1  0  0  0
 17 21  1  0  0  0
 18 19  2  0  0  0
 20 35  1  0  0  0
 20 36  1  0  0  0
 21 22  1  0  0  0
 21 37  1  0  0  0
 21 38  1  0  0  0
 22 23  1  0  0  0
 22 27  1  0  0  0
 22 39  1  0  0  0
 23 24  1  0  0  0
 23 40  1  0  0  0
 23 41  1  0  0  0
 24 25  1  0  0  0
 24 42  1  0  0  0
 24 43  1  0  0  0
 25 26  1  0  0  0
 25 44  1  0  0  0
 26 27  1  0  0  0
 26 45  1  0  0  0
 26 46  1  0  0  0
 27 47  1  0  0  0
 27 48  1  0  0  0
M  END
> <s_m_entry_id>
31857

> <s_m_entry_name>
dock_pv.120

> <s_m_Source_Path>
/home/csk/Desktop/cluster/DUD-E-result/src

> <s_m_Source_File>
dock_pv.maegz

> <i_m_Source_File_Index>
120

> <chembl_id>
CHEMBL2070044

> <chembl_pref_name>
None

> <i_lp_mmshare_version>
53161

> <r_lp_tautomer_probability>
1

> <s_lp_Force_Field>
OPLS_2005

> <r_lp_Energy>
21.459267

> <b_lp_Chiralities_Consistent>
1

> <s_lp_Variant>
CHEMBL267_lig2076-1

> <s_i_glide_gridfile>
glide-grid_3el8

> <i_i_glide_lignum>
2360

> <i_i_glide_rotatable_bonds>
3

> <r_i_docking_score>
-8.28242694112511

> <r_i_glide_ligand_efficiency>
-0.306756553375004

> <r_i_glide_ligand_efficiency_sa>
-0.920269659113993

> <r_i_glide_ligand_efficiency_ln>
-1.92801244541411

> <r_i_glide_gscore>
-8.28242694112511

> <r_i_glide_lipo>
-2.51878154866839

> <r_i_glide_hbond>
-0.529218593419658

> <r_i_glide_metal>
0

> <r_i_glide_rewards>
-3.00260554083073

> <r_i_glide_evdw>
-37.4285926818848

> <r_i_glide_ecoul>
-4.47974967956543

> <r_i_glide_erotb>
0.311570827822723

> <r_i_glide_esite>
0

> <r_i_glide_emodel>
-61.470889409201

> <r_i_glide_energy>
-41.9083423614502

> <r_i_glide_einternal>
3.79307842254639

> <i_i_glide_confnum>
2

> <i_i_glide_posenum>
300

> <r_i_glide_eff_state_penalty>
0

> <s_user_duplicate_titles>
CHEMBL267_lig2076

> <i_f3d_flags>
0

> <s_m_subgroup_title>
dock_pv

> <s_m_subgroupid>
dock_pv

> <b_m_subgroup_collapsed>
1

$$$$
CHEMBL267_lig1536
                    3D
 Schrodinger Suite 2021-1.
 37 40  0  0  1  0            999 V2000
    7.7242    6.7287    7.5873 N   0  0  0  0  0  0
    8.1403    7.7412    6.7865 C   0  0  0  0  0  0
    7.3748    8.6524    6.1330 N   0  0  0  0  0  0
    6.3891    6.6363    7.7997 C   0  0  0  0  0  0
    5.4788    7.5703    7.2614 C   0  0  0  0  0  0
    6.0633    8.5333    6.3877 C   0  0  0  0  0  0
    5.0375    9.2830    5.8325 N   0  0  0  0  0  0
    3.8532    8.8449    6.3880 C   0  0  0  0  0  0
    4.0600    7.8361    7.3139 C   0  0  0  0  0  0
    3.0106    7.2093    8.1716 C   0  0  0  0  0  0
    3.2812    6.9035    9.5089 C   0  0  0  0  0  0
    2.2993    6.3271   10.3098 C   0  0  0  0  0  0
    1.0429    6.0589    9.7767 C   0  0  0  0  0  0
    0.7657    6.3483    8.4427 C   0  0  0  0  0  0
    1.7485    6.9236    7.6398 C   0  0  0  0  0  0
    5.9516    5.5084    8.4862 N   0  0  0  0  0  0
    5.1947   10.3785    4.8645 C   0  0  0  0  0  0
    0.0786    5.5111   10.5778 O   0  0  0  0  0  0
    3.9706   10.9588    4.1244 C   0  0  0  0  0  0
    3.9048   12.0456    5.2063 C   0  0  0  0  0  0
    5.4058   11.7994    5.4176 C   0  0  0  0  0  0
    9.2071    7.8137    6.6174 H   0  0  0  0  0  0
    2.9269    9.3273    6.1106 H   0  0  0  0  0  0
    4.2459    7.1261    9.9390 H   0  0  0  0  0  0
    2.5148    6.0977   11.3437 H   0  0  0  0  0  0
   -0.2019    6.1245    8.0230 H   0  0  0  0  0  0
    1.5295    7.1413    6.6050 H   0  0  0  0  0  0
    4.9645    5.3779    8.6510 H   0  0  0  0  0  0
    6.6363    4.8431    8.8228 H   0  0  0  0  0  0
    5.9805   10.0338    4.1904 H   0  0  0  0  0  0
   -0.7926    5.4574   10.1704 H   0  0  0  0  0  0
    4.2104   11.3559    3.1347 H   0  0  0  0  0  0
    3.1066   10.3023    4.0199 H   0  0  0  0  0  0
    3.6314   13.0412    4.8548 H   0  0  0  0  0  0
    3.2840   11.7846    6.0656 H   0  0  0  0  0  0
    5.7757   11.8582    6.4406 H   0  0  0  0  0  0
    6.0343   12.4267    4.7807 H   0  0  0  0  0  0
  1  2  2  0  0  0
  1  4  1  0  0  0
  2  3  1  0  0  0
  2 22  1  0  0  0
  3  6  2  0  0  0
  4  5  2  0  0  0
  4 16  1  0  0  0
  5  6  1  0  0  0
  5  9  1  0  0  0
  6  7  1  0  0  0
  7 17  1  0  0  0
  7  8  1  0  0  0
  8  9  2  0  0  0
  8 23  1  0  0  0
  9 10  1  0  0  0
 10 11  2  0  0  0
 10 15  1  0  0  0
 11 12  1  0  0  0
 11 24  1  0  0  0
 12 13  2  0  0  0
 12 25  1  0  0  0
 13 14  1  0  0  0
 13 18  1  0  0  0
 14 15  2  0  0  0
 14 26  1  0  0  0
 15 27  1  0  0  0
 16 28  1  0  0  0
 16 29  1  0  0  0
 17 19  1  0  0  0
 17 21  1  0  0  0
 17 30  1  0  0  0
 18 31  1  0  0  0
 19 20  1  0  0  0
 19 32  1  0  0  0
 19 33  1  0  0  0
 20 21  1  0  0  0
 20 34  1  0  0  0
 20 35  1  0  0  0
 21 36  1  0  0  0
 21 37  1  0  0  0
M  END
> <s_m_entry_id>
31858

> <s_m_entry_name>
dock_pv.121

> <s_m_Source_Path>
/home/csk/Desktop/cluster/DUD-E-result/src

> <s_m_Source_File>
dock_pv.maegz

> <i_m_Source_File_Index>
121

> <chembl_id>
CHEMBL166765

> <chembl_pref_name>
None

> <i_lp_mmshare_version>
53161

> <r_lp_tautomer_probability>
0.999999999997365

> <s_lp_Force_Field>
OPLS_2005

> <r_lp_Energy>
22.909273

> <b_lp_Chiralities_Consistent>
1

> <s_lp_Variant>
CHEMBL267_lig1536-1

> <s_i_glide_gridfile>
glide-grid_3el8

> <i_i_glide_lignum>
1717

> <i_i_glide_rotatable_bonds>
3

> <r_i_docking_score>
-8.28226831698784

> <r_i_glide_ligand_efficiency>
-0.394393729380373

> <r_i_glide_ligand_efficiency_sa>
-1.08810239389637

> <r_i_glide_ligand_efficiency_ln>
-2.04777410547628

> <r_i_glide_gscore>
-8.28226831698784

> <r_i_glide_lipo>
-2.18906747813938

> <r_i_glide_hbond>
-0.39577541079209

> <r_i_glide_metal>
0

> <r_i_glide_rewards>
-3.45911212556746

> <r_i_glide_evdw>
-34.1524696350098

> <r_i_glide_ecoul>
-5.68273639678955

> <r_i_glide_erotb>
0.321720638780007

> <r_i_glide_esite>
0

> <r_i_glide_emodel>
-59.4946733034374

> <r_i_glide_energy>
-39.8352060317993

> <r_i_glide_einternal>
0.312337338924408

> <i_i_glide_confnum>
30

> <i_i_glide_posenum>
74

> <r_i_glide_eff_state_penalty>
0

> <s_user_duplicate_titles>
CHEMBL267_lig1536,281720

> <i_f3d_flags>
0

> <s_m_subgroup_title>
dock_pv

> <s_m_subgroupid>
dock_pv

> <b_m_subgroup_collapsed>
1

$$$$
CHEMBL267_lig3810
                    3D
 Schrodinger Suite 2021-1.
 35 38  0  0  1  0            999 V2000
    7.7979    6.6555    7.5876 N   0  0  0  0  0  0
    8.1980    7.6633    6.7736 C   0  0  0  0  0  0
    7.4158    8.5545    6.1131 N   0  0  0  0  0  0
    6.4670    6.5542    7.8250 C   0  0  0  0  0  0
    5.5516    7.4724    7.2722 C   0  0  0  0  0  0
    6.1087    8.4206    6.3822 C   0  0  0  0  0  0
    5.0354    9.0995    5.8211 N   0  0  0  0  0  0
    3.8763    8.6930    6.3927 N   0  0  0  0  0  0
    4.1436    7.7653    7.2853 C   0  0  0  0  0  0
    3.0628    7.1677    8.1323 C   0  0  0  0  0  0
    1.7882    6.9220    7.6049 C   0  0  0  0  0  0
    0.8003    6.3373    8.3964 C   0  0  0  0  0  0
    1.0866    5.9918    9.7158 C   0  0  0  0  0  0
    2.3481    6.2375   10.2507 C   0  0  0  0  0  0
    3.3330    6.8228    9.4607 C   0  0  0  0  0  0
    5.0265   10.1110    4.8314 C   0  0  0  0  0  0
    6.0496   11.0662    4.7933 C   0  0  0  0  0  0
    6.0761   12.0179    3.7772 C   0  0  0  0  0  0
    5.0927   12.0029    2.7904 C   0  0  0  0  0  0
    4.0787   11.0478    2.8118 C   0  0  0  0  0  0
    4.0448   10.0992    3.8306 C   0  0  0  0  0  0
   -0.1253    5.2531   10.6973 Cl  0  0  0  0  0  0
    6.0459    5.4371    8.5361 N   0  0  0  0  0  0
    9.2610    7.7455    6.5948 H   0  0  0  0  0  0
    1.5649    7.1749    6.5784 H   0  0  0  0  0  0
   -0.1829    6.1439    7.9884 H   0  0  0  0  0  0
    2.5692    5.9667   11.2731 H   0  0  0  0  0  0
    4.3032    7.0147    9.8943 H   0  0  0  0  0  0
    6.8233   11.0806    5.5474 H   0  0  0  0  0  0
    6.8596   12.7614    3.7494 H   0  0  0  0  0  0
    5.1188   12.7361    1.9968 H   0  0  0  0  0  0
    3.3255   11.0402    2.0370 H   0  0  0  0  0  0
    3.2630    9.3527    3.8305 H   0  0  0  0  0  0
    5.0600    5.2970    8.7022 H   0  0  0  0  0  0
    6.7363    4.7806    8.8830 H   0  0  0  0  0  0
  1  2  2  0  0  0
  1  4  1  0  0  0
  2  3  1  0  0  0
  2 24  1  0  0  0
  3  6  2  0  0  0
  4  5  2  0  0  0
  4 23  1  0  0  0
  5  6  1  0  0  0
  5  9  1  0  0  0
  6  7  1  0  0  0
  7  8  1  0  0  0
  7 16  1  0  0  0
  8  9  2  0  0  0
  9 10  1  0  0  0
 10 11  2  0  0  0
 10 15  1  0  0  0
 11 12  1  0  0  0
 11 25  1  0  0  0
 12 13  2  0  0  0
 12 26  1  0  0  0
 13 14  1  0  0  0
 13 22  1  0  0  0
 14 15  2  0  0  0
 14 27  1  0  0  0
 15 28  1  0  0  0
 16 17  2  0  0  0
 16 21  1  0  0  0
 17 18  1  0  0  0
 17 29  1  0  0  0
 18 19  2  0  0  0
 18 30  1  0  0  0
 19 20  1  0  0  0
 19 31  1  0  0  0
 20 21  2  0  0  0
 20 32  1  0  0  0
 21 33  1  0  0  0
 23 34  1  0  0  0
 23 35  1  0  0  0
M  END
> <s_m_entry_id>
31859

> <s_m_entry_name>
dock_pv.122

> <s_m_Source_Path>
/home/csk/Desktop/cluster/DUD-E-result/src

> <s_m_Source_File>
dock_pv.maegz

> <i_m_Source_File_Index>
122

> <chembl_id>
CHEMBL2408783

> <chembl_pref_name>
None

> <i_lp_mmshare_version>
53161

> <r_lp_tautomer_probability>
1

> <s_lp_Force_Field>
OPLS_2005

> <r_lp_Energy>
15.355774

> <b_lp_Chiralities_Consistent>
1

> <s_lp_Variant>
CHEMBL267_lig3810-1

> <s_i_glide_gridfile>
glide-grid_3el8

> <i_i_glide_lignum>
4676

> <i_i_glide_rotatable_bonds>
2

> <r_i_docking_score>
-8.27612179255797

> <r_i_glide_ligand_efficiency>
-0.359831382285129

> <r_i_glide_ligand_efficiency_sa>
-1.02331258532549

> <r_i_glide_ligand_efficiency_ln>
-2.00124129316392

> <r_i_glide_gscore>
-8.27612179255797

> <r_i_glide_lipo>
-2.10441529966156

> <r_i_glide_hbond>
-0.522565197127532

> <r_i_glide_metal>
0

> <r_i_glide_rewards>
-3.23374028136921

> <r_i_glide_evdw>
-35.1291122436523

> <r_i_glide_ecoul>
-6.0779595375061

> <r_i_glide_erotb>
0.252748528408862

> <r_i_glide_esite>
0

> <r_i_glide_emodel>
-60.5656024746317

> <r_i_glide_energy>
-41.2070717811584

> <r_i_glide_einternal>
0.170146152377129

> <i_i_glide_confnum>
7

> <i_i_glide_posenum>
387

> <r_i_glide_eff_state_penalty>
0

> <s_user_duplicate_titles>
CHEMBL267_lig3810

> <i_f3d_flags>
0

> <s_m_subgroup_title>
dock_pv

> <s_m_subgroupid>
dock_pv

> <b_m_subgroup_collapsed>
1

$$$$
CHEMBL267_lig163
                    3D
 Schrodinger Suite 2021-1.
 43 46  0  0  1  0            999 V2000
    7.8176    8.3215    5.9140 N   0  0  0  0  0  0
    7.6855    7.5602    7.0185 C   0  0  0  0  0  0
    6.6718    8.8896    5.4867 C   0  0  0  0  0  0
    5.6358    8.4257    6.4403 C   0  0  0  0  0  0
    6.2423    7.6271    7.3645 C   0  0  0  0  0  0
    3.4917    8.0682    7.4973 C   0  0  0  0  0  0
    4.1290    7.2600    8.4820 C   0  0  0  0  0  0
    4.2672    8.6593    6.4854 C   0  0  0  0  0  0
    5.5071    7.0329    8.3883 C   0  0  0  0  0  0
    2.0915    8.2103    7.3739 N   0  0  0  0  0  0
    3.4953    6.6337    9.5730 N   0  0  0  0  0  0
    6.5368    9.6242    4.5112 O   0  0  0  0  0  0
    8.5857    6.9508    7.5883 O   0  0  0  0  0  0
    1.3229    7.6579    6.3203 C   0  0  0  0  0  0
    2.2338    6.0384    9.6502 C   0  0  0  0  0  0
    1.4192    9.0130    8.3860 C   0  0  0  0  0  0
    1.9594    6.8392    5.3921 C   0  0  0  0  0  0
   -0.0543    7.8359    6.1850 C   0  0  0  0  0  0
    1.4721    6.2382   10.8016 C   0  0  0  0  0  0
    1.7744    5.1949    8.6351 C   0  0  0  0  0  0
    1.2945    6.2368    4.3389 C   0  0  0  0  0  0
   -0.7329    7.1386    5.1901 C   0  0  0  0  0  0
    0.5416    4.5650    8.7669 C   0  0  0  0  0  0
    0.2353    5.6119   10.9303 C   0  0  0  0  0  0
   -0.2202    4.7768    9.9127 C   0  0  0  0  0  0
   -0.0782    6.3393    4.2817 C   0  0  0  0  0  0
    8.7015    8.4409    5.4431 H   0  0  0  0  0  0
    3.7899    9.2638    5.7265 H   0  0  0  0  0  0
    5.9873    6.3668    9.0910 H   0  0  0  0  0  0
    4.1414    6.1669   10.1998 H   0  0  0  0  0  0
    2.0836    9.2908    9.2054 H   0  0  0  0  0  0
    1.0096    9.9258    7.9523 H   0  0  0  0  0  0
    0.6005    8.4239    8.7879 H   0  0  0  0  0  0
    2.9980    6.6380    5.5099 H   0  0  0  0  0  0
   -0.6235    8.4448    6.8672 H   0  0  0  0  0  0
    1.8359    6.8767   11.5943 H   0  0  0  0  0  0
    2.3717    5.0244    7.7523 H   0  0  0  0  0  0
    1.8224    5.6070    3.6387 H   0  0  0  0  0  0
   -1.8038    7.1817    5.1542 H   0  0  0  0  0  0
    0.1734    3.9190    7.9838 H   0  0  0  0  0  0
   -0.3712    5.7739   11.8101 H   0  0  0  0  0  0
   -1.1842    4.2975   10.0090 H   0  0  0  0  0  0
   -0.6604    5.7782    3.5743 H   0  0  0  0  0  0
  1  2  1  0  0  0
  1  3  1  0  0  0
  1 27  1  0  0  0
  2  5  1  0  0  0
  2 13  2  0  0  0
  3  4  1  0  0  0
  3 12  2  0  0  0
  4  8  2  0  0  0
  4  5  1  0  0  0
  5  9  2  0  0  0
  6  8  1  0  0  0
  6 10  1  0  0  0
  6  7  2  0  0  0
  7  9  1  0  0  0
  7 11  1  0  0  0
  8 28  1  0  0  0
  9 29  1  0  0  0
 10 14  1  0  0  0
 10 16  1  0  0  0
 11 15  1  0  0  0
 11 30  1  0  0  0
 14 17  1  0  0  0
 14 18  2  0  0  0
 15 19  1  0  0  0
 15 20  2  0  0  0
 16 31  1  0  0  0
 16 32  1  0  0  0
 16 33  1  0  0  0
 17 21  2  0  0  0
 17 34  1  0  0  0
 18 22  1  0  0  0
 18 35  1  0  0  0
 19 24  2  0  0  0
 19 36  1  0  0  0
 20 23  1  0  0  0
 20 37  1  0  0  0
 21 26  1  0  0  0
 21 38  1  0  0  0
 22 26  2  0  0  0
 22 39  1  0  0  0
 23 25  2  0  0  0
 23 40  1  0  0  0
 24 25  1  0  0  0
 24 41  1  0  0  0
 25 42  1  0  0  0
 26 43  1  0  0  0
M  END
> <s_m_entry_id>
31860

> <s_m_entry_name>
dock_pv.123

> <s_m_Source_Path>
/home/csk/Desktop/cluster/DUD-E-result/src

> <s_m_Source_File>
dock_pv.maegz

> <i_m_Source_File_Index>
123

> <chembl_id>
CHEMBL7775

> <chembl_pref_name>
None

> <i_lp_mmshare_version>
53161

> <r_lp_tautomer_probability>
1

> <s_lp_Force_Field>
OPLS_2005

> <r_lp_Energy>
52.323623

> <b_lp_Chiralities_Consistent>
1

> <s_lp_Variant>
CHEMBL267_lig163-1

> <s_i_glide_gridfile>
glide-grid_3el8

> <i_i_glide_lignum>
218

> <i_i_glide_rotatable_bonds>
4

> <r_i_docking_score>
-8.26694037954371

> <r_i_glide_ligand_efficiency>
-0.317959245367066

> <r_i_glide_ligand_efficiency_sa>
-0.941953013290715

> <r_i_glide_ligand_efficiency_ln>
-1.94146382209195

> <r_i_glide_gscore>
-8.26694037954371

> <r_i_glide_lipo>
-3.51890608001604

> <r_i_glide_hbond>
-0.4568531054287

> <r_i_glide_metal>
0

> <r_i_glide_rewards>
-2.52479279593704

> <r_i_glide_evdw>
-35.5593757629395

> <r_i_glide_ecoul>
-4.21407794952393

> <r_i_glide_erotb>
0.643692082413636

> <r_i_glide_esite>
0

> <r_i_glide_emodel>
-34.3024142539469

> <r_i_glide_energy>
-39.7734537124634

> <r_i_glide_einternal>
14.0110321044922

> <i_i_glide_confnum>
10

> <i_i_glide_posenum>
351

> <r_i_glide_eff_state_penalty>
0

> <s_user_duplicate_titles>
CHEMBL267_lig163

> <i_f3d_flags>
0

> <s_m_subgroup_title>
dock_pv

> <s_m_subgroupid>
dock_pv

> <b_m_subgroup_collapsed>
1

$$$$
CHEMBL267_lig1799
                    3D
 Schrodinger Suite 2021-1.
 42 44  0  0  1  0            999 V2000
    7.6394    6.5951    7.5876 N   0  0  0  0  0  0
    7.9630    7.5746    6.7062 C   0  0  0  0  0  0
    7.1328    8.4740    6.1132 N   0  0  0  0  0  0
    6.3381    6.5152    7.9652 C   0  0  0  0  0  0
    5.3909    7.4266    7.4656 C   0  0  0  0  0  0
    5.8596    8.3511    6.5096 C   0  0  0  0  0  0
    4.7386    9.0328    6.0625 N   0  0  0  0  0  0
    3.6340    8.6384    6.7440 N   0  0  0  0  0  0
    4.0016    7.7061    7.5935 C   0  0  0  0  0  0
    3.0553    7.0558    8.5274 C   0  0  0  0  0  0
    2.0444    6.2260    8.0440 C   0  0  0  0  0  0
    1.1617    5.6072    8.9297 C   0  0  0  0  0  0
    1.2509    5.8771   10.3018 C   0  0  0  0  0  0
    2.2908    6.6671   10.7882 C   0  0  0  0  0  0
    3.1999    7.2470    9.9062 C   0  0  0  0  0  0
    5.9545    5.4381    8.7643 N   0  0  0  0  0  0
    4.6628   10.1042    5.0546 C   0  0  0  0  0  0
    4.7061   11.4771    5.7493 C   0  0  0  0  0  0
    3.4259    9.9500    4.1379 C   0  0  0  0  0  0
   -0.0631    5.2438   11.5259 Br  0  0  0  0  0  0
    0.1878    4.7952    8.4154 O   0  0  0  0  0  0
    0.3565    3.4226    8.5927 C   0  0  0  0  0  0
   -0.7344    2.7166    8.0993 O   0  0  0  0  0  0
   -1.9438    2.9242    8.8199 C   0  0  0  0  0  0
    9.0006    7.6341    6.4119 H   0  0  0  0  0  0
    1.9474    6.0492    6.9840 H   0  0  0  0  0  0
    2.3809    6.8506   11.8512 H   0  0  0  0  0  0
    3.9929    7.8704   10.2906 H   0  0  0  0  0  0
    4.9918    5.3577    9.0594 H   0  0  0  0  0  0
    6.6568    4.7747    9.0743 H   0  0  0  0  0  0
    5.5485   10.0040    4.4250 H   0  0  0  0  0  0
    4.7259   12.2865    5.0197 H   0  0  0  0  0  0
    3.8351   11.6263    6.3868 H   0  0  0  0  0  0
    5.5985   11.5838    6.3692 H   0  0  0  0  0  0
    3.4301   10.7022    3.3481 H   0  0  0  0  0  0
    3.4101    8.9741    3.6510 H   0  0  0  0  0  0
    2.4917   10.0640    4.6891 H   0  0  0  0  0  0
    1.2102    3.0955    7.9990 H   0  0  0  0  0  0
    0.5338    3.1519    9.6366 H   0  0  0  0  0  0
   -2.7391    2.3146    8.3893 H   0  0  0  0  0  0
   -1.8483    2.6411    9.8669 H   0  0  0  0  0  0
   -2.2647    3.9661    8.7874 H   0  0  0  0  0  0
  1  2  2  0  0  0
  1  4  1  0  0  0
  2  3  1  0  0  0
  2 25  1  0  0  0
  3  6  2  0  0  0
  4  5  2  0  0  0
  4 16  1  0  0  0
  5  9  1  0  0  0
  5  6  1  0  0  0
  6  7  1  0  0  0
  7 17  1  0  0  0
  7  8  1  0  0  0
  8  9  2  0  0  0
  9 10  1  0  0  0
 10 15  1  0  0  0
 10 11  2  0  0  0
 11 12  1  0  0  0
 11 26  1  0  0  0
 12 13  2  0  0  0
 12 21  1  0  0  0
 13 14  1  0  0  0
 13 20  1  0  0  0
 14 15  2  0  0  0
 14 27  1  0  0  0
 15 28  1  0  0  0
 16 29  1  0  0  0
 16 30  1  0  0  0
 17 18  1  0  0  0
 17 19  1  0  0  0
 17 31  1  0  0  0
 18 32  1  0  0  0
 18 33  1  0  0  0
 18 34  1  0  0  0
 19 35  1  0  0  0
 19 36  1  0  0  0
 19 37  1  0  0  0
 21 22  1  0  0  0
 22 23  1  0  0  0
 22 38  1  0  0  0
 22 39  1  0  0  0
 23 24  1  0  0  0
 24 40  1  0  0  0
 24 41  1  0  0  0
 24 42  1  0  0  0
M  END
> <s_m_entry_id>
31861

> <s_m_entry_name>
dock_pv.124

> <s_m_Source_Path>
/home/csk/Desktop/cluster/DUD-E-result/src

> <s_m_Source_File>
dock_pv.maegz

> <i_m_Source_File_Index>
124

> <chembl_id>
CHEMBL1242286

> <chembl_pref_name>
None

> <i_lp_mmshare_version>
53161

> <r_lp_tautomer_probability>
1

> <s_lp_Force_Field>
OPLS_2005

> <r_lp_Energy>
16.245099

> <b_lp_Chiralities_Consistent>
1

> <s_lp_Variant>
CHEMBL267_lig1799-1

> <s_i_glide_gridfile>
glide-grid_3el8

> <i_i_glide_lignum>
2062

> <i_i_glide_rotatable_bonds>
5

> <r_i_docking_score>
-8.26608636428002

> <r_i_glide_ligand_efficiency>
-0.344420265178334

> <r_i_glide_ligand_efficiency_sa>
-0.993479957864788

> <r_i_glide_ligand_efficiency_ln>
-1.97845377295956

> <r_i_glide_gscore>
-8.26608636428002

> <r_i_glide_lipo>
-2.56034305496945

> <r_i_glide_hbond>
-0.659286418850506

> <r_i_glide_metal>
0

> <r_i_glide_rewards>
-2.56089611675243

> <r_i_glide_evdw>
-39.9702301025391

> <r_i_glide_ecoul>
-5.7847318649292

> <r_i_glide_erotb>
0.3806605111587

> <r_i_glide_esite>
0

> <r_i_glide_emodel>
-63.0471787661753

> <r_i_glide_energy>
-45.7549619674683

> <r_i_glide_einternal>
7.34106159210205

> <i_i_glide_confnum>
2

> <i_i_glide_posenum>
360

> <r_i_glide_eff_state_penalty>
0

> <s_user_duplicate_titles>
CHEMBL267_lig1799

> <i_f3d_flags>
0

> <s_m_subgroup_title>
dock_pv

> <s_m_subgroupid>
dock_pv

> <b_m_subgroup_collapsed>
1

$$$$
CHEMBL267_lig1531
                    3D
 Schrodinger Suite 2021-1.
 40 43  0  0  1  0            999 V2000
    7.4543    6.5514    7.5879 N   0  0  0  0  0  0
    7.7982    7.5016    6.6875 C   0  0  0  0  0  0
    6.9868    8.4068    6.0886 N   0  0  0  0  0  0
    6.1565    6.5109    7.9811 C   0  0  0  0  0  0
    5.2055    7.4301    7.4774 C   0  0  0  0  0  0
    5.7089    8.3315    6.4887 C   0  0  0  0  0  0
    4.6409    9.0738    6.0026 N   0  0  0  0  0  0
    3.5105    8.6708    6.6810 C   0  0  0  0  0  0
    3.7954    7.7067    7.6322 C   0  0  0  0  0  0
    2.8091    7.1146    8.5804 C   0  0  0  0  0  0
    3.1522    6.9073    9.9189 C   0  0  0  0  0  0
    2.2156    6.3806   10.8044 C   0  0  0  0  0  0
    0.9426    6.0463   10.3520 C   0  0  0  0  0  0
    0.5963    6.2366    9.0174 C   0  0  0  0  0  0
    1.5292    6.7709    8.1310 C   0  0  0  0  0  0
    5.7979    5.4368    8.7880 N   0  0  0  0  0  0
    4.6602   10.1138    4.9642 C   0  0  0  0  0  0
    5.6146   11.2856    5.2946 C   0  0  0  0  0  0
    6.6023   11.3659    4.1247 C   0  0  0  0  0  0
    5.8507   10.7506    2.9451 C   0  0  0  0  0  0
    5.0757    9.5913    3.5739 C   0  0  0  0  0  0
    0.0206    5.5459   11.2303 O   0  0  0  0  0  0
    8.8370    7.5237    6.3890 H   0  0  0  0  0  0
    2.5645    9.1409    6.4538 H   0  0  0  0  0  0
    4.1345    7.1725   10.2825 H   0  0  0  0  0  0
    2.4785    6.2372   11.8421 H   0  0  0  0  0  0
   -0.3917    5.9705    8.6707 H   0  0  0  0  0  0
    1.2558    6.9144    7.0956 H   0  0  0  0  0  0
    4.8390    5.3398    9.0927 H   0  0  0  0  0  0
    6.5136    4.7791    9.0747 H   0  0  0  0  0  0
    3.6458   10.5167    4.9241 H   0  0  0  0  0  0
    5.0473   12.2161    5.3583 H   0  0  0  0  0  0
    6.1305   11.1760    6.2507 H   0  0  0  0  0  0
    6.9265   12.3880    3.9235 H   0  0  0  0  0  0
    7.4938   10.7767    4.3478 H   0  0  0  0  0  0
    5.1603   11.4789    2.5162 H   0  0  0  0  0  0
    6.5211   10.4269    2.1493 H   0  0  0  0  0  0
    5.7442    8.7316    3.6507 H   0  0  0  0  0  0
    4.2195    9.2948    2.9662 H   0  0  0  0  0  0
   -0.8664    5.4939   10.8585 H   0  0  0  0  0  0
  1  2  2  0  0  0
  1  4  1  0  0  0
  2  3  1  0  0  0
  2 23  1  0  0  0
  3  6  2  0  0  0
  4  5  2  0  0  0
  4 16  1  0  0  0
  5  9  1  0  0  0
  5  6  1  0  0  0
  6  7  1  0  0  0
  7 17  1  0  0  0
  7  8  1  0  0  0
  8  9  2  0  0  0
  8 24  1  0  0  0
  9 10  1  0  0  0
 10 11  2  0  0  0
 10 15  1  0  0  0
 11 12  1  0  0  0
 11 25  1  0  0  0
 12 13  2  0  0  0
 12 26  1  0  0  0
 13 14  1  0  0  0
 13 22  1  0  0  0
 14 15  2  0  0  0
 14 27  1  0  0  0
 15 28  1  0  0  0
 16 29  1  0  0  0
 16 30  1  0  0  0
 17 18  1  0  0  0
 17 21  1  0  0  0
 17 31  1  0  0  0
 18 19  1  0  0  0
 18 32  1  0  0  0
 18 33  1  0  0  0
 19 20  1  0  0  0
 19 34  1  0  0  0
 19 35  1  0  0  0
 20 21  1  0  0  0
 20 36  1  0  0  0
 20 37  1  0  0  0
 21 38  1  0  0  0
 21 39  1  0  0  0
 22 40  1  0  0  0
M  END
> <s_m_entry_id>
31862

> <s_m_entry_name>
dock_pv.125

> <s_m_Source_Path>
/home/csk/Desktop/cluster/DUD-E-result/src

> <s_m_Source_File>
dock_pv.maegz

> <i_m_Source_File_Index>
125

> <chembl_id>
CHEMBL169570

> <chembl_pref_name>
None

> <i_lp_mmshare_version>
53161

> <r_lp_tautomer_probability>
0.999999999997365

> <s_lp_Force_Field>
OPLS_2005

> <r_lp_Energy>
32.769635

> <b_lp_Chiralities_Consistent>
1

> <s_lp_Variant>
CHEMBL267_lig1531-1

> <s_i_glide_gridfile>
glide-grid_3el8

> <i_i_glide_lignum>
1712

> <i_i_glide_rotatable_bonds>
3

> <r_i_docking_score>
-8.25997754033326

> <r_i_glide_ligand_efficiency>
-0.375453524560603

> <r_i_glide_ligand_efficiency_sa>
-1.05203554156804

> <r_i_glide_ligand_efficiency_ln>
-2.01903980085875

> <r_i_glide_gscore>
-8.25997754033326

> <r_i_glide_lipo>
-2.34731323244881

> <r_i_glide_hbond>
-0.399200526666697

> <r_i_glide_metal>
0

> <r_i_glide_rewards>
-3.25376084741661

> <r_i_glide_evdw>
-36.9537696838379

> <r_i_glide_ecoul>
-5.56097173690796

> <r_i_glide_erotb>
0.422131310926944

> <r_i_glide_esite>
0

> <r_i_glide_emodel>
-62.2670692161885

> <r_i_glide_energy>
-42.5147414207458

> <r_i_glide_einternal>
1.02481174468994

> <i_i_glide_confnum>
43

> <i_i_glide_posenum>
383

> <r_i_glide_eff_state_penalty>
0

> <s_user_duplicate_titles>
CHEMBL267_lig1531,281861

> <i_f3d_flags>
0

> <s_m_subgroup_title>
dock_pv

> <s_m_subgroupid>
dock_pv

> <b_m_subgroup_collapsed>
1

$$$$
CHEMBL267_lig434
                    3D
 Schrodinger Suite 2021-1.
 49 52  0  0  1  0            999 V2000
    5.7697    8.3467    6.5175 C   0  0  0  0  0  0
    4.7082    9.1167    6.0624 N   0  0  0  0  0  0
    5.2640    7.4370    7.4904 C   0  0  0  0  0  0
    3.8678    7.7236    7.6624 C   0  0  0  0  0  0
    3.5683    8.6897    6.7185 C   0  0  0  0  0  0
    4.7718   10.1647    5.0311 C   0  0  2  0  0  0
    7.0463    8.4080    6.1103 N   0  0  0  0  0  0
    6.1952    6.4995    7.9836 C   0  0  0  0  0  0
    2.9324    7.0447    8.5858 C   0  0  0  0  0  0
    2.6480   11.1444    4.5117 N   0  0  1  0  0  0
    7.4927    6.5228    7.5880 N   0  0  0  0  0  0
    3.8502   11.3655    5.3131 C   0  0  0  0  0  0
    7.8458    7.4790    6.6941 C   0  0  0  0  0  0
    0.9980   12.7015    5.5865 C   0  0  0  0  0  0
    4.2875    9.6459    3.6670 C   0  0  0  0  0  0
    1.9568    6.1749    8.0961 C   0  0  0  0  0  0
    1.7979   12.3305    4.3172 C   0  0  0  0  0  0
    3.1866   10.6258    3.2598 C   0  0  0  0  0  0
    0.6012   11.8571    6.3876 O   0  0  0  0  0  0
    5.7981    5.4371    8.7880 N   0  0  0  0  0  0
    0.6988   13.9899    5.7589 N   0  0  0  0  0  0
    1.0881    5.5121    8.9643 C   0  0  0  0  0  0
    3.0343    7.2701    9.9598 C   0  0  0  0  0  0
    0.1978    4.6299    8.3883 O   0  0  0  0  0  0
    2.1573    6.6366   10.8371 C   0  0  0  0  0  0
    1.1833    5.7670   10.3435 C   0  0  0  0  0  0
   -0.7364    3.9451    9.2162 C   0  0  0  0  0  0
    2.6182    9.1509    6.4840 H   0  0  0  0  0  0
    5.8123   10.4927    5.0151 H   0  0  0  0  0  0
    4.3215   12.2972    4.9944 H   0  0  0  0  0  0
    3.6310   11.5292    6.3691 H   0  0  0  0  0  0
    8.8827    7.4873    6.3885 H   0  0  0  0  0  0
    3.8801    8.6371    3.7158 H   0  0  0  0  0  0
    5.0910    9.6308    2.9313 H   0  0  0  0  0  0
    1.8856    5.9891    7.0346 H   0  0  0  0  0  0
    1.0608   12.1326    3.5378 H   0  0  0  0  0  0
    2.3937   13.1791    3.9765 H   0  0  0  0  0  0
    2.3812   10.1422    2.7047 H   0  0  0  0  0  0
    3.5506   11.4192    2.6038 H   0  0  0  0  0  0
    4.8399    5.3858    9.1070 H   0  0  0  0  0  0
    6.4929    4.7618    9.0845 H   0  0  0  0  0  0
    0.1580   14.2585    6.5663 H   0  0  0  0  0  0
    0.9570   14.6793    5.0692 H   0  0  0  0  0  0
    3.7920    7.9359   10.3476 H   0  0  0  0  0  0
    2.2378    6.8100   11.9003 H   0  0  0  0  0  0
    0.5229    5.2826   11.0467 H   0  0  0  0  0  0
   -1.3562    3.2937    8.5994 H   0  0  0  0  0  0
   -0.2297    3.3214    9.9541 H   0  0  0  0  0  0
   -1.4023    4.6377    9.7321 H   0  0  0  0  0  0
  1  2  1  0  0  0
  1  3  2  0  0  0
  1  7  1  0  0  0
  2  5  1  0  0  0
  2  6  1  0  0  0
  3  4  1  0  0  0
  3  8  1  0  0  0
  4  9  1  0  0  0
  4  5  2  0  0  0
  5 28  1  0  0  0
  6 12  1  0  0  0
  6 15  1  0  0  0
  6 29  1  0  0  0
  7 13  2  0  0  0
  8 20  1  0  0  0
  8 11  2  0  0  0
  9 16  2  0  0  0
  9 23  1  0  0  0
 10 12  1  0  0  0
 10 17  1  0  0  0
 10 18  1  0  0  0
 11 13  1  0  0  0
 12 30  1  0  0  0
 12 31  1  0  0  0
 13 32  1  0  0  0
 14 17  1  0  0  0
 14 19  2  0  0  0
 14 21  1  0  0  0
 15 18  1  0  0  0
 15 33  1  0  0  0
 15 34  1  0  0  0
 16 22  1  0  0  0
 16 35  1  0  0  0
 17 36  1  0  0  0
 17 37  1  0  0  0
 18 38  1  0  0  0
 18 39  1  0  0  0
 20 40  1  0  0  0
 20 41  1  0  0  0
 21 42  1  0  0  0
 21 43  1  0  0  0
 22 24  1  0  0  0
 22 26  2  0  0  0
 23 25  2  0  0  0
 23 44  1  0  0  0
 24 27  1  0  0  0
 25 26  1  0  0  0
 25 45  1  0  0  0
 26 46  1  0  0  0
 27 47  1  0  0  0
 27 48  1  0  0  0
 27 49  1  0  0  0
M  END
> <s_m_entry_id>
31863

> <s_m_entry_name>
dock_pv.126

> <s_m_Source_Path>
/home/csk/Desktop/cluster/DUD-E-result/src

> <s_m_Source_File>
dock_pv.maegz

> <i_m_Source_File_Index>
126

> <chembl_id>
CHEMBL355322

> <chembl_pref_name>
None

> <i_lp_mmshare_version>
53161

> <r_lp_tautomer_probability>
1

> <s_lp_Force_Field>
OPLS_2005

> <r_lp_Energy>
37.485528

> <b_lp_Chiralities_Consistent>
1

> <s_lp_Variant>
CHEMBL267_lig434-1

> <s_i_glide_gridfile>
glide-grid_3el8

> <i_i_glide_lignum>
517

> <i_i_glide_rotatable_bonds>
5

> <r_i_docking_score>
-8.23623604614984

> <r_i_glide_ligand_efficiency>
-0.305045779487031

> <r_i_glide_ligand_efficiency_sa>
-0.915137337455713

> <r_i_glide_ligand_efficiency_ln>
-1.91725996658029

> <r_i_glide_gscore>
-8.23623604614984

> <r_i_glide_lipo>
-2.74602154811179

> <r_i_glide_hbond>
-0.408834718292888

> <r_i_glide_metal>
0

> <r_i_glide_rewards>
-2.88542917352191

> <r_i_glide_evdw>
-40.5447883605957

> <r_i_glide_ecoul>
-3.99186301231384

> <r_i_glide_erotb>
0.430068263653603

> <r_i_glide_esite>
0

> <r_i_glide_emodel>
-66.0655183855733

> <r_i_glide_energy>
-44.5366513729095

> <r_i_glide_einternal>
2.96726274490356

> <i_i_glide_confnum>
13

> <i_i_glide_posenum>
240

> <r_i_glide_eff_state_penalty>
0

> <s_user_duplicate_titles>
CHEMBL267_lig434,281736

> <i_f3d_flags>
0

> <s_m_subgroup_title>
dock_pv

> <s_m_subgroupid>
dock_pv

> <b_m_subgroup_collapsed>
1

$$$$
CHEMBL267_lig1529
                    3D
 Schrodinger Suite 2021-1.
 39 42  0  0  1  0            999 V2000
    7.4771    6.5392    7.5885 N   0  0  0  0  0  0
    7.8284    7.4943    6.6948 C   0  0  0  0  0  0
    7.0240    8.4115    6.1022 N   0  0  0  0  0  0
    6.1762    6.5044    7.9769 C   0  0  0  0  0  0
    5.2327    7.4268    7.4675 C   0  0  0  0  0  0
    5.7432    8.3350    6.4909 C   0  0  0  0  0  0
    4.6771    9.0797    6.0009 N   0  0  0  0  0  0
    3.5408    8.6661    6.6631 C   0  0  0  0  0  0
    3.8218    7.6891    7.6026 C   0  0  0  0  0  0
    2.8394    7.0474    8.5160 C   0  0  0  0  0  0
    1.6372    6.5540    8.0044 C   0  0  0  0  0  0
    0.7185    5.9450    8.8540 C   0  0  0  0  0  0
    0.9993    5.8377   10.2136 C   0  0  0  0  0  0
    2.1969    6.3281   10.7290 C   0  0  0  0  0  0
    3.1195    6.9313    9.8791 C   0  0  0  0  0  0
    5.7983    5.4372    8.7874 N   0  0  0  0  0  0
    4.7049   10.1324    4.9729 C   0  0  0  0  0  0
    5.6518   11.3047    5.3233 C   0  0  0  0  0  0
    6.6274   11.4245    4.1483 C   0  0  0  0  0  0
    5.8941   10.7979    2.9621 C   0  0  0  0  0  0
    5.1334    9.6246    3.5820 C   0  0  0  0  0  0
    8.8679    7.5140    6.3982 H   0  0  0  0  0  0
    2.5929    9.1268    6.4278 H   0  0  0  0  0  0
    1.4174    6.6306    6.9487 H   0  0  0  0  0  0
   -0.2064    5.5537    8.4583 H   0  0  0  0  0  0
    0.2834    5.3642   10.8707 H   0  0  0  0  0  0
    2.4143    6.2384   11.7827 H   0  0  0  0  0  0
    4.0483    7.3080   10.2816 H   0  0  0  0  0  0
    4.8370    5.3591    9.0889 H   0  0  0  0  0  0
    6.5078    4.7802    9.0864 H   0  0  0  0  0  0
    3.6891   10.5308    4.9252 H   0  0  0  0  0  0
    5.0757   12.2260    5.4246 H   0  0  0  0  0  0
    6.1837   11.1739    6.2688 H   0  0  0  0  0  0
    6.9207   12.4584    3.9565 H   0  0  0  0  0  0
    7.5372   10.8603    4.3636 H   0  0  0  0  0  0
    5.1930   11.5137    2.5283 H   0  0  0  0  0  0
    6.5800   10.4874    2.1727 H   0  0  0  0  0  0
    5.8168    8.7759    3.6537 H   0  0  0  0  0  0
    4.2855    9.3176    2.9701 H   0  0  0  0  0  0
  1  2  2  0  0  0
  1  4  1  0  0  0
  2  3  1  0  0  0
  2 22  1  0  0  0
  3  6  2  0  0  0
  4  5  2  0  0  0
  4 16  1  0  0  0
  5  6  1  0  0  0
  5  9  1  0  0  0
  6  7  1  0  0  0
  7 17  1  0  0  0
  7  8  1  0  0  0
  8  9  2  0  0  0
  8 23  1  0  0  0
  9 10  1  0  0  0
 10 11  2  0  0  0
 10 15  1  0  0  0
 11 12  1  0  0  0
 11 24  1  0  0  0
 12 13  2  0  0  0
 12 25  1  0  0  0
 13 14  1  0  0  0
 13 26  1  0  0  0
 14 15  2  0  0  0
 14 27  1  0  0  0
 15 28  1  0  0  0
 16 29  1  0  0  0
 16 30  1  0  0  0
 17 18  1  0  0  0
 17 21  1  0  0  0
 17 31  1  0  0  0
 18 19  1  0  0  0
 18 32  1  0  0  0
 18 33  1  0  0  0
 19 20  1  0  0  0
 19 34  1  0  0  0
 19 35  1  0  0  0
 20 21  1  0  0  0
 20 36  1  0  0  0
 20 37  1  0  0  0
 21 38  1  0  0  0
 21 39  1  0  0  0
M  END
> <s_m_entry_id>
31864

> <s_m_entry_name>
dock_pv.127

> <s_m_Source_Path>
/home/csk/Desktop/cluster/DUD-E-result/src

> <s_m_Source_File>
dock_pv.maegz

> <i_m_Source_File_Index>
127

> <chembl_id>
CHEMBL352954

> <chembl_pref_name>
None

> <i_lp_mmshare_version>
53161

> <r_lp_tautomer_probability>
1

> <s_lp_Force_Field>
OPLS_2005

> <r_lp_Energy>
33.925359

> <b_lp_Chiralities_Consistent>
1

> <s_lp_Variant>
CHEMBL267_lig1529-1

> <s_i_glide_gridfile>
glide-grid_3el8

> <i_i_glide_lignum>
1710

> <i_i_glide_rotatable_bonds>
2

> <r_i_docking_score>
-8.22963468555692

> <r_i_glide_ligand_efficiency>
-0.391887365978901

> <r_i_glide_ligand_efficiency_sa>
-1.08118752732027

> <r_i_glide_ligand_efficiency_ln>
-2.03476054646126

> <r_i_glide_gscore>
-8.22963468555692

> <r_i_glide_lipo>
-2.50125810773001

> <r_i_glide_hbond>
-0.391185161431993

> <r_i_glide_metal>
0

> <r_i_glide_rewards>
-3.3741554665148

> <r_i_glide_evdw>
-35.0307998657227

> <r_i_glide_ecoul>
-4.51178503036499

> <r_i_glide_erotb>
0.46527179796076

> <r_i_glide_esite>
0

> <r_i_glide_emodel>
-58.061035099148

> <r_i_glide_energy>
-39.5425848960876

> <r_i_glide_einternal>
0.340166240930557

> <i_i_glide_confnum>
17

> <i_i_glide_posenum>
393

> <r_i_glide_eff_state_penalty>
0

> <s_user_duplicate_titles>
CHEMBL267_lig1529,282344

> <i_f3d_flags>
0

> <s_m_subgroup_title>
dock_pv

> <s_m_subgroupid>
dock_pv

> <b_m_subgroup_collapsed>
1

$$$$
CHEMBL267_lig1289
                    3D
 Schrodinger Suite 2021-1.
 43 46  0  0  1  0            999 V2000
    5.7290   11.3420    4.6571 C   0  0  0  0  0  0
    5.9594   12.4728    3.8587 C   0  0  0  0  0  0
    7.2118   12.7497    3.3304 C   0  0  0  0  0  0
    8.3049   11.9281    3.5749 C   0  0  0  0  0  0
    6.8156   10.4783    4.9524 C   0  0  0  0  0  0
    8.0955   10.8065    4.3859 C   0  0  0  0  0  0
    8.9862    9.8369    4.7880 N   0  0  0  0  0  0
    8.3169    8.9276    5.5621 C   0  0  0  0  0  0
    6.9797    9.2608    5.7375 C   0  0  0  0  0  0
    5.9348    8.5692    6.5120 C   0  0  0  0  0  0
    5.9035    7.4593    7.2997 C   0  0  0  0  0  0
    6.9978    6.5890    7.6621 C   0  0  0  0  0  0
    6.3970    5.6428    8.3876 N   0  0  0  0  0  0
    5.1096    5.8376    8.6241 N   0  0  0  0  0  0
    4.7795    6.8749    7.9880 C   0  0  0  0  0  0
    8.1991    6.6370    7.4396 O   0  0  0  0  0  0
    3.3616    7.2525    7.9879 C   0  0  0  0  0  0
    2.5701    7.8370    6.5456 S   0  0  0  0  0  0
    1.0469    7.9138    7.3001 N   0  0  0  0  0  0
    1.1652    7.4369    8.5874 N   0  0  0  0  0  0
    2.3784    7.0984    8.9717 C   0  0  0  0  0  0
    2.5001    6.5782   10.3915 C   0  0  0  0  0  0
   10.4061    9.7839    4.4651 C   0  0  0  0  0  0
    4.4935   10.9996    5.1801 O   0  0  0  0  0  0
    3.3623   11.8099    4.8590 C   0  0  0  0  0  0
    2.0751   11.1187    5.3148 C   0  0  0  0  0  0
    5.1655   13.1649    3.6256 H   0  0  0  0  0  0
    7.3386   13.6301    2.7158 H   0  0  0  0  0  0
    9.2729   12.1601    3.1554 H   0  0  0  0  0  0
    8.9058    8.1038    5.9207 H   0  0  0  0  0  0
    4.9965    9.0834    6.4091 H   0  0  0  0  0  0
    6.8476    4.8495    8.8264 H   0  0  0  0  0  0
    3.5336    6.5347   10.7345 H   0  0  0  0  0  0
    1.9644    7.1972   11.1107 H   0  0  0  0  0  0
    2.1002    5.5676   10.4785 H   0  0  0  0  0  0
   10.5367    9.8360    3.3833 H   0  0  0  0  0  0
   10.9120   10.6328    4.9257 H   0  0  0  0  0  0
   10.8521    8.8588    4.8339 H   0  0  0  0  0  0
    3.4564   12.7824    5.3447 H   0  0  0  0  0  0
    3.2928   11.9763    3.7824 H   0  0  0  0  0  0
    1.2074   11.7545    5.1410 H   0  0  0  0  0  0
    1.9169   10.1926    4.7624 H   0  0  0  0  0  0
    2.1044   10.8763    6.3761 H   0  0  0  0  0  0
  1  5  2  0  0  0
  1 24  1  0  0  0
  1  2  1  0  0  0
  2  3  2  0  0  0
  2 27  1  0  0  0
  3  4  1  0  0  0
  3 28  1  0  0  0
  4  6  2  0  0  0
  4 29  1  0  0  0
  5  9  1  0  0  0
  5  6  1  0  0  0
  6  7  1  0  0  0
  7  8  1  0  0  0
  7 23  1  0  0  0
  8  9  2  0  0  0
  8 30  1  0  0  0
  9 10  1  0  0  0
 10 11  2  0  0  0
 10 31  1  0  0  0
 11 15  1  0  0  0
 11 12  1  0  0  0
 12 13  1  0  0  0
 12 16  2  0  0  0
 13 14  1  0  0  0
 13 32  1  0  0  0
 14 15  2  0  0  0
 15 17  1  0  0  0
 17 18  1  0  0  0
 17 21  2  0  0  0
 18 19  1  0  0  0
 19 20  2  0  0  0
 20 21  1  0  0  0
 21 22  1  0  0  0
 22 33  1  0  0  0
 22 34  1  0  0  0
 22 35  1  0  0  0
 23 36  1  0  0  0
 23 37  1  0  0  0
 23 38  1  0  0  0
 24 25  1  0  0  0
 25 26  1  0  0  0
 25 39  1  0  0  0
 25 40  1  0  0  0
 26 41  1  0  0  0
 26 42  1  0  0  0
 26 43  1  0  0  0
M  END
> <s_m_entry_id>
31865

> <s_m_entry_name>
dock_pv.128

> <s_m_Source_Path>
/home/csk/Desktop/cluster/DUD-E-result/src

> <s_m_Source_File>
dock_pv.maegz

> <i_m_Source_File_Index>
128

> <chembl_id>
CHEMBL398610

> <chembl_pref_name>
None

> <i_lp_mmshare_version>
53161

> <r_lp_tautomer_probability>
1

> <s_lp_Force_Field>
OPLS_2005

> <r_lp_Energy>
35.591599

> <b_lp_Chiralities_Consistent>
1

> <s_lp_Variant>
CHEMBL267_lig1289-1

> <s_i_glide_gridfile>
glide-grid_3el8

> <i_i_glide_lignum>
1442

> <i_i_glide_rotatable_bonds>
4

> <r_i_docking_score>
-8.22514662311486

> <r_i_glide_ligand_efficiency>
-0.316351793196725

> <r_i_glide_ligand_efficiency_sa>
-0.937190942561101

> <r_i_glide_ligand_efficiency_ln>
-1.93164869553114

> <r_i_glide_gscore>
-8.22514662311486

> <r_i_glide_lipo>
-2.7903264248535

> <r_i_glide_hbond>
-0.608

> <r_i_glide_metal>
0

> <r_i_glide_rewards>
-2.49715033582606

> <r_i_glide_evdw>
-35.160472869873

> <r_i_glide_ecoul>
-5.77865123748779

> <r_i_glide_erotb>
0.299573147054886

> <r_i_glide_esite>
-0.00442168037335749

> <r_i_glide_emodel>
-61.3414287595826

> <r_i_glide_energy>
-40.9391241073608

> <r_i_glide_einternal>
0.336283653974533

> <i_i_glide_confnum>
22

> <i_i_glide_posenum>
62

> <r_i_glide_eff_state_penalty>
0

> <s_user_duplicate_titles>
CHEMBL267_lig1289,415776

> <i_f3d_flags>
0

> <s_m_subgroup_title>
dock_pv

> <s_m_subgroupid>
dock_pv

> <b_m_subgroup_collapsed>
1

$$$$
CHEMBL267_lig1488
                    3D
 Schrodinger Suite 2021-1.
 40 43  0  0  1  0            999 V2000
    7.3988    6.5501    7.5880 N   0  0  0  0  0  0
    7.7607    7.5054    6.7007 C   0  0  0  0  0  0
    6.9602    8.4228    6.1049 N   0  0  0  0  0  0
    6.0971    6.5200    7.9712 C   0  0  0  0  0  0
    5.1542    7.4369    7.4505 C   0  0  0  0  0  0
    5.6716    8.3483    6.4783 C   0  0  0  0  0  0
    4.6114    9.1071    5.9884 N   0  0  0  0  0  0
    3.4713    8.6844    6.6462 C   0  0  0  0  0  0
    3.7390    7.6915    7.5717 C   0  0  0  0  0  0
    2.7413    7.0079    8.4487 C   0  0  0  0  0  0
    2.8453    7.0281    9.8505 C   0  0  0  0  0  0
    1.8988    6.3258   10.6162 C   0  0  0  0  0  0
    0.8488    5.6474    9.9991 C   0  0  0  0  0  0
    0.7371    5.6532    8.6115 C   0  0  0  0  0  0
    1.6814    6.3273    7.8391 C   0  0  0  0  0  0
    4.6348   10.0909    4.9691 C   0  0  0  0  0  0
    3.8827   11.2630    5.1202 C   0  0  0  0  0  0
    3.9324   12.2527    4.1419 C   0  0  0  0  0  0
    4.7362   12.0743    3.0182 C   0  0  0  0  0  0
    5.4954   10.9169    2.8643 C   0  0  0  0  0  0
    5.4496    9.9257    3.8411 C   0  0  0  0  0  0
    5.7228    5.4593    8.7880 N   0  0  0  0  0  0
    3.8639    7.7788   10.4011 O   0  0  0  0  0  0
    4.1983    7.6300   11.7752 C   0  0  0  0  0  0
    8.8020    7.5216    6.4101 H   0  0  0  0  0  0
    2.5225    9.1360    6.3951 H   0  0  0  0  0  0
    1.9504    6.3124   11.6938 H   0  0  0  0  0  0
    0.1152    5.1238   10.5960 H   0  0  0  0  0  0
   -0.0826    5.1329    8.1364 H   0  0  0  0  0  0
    1.5923    6.3122    6.7622 H   0  0  0  0  0  0
    3.2655   11.4187    5.9928 H   0  0  0  0  0  0
    3.3530   13.1574    4.2536 H   0  0  0  0  0  0
    4.7748   12.8417    2.2578 H   0  0  0  0  0  0
    6.1179   10.7949    1.9903 H   0  0  0  0  0  0
    6.0400    9.0308    3.7079 H   0  0  0  0  0  0
    4.7713    5.4049    9.1250 H   0  0  0  0  0  0
    6.4334    4.8061    9.0943 H   0  0  0  0  0  0
    4.9851    8.3514   11.9880 H   0  0  0  0  0  0
    3.3980    7.8348   12.4774 H   0  0  0  0  0  0
    4.5963    6.6377   11.9827 H   0  0  0  0  0  0
  1  2  2  0  0  0
  1  4  1  0  0  0
  2  3  1  0  0  0
  2 25  1  0  0  0
  3  6  2  0  0  0
  4  5  2  0  0  0
  4 22  1  0  0  0
  5  9  1  0  0  0
  5  6  1  0  0  0
  6  7  1  0  0  0
  7  8  1  0  0  0
  7 16  1  0  0  0
  8  9  2  0  0  0
  8 26  1  0  0  0
  9 10  1  0  0  0
 10 15  1  0  0  0
 10 11  2  0  0  0
 11 12  1  0  0  0
 11 23  1  0  0  0
 12 13  2  0  0  0
 12 27  1  0  0  0
 13 14  1  0  0  0
 13 28  1  0  0  0
 14 15  2  0  0  0
 14 29  1  0  0  0
 15 30  1  0  0  0
 16 17  2  0  0  0
 16 21  1  0  0  0
 17 18  1  0  0  0
 17 31  1  0  0  0
 18 19  2  0  0  0
 18 32  1  0  0  0
 19 20  1  0  0  0
 19 33  1  0  0  0
 20 21  2  0  0  0
 20 34  1  0  0  0
 21 35  1  0  0  0
 22 36  1  0  0  0
 22 37  1  0  0  0
 23 24  1  0  0  0
 24 38  1  0  0  0
 24 39  1  0  0  0
 24 40  1  0  0  0
M  END
> <s_m_entry_id>
31866

> <s_m_entry_name>
dock_pv.129

> <s_m_Source_Path>
/home/csk/Desktop/cluster/DUD-E-result/src

> <s_m_Source_File>
dock_pv.maegz

> <i_m_Source_File_Index>
129

> <chembl_id>
CHEMBL511495

> <chembl_pref_name>
None

> <i_lp_mmshare_version>
53161

> <r_lp_tautomer_probability>
1

> <s_lp_Force_Field>
OPLS_2005

> <r_lp_Energy>
20.787087

> <b_lp_Chiralities_Consistent>
1

> <s_lp_Variant>
CHEMBL267_lig1488-1

> <s_i_glide_gridfile>
glide-grid_3el8

> <i_i_glide_lignum>
1669

> <i_i_glide_rotatable_bonds>
3

> <r_i_docking_score>
-8.215533768225

> <r_i_glide_ligand_efficiency>
-0.342313907009375

> <r_i_glide_ligand_efficiency_sa>
-0.987404169543035

> <r_i_glide_ligand_efficiency_ln>
-1.96635421701611

> <r_i_glide_gscore>
-8.215533768225

> <r_i_glide_lipo>
-2.63385214684196

> <r_i_glide_hbond>
-0.309587100073972

> <r_i_glide_metal>
0

> <r_i_glide_rewards>
-3.12937052344414

> <r_i_glide_evdw>
-37.8079986572266

> <r_i_glide_ecoul>
-4.16222286224365

> <r_i_glide_erotb>
0.372009364332939

> <r_i_glide_esite>
0

> <r_i_glide_emodel>
-60.9039630109726

> <r_i_glide_energy>
-41.9702215194702

> <r_i_glide_einternal>
1.21875631809235

> <i_i_glide_confnum>
16

> <i_i_glide_posenum>
210

> <r_i_glide_eff_state_penalty>
0

> <s_user_duplicate_titles>
CHEMBL267_lig1488

> <i_f3d_flags>
0

> <s_m_subgroup_title>
dock_pv

> <s_m_subgroupid>
dock_pv

> <b_m_subgroup_collapsed>
1

$$$$
CHEMBL267_lig1527
                    3D
 Schrodinger Suite 2021-1.
 41 43  0  0  1  0            999 V2000
    7.7680    7.0032    7.5714 N   0  0  0  0  0  0
    8.3812    7.8576    6.7203 C   0  0  0  0  0  0
    7.7993    8.7234    5.8560 N   0  0  0  0  0  0
    6.4159    7.0300    7.5894 C   0  0  0  0  0  0
    5.6760    7.9156    6.7813 C   0  0  0  0  0  0
    6.4603    8.7246    5.9131 C   0  0  0  0  0  0
    5.5987    9.4648    5.1212 N   0  0  0  0  0  0
    4.3074    9.1127    5.4657 C   0  0  0  0  0  0
    4.2920    8.2335    6.5329 C   0  0  0  0  0  0
    3.0821    7.7068    7.2306 C   0  0  0  0  0  0
    1.9599    7.3092    6.4948 C   0  0  0  0  0  0
    0.8544    6.7646    7.1474 C   0  0  0  0  0  0
    0.8723    6.6146    8.5314 C   0  0  0  0  0  0
    1.9773    7.0267    9.2700 C   0  0  0  0  0  0
    3.0800    7.5761    8.6220 C   0  0  0  0  0  0
    5.8018    6.0709    8.3868 N   0  0  0  0  0  0
    6.0362   10.3769    4.0540 C   0  0  0  0  0  0
    4.9092   11.1599    3.3181 C   0  0  0  0  0  0
    5.4606   11.9022    2.0782 C   0  0  0  0  0  0
    4.1341   12.1493    4.2303 C   0  0  0  0  0  0
    5.0005   13.1264    4.7846 O   0  0  0  0  0  0
    6.1270   11.0337    1.1840 O   0  0  0  0  0  0
   -0.2020    6.0729    9.1867 O   0  0  0  0  0  0
    9.4617    7.8348    6.7102 H   0  0  0  0  0  0
    3.4611    9.5337    4.9447 H   0  0  0  0  0  0
    1.9422    7.4143    5.4220 H   0  0  0  0  0  0
   -0.0072    6.4586    6.5738 H   0  0  0  0  0  0
    1.9819    6.9206   10.3441 H   0  0  0  0  0  0
    3.9294    7.8890    9.2115 H   0  0  0  0  0  0
    4.7940    6.0137    8.4037 H   0  0  0  0  0  0
    6.3778    5.4411    8.9264 H   0  0  0  0  0  0
    6.7514   11.0807    4.4891 H   0  0  0  0  0  0
    6.5864    9.7646    3.3329 H   0  0  0  0  0  0
    4.1875   10.4336    2.9381 H   0  0  0  0  0  0
    4.6694   12.4410    1.5503 H   0  0  0  0  0  0
    6.1849   12.6588    2.3862 H   0  0  0  0  0  0
    3.3474   12.6612    3.6604 H   0  0  0  0  0  0
    3.6673   11.6599    5.0854 H   0  0  0  0  0  0
    5.3071   13.7101    4.0784 H   0  0  0  0  0  0
    6.1917   11.4755    0.3161 H   0  0  0  0  0  0
   -0.9364    5.8375    8.5994 H   0  0  0  0  0  0
  1  2  2  0  0  0
  1  4  1  0  0  0
  2  3  1  0  0  0
  2 24  1  0  0  0
  3  6  2  0  0  0
  4  5  2  0  0  0
  4 16  1  0  0  0
  5  9  1  0  0  0
  5  6  1  0  0  0
  6  7  1  0  0  0
  7 17  1  0  0  0
  7  8  1  0  0  0
  8  9  2  0  0  0
  8 25  1  0  0  0
  9 10  1  0  0  0
 10 15  1  0  0  0
 10 11  2  0  0  0
 11 12  1  0  0  0
 11 26  1  0  0  0
 12 13  2  0  0  0
 12 27  1  0  0  0
 13 14  1  0  0  0
 13 23  1  0  0  0
 14 15  2  0  0  0
 14 28  1  0  0  0
 15 29  1  0  0  0
 16 30  1  0  0  0
 16 31  1  0  0  0
 17 18  1  0  0  0
 17 32  1  0  0  0
 17 33  1  0  0  0
 18 19  1  0  0  0
 18 20  1  0  0  0
 18 34  1  0  0  0
 19 22  1  0  0  0
 19 35  1  0  0  0
 19 36  1  0  0  0
 20 21  1  0  0  0
 20 37  1  0  0  0
 20 38  1  0  0  0
 21 39  1  0  0  0
 22 40  1  0  0  0
 23 41  1  0  0  0
M  END
> <s_m_entry_id>
31867

> <s_m_entry_name>
dock_pv.130

> <s_m_Source_Path>
/home/csk/Desktop/cluster/DUD-E-result/src

> <s_m_Source_File>
dock_pv.maegz

> <i_m_Source_File_Index>
130

> <chembl_id>
CHEMBL471914

> <chembl_pref_name>
None

> <i_lp_mmshare_version>
53161

> <r_lp_tautomer_probability>
0.999999999997365

> <s_lp_Force_Field>
OPLS_2005

> <r_lp_Energy>
15.820866

> <b_lp_Chiralities_Consistent>
1

> <s_lp_Variant>
CHEMBL267_lig1527-1

> <s_i_glide_gridfile>
glide-grid_3el8

> <i_i_glide_lignum>
1708

> <i_i_glide_rotatable_bonds>
8

> <r_i_docking_score>
-8.21229129505909

> <r_i_glide_ligand_efficiency>
-0.357056143263439

> <r_i_glide_ligand_efficiency_sa>
-1.01542017471876

> <r_i_glide_ligand_efficiency_ln>
-1.98580650008574

> <r_i_glide_gscore>
-8.21229129505909

> <r_i_glide_lipo>
-1.84673793954707

> <r_i_glide_hbond>
-0.731355241028928

> <r_i_glide_metal>
0

> <r_i_glide_rewards>
-3.06041983571062

> <r_i_glide_evdw>
-32.1603546142578

> <r_i_glide_ecoul>
-12.7087345123291

> <r_i_glide_erotb>
0.940549628789774

> <r_i_glide_esite>
0

> <r_i_glide_emodel>
-66.1002096390595

> <r_i_glide_energy>
-44.8690891265869

> <r_i_glide_einternal>
3.61801362037659

> <i_i_glide_confnum>
30

> <i_i_glide_posenum>
95

> <r_i_glide_eff_state_penalty>
0

> <s_user_duplicate_titles>
CHEMBL267_lig1527,459932

> <i_f3d_flags>
0

> <s_m_subgroup_title>
dock_pv

> <s_m_subgroupid>
dock_pv

> <b_m_subgroup_collapsed>
1

$$$$
CHEMBL267_lig1033
                    3D
 Schrodinger Suite 2021-1.
 51 54  0  0  1  0            999 V2000
    6.1608    9.7851    5.5787 C   0  0  0  0  0  0
    7.4954    9.3600    5.5099 C   0  0  0  0  0  0
    7.8785    8.1880    6.1832 C   0  0  0  0  0  0
    5.2143    9.0373    6.2799 C   0  0  0  0  0  0
    5.5900    7.8777    6.9968 C   0  0  0  0  0  0
    6.9472    7.4401    6.9388 C   0  0  0  0  0  0
    7.3659    6.3140    7.5880 N   0  0  0  0  0  0
    6.4199    5.6376    8.2881 C   0  0  0  0  0  0
    5.1251    5.9778    8.4412 N   0  0  0  0  0  0
    4.7117    7.0988    7.8049 C   0  0  0  0  0  0
    3.3586    7.4467    7.9513 N   0  0  0  0  0  0
    2.4237    6.8896    8.8351 C   0  0  0  0  0  0
    1.2711    6.2886    8.3217 C   0  0  0  0  0  0
    0.3134    5.7546    9.1850 C   0  0  0  0  0  0
    0.4951    5.8370   10.5642 C   0  0  0  0  0  0
    1.6301    6.4619   11.0822 C   0  0  0  0  0  0
    2.5973    6.9898   10.2236 C   0  0  0  0  0  0
    8.3849   10.1408    4.7880 O   0  0  0  0  0  0
    5.7116   11.1163    4.9803 C   0  0  0  0  0  0
    5.3460   11.0298    3.5600 N   0  0  1  0  0  0
    9.7671    9.7901    4.7550 C   0  0  0  0  0  0
    4.2832   11.9263    3.0673 C   0  0  2  0  0  0
    4.4030   11.8175    1.5343 C   0  0  0  0  0  0
    5.8714   11.4760    1.2600 C   0  0  0  0  0  0
    6.4654   11.1587    2.6322 C   0  0  0  0  0  0
    1.7979    6.6370   12.7880 Cl  0  0  0  0  0  0
    4.3638   13.3984    3.5746 C   0  0  0  0  0  0
    3.5089   13.8369    4.3398 O   0  0  0  0  0  0
    5.3884   14.1598    3.1880 N   0  0  0  0  0  0
    3.6801    7.6241   10.7393 F   0  0  0  0  0  0
    8.8986    7.8369    6.1560 H   0  0  0  0  0  0
    4.1914    9.3812    6.3244 H   0  0  0  0  0  0
    6.7109    4.7272    8.7815 H   0  0  0  0  0  0
    3.0248    8.1922    7.3616 H   0  0  0  0  0  0
    1.1183    6.2246    7.2538 H   0  0  0  0  0  0
   -0.5781    5.2889    8.7880 H   0  0  0  0  0  0
   -0.2617    5.4413   11.2277 H   0  0  0  0  0  0
    6.4832   11.8709    5.1376 H   0  0  0  0  0  0
    4.8484   11.4610    5.5531 H   0  0  0  0  0  0
   10.3007   10.4934    4.1159 H   0  0  0  0  0  0
   10.2224    9.8358    5.7447 H   0  0  0  0  0  0
    9.9237    8.7920    4.3455 H   0  0  0  0  0  0
    3.3148   11.5463    3.3983 H   0  0  0  0  0  0
    3.7375   11.0371    1.1634 H   0  0  0  0  0  0
    4.1020   12.7261    1.0084 H   0  0  0  0  0  0
    5.9477   10.6370    0.5719 H   0  0  0  0  0  0
    6.3913   12.3222    0.8073 H   0  0  0  0  0  0
    7.0348   10.2369    2.6234 H   0  0  0  0  0  0
    7.1763   11.9276    2.9423 H   0  0  0  0  0  0
    5.4977   15.0882    3.5706 H   0  0  0  0  0  0
    6.0752   13.7948    2.5472 H   0  0  0  0  0  0
  1  2  1  0  0  0
  1 19  1  0  0  0
  1  4  2  0  0  0
  2 18  1  0  0  0
  2  3  2  0  0  0
  3  6  1  0  0  0
  3 31  1  0  0  0
  4  5  1  0  0  0
  4 32  1  0  0  0
  5 10  2  0  0  0
  5  6  1  0  0  0
  6  7  2  0  0  0
  7  8  1  0  0  0
  8  9  2  0  0  0
  8 33  1  0  0  0
  9 10  1  0  0  0
 10 11  1  0  0  0
 11 12  1  0  0  0
 11 34  1  0  0  0
 12 17  2  0  0  0
 12 13  1  0  0  0
 13 14  2  0  0  0
 13 35  1  0  0  0
 14 15  1  0  0  0
 14 36  1  0  0  0
 15 16  2  0  0  0
 15 37  1  0  0  0
 16 17  1  0  0  0
 16 26  1  0  0  0
 17 30  1  0  0  0
 18 21  1  0  0  0
 19 20  1  0  0  0
 19 38  1  0  0  0
 19 39  1  0  0  0
 20 22  1  0  0  0
 20 25  1  0  0  0
 21 40  1  0  0  0
 21 41  1  0  0  0
 21 42  1  0  0  0
 22 23  1  0  0  0
 22 27  1  0  0  0
 22 43  1  0  0  0
 23 24  1  0  0  0
 23 44  1  0  0  0
 23 45  1  0  0  0
 24 25  1  0  0  0
 24 46  1  0  0  0
 24 47  1  0  0  0
 25 48  1  0  0  0
 25 49  1  0  0  0
 27 28  2  0  0  0
 27 29  1  0  0  0
 29 50  1  0  0  0
 29 51  1  0  0  0
M  END
> <s_m_entry_id>
31868

> <s_m_entry_name>
dock_pv.131

> <s_m_Source_Path>
/home/csk/Desktop/cluster/DUD-E-result/src

> <s_m_Source_File>
dock_pv.maegz

> <i_m_Source_File_Index>
131

> <chembl_id>
CHEMBL208292

> <chembl_pref_name>
None

> <i_lp_mmshare_version>
53161

> <r_lp_tautomer_probability>
0.999978000241998

> <s_lp_Force_Field>
OPLS_2005

> <r_lp_Energy>
40.211882

> <b_lp_Chiralities_Consistent>
1

> <s_lp_Variant>
CHEMBL267_lig1033-1

> <s_i_glide_gridfile>
glide-grid_3el8

> <i_i_glide_lignum>
1175

> <i_i_glide_rotatable_bonds>
6

> <r_i_docking_score>
-8.18817075459956

> <r_i_glide_ligand_efficiency>
-0.272939025153319

> <r_i_glide_ligand_efficiency_sa>
-0.848085010138248

> <r_i_glide_ligand_efficiency_ln>
-1.86044161271113

> <r_i_glide_gscore>
-8.18817075459956

> <r_i_glide_lipo>
-3.21863583434342

> <r_i_glide_hbond>
-0.209209392239752

> <r_i_glide_metal>
0

> <r_i_glide_rewards>
-2.25686793064418

> <r_i_glide_evdw>
-39.9541664123535

> <r_i_glide_ecoul>
-6.23992824554443

> <r_i_glide_erotb>
0.430239960077135

> <r_i_glide_esite>
0

> <r_i_glide_emodel>
-64.7863638986868

> <r_i_glide_energy>
-46.1940946578979

> <r_i_glide_einternal>
9.93579292297363

> <i_i_glide_confnum>
4

> <i_i_glide_posenum>
289

> <r_i_glide_eff_state_penalty>
0

> <s_user_duplicate_titles>
CHEMBL267_lig1033

> <i_f3d_flags>
0

> <s_m_subgroup_title>
dock_pv

> <s_m_subgroupid>
dock_pv

> <b_m_subgroup_collapsed>
1

$$$$
CHEMBL267_lig3479
                    3D
 Schrodinger Suite 2021-1.
 49 53  0  0  1  0            999 V2000
    3.6870    7.2932   10.2039 S   0  0  0  0  0  0
    6.1481    9.5584    5.0752 O   0  0  0  0  0  0
    1.0331    9.0371    2.7880 N   0  0  0  0  0  0
    0.2242    5.5651   11.4972 N   0  0  0  0  0  0
    7.3984    7.0063    7.3515 N   0  0  0  0  0  0
    5.0742   12.2372    5.5976 N   0  0  0  0  0  0
    3.8217    6.7750    8.5333 C   0  0  0  0  0  0
    2.1938    6.3918   10.3936 C   0  0  0  0  0  0
    1.8008    5.7763    9.1764 C   0  0  0  0  0  0
    5.0120    7.2073    7.7476 C   0  0  0  0  0  0
    2.7403    6.0078    8.1391 C   0  0  0  0  0  0
    1.3981    9.4391    4.9651 C   0  0  0  0  0  0
    2.0161   10.4942    4.2021 C   0  0  0  0  0  0
    0.8429    8.5042    4.0386 C   0  0  0  0  0  0
    4.9290    8.1742    6.7391 C   0  0  0  0  0  0
    6.0918    8.5940    6.0638 C   0  0  0  0  0  0
    1.3971    6.2387   11.5366 C   0  0  0  0  0  0
    0.5862    5.0729    9.1524 C   0  0  0  0  0  0
    6.2617    6.6307    7.9885 C   0  0  0  0  0  0
    1.7187   10.2188    2.8804 C   0  0  0  0  0  0
    2.8808   11.6230    4.7286 C   0  0  0  0  0  0
    1.2867    9.1640    6.3374 C   0  0  0  0  0  0
    7.2976    7.9837    6.4180 C   0  0  0  0  0  0
    0.2504    7.3040    4.4415 C   0  0  0  0  0  0
   -0.1651    5.0130   10.3259 C   0  0  0  0  0  0
    4.1982   11.1055    5.3582 C   0  0  1  0  0  0
    4.9466   10.0570    4.4859 C   0  0  0  0  0  0
    0.6723    7.9835    6.7412 C   0  0  0  0  0  0
    0.2037    7.0602    5.8124 C   0  0  0  0  0  0
    0.7538    8.6255    1.8978 H   0  0  0  0  0  0
    5.9746   11.8806    5.8886 H   0  0  0  0  0  0
    5.2406   12.7238    4.7270 H   0  0  0  0  0  0
    2.5981    5.6183    7.1444 H   0  0  0  0  0  0
    3.9627    8.5857    6.5037 H   0  0  0  0  0  0
    1.6739    6.6775   12.4842 H   0  0  0  0  0  0
    0.2286    4.6048    8.2493 H   0  0  0  0  0  0
    6.3704    5.8539    8.7328 H   0  0  0  0  0  0
    1.9870   10.7507    1.9777 H   0  0  0  0  0  0
    3.1067   12.3111    3.9116 H   0  0  0  0  0  0
    2.3314   12.2143    5.4628 H   0  0  0  0  0  0
    1.6917    9.8390    7.0735 H   0  0  0  0  0  0
    8.2165    8.2659    5.9248 H   0  0  0  0  0  0
   -0.1476    6.5946    3.7301 H   0  0  0  0  0  0
   -1.1164    4.4982   10.3430 H   0  0  0  0  0  0
    3.9636   10.6794    6.3321 H   0  0  0  0  0  0
    4.3064    9.2118    4.2278 H   0  0  0  0  0  0
    5.2223   10.5099    3.5321 H   0  0  0  0  0  0
    0.5935    7.7614    7.7941 H   0  0  0  0  0  0
   -0.2018    6.1269    6.1694 H   0  0  0  0  0  0
  1  7  1  0  0  0
  1  8  1  0  0  0
  2 16  1  0  0  0
  2 27  1  0  0  0
  3 14  1  0  0  0
  3 20  1  0  0  0
  3 30  1  0  0  0
  4 17  1  0  0  0
  4 25  2  0  0  0
  5 19  2  0  0  0
  5 23  1  0  0  0
  6 26  1  0  0  0
  6 31  1  0  0  0
  6 32  1  0  0  0
  7 10  1  0  0  0
  7 11  2  0  0  0
  8  9  1  0  0  0
  8 17  2  0  0  0
  9 11  1  0  0  0
  9 18  2  0  0  0
 10 15  2  0  0  0
 10 19  1  0  0  0
 11 33  1  0  0  0
 12 13  1  0  0  0
 12 14  1  0  0  0
 12 22  2  0  0  0
 13 20  2  0  0  0
 13 21  1  0  0  0
 14 24  2  0  0  0
 15 16  1  0  0  0
 15 34  1  0  0  0
 16 23  2  0  0  0
 17 35  1  0  0  0
 18 25  1  0  0  0
 18 36  1  0  0  0
 19 37  1  0  0  0
 20 38  1  0  0  0
 21 26  1  0  0  0
 21 39  1  0  0  0
 21 40  1  0  0  0
 22 28  1  0  0  0
 22 41  1  0  0  0
 23 42  1  0  0  0
 24 29  1  0  0  0
 24 43  1  0  0  0
 25 44  1  0  0  0
 26 27  1  0  0  0
 26 45  1  0  0  0
 27 46  1  0  0  0
 27 47  1  0  0  0
 28 29  2  0  0  0
 28 48  1  0  0  0
 29 49  1  0  0  0
M  END
> <s_m_entry_id>
31869

> <s_m_entry_name>
dock_pv.132

> <s_m_Source_Path>
/home/csk/Desktop/cluster/DUD-E-result/src

> <s_m_Source_File>
dock_pv.maegz

> <i_m_Source_File_Index>
132

> <chembl_id>
CHEMBL1966524

> <chembl_pref_name>
None

> <i_lp_mmshare_version>
53161

> <r_lp_tautomer_probability>
1

> <s_lp_Force_Field>
OPLS_2005

> <r_lp_Energy>
21.902535

> <b_lp_Chiralities_Consistent>
1

> <s_lp_Variant>
CHEMBL267_lig3479-2

> <s_i_glide_gridfile>
glide-grid_3el8

> <i_i_glide_lignum>
4177

> <i_i_glide_rotatable_bonds>
6

> <r_i_docking_score>
-8.16673883953989

> <r_i_glide_ligand_efficiency>
-0.281611684122065

> <r_i_glide_ligand_efficiency_sa>
-0.86520031446682

> <r_i_glide_ligand_efficiency_ln>
-1.86997610362593

> <r_i_glide_gscore>
-8.16673883953989

> <r_i_glide_lipo>
-3.66128462121324

> <r_i_glide_hbond>
-0.32

> <r_i_glide_metal>
0

> <r_i_glide_rewards>
-1.57967004590085

> <r_i_glide_evdw>
-45.9800224304199

> <r_i_glide_ecoul>
-5.88691520690918

> <r_i_glide_erotb>
0.611132172806542

> <r_i_glide_esite>
-0.0348779426749602

> <r_i_glide_emodel>
-74.4745854287012

> <r_i_glide_energy>
-51.8669376373291

> <r_i_glide_einternal>
4.86242389678955

> <i_i_glide_confnum>
28

> <i_i_glide_posenum>
246

> <r_i_glide_eff_state_penalty>
0

> <s_user_duplicate_titles>
CHEMBL267_lig3479

> <i_f3d_flags>
0

> <s_m_subgroup_title>
dock_pv

> <s_m_subgroupid>
dock_pv

> <b_m_subgroup_collapsed>
1

$$$$
CHEMBL267_lig1858
                    3D
 Schrodinger Suite 2021-1.
 41 44  0  0  1  0            999 V2000
    7.7979    6.8021    7.2409 N   0  0  0  0  0  0
    8.0396    7.8371    6.3953 C   0  0  0  0  0  0
    7.1416    8.7161    5.8763 N   0  0  0  0  0  0
    6.5140    6.6369    7.6436 C   0  0  0  0  0  0
    5.5009    7.5201    7.2387 C   0  0  0  0  0  0
    5.8929    8.5173    6.3206 C   0  0  0  0  0  0
    4.7281    9.1821    5.9726 N   0  0  0  0  0  0
    3.6650    8.6784    6.6426 N   0  0  0  0  0  0
    4.1001    7.7360    7.4462 C   0  0  0  0  0  0
    3.1875    7.0567    8.4049 C   0  0  0  0  0  0
    2.1011    6.3006    7.9566 C   0  0  0  0  0  0
    1.2202    5.7161    8.8690 C   0  0  0  0  0  0
    1.3979    5.9215   10.2464 C   0  0  0  0  0  0
    2.5091    6.6372   10.6940 C   0  0  0  0  0  0
    3.4007    7.1979    9.7790 C   0  0  0  0  0  0
    6.2105    5.5035    8.3881 N   0  0  0  0  0  0
    0.4795    5.4508   11.1909 N   0  0  0  0  0  0
    0.1980    4.9399    8.3884 O   0  0  0  0  0  0
    4.5248   10.2660    5.0025 C   0  0  0  0  0  0
    5.3928   11.5110    5.3022 C   0  0  0  0  0  0
    6.2908   11.7025    4.0743 C   0  0  0  0  0  0
    5.5009   11.0781    2.9231 C   0  0  0  0  0  0
    4.8486    9.8448    3.5529 C   0  0  0  0  0  0
    9.0626    7.9594    6.0723 H   0  0  0  0  0  0
    1.9384    6.1644    6.8971 H   0  0  0  0  0  0
    2.6774    6.7816   11.7515 H   0  0  0  0  0  0
    4.2396    7.7725   10.1428 H   0  0  0  0  0  0
    5.2585    5.3598    8.6927 H   0  0  0  0  0  0
    6.9466    4.8631    8.6585 H   0  0  0  0  0  0
    0.6342    5.6992   12.1571 H   0  0  0  0  0  0
   -0.4643    5.2449   10.8923 H   0  0  0  0  0  0
   -0.3666    4.5931    9.0824 H   0  0  0  0  0  0
    3.4758   10.5615    5.0892 H   0  0  0  0  0  0
    4.7506   12.3852    5.4239 H   0  0  0  0  0  0
    5.9738   11.4301    6.2225 H   0  0  0  0  0  0
    6.5312   12.7518    3.8942 H   0  0  0  0  0  0
    7.2337   11.1699    4.2134 H   0  0  0  0  0  0
    4.7359   11.7729    2.5702 H   0  0  0  0  0  0
    6.1356   10.8298    2.0711 H   0  0  0  0  0  0
    5.5692    9.0257    3.5257 H   0  0  0  0  0  0
    3.9613    9.5252    3.0049 H   0  0  0  0  0  0
  1  2  2  0  0  0
  1  4  1  0  0  0
  2  3  1  0  0  0
  2 24  1  0  0  0
  3  6  2  0  0  0
  4  5  2  0  0  0
  4 16  1  0  0  0
  5  9  1  0  0  0
  5  6  1  0  0  0
  6  7  1  0  0  0
  7  8  1  0  0  0
  7 19  1  0  0  0
  8  9  2  0  0  0
  9 10  1  0  0  0
 10 15  1  0  0  0
 10 11  2  0  0  0
 11 12  1  0  0  0
 11 25  1  0  0  0
 12 13  2  0  0  0
 12 18  1  0  0  0
 13 14  1  0  0  0
 13 17  1  0  0  0
 14 15  2  0  0  0
 14 26  1  0  0  0
 15 27  1  0  0  0
 16 28  1  0  0  0
 16 29  1  0  0  0
 17 30  1  0  0  0
 17 31  1  0  0  0
 18 32  1  0  0  0
 19 20  1  0  0  0
 19 23  1  0  0  0
 19 33  1  0  0  0
 20 21  1  0  0  0
 20 34  1  0  0  0
 20 35  1  0  0  0
 21 22  1  0  0  0
 21 36  1  0  0  0
 21 37  1  0  0  0
 22 23  1  0  0  0
 22 38  1  0  0  0
 22 39  1  0  0  0
 23 40  1  0  0  0
 23 41  1  0  0  0
M  END
> <s_m_entry_id>
31870

> <s_m_entry_name>
dock_pv.133

> <s_m_Source_Path>
/home/csk/Desktop/cluster/DUD-E-result/src

> <s_m_Source_File>
dock_pv.maegz

> <i_m_Source_File_Index>
133

> <chembl_id>
CHEMBL1241487

> <chembl_pref_name>
None

> <i_lp_mmshare_version>
53161

> <r_lp_tautomer_probability>
1

> <s_lp_Force_Field>
OPLS_2005

> <r_lp_Energy>
31.861289

> <b_lp_Chiralities_Consistent>
1

> <s_lp_Variant>
CHEMBL267_lig1858-1

> <s_i_glide_gridfile>
glide-grid_3el8

> <i_i_glide_lignum>
2126

> <i_i_glide_rotatable_bonds>
3

> <r_i_docking_score>
-8.16409073719535

> <r_i_glide_ligand_efficiency>
-0.354960466834581

> <r_i_glide_ligand_efficiency_sa>
-1.00946034972851

> <r_i_glide_ligand_efficiency_ln>
-1.97415116813579

> <r_i_glide_gscore>
-8.16409073719535

> <r_i_glide_lipo>
-2.34050753399467

> <r_i_glide_hbond>
-0.409177231007031

> <r_i_glide_metal>
0

> <r_i_glide_rewards>
-3.12729336486901

> <r_i_glide_evdw>
-38.5312995910645

> <r_i_glide_ecoul>
-4.19915962219238

> <r_i_glide_erotb>
0.269326315557431

> <r_i_glide_esite>
0

> <r_i_glide_emodel>
-58.9806253241931

> <r_i_glide_energy>
-42.7304592132568

> <r_i_glide_einternal>
5.34136819839478

> <i_i_glide_confnum>
32

> <i_i_glide_posenum>
394

> <r_i_glide_eff_state_penalty>
0

> <s_user_duplicate_titles>
CHEMBL267_lig1858

> <i_f3d_flags>
0

> <s_m_subgroup_title>
dock_pv

> <s_m_subgroupid>
dock_pv

> <b_m_subgroup_collapsed>
1

$$$$
CHEMBL267_lig418
                    3D
 Schrodinger Suite 2021-1.
 43 46  0  0  1  0            999 V2000
    6.3835    8.7687    6.1899 C   0  0  0  0  0  0
    5.4808    9.6473    5.6125 N   0  0  0  0  0  0
    5.6536    7.8385    6.9902 C   0  0  0  0  0  0
    4.2549    8.1772    6.8635 C   0  0  0  0  0  0
    4.2154    9.2499    5.9877 C   0  0  0  0  0  0
    5.7939   10.7909    4.7453 C   0  0  2  0  0  0
    7.7152    8.7813    6.0397 N   0  0  0  0  0  0
    6.4489    6.8708    7.6439 C   0  0  0  0  0  0
    7.8007    6.8782    7.5510 N   0  0  0  0  0  0
    3.0700    7.5441    7.5088 C   0  0  0  0  0  0
    5.1205   11.8837    2.7725 N   0  0  2  0  0  0
    5.0924   12.1067    5.1209 C   0  0  0  0  0  0
    8.3531    7.8368    6.7723 C   0  0  0  0  0  0
    5.4182   10.5539    3.2822 C   0  0  0  0  0  0
    4.4020   12.5899    3.8304 C   0  0  2  0  0  0
    3.1073    7.1319    8.8441 C   0  0  0  0  0  0
    1.9156    7.3315    6.7477 C   0  0  0  0  0  0
    5.9031    5.8309    8.3880 N   0  0  0  0  0  0
    0.8698    6.2667    8.6350 C   0  0  0  0  0  0
    2.0088    6.4859    9.4049 C   0  0  0  0  0  0
    0.8138    6.6972    7.3118 C   0  0  0  0  0  0
   -0.2022    5.6246    9.1881 O   0  0  0  0  0  0
    2.1997   13.0794    4.7515 O   0  0  0  0  0  0
    2.8787   12.3192    3.7700 C   0  0  0  0  0  0
    3.3591    9.8037    5.6280 H   0  0  0  0  0  0
    6.8742   10.9239    4.8243 H   0  0  0  0  0  0
    4.6324   11.8931    1.8845 H   0  0  0  0  0  0
    4.3777   11.9912    5.9366 H   0  0  0  0  0  0
    5.7992   12.8605    5.4654 H   0  0  0  0  0  0
    9.4315    7.8313    6.6953 H   0  0  0  0  0  0
    6.2172   10.0603    2.7278 H   0  0  0  0  0  0
    4.5279    9.9280    3.1951 H   0  0  0  0  0  0
    4.5994   13.6513    3.6708 H   0  0  0  0  0  0
    3.9811    7.3164    9.4520 H   0  0  0  0  0  0
    1.8767    7.6405    5.7143 H   0  0  0  0  0  0
    4.8997    5.7424    8.4601 H   0  0  0  0  0  0
    6.5236    5.1518    8.8053 H   0  0  0  0  0  0
    2.0420    6.1544   10.4333 H   0  0  0  0  0  0
   -0.0709    6.5311    6.7145 H   0  0  0  0  0  0
   -0.9622    5.5547    8.5967 H   0  0  0  0  0  0
    1.2541   12.9436    4.6477 H   0  0  0  0  0  0
    2.4823   12.5991    2.7930 H   0  0  0  0  0  0
    2.6516   11.2643    3.9254 H   0  0  0  0  0  0
  1  2  1  0  0  0
  1  3  2  0  0  0
  1  7  1  0  0  0
  2  5  1  0  0  0
  2  6  1  0  0  0
  3  4  1  0  0  0
  3  8  1  0  0  0
  4 10  1  0  0  0
  4  5  2  0  0  0
  5 25  1  0  0  0
  6 12  1  0  0  0
  6 14  1  0  0  0
  6 26  1  0  0  0
  7 13  2  0  0  0
  8 18  1  0  0  0
  8  9  2  0  0  0
  9 13  1  0  0  0
 10 16  1  0  0  0
 10 17  2  0  0  0
 11 14  1  0  0  0
 11 15  1  0  0  0
 11 27  1  0  0  0
 12 15  1  0  0  0
 12 28  1  0  0  0
 12 29  1  0  0  0
 13 30  1  0  0  0
 14 31  1  0  0  0
 14 32  1  0  0  0
 15 24  1  0  0  0
 15 33  1  0  0  0
 16 20  2  0  0  0
 16 34  1  0  0  0
 17 21  1  0  0  0
 17 35  1  0  0  0
 18 36  1  0  0  0
 18 37  1  0  0  0
 19 21  2  0  0  0
 19 22  1  0  0  0
 19 20  1  0  0  0
 20 38  1  0  0  0
 21 39  1  0  0  0
 22 40  1  0  0  0
 23 24  1  0  0  0
 23 41  1  0  0  0
 24 42  1  0  0  0
 24 43  1  0  0  0
M  END
> <s_m_entry_id>
31871

> <s_m_entry_name>
dock_pv.134

> <s_m_Source_Path>
/home/csk/Desktop/cluster/DUD-E-result/src

> <s_m_Source_File>
dock_pv.maegz

> <i_m_Source_File_Index>
134

> <chembl_id>
CHEMBL168462

> <chembl_pref_name>
None

> <i_lp_mmshare_version>
53161

> <r_lp_tautomer_probability>
0.999999999997365

> <s_lp_Force_Field>
OPLS_2005

> <r_lp_Energy>
34.553292

> <b_lp_Chiralities_Consistent>
1

> <s_lp_Variant>
CHEMBL267_lig418-1

> <s_i_glide_gridfile>
glide-grid_3el8

> <i_i_glide_lignum>
496

> <i_i_glide_rotatable_bonds>
5

> <r_i_docking_score>
-8.16377647765667

> <r_i_glide_ligand_efficiency>
-0.340157353235695

> <r_i_glide_ligand_efficiency_sa>
-0.981183592042754

> <r_i_glide_ligand_efficiency_ln>
-1.9539663223958

> <r_i_glide_gscore>
-8.16377647765667

> <r_i_glide_lipo>
-2.17058731566414

> <r_i_glide_hbond>
-0.456586670209532

> <r_i_glide_metal>
0

> <r_i_glide_rewards>
-3.12131538459609

> <r_i_glide_evdw>
-33.9010963439941

> <r_i_glide_ecoul>
-7.27989149093628

> <r_i_glide_erotb>
0.371751433653242

> <r_i_glide_esite>
0

> <r_i_glide_emodel>
-60.0605459768864

> <r_i_glide_energy>
-41.1809878349304

> <r_i_glide_einternal>
2.2030827999115

> <i_i_glide_confnum>
58

> <i_i_glide_posenum>
25

> <r_i_glide_eff_state_penalty>
0

> <s_user_duplicate_titles>
CHEMBL267_lig418,282215

> <i_f3d_flags>
0

> <s_m_subgroup_title>
dock_pv

> <s_m_subgroupid>
dock_pv

> <b_m_subgroup_collapsed>
1

$$$$
CHEMBL267_lig1493
                    3D
 Schrodinger Suite 2021-1.
 48 51  0  0  1  0            999 V2000
    7.6259    6.8379    7.1914 N   0  0  0  0  0  0
    7.9227    7.8369    6.3290 C   0  0  0  0  0  0
    7.0775    8.7610    5.8102 N   0  0  0  0  0  0
    6.3378    6.7484    7.5991 C   0  0  0  0  0  0
    5.3582    7.6790    7.1879 C   0  0  0  0  0  0
    5.8142    8.6697    6.2605 C   0  0  0  0  0  0
    4.7380    9.4967    5.9233 N   0  0  0  0  0  0
    3.6627    9.0369    6.6608 C   0  0  0  0  0  0
    3.9560    7.9201    7.4157 C   0  0  0  0  0  0
    2.9891    7.2243    8.3111 C   0  0  0  0  0  0
    3.3402    6.8757    9.6171 C   0  0  0  0  0  0
    2.4164    6.2373   10.4404 C   0  0  0  0  0  0
    1.1451    5.9382    9.9559 C   0  0  0  0  0  0
    0.7871    6.2791    8.6541 C   0  0  0  0  0  0
    1.7082    6.9254    7.8330 C   0  0  0  0  0  0
    4.7570   10.6766    5.1129 C   0  0  0  0  0  0
    5.8963   11.4944    5.1635 C   0  0  0  0  0  0
    6.0196   12.6205    4.3513 C   0  0  0  0  0  0
    4.9984   12.9656    3.4786 C   0  0  0  0  0  0
    3.8583   12.1753    3.4112 C   0  0  0  0  0  0
    3.7231   11.0304    4.2083 C   0  0  0  0  0  0
    6.0174    5.6490    8.3880 N   0  0  0  0  0  0
    2.4489   10.2260    4.0113 C   0  0  0  0  0  0
    2.6914    9.0370    3.2060 N   0  0  1  0  0  0
    1.6585    8.0079    3.3532 C   0  0  0  0  0  0
    0.1980    8.5113    3.4213 C   0  0  0  0  0  0
   -0.0792    9.4370    2.3880 O   0  0  0  0  0  0
    8.9502    7.8883    5.9964 H   0  0  0  0  0  0
    2.7401    9.5879    6.6682 H   0  0  0  0  0  0
    4.3192    7.1138   10.0055 H   0  0  0  0  0  0
    2.6911    5.9692   11.4503 H   0  0  0  0  0  0
    0.4304    5.4371   10.5934 H   0  0  0  0  0  0
   -0.1996    6.0382    8.2850 H   0  0  0  0  0  0
    1.4286    7.1836    6.8219 H   0  0  0  0  0  0
    6.7072   11.2698    5.8392 H   0  0  0  0  0  0
    6.9091   13.2322    4.3880 H   0  0  0  0  0  0
    5.0951   13.8379    2.8485 H   0  0  0  0  0  0
    3.0815   12.4524    2.7129 H   0  0  0  0  0  0
    5.0607    5.5230    8.6881 H   0  0  0  0  0  0
    6.7381    4.9863    8.6417 H   0  0  0  0  0  0
    1.7305   10.8505    3.4784 H   0  0  0  0  0  0
    1.9523   10.0041    4.9467 H   0  0  0  0  0  0
    2.6925    9.3180    2.2350 H   0  0  0  0  0  0
    1.8658    7.4525    4.2690 H   0  0  0  0  0  0
    1.7676    7.2660    2.5606 H   0  0  0  0  0  0
    0.0091    8.9962    4.3781 H   0  0  0  0  0  0
   -0.4895    7.6674    3.3474 H   0  0  0  0  0  0
   -0.0152    8.9419    1.5545 H   0  0  0  0  0  0
  1  2  2  0  0  0
  1  4  1  0  0  0
  2  3  1  0  0  0
  2 28  1  0  0  0
  3  6  2  0  0  0
  4  5  2  0  0  0
  4 22  1  0  0  0
  5  9  1  0  0  0
  5  6  1  0  0  0
  6  7  1  0  0  0
  7  8  1  0  0  0
  7 16  1  0  0  0
  8  9  2  0  0  0
  8 29  1  0  0  0
  9 10  1  0  0  0
 10 15  1  0  0  0
 10 11  2  0  0  0
 11 12  1  0  0  0
 11 30  1  0  0  0
 12 13  2  0  0  0
 12 31  1  0  0  0
 13 14  1  0  0  0
 13 32  1  0  0  0
 14 15  2  0  0  0
 14 33  1  0  0  0
 15 34  1  0  0  0
 16 17  2  0  0  0
 16 21  1  0  0  0
 17 18  1  0  0  0
 17 35  1  0  0  0
 18 19  2  0  0  0
 18 36  1  0  0  0
 19 20  1  0  0  0
 19 37  1  0  0  0
 20 21  2  0  0  0
 20 38  1  0  0  0
 21 23  1  0  0  0
 22 39  1  0  0  0
 22 40  1  0  0  0
 23 24  1  0  0  0
 23 41  1  0  0  0
 23 42  1  0  0  0
 24 25  1  0  0  0
 24 43  1  0  0  0
 25 26  1  0  0  0
 25 44  1  0  0  0
 25 45  1  0  0  0
 26 27  1  0  0  0
 26 46  1  0  0  0
 26 47  1  0  0  0
 27 48  1  0  0  0
M  END
> <s_m_entry_id>
31872

> <s_m_entry_name>
dock_pv.135

> <s_m_Source_Path>
/home/csk/Desktop/cluster/DUD-E-result/src

> <s_m_Source_File>
dock_pv.maegz

> <i_m_Source_File_Index>
135

> <chembl_id>
CHEMBL176470

> <chembl_pref_name>
None

> <i_lp_mmshare_version>
53161

> <r_lp_tautomer_probability>
1

> <s_lp_Force_Field>
OPLS_2005

> <r_lp_Energy>
19.684925

> <b_lp_Chiralities_Consistent>
1

> <s_lp_Variant>
CHEMBL267_lig1493-1

> <s_i_glide_gridfile>
glide-grid_3el8

> <i_i_glide_lignum>
1674

> <i_i_glide_rotatable_bonds>
7

> <r_i_docking_score>
-8.14467834516476

> <r_i_glide_ligand_efficiency>
-0.301654753524621

> <r_i_glide_ligand_efficiency_sa>
-0.904964259579658

> <r_i_glide_ligand_efficiency_ln>
-1.89594684323763

> <r_i_glide_gscore>
-8.14467834516476

> <r_i_glide_lipo>
-2.13090708882069

> <r_i_glide_hbond>
-0.468177334512871

> <r_i_glide_metal>
0

> <r_i_glide_rewards>
-2.88566123916491

> <r_i_glide_evdw>
-32.8954277038574

> <r_i_glide_ecoul>
-10.9220876693726

> <r_i_glide_erotb>
0.62315185293246

> <r_i_glide_esite>
0

> <r_i_glide_emodel>
-61.3836541978863

> <r_i_glide_energy>
-43.81751537323

> <r_i_glide_einternal>
4.94064712524414

> <i_i_glide_confnum>
29

> <i_i_glide_posenum>
178

> <r_i_glide_eff_state_penalty>
0

> <s_user_duplicate_titles>
CHEMBL267_lig1493

> <i_f3d_flags>
0

> <s_m_subgroup_title>
dock_pv

> <s_m_subgroupid>
dock_pv

> <b_m_subgroup_collapsed>
1

$$$$
CHEMBL267_lig1548
                    3D
 Schrodinger Suite 2021-1.
 36 39  0  0  1  0            999 V2000
    0.3685    7.2777    4.5111 C   0  0  0  0  0  0
    0.9533    6.8320    5.6909 C   0  0  0  0  0  0
    2.0238    7.5279    6.2474 C   0  0  0  0  0  0
    0.8410    8.4436    3.9014 C   0  0  0  0  0  0
    1.9472    9.1045    4.4403 C   0  0  0  0  0  0
    2.5729    8.6554    5.6191 C   0  0  0  0  0  0
    3.7964   10.3753    3.7823 C   0  0  0  0  0  0
    2.3850   10.2175    3.7523 O   0  0  0  0  0  0
    0.2279    8.9584    2.7880 O   0  0  0  0  0  0
   -0.6765    6.5640    3.9880 O   0  0  0  0  0  0
    4.2880   10.5613    5.2397 C   0  0  1  0  0  0
    3.7744    9.4328    6.1859 C   0  0  2  0  0  0
    5.8230   10.5306    5.3019 C   0  0  0  0  0  0
    6.1591    9.2258    5.9749 C   0  0  0  0  0  0
    5.0240    8.6370    6.5388 C   0  0  0  0  0  0
    5.1737    7.5228    7.3723 C   0  0  0  0  0  0
    6.4327    6.9678    7.5880 C   0  0  0  0  0  0
    7.5581    7.5449    6.9885 C   0  0  0  0  0  0
    7.4188    8.6705    6.1832 C   0  0  0  0  0  0
    6.5328    5.8370    8.3580 O   0  0  0  0  0  0
    3.8011   11.8370    5.6262 O   0  0  0  0  0  0
    3.3979    9.8671    7.1102 H   0  0  0  0  0  0
    8.8097    7.0370    7.1880 O   0  0  0  0  0  0
    0.5624    5.9539    6.1852 H   0  0  0  0  0  0
    2.4126    7.1691    7.1837 H   0  0  0  0  0  0
    4.2512    9.4779    3.3545 H   0  0  0  0  0  0
    4.0981   11.2008    3.1356 H   0  0  0  0  0  0
    0.1976    8.3403    2.0433 H   0  0  0  0  0  0
   -1.1873    7.0370    3.3201 H   0  0  0  0  0  0
    6.2892   10.6288    4.3203 H   0  0  0  0  0  0
    6.2001   11.3517    5.9148 H   0  0  0  0  0  0
    4.3325    7.0735    7.8701 H   0  0  0  0  0  0
    8.2952    9.1320    5.7533 H   0  0  0  0  0  0
    5.6973    5.5333    8.7189 H   0  0  0  0  0  0
    4.0888   12.4820    4.9757 H   0  0  0  0  0  0
    9.4405    7.3114    6.5134 H   0  0  0  0  0  0
  1  2  2  0  0  0
  1  4  1  0  0  0
  1 10  1  0  0  0
  2  3  1  0  0  0
  2 24  1  0  0  0
  3  6  2  0  0  0
  3 25  1  0  0  0
  4  5  2  0  0  0
  4  9  1  0  0  0
  5  6  1  0  0  0
  5  8  1  0  0  0
  6 12  1  0  0  0
  7 11  1  0  0  0
  7  8  1  0  0  0
  7 26  1  0  0  0
  7 27  1  0  0  0
  9 28  1  0  0  0
 10 29  1  0  0  0
 11 12  1  0  0  0
 11 13  1  0  0  0
 11 21  1  0  0  0
 12 15  1  0  0  0
 12 22  1  0  0  0
 13 14  1  0  0  0
 13 30  1  0  0  0
 13 31  1  0  0  0
 14 15  2  0  0  0
 14 19  1  0  0  0
 15 16  1  0  0  0
 16 17  2  0  0  0
 16 32  1  0  0  0
 17 18  1  0  0  0
 17 20  1  0  0  0
 18 19  2  0  0  0
 18 23  1  0  0  0
 19 33  1  0  0  0
 20 34  1  0  0  0
 21 35  1  0  0  0
 23 36  1  0  0  0
M  END
> <s_m_entry_id>
31873

> <s_m_entry_name>
dock_pv.136

> <s_m_Source_Path>
/home/csk/Desktop/cluster/DUD-E-result/src

> <s_m_Source_File>
dock_pv.maegz

> <i_m_Source_File_Index>
136

> <chembl_id>
CHEMBL477197

> <chembl_pref_name>
HEMATOXYLIN

> <i_lp_mmshare_version>
53161

> <r_lp_tautomer_probability>
0.999999999994596

> <s_lp_Force_Field>
OPLS_2005

> <r_lp_Energy>
22.484897

> <b_lp_Chiralities_Consistent>
1

> <s_lp_Variant>
CHEMBL267_lig1548-1

> <s_i_glide_gridfile>
glide-grid_3el8

> <i_i_glide_lignum>
1734

> <i_i_glide_rotatable_bonds>
5

> <r_i_docking_score>
-8.14134290279185

> <r_i_glide_ligand_efficiency>
-0.370061041035993

> <r_i_glide_ligand_efficiency_sa>
-1.03692559065774

> <r_i_glide_ligand_efficiency_ln>
-1.99004116814008

> <r_i_glide_gscore>
-8.14134290279185

> <r_i_glide_lipo>
-2.96092323047019

> <r_i_glide_hbond>
0

> <r_i_glide_metal>
0

> <r_i_glide_rewards>
-1.84809936363636

> <r_i_glide_evdw>
-27.2299842834473

> <r_i_glide_ecoul>
-13.1388072967529

> <r_i_glide_erotb>
0

> <r_i_glide_esite>
0

> <r_i_glide_emodel>
-59.2408459732661

> <r_i_glide_energy>
-40.3687915802002

> <r_i_glide_einternal>
2.24092864990234

> <i_i_glide_confnum>
1

> <i_i_glide_posenum>
380

> <r_i_glide_eff_state_penalty>
0

> <s_user_duplicate_titles>
CHEMBL267_lig1548,490384

> <i_f3d_flags>
0

> <s_m_subgroup_title>
dock_pv

> <s_m_subgroupid>
dock_pv

> <b_m_subgroup_collapsed>
1

$$$$
CHEMBL267_lig1885
                    3D
 Schrodinger Suite 2021-1.
 47 50  0  0  1  0            999 V2000
    8.0615    6.8534    7.4963 N   0  0  0  0  0  0
    8.5704    7.8370    6.7155 C   0  0  0  0  0  0
    7.8861    8.7576    5.9878 N   0  0  0  0  0  0
    6.7128    6.7824    7.5912 C   0  0  0  0  0  0
    5.8818    7.7385    6.9570 C   0  0  0  0  0  0
    6.5629    8.6870    6.1620 C   0  0  0  0  0  0
    5.5898    9.5033    5.6219 N   0  0  0  0  0  0
    4.3561    9.1021    5.9880 N   0  0  0  0  0  0
    4.4861    8.0801    6.8049 C   0  0  0  0  0  0
    3.2854    7.4372    7.4220 C   0  0  0  0  0  0
    3.3979    6.8501    8.6823 C   0  0  0  0  0  0
    2.3549    6.0995    9.2105 C   0  0  0  0  0  0
    1.1445    5.9874    8.5227 C   0  0  0  0  0  0
    0.9983    6.6183    7.2858 C   0  0  0  0  0  0
    2.0686    7.3263    6.7318 C   0  0  0  0  0  0
    6.2223    5.6930    8.3068 N   0  0  0  0  0  0
   -0.1580    5.0576    9.1881 Cl  0  0  0  0  0  0
    2.5441    5.4399   10.3880 O   0  0  0  0  0  0
    5.7403   10.6732    4.7663 C   0  0  0  0  0  0
    5.3440   10.3725    3.3026 C   0  0  0  0  0  0
    5.4634   11.5873    2.3507 C   0  0  1  0  0  0
    4.4963   12.7512    2.6702 C   0  0  0  0  0  0
    4.6924   13.9117    1.6740 C   0  0  0  0  0  0
    6.1778   14.3172    1.5473 C   0  0  0  0  0  0
    6.9980   13.1601    1.1881 N   0  0  1  0  0  0
    6.9084   12.1348    2.2261 C   0  0  0  0  0  0
    9.6458    7.8538    6.6167 H   0  0  0  0  0  0
    4.3000    6.9680    9.2613 H   0  0  0  0  0  0
    0.0681    6.5327    6.7407 H   0  0  0  0  0  0
    1.9582    7.7696    5.7526 H   0  0  0  0  0  0
    5.2292    5.5195    8.3185 H   0  0  0  0  0  0
    6.8738    5.0244    8.6989 H   0  0  0  0  0  0
    3.4577    5.3247   10.6881 H   0  0  0  0  0  0
    6.7737   11.0150    4.8310 H   0  0  0  0  0  0
    5.1296   11.4735    5.1850 H   0  0  0  0  0  0
    4.3188    9.9993    3.2695 H   0  0  0  0  0  0
    5.9641    9.5589    2.9227 H   0  0  0  0  0  0
    5.1752   11.2613    1.3481 H   0  0  0  0  0  0
    4.6704   13.1161    3.6824 H   0  0  0  0  0  0
    3.4630   12.4020    2.6629 H   0  0  0  0  0  0
    4.1126   14.7734    2.0032 H   0  0  0  0  0  0
    4.2944   13.6588    0.6898 H   0  0  0  0  0  0
    6.5440   14.7433    2.4833 H   0  0  0  0  0  0
    6.2957   15.0800    0.7770 H   0  0  0  0  0  0
    6.6083   12.7957    0.3126 H   0  0  0  0  0  0
    7.5831   11.3228    1.9537 H   0  0  0  0  0  0
    7.2802   12.5117    3.1808 H   0  0  0  0  0  0
  1  2  2  0  0  0
  1  4  1  0  0  0
  2  3  1  0  0  0
  2 27  1  0  0  0
  3  6  2  0  0  0
  4  5  2  0  0  0
  4 16  1  0  0  0
  5  9  1  0  0  0
  5  6  1  0  0  0
  6  7  1  0  0  0
  7  8  1  0  0  0
  7 19  1  0  0  0
  8  9  2  0  0  0
  9 10  1  0  0  0
 10 15  1  0  0  0
 10 11  2  0  0  0
 11 12  1  0  0  0
 11 28  1  0  0  0
 12 13  2  0  0  0
 12 18  1  0  0  0
 13 14  1  0  0  0
 13 17  1  0  0  0
 14 15  2  0  0  0
 14 29  1  0  0  0
 15 30  1  0  0  0
 16 31  1  0  0  0
 16 32  1  0  0  0
 18 33  1  0  0  0
 19 20  1  0  0  0
 19 34  1  0  0  0
 19 35  1  0  0  0
 20 21  1  0  0  0
 20 36  1  0  0  0
 20 37  1  0  0  0
 21 22  1  0  0  0
 21 26  1  0  0  0
 21 38  1  0  0  0
 22 23  1  0  0  0
 22 39  1  0  0  0
 22 40  1  0  0  0
 23 24  1  0  0  0
 23 41  1  0  0  0
 23 42  1  0  0  0
 24 25  1  0  0  0
 24 43  1  0  0  0
 24 44  1  0  0  0
 25 26  1  0  0  0
 25 45  1  0  0  0
 26 46  1  0  0  0
 26 47  1  0  0  0
M  END
> <s_m_entry_id>
31874

> <s_m_entry_name>
dock_pv.137

> <s_m_Source_Path>
/home/csk/Desktop/cluster/DUD-E-result/src

> <s_m_Source_File>
dock_pv.maegz

> <i_m_Source_File_Index>
137

> <chembl_id>
CHEMBL1241943

> <chembl_pref_name>
None

> <i_lp_mmshare_version>
53161

> <r_lp_tautomer_probability>
0.999999999997365

> <s_lp_Force_Field>
OPLS_2005

> <r_lp_Energy>
19.183565

> <b_lp_Chiralities_Consistent>
1

> <s_lp_Variant>
CHEMBL267_lig1885-2

> <s_i_glide_gridfile>
glide-grid_3el8

> <i_i_glide_lignum>
2157

> <i_i_glide_rotatable_bonds>
5

> <r_i_docking_score>
-8.14116477506799

> <r_i_glide_ligand_efficiency>
-0.313121722118

> <r_i_glide_ligand_efficiency_sa>
-0.927621869700092

> <r_i_glide_ligand_efficiency_ln>
-1.91192583408425

> <r_i_glide_gscore>
-8.14116477506799

> <r_i_glide_lipo>
-1.86720647373073

> <r_i_glide_hbond>
-0.812895402069524

> <r_i_glide_metal>
0

> <r_i_glide_rewards>
-2.77334101022048

> <r_i_glide_evdw>
-30.920431137085

> <r_i_glide_ecoul>
-10.2053470611572

> <r_i_glide_erotb>
0.389101726980578

> <r_i_glide_esite>
0

> <r_i_glide_emodel>
-60.1712359619988

> <r_i_glide_energy>
-41.1257781982422

> <r_i_glide_einternal>
4.97021007537842

> <i_i_glide_confnum>
58

> <i_i_glide_posenum>
177

> <r_i_glide_eff_state_penalty>
0

> <s_user_duplicate_titles>
CHEMBL267_lig1885

> <i_f3d_flags>
0

> <s_m_subgroup_title>
dock_pv

> <s_m_subgroupid>
dock_pv

> <b_m_subgroup_collapsed>
1

$$$$
CHEMBL267_lig2760
                    3D
 Schrodinger Suite 2021-1.
 40 42  0  0  1  0            999 V2000
    7.8420    8.6373    6.1276 N   0  0  0  0  0  0
    8.6065    7.7374    6.7880 C   0  0  0  0  0  0
    8.1980    6.6956    7.5517 N   0  0  0  0  0  0
    6.8677    6.5620    7.7167 C   0  0  0  0  0  0
    6.5352    8.5087    6.3705 C   0  0  0  0  0  0
    5.9766    7.5000    7.1873 C   0  0  0  0  0  0
    4.5866    7.7538    7.2049 C   0  0  0  0  0  0
    4.3160    8.7801    6.4261 N   0  0  0  0  0  0
    5.4668    9.2690    5.9061 N   0  0  0  0  0  0
    6.4133    5.4363    8.3880 N   0  0  0  0  0  0
    5.4039   10.4946    5.0573 C   0  0  0  0  0  0
    4.3166   10.3097    3.9660 C   0  0  0  0  0  0
    6.7469   10.7795    4.3476 C   0  0  0  0  0  0
    5.0491   11.7021    5.9571 C   0  0  0  0  0  0
    3.5316    6.9906    7.9925 C   0  0  0  0  0  0
    2.1529    7.2197    7.4297 C   0  0  0  0  0  0
    1.6144    6.3466    6.4815 C   0  0  0  0  0  0
    0.4389    6.6855    5.8190 C   0  0  0  0  0  0
   -0.1913    7.8923    6.1131 C   0  0  0  0  0  0
    0.3524    8.7613    7.0580 C   0  0  0  0  0  0
    1.5041    8.4111    7.7395 C   0  0  0  0  0  0
   -0.0702    5.8635    4.8731 F   0  0  0  0  0  0
   -0.2020    9.9637    7.3078 F   0  0  0  0  0  0
    9.6728    7.8368    6.6435 H   0  0  0  0  0  0
    5.4445    5.3946    8.6622 H   0  0  0  0  0  0
    7.0840    4.8020    8.8084 H   0  0  0  0  0  0
    3.3220   10.1748    4.3936 H   0  0  0  0  0  0
    4.2608   11.1756    3.3051 H   0  0  0  0  0  0
    4.5214    9.4375    3.3432 H   0  0  0  0  0  0
    7.5413   11.0260    5.0534 H   0  0  0  0  0  0
    7.0669    9.9234    3.7561 H   0  0  0  0  0  0
    6.6651   11.6270    3.6651 H   0  0  0  0  0  0
    5.7654   11.8217    6.7729 H   0  0  0  0  0  0
    5.0454   12.6346    5.3910 H   0  0  0  0  0  0
    4.0575   11.5938    6.3971 H   0  0  0  0  0  0
    3.7286    5.9190    7.9872 H   0  0  0  0  0  0
    3.5653    7.2856    9.0421 H   0  0  0  0  0  0
    2.1313    5.4371    6.2155 H   0  0  0  0  0  0
   -1.0864    8.1587    5.5882 H   0  0  0  0  0  0
    1.9403    9.1053    8.4428 H   0  0  0  0  0  0
  1  5  1  0  0  0
  1  2  2  0  0  0
  2  3  1  0  0  0
  2 24  1  0  0  0
  3  4  2  0  0  0
  4  6  1  0  0  0
  4 10  1  0  0  0
  5  6  2  0  0  0
  5  9  1  0  0  0
  6  7  1  0  0  0
  7  8  2  0  0  0
  7 15  1  0  0  0
  8  9  1  0  0  0
  9 11  1  0  0  0
 10 25  1  0  0  0
 10 26  1  0  0  0
 11 12  1  0  0  0
 11 13  1  0  0  0
 11 14  1  0  0  0
 12 27  1  0  0  0
 12 28  1  0  0  0
 12 29  1  0  0  0
 13 30  1  0  0  0
 13 31  1  0  0  0
 13 32  1  0  0  0
 14 33  1  0  0  0
 14 34  1  0  0  0
 14 35  1  0  0  0
 15 16  1  0  0  0
 15 36  1  0  0  0
 15 37  1  0  0  0
 16 17  2  0  0  0
 16 21  1  0  0  0
 17 18  1  0  0  0
 17 38  1  0  0  0
 18 19  2  0  0  0
 18 22  1  0  0  0
 19 20  1  0  0  0
 19 39  1  0  0  0
 20 21  2  0  0  0
 20 23  1  0  0  0
 21 40  1  0  0  0
M  END
> <s_m_entry_id>
31875

> <s_m_entry_name>
dock_pv.138

> <s_m_Source_Path>
/home/csk/Desktop/cluster/DUD-E-result/src

> <s_m_Source_File>
dock_pv.maegz

> <i_m_Source_File_Index>
138

> <chembl_id>
CHEMBL2324593

> <chembl_pref_name>
None

> <i_lp_mmshare_version>
53161

> <r_lp_tautomer_probability>
1

> <s_lp_Force_Field>
OPLS_2005

> <r_lp_Energy>
16.2759

> <b_lp_Chiralities_Consistent>
1

> <s_lp_Variant>
CHEMBL267_lig2760-1

> <s_i_glide_gridfile>
glide-grid_3el8

> <i_i_glide_lignum>
3128

> <i_i_glide_rotatable_bonds>
3

> <r_i_docking_score>
-8.13153833636598

> <r_i_glide_ligand_efficiency>
-0.35354514505939

> <r_i_glide_ligand_efficiency_sa>
-1.00543536287039

> <r_i_glide_ligand_efficiency_ln>
-1.9662797024464

> <r_i_glide_gscore>
-8.13153833636598

> <r_i_glide_lipo>
-2.15149874112354

> <r_i_glide_hbond>
-0.608

> <r_i_glide_metal>
0

> <r_i_glide_rewards>
-3.25060685408373

> <r_i_glide_evdw>
-28.2673320770264

> <r_i_glide_ecoul>
-6.10953283309937

> <r_i_glide_erotb>
0.258992839321968

> <r_i_glide_esite>
-0.0506290516644451

> <r_i_glide_emodel>
-50.6445591155894

> <r_i_glide_energy>
-34.3768649101257

> <r_i_glide_einternal>
1.56797516345978

> <i_i_glide_confnum>
1

> <i_i_glide_posenum>
349

> <r_i_glide_eff_state_penalty>
0

> <s_user_duplicate_titles>
CHEMBL267_lig2760

> <i_f3d_flags>
0

> <s_m_subgroup_title>
dock_pv

> <s_m_subgroupid>
dock_pv

> <b_m_subgroup_collapsed>
1

$$$$
CHEMBL267_lig1445
                    3D
 Schrodinger Suite 2021-1.
 41 44  0  0  1  0            999 V2000
    5.0599    6.5734    8.4001 C   0  0  0  0  0  0
    3.7355    7.0024    8.3525 C   0  0  0  0  0  0
    3.3604    7.9981    7.4445 C   0  0  0  0  0  0
    4.2984    8.6088    6.6113 C   0  0  0  0  0  0
    2.7272    6.3974    9.2527 C   0  0  0  0  0  0
    1.9097    5.2957    8.7074 C   0  0  0  0  0  0
    0.8823    4.8480    9.5255 N   0  0  0  0  0  0
    0.6809    5.4041   10.7722 C   0  0  0  0  0  0
    1.4893    6.3225   11.3291 C   0  0  0  0  0  0
    2.5937    6.8465   10.5355 C   0  0  0  0  0  0
    6.0328    7.1915    7.5879 C   0  0  0  0  0  0
    5.6583    8.2297    6.6822 C   0  0  0  0  0  0
    6.5786    8.8456    5.8822 N   0  0  0  0  0  0
    7.8588    8.4136    5.9885 C   0  0  0  0  0  0
    8.3174    7.4373    6.8035 N   0  0  0  0  0  0
    7.3961    6.8373    7.5877 C   0  0  0  0  0  0
    0.0692    3.7417    9.1547 C   0  0  0  0  0  0
   -1.3273    3.8371    9.1880 C   0  0  0  0  0  0
   -2.1218    2.7670    8.7881 C   0  0  0  0  0  0
    0.6522    2.5247    8.7804 C   0  0  0  0  0  0
   -0.1382    1.4478    8.3880 C   0  0  0  0  0  0
   -1.5218    1.5775    8.3880 C   0  0  0  0  0  0
    8.8052    9.0370    5.1919 N   0  0  0  0  0  0
    3.5780    7.8239   11.1606 C   0  0  0  0  0  0
    2.1918    4.8051    7.6090 O   0  0  0  0  0  0
    5.3539    5.7885    9.0828 H   0  0  0  0  0  0
    2.3265    8.3087    7.3950 H   0  0  0  0  0  0
    3.9983    9.3824    5.9190 H   0  0  0  0  0  0
   -0.1642    4.9855   11.3037 H   0  0  0  0  0  0
    1.2977    6.6918   12.3266 H   0  0  0  0  0  0
    7.7413    6.0412    8.2313 H   0  0  0  0  0  0
   -1.8018    4.7583    9.4841 H   0  0  0  0  0  0
   -3.1988    2.8586    8.7864 H   0  0  0  0  0  0
    1.7256    2.4141    8.7878 H   0  0  0  0  0  0
    0.3178    0.5130    8.0941 H   0  0  0  0  0  0
   -2.1422    0.7496    8.0740 H   0  0  0  0  0  0
    8.5095    9.7503    4.5461 H   0  0  0  0  0  0
    9.7195    8.6061    5.1537 H   0  0  0  0  0  0
    3.5690    7.7773   12.2501 H   0  0  0  0  0  0
    4.5971    7.5619   10.8866 H   0  0  0  0  0  0
    3.3984    8.8327   10.7880 H   0  0  0  0  0  0
  1  2  2  0  0  0
  1 11  1  0  0  0
  1 26  1  0  0  0
  2  3  1  0  0  0
  2  5  1  0  0  0
  3  4  2  0  0  0
  3 27  1  0  0  0
  4 12  1  0  0  0
  4 28  1  0  0  0
  5  6  1  0  0  0
  5 10  2  0  0  0
  6  7  1  0  0  0
  6 25  2  0  0  0
  7  8  1  0  0  0
  7 17  1  0  0  0
  8  9  2  0  0  0
  8 29  1  0  0  0
  9 10  1  0  0  0
  9 30  1  0  0  0
 10 24  1  0  0  0
 11 12  1  0  0  0
 11 16  2  0  0  0
 12 13  2  0  0  0
 13 14  1  0  0  0
 14 15  2  0  0  0
 14 23  1  0  0  0
 15 16  1  0  0  0
 16 31  1  0  0  0
 17 18  2  0  0  0
 17 20  1  0  0  0
 18 19  1  0  0  0
 18 32  1  0  0  0
 19 22  2  0  0  0
 19 33  1  0  0  0
 20 21  2  0  0  0
 20 34  1  0  0  0
 21 22  1  0  0  0
 21 35  1  0  0  0
 22 36  1  0  0  0
 23 37  1  0  0  0
 23 38  1  0  0  0
 24 39  1  0  0  0
 24 40  1  0  0  0
 24 41  1  0  0  0
M  END
> <s_m_entry_id>
31876

> <s_m_entry_name>
dock_pv.139

> <s_m_Source_Path>
/home/csk/Desktop/cluster/DUD-E-result/src

> <s_m_Source_File>
dock_pv.maegz

> <i_m_Source_File_Index>
139

> <chembl_id>
CHEMBL523741

> <chembl_pref_name>
None

> <i_lp_mmshare_version>
53161

> <r_lp_tautomer_probability>
1

> <s_lp_Force_Field>
OPLS_2005

> <r_lp_Energy>
38.516746

> <b_lp_Chiralities_Consistent>
1

> <s_lp_Variant>
CHEMBL267_lig1445-1

> <s_i_glide_gridfile>
glide-grid_3el8

> <i_i_glide_lignum>
1613

> <i_i_glide_rotatable_bonds>
2

> <r_i_docking_score>
-8.1304954951307

> <r_i_glide_ligand_efficiency>
-0.325219819805228

> <r_i_glide_ligand_efficiency_sa>
-0.95094852090855

> <r_i_glide_ligand_efficiency_ln>
-1.92717108363451

> <r_i_glide_gscore>
-8.1304954951307

> <r_i_glide_lipo>
-3.96089845725358

> <r_i_glide_hbond>
-0.0686812938987502

> <r_i_glide_metal>
0

> <r_i_glide_rewards>
-1.99591662454155

> <r_i_glide_evdw>
-41.017692565918

> <r_i_glide_ecoul>
-2.65211272239685

> <r_i_glide_erotb>
0.348353362753669

> <r_i_glide_esite>
-0.00465094553506519

> <r_i_glide_emodel>
-58.9247904919911

> <r_i_glide_energy>
-43.6698052883148

> <r_i_glide_einternal>
3.48356103897095

> <i_i_glide_confnum>
9

> <i_i_glide_posenum>
319

> <r_i_glide_eff_state_penalty>
0

> <s_user_duplicate_titles>
CHEMBL267_lig1445,486562

> <i_f3d_flags>
0

> <s_m_subgroup_title>
dock_pv

> <s_m_subgroupid>
dock_pv

> <b_m_subgroup_collapsed>
1

$$$$
CHEMBL267_lig1349
                    3D
 Schrodinger Suite 2021-1.
 29 30  0  0  1  0            999 V2000
    7.4920    7.4365    6.9709 C   0  0  0  0  0  0
    6.0622    7.6413    7.1320 C   0  0  0  0  0  0
    5.6950    8.6767    6.1743 C   0  0  0  0  0  0
    6.8999    9.0362    5.4700 C   0  0  0  0  0  0
    7.9349    8.3207    5.9268 C   0  0  0  0  0  0
    8.1982    6.6393    7.5880 O   0  0  0  0  0  0
    4.5900    9.1805    5.9869 O   0  0  0  0  0  0
    5.3034    6.9607    8.0271 C   0  0  0  0  0  0
    3.8445    6.9461    8.2820 C   0  0  0  0  0  0
    2.8826    7.0374    7.2681 C   0  0  0  0  0  0
    1.5266    6.8262    7.5343 C   0  0  0  0  0  0
    1.1179    6.5570    8.8478 C   0  0  0  0  0  0
    2.0632    6.5313    9.8835 C   0  0  0  0  0  0
    3.4145    6.7180    9.5901 C   0  0  0  0  0  0
    1.6544    6.2616   11.3234 C   0  0  0  0  0  0
    0.5293    6.8699    6.3839 C   0  0  0  0  0  0
   -0.2014    6.2938    9.1229 O   0  0  0  0  0  0
    6.9054    9.7870    4.6941 H   0  0  0  0  0  0
    8.9657    8.3547    5.6028 H   0  0  0  0  0  0
    5.8318    6.2519    8.6538 H   0  0  0  0  0  0
    3.1884    7.1859    6.2441 H   0  0  0  0  0  0
    4.1419    6.6410   10.3876 H   0  0  0  0  0  0
    0.9855    7.0368   11.6826 H   0  0  0  0  0  0
    1.1081    5.3210   11.3957 H   0  0  0  0  0  0
    2.5135    6.2361   11.9931 H   0  0  0  0  0  0
    0.9605    7.3116    5.4830 H   0  0  0  0  0  0
    0.1778    5.8648    6.1472 H   0  0  0  0  0  0
   -0.3394    7.4744    6.6496 H   0  0  0  0  0  0
   -0.7490    6.1015    8.3505 H   0  0  0  0  0  0
  1  2  1  0  0  0
  1  5  1  0  0  0
  1  6  2  0  0  0
  2  3  1  0  0  0
  2  8  2  0  0  0
  3  4  1  0  0  0
  3  7  2  0  0  0
  4  5  2  0  0  0
  4 18  1  0  0  0
  5 19  1  0  0  0
  8  9  1  0  0  0
  8 20  1  0  0  0
  9 10  1  0  0  0
  9 14  2  0  0  0
 10 11  2  0  0  0
 10 21  1  0  0  0
 11 12  1  0  0  0
 11 16  1  0  0  0
 12 13  2  0  0  0
 12 17  1  0  0  0
 13 14  1  0  0  0
 13 15  1  0  0  0
 14 22  1  0  0  0
 15 23  1  0  0  0
 15 24  1  0  0  0
 15 25  1  0  0  0
 16 26  1  0  0  0
 16 27  1  0  0  0
 16 28  1  0  0  0
 17 29  1  0  0  0
M  END
> <s_m_entry_id>
31877

> <s_m_entry_name>
dock_pv.140

> <s_m_Source_Path>
/home/csk/Desktop/cluster/DUD-E-result/src

> <s_m_Source_File>
dock_pv.maegz

> <i_m_Source_File_Index>
140

> <chembl_id>
CHEMBL437612

> <chembl_pref_name>
None

> <i_lp_mmshare_version>
53161

> <r_lp_tautomer_probability>
1

> <s_lp_Force_Field>
OPLS_2005

> <r_lp_Energy>
20.903557

> <b_lp_Chiralities_Consistent>
1

> <s_lp_Variant>
CHEMBL267_lig1349-1

> <s_i_glide_gridfile>
glide-grid_3el8

> <i_i_glide_lignum>
1503

> <i_i_glide_rotatable_bonds>
2

> <r_i_docking_score>
-8.1199689327287

> <r_i_glide_ligand_efficiency>
-0.477645231336982

> <r_i_glide_ligand_efficiency_sa>
-1.2281603890426

> <r_i_glide_ligand_efficiency_ln>
-2.11831907173117

> <r_i_glide_gscore>
-8.1199689327287

> <r_i_glide_lipo>
-2.1765833320101

> <r_i_glide_hbond>
-0.608

> <r_i_glide_metal>
0

> <r_i_glide_rewards>
-3.21304016413862

> <r_i_glide_evdw>
-26.9584007263184

> <r_i_glide_ecoul>
-7.34295892715454

> <r_i_glide_erotb>
0.327018438809113

> <r_i_glide_esite>
0

> <r_i_glide_emodel>
-50.735291542589

> <r_i_glide_energy>
-34.3013596534729

> <r_i_glide_einternal>
0.703642010688782

> <i_i_glide_confnum>
1

> <i_i_glide_posenum>
108

> <r_i_glide_eff_state_penalty>
0

> <s_user_duplicate_titles>
CHEMBL267_lig1349

> <i_f3d_flags>
0

> <s_m_subgroup_title>
dock_pv

> <s_m_subgroupid>
dock_pv

> <b_m_subgroup_collapsed>
1

$$$$
CHEMBL267_lig410
                    3D
 Schrodinger Suite 2021-1.
 49 52  0  0  1  0            999 V2000
    7.5354    6.4391    7.5943 N   0  0  0  0  0  0
    7.9539    7.4369    6.7792 C   0  0  0  0  0  0
    7.2098    8.4352    6.2479 N   0  0  0  0  0  0
    6.2348    6.4622    7.9879 C   0  0  0  0  0  0
    5.3488    7.4525    7.5206 C   0  0  0  0  0  0
    5.9235    8.3991    6.6218 C   0  0  0  0  0  0
    4.9221    9.2562    6.1953 N   0  0  0  0  0  0
    3.7462    8.8401    6.7880 C   0  0  0  0  0  0
    3.9590    7.7970    7.6659 C   0  0  0  0  0  0
    2.9230    7.1787    8.5267 C   0  0  0  0  0  0
    3.1228    7.1191    9.9079 C   0  0  0  0  0  0
    2.1145    6.6326   10.7380 C   0  0  0  0  0  0
    0.9200    6.1656   10.1901 C   0  0  0  0  0  0
    0.7258    6.1985    8.8093 C   0  0  0  0  0  0
    1.7222    6.7144    7.9791 C   0  0  0  0  0  0
    5.7980    5.4151    8.7880 N   0  0  0  0  0  0
    5.0962   10.3475    5.2199 C   0  0  0  0  0  0
    5.2019    9.7842    3.8008 C   0  0  0  0  0  0
    3.8102    9.3478    3.3320 C   0  0  0  0  0  0
    2.9114   10.5017    3.2489 N   0  0  2  0  0  0
    2.7191   11.1863    4.5401 C   0  0  0  0  0  0
    4.0540   11.4930    5.2694 C   0  0  0  0  0  0
    2.2833    6.6370   12.0935 O   0  0  0  0  0  0
    1.6558   10.1720    2.5592 C   0  0  0  0  0  0
    0.6937    9.1644    3.2408 C   0  0  0  0  0  0
    1.1416    7.8239    3.1880 O   0  0  0  0  0  0
    8.9976    7.4311    6.4981 H   0  0  0  0  0  0
    2.8238    9.3560    6.5870 H   0  0  0  0  0  0
    4.0426    7.4915   10.3348 H   0  0  0  0  0  0
    0.1383    5.7875   10.8341 H   0  0  0  0  0  0
   -0.2018    5.8370    8.3880 H   0  0  0  0  0  0
    1.5587    6.7571    6.9115 H   0  0  0  0  0  0
    4.8338    5.3818    9.0889 H   0  0  0  0  0  0
    6.4680    4.7097    9.0716 H   0  0  0  0  0  0
    6.0524   10.7884    5.5097 H   0  0  0  0  0  0
    5.9118    8.9570    3.7664 H   0  0  0  0  0  0
    5.6541   10.5158    3.1297 H   0  0  0  0  0  0
    3.3706    8.6370    4.0268 H   0  0  0  0  0  0
    3.9036    8.8285    2.3880 H   0  0  0  0  0  0
    2.1930   12.1214    4.3420 H   0  0  0  0  0  0
    2.0511   10.6190    5.1826 H   0  0  0  0  0  0
    4.4909   12.3990    4.8467 H   0  0  0  0  0  0
    3.8775   11.7948    6.3025 H   0  0  0  0  0  0
    3.1933    6.7884   12.3595 H   0  0  0  0  0  0
    1.7960    9.9316    1.5041 H   0  0  0  0  0  0
    1.1152   11.1179    2.5002 H   0  0  0  0  0  0
   -0.2534    9.2018    2.7090 H   0  0  0  0  0  0
    0.4716    9.4378    4.2710 H   0  0  0  0  0  0
    0.9981    7.5144    2.2827 H   0  0  0  0  0  0
  1  2  2  0  0  0
  1  4  1  0  0  0
  2  3  1  0  0  0
  2 27  1  0  0  0
  3  6  2  0  0  0
  4  5  2  0  0  0
  4 16  1  0  0  0
  5  9  1  0  0  0
  5  6  1  0  0  0
  6  7  1  0  0  0
  7  8  1  0  0  0
  7 17  1  0  0  0
  8  9  2  0  0  0
  8 28  1  0  0  0
  9 10  1  0  0  0
 10 15  1  0  0  0
 10 11  2  0  0  0
 11 12  1  0  0  0
 11 29  1  0  0  0
 12 13  2  0  0  0
 12 23  1  0  0  0
 13 14  1  0  0  0
 13 30  1  0  0  0
 14 15  2  0  0  0
 14 31  1  0  0  0
 15 32  1  0  0  0
 16 33  1  0  0  0
 16 34  1  0  0  0
 17 18  1  0  0  0
 17 22  1  0  0  0
 17 35  1  0  0  0
 18 19  1  0  0  0
 18 36  1  0  0  0
 18 37  1  0  0  0
 19 20  1  0  0  0
 19 38  1  0  0  0
 19 39  1  0  0  0
 20 21  1  0  0  0
 20 24  1  0  0  0
 21 22  1  0  0  0
 21 40  1  0  0  0
 21 41  1  0  0  0
 22 42  1  0  0  0
 22 43  1  0  0  0
 23 44  1  0  0  0
 24 25  1  0  0  0
 24 45  1  0  0  0
 24 46  1  0  0  0
 25 26  1  0  0  0
 25 47  1  0  0  0
 25 48  1  0  0  0
 26 49  1  0  0  0
M  END
> <s_m_entry_id>
31878

> <s_m_entry_name>
dock_pv.141

> <s_m_Source_Path>
/home/csk/Desktop/cluster/DUD-E-result/src

> <s_m_Source_File>
dock_pv.maegz

> <i_m_Source_File_Index>
141

> <chembl_id>
CHEMBL169780

> <chembl_pref_name>
None

> <i_lp_mmshare_version>
53161

> <r_lp_tautomer_probability>
0.999999999997365

> <s_lp_Force_Field>
OPLS_2005

> <r_lp_Energy>
41.566242

> <b_lp_Chiralities_Consistent>
1

> <s_lp_Variant>
CHEMBL267_lig410-1

> <s_i_glide_gridfile>
glide-grid_3el8

> <i_i_glide_lignum>
486

> <i_i_glide_rotatable_bonds>
6

> <r_i_docking_score>
-8.11182880289466

> <r_i_glide_ligand_efficiency>
-0.311993415495949

> <r_i_glide_ligand_efficiency_sa>
-0.924279265771938

> <r_i_glide_ligand_efficiency_ln>
-1.90503637727852

> <r_i_glide_gscore>
-8.11182880289466

> <r_i_glide_lipo>
-2.36628171314416

> <r_i_glide_hbond>
-0.734481050033689

> <r_i_glide_metal>
0

> <r_i_glide_rewards>
-2.50492591334086

> <r_i_glide_evdw>
-35.750171661377

> <r_i_glide_ecoul>
-8.86793518066406

> <r_i_glide_erotb>
0.611558733792501

> <r_i_glide_esite>
0

> <r_i_glide_emodel>
-59.7760137343498

> <r_i_glide_energy>
-44.618106842041

> <r_i_glide_einternal>
10.4301290512085

> <i_i_glide_confnum>
124

> <i_i_glide_posenum>
187

> <r_i_glide_eff_state_penalty>
0

> <s_user_duplicate_titles>
CHEMBL267_lig410,282629

> <i_f3d_flags>
0

> <s_m_subgroup_title>
dock_pv

> <s_m_subgroupid>
dock_pv

> <b_m_subgroup_collapsed>
1

$$$$
CHEMBL267_lig701
                    3D
 Schrodinger Suite 2021-1.
 45 47  0  0  1  0            999 V2000
    3.1785    7.6723    7.8611 C   0  0  0  0  0  0
    4.2207    8.2720    7.2305 N   0  0  0  0  0  0
    6.4261    8.3725    6.6316 N   0  0  0  0  0  0
    5.4487    7.7214    7.3093 C   0  0  0  0  0  0
    1.8827    8.2252    7.7668 N   0  0  0  0  0  0
    3.3300    6.4944    8.6124 C   0  0  0  0  0  0
    1.3721    9.1818    6.9626 C   0  0  0  0  0  0
    5.6802    6.5108    8.0116 C   0  0  0  0  0  0
    2.1753    5.8366    9.2654 C   0  0  0  0  0  0
    7.6387    7.7860    6.6423 C   0  0  0  0  0  0
    4.5940    5.9019    8.6757 C   0  0  0  0  0  0
    7.9871    6.6370    7.2673 N   0  0  0  0  0  0
    2.1960    9.7192    6.0400 N   0  0  0  0  0  0
    6.9964    6.0072    7.9458 C   0  0  0  0  0  0
    1.7388    6.2210   10.5374 C   0  0  0  0  0  0
    1.4643    4.8625    8.5683 C   0  0  0  0  0  0
    0.1986    9.5104    7.1011 O   0  0  0  0  0  0
    0.5977    5.6374   11.0912 C   0  0  0  0  0  0
    0.3187    4.2853    9.1109 C   0  0  0  0  0  0
   -0.1173    4.6770   10.3743 C   0  0  0  0  0  0
    1.9013   10.5378    4.8589 C   0  0  0  0  0  0
    8.5979    8.4077    5.8754 N   0  0  0  0  0  0
    0.1981    6.0024   12.3298 F   0  0  0  0  0  0
   -0.3700    3.3600    8.4054 F   0  0  0  0  0  0
    3.2539   10.9263    4.2250 C   0  0  0  0  0  0
    1.1596   11.8444    5.2343 C   0  0  0  0  0  0
    1.0976    9.7239    3.8211 C   0  0  0  0  0  0
    1.2170    7.7888    8.3838 H   0  0  0  0  0  0
    4.7424    4.9667    9.1877 H   0  0  0  0  0  0
    3.1703    9.4698    6.1401 H   0  0  0  0  0  0
    7.2346    5.0487    8.3878 H   0  0  0  0  0  0
    2.2785    6.9698   11.1002 H   0  0  0  0  0  0
    1.7986    4.5784    7.5880 H   0  0  0  0  0  0
   -1.0137    4.2384   10.7877 H   0  0  0  0  0  0
    8.2964    9.1867    5.3127 H   0  0  0  0  0  0
    9.4154    7.8613    5.6240 H   0  0  0  0  0  0
    3.8298   10.0458    3.9304 H   0  0  0  0  0  0
    3.1156   11.5365    3.3318 H   0  0  0  0  0  0
    3.8727   11.5004    4.9150 H   0  0  0  0  0  0
    0.1983   11.6487    5.7046 H   0  0  0  0  0  0
    1.7399   12.4453    5.9380 H   0  0  0  0  0  0
    0.9682   12.4615    4.3545 H   0  0  0  0  0  0
    0.1873    9.3119    4.2521 H   0  0  0  0  0  0
    0.8088   10.3311    2.9634 H   0  0  0  0  0  0
    1.6730    8.8772    3.4409 H   0  0  0  0  0  0
  1  2  2  0  0  0
  1  5  1  0  0  0
  1  6  1  0  0  0
  2  4  1  0  0  0
  3  4  2  0  0  0
  3 10  1  0  0  0
  4  8  1  0  0  0
  5  7  1  0  0  0
  5 28  1  0  0  0
  6  9  1  0  0  0
  6 11  2  0  0  0
  7 13  1  0  0  0
  7 17  2  0  0  0
  8 11  1  0  0  0
  8 14  2  0  0  0
  9 15  1  0  0  0
  9 16  2  0  0  0
 10 22  1  0  0  0
 10 12  2  0  0  0
 11 29  1  0  0  0
 12 14  1  0  0  0
 13 21  1  0  0  0
 13 30  1  0  0  0
 14 31  1  0  0  0
 15 18  2  0  0  0
 15 32  1  0  0  0
 16 19  1  0  0  0
 16 33  1  0  0  0
 18 23  1  0  0  0
 18 20  1  0  0  0
 19 20  2  0  0  0
 19 24  1  0  0  0
 20 34  1  0  0  0
 21 25  1  0  0  0
 21 26  1  0  0  0
 21 27  1  0  0  0
 22 35  1  0  0  0
 22 36  1  0  0  0
 25 37  1  0  0  0
 25 38  1  0  0  0
 25 39  1  0  0  0
 26 40  1  0  0  0
 26 41  1  0  0  0
 26 42  1  0  0  0
 27 43  1  0  0  0
 27 44  1  0  0  0
 27 45  1  0  0  0
M  END
> <s_m_entry_id>
31879

> <s_m_entry_name>
dock_pv.142

> <s_m_Source_Path>
/home/csk/Desktop/cluster/DUD-E-result/src

> <s_m_Source_File>
dock_pv.maegz

> <i_m_Source_File_Index>
142

> <chembl_id>
CHEMBL81975

> <chembl_pref_name>
None

> <i_lp_mmshare_version>
53161

> <r_lp_tautomer_probability>
1

> <s_lp_Force_Field>
OPLS_2005

> <r_lp_Energy>
20.060592

> <b_lp_Chiralities_Consistent>
1

> <s_lp_Variant>
CHEMBL267_lig701-1

> <s_i_glide_gridfile>
glide-grid_3el8

> <i_i_glide_lignum>
820

> <i_i_glide_rotatable_bonds>
5

> <r_i_docking_score>
-8.10694607093748

> <r_i_glide_ligand_efficiency>
-0.300257261886573

> <r_i_glide_ligand_efficiency_sa>
-0.900771784670121

> <r_i_glide_ligand_efficiency_ln>
-1.88716339186268

> <r_i_glide_gscore>
-8.10694607093748

> <r_i_glide_lipo>
-2.40128594977228

> <r_i_glide_hbond>
-0.630638927427704

> <r_i_glide_metal>
0

> <r_i_glide_rewards>
-2.59857676006766

> <r_i_glide_evdw>
-38.2090187072754

> <r_i_glide_ecoul>
-6.37328100204468

> <r_i_glide_erotb>
0.389998652000641

> <r_i_glide_esite>
0

> <r_i_glide_emodel>
-61.5192000454772

> <r_i_glide_energy>
-44.5822997093201

> <r_i_glide_einternal>
3.16028165817261

> <i_i_glide_confnum>
12

> <i_i_glide_posenum>
356

> <r_i_glide_eff_state_penalty>
0

> <s_user_duplicate_titles>
CHEMBL267_lig701

> <i_f3d_flags>
0

> <s_m_subgroup_title>
dock_pv

> <s_m_subgroupid>
dock_pv

> <b_m_subgroup_collapsed>
1

$$$$
CHEMBL267_lig1528
                    3D
 Schrodinger Suite 2021-1.
 44 46  0  0  1  0            999 V2000
    7.4717    6.5668    7.5878 N   0  0  0  0  0  0
    7.8050    7.5232    6.6876 C   0  0  0  0  0  0
    6.9833    8.4225    6.0874 N   0  0  0  0  0  0
    6.1748    6.5193    7.9830 C   0  0  0  0  0  0
    5.2264    7.4359    7.4832 C   0  0  0  0  0  0
    5.7064    8.3345    6.4898 C   0  0  0  0  0  0
    4.6220    9.0422    5.9868 N   0  0  0  0  0  0
    3.5062    8.6375    6.6958 C   0  0  0  0  0  0
    3.8287    7.6976    7.6561 C   0  0  0  0  0  0
    2.9074    7.0132    8.5870 C   0  0  0  0  0  0
    1.9420    6.1321    8.0976 C   0  0  0  0  0  0
    1.0758    5.4670    8.9663 C   0  0  0  0  0  0
    1.1666    5.7241   10.3453 C   0  0  0  0  0  0
    2.1330    6.6018   10.8379 C   0  0  0  0  0  0
    3.0065    7.2404    9.9605 C   0  0  0  0  0  0
    5.7985    5.4471    8.7879 N   0  0  0  0  0  0
    4.7142   10.0653    4.9312 C   0  0  0  0  0  0
    3.4257   10.4043    4.1132 C   0  0  0  0  0  0
    2.3516   11.2604    4.8414 C   0  0  0  0  0  0
    2.8274    9.1733    3.3885 C   0  0  0  0  0  0
    1.7911    9.5466    2.5004 O   0  0  0  0  0  0
    2.9242   12.3140    5.5880 O   0  0  0  0  0  0
    0.1934    4.5784    8.3886 O   0  0  0  0  0  0
   -0.7655    3.9220    9.2108 C   0  0  0  0  0  0
    8.8440    7.5545    6.3881 H   0  0  0  0  0  0
    2.5362    9.0490    6.4818 H   0  0  0  0  0  0
    1.8749    5.9442    7.0356 H   0  0  0  0  0  0
    0.5091    5.2358   11.0485 H   0  0  0  0  0  0
    2.2101    6.7768   11.9012 H   0  0  0  0  0  0
    3.7596    7.9115   10.3472 H   0  0  0  0  0  0
    4.8420    5.3818    9.1101 H   0  0  0  0  0  0
    6.5061    4.7883    9.0897 H   0  0  0  0  0  0
    5.1361   10.9617    5.3836 H   0  0  0  0  0  0
    5.4748    9.7245    4.2264 H   0  0  0  0  0  0
    3.7881   11.0519    3.3117 H   0  0  0  0  0  0
    1.6568   11.6891    4.1166 H   0  0  0  0  0  0
    1.7316   10.6688    5.5121 H   0  0  0  0  0  0
    3.6036    8.6364    2.8418 H   0  0  0  0  0  0
    2.4139    8.4668    4.1075 H   0  0  0  0  0  0
    1.4438    8.7649    2.0532 H   0  0  0  0  0  0
    3.3948   11.9379    6.3361 H   0  0  0  0  0  0
   -1.3886    3.2744    8.5942 H   0  0  0  0  0  0
   -0.2840    3.3003    9.9660 H   0  0  0  0  0  0
   -1.4244    4.6368    9.7055 H   0  0  0  0  0  0
  1  2  2  0  0  0
  1  4  1  0  0  0
  2  3  1  0  0  0
  2 25  1  0  0  0
  3  6  2  0  0  0
  4  5  2  0  0  0
  4 16  1  0  0  0
  5  9  1  0  0  0
  5  6  1  0  0  0
  6  7  1  0  0  0
  7 17  1  0  0  0
  7  8  1  0  0  0
  8  9  2  0  0  0
  8 26  1  0  0  0
  9 10  1  0  0  0
 10 15  1  0  0  0
 10 11  2  0  0  0
 11 12  1  0  0  0
 11 27  1  0  0  0
 12 13  2  0  0  0
 12 23  1  0  0  0
 13 14  1  0  0  0
 13 28  1  0  0  0
 14 15  2  0  0  0
 14 29  1  0  0  0
 15 30  1  0  0  0
 16 31  1  0  0  0
 16 32  1  0  0  0
 17 18  1  0  0  0
 17 33  1  0  0  0
 17 34  1  0  0  0
 18 19  1  0  0  0
 18 20  1  0  0  0
 18 35  1  0  0  0
 19 22  1  0  0  0
 19 36  1  0  0  0
 19 37  1  0  0  0
 20 21  1  0  0  0
 20 38  1  0  0  0
 20 39  1  0  0  0
 21 40  1  0  0  0
 22 41  1  0  0  0
 23 24  1  0  0  0
 24 42  1  0  0  0
 24 43  1  0  0  0
 24 44  1  0  0  0
M  END
> <s_m_entry_id>
31881

> <s_m_entry_name>
dock_pv.144

> <s_m_Source_Path>
/home/csk/Desktop/cluster/DUD-E-result/src

> <s_m_Source_File>
dock_pv.maegz

> <i_m_Source_File_Index>
144

> <chembl_id>
CHEMBL512352

> <chembl_pref_name>
None

> <i_lp_mmshare_version>
53161

> <r_lp_tautomer_probability>
1

> <s_lp_Force_Field>
OPLS_2005

> <r_lp_Energy>
18.095301

> <b_lp_Chiralities_Consistent>
1

> <s_lp_Variant>
CHEMBL267_lig1528-1

> <s_i_glide_gridfile>
glide-grid_3el8

> <i_i_glide_lignum>
1709

> <i_i_glide_rotatable_bonds>
8

> <r_i_docking_score>
-8.09945191504111

> <r_i_glide_ligand_efficiency>
-0.337477163126713

> <r_i_glide_ligand_efficiency_sa>
-0.973452585984901

> <r_i_glide_ligand_efficiency_ln>
-1.93857050290005

> <r_i_glide_gscore>
-8.09945191504111

> <r_i_glide_lipo>
-2.57955969737405

> <r_i_glide_hbond>
-0.597652666735082

> <r_i_glide_metal>
0

> <r_i_glide_rewards>
-2.97275890287838

> <r_i_glide_evdw>
-37.1889915466309

> <r_i_glide_ecoul>
-6.40614461898804

> <r_i_glide_erotb>
0.870890622126155

> <r_i_glide_esite>
0

> <r_i_glide_emodel>
-60.80609466128

> <r_i_glide_energy>
-43.5951361656189

> <r_i_glide_einternal>
7.79412508010864

> <i_i_glide_confnum>
11

> <i_i_glide_posenum>
40

> <r_i_glide_eff_state_penalty>
0

> <s_user_duplicate_titles>
CHEMBL267_lig1528,459933

> <i_f3d_flags>
0

> <s_m_subgroup_title>
dock_pv

> <s_m_subgroupid>
dock_pv

> <b_m_subgroup_collapsed>
1

$$$$
CHEMBL267_lig1807
                    3D
 Schrodinger Suite 2021-1.
 39 41  0  0  1  0            999 V2000
    7.3610    6.7110    7.5878 N   0  0  0  0  0  0
    7.6059    7.7445    6.7392 C   0  0  0  0  0  0
    6.7097    8.6273    6.2188 N   0  0  0  0  0  0
    6.0757    6.5399    7.9880 C   0  0  0  0  0  0
    5.0588    7.4057    7.5472 C   0  0  0  0  0  0
    5.4543    8.4112    6.6374 C   0  0  0  0  0  0
    4.2926    9.0895    6.3009 N   0  0  0  0  0  0
    3.2274    8.5837    6.9610 N   0  0  0  0  0  0
    3.6490    7.5943    7.7105 C   0  0  0  0  0  0
    2.7194    6.8517    8.5944 C   0  0  0  0  0  0
    1.6631    6.1017    8.0647 C   0  0  0  0  0  0
    0.8018    5.4056    8.9157 C   0  0  0  0  0  0
    0.9662    5.4993   10.3007 C   0  0  0  0  0  0
    2.0197    6.2435   10.8279 C   0  0  0  0  0  0
    2.9027    6.9080    9.9790 C   0  0  0  0  0  0
    5.7980    5.4371    8.7880 N   0  0  0  0  0  0
    0.1103    4.8767   11.1420 F   0  0  0  0  0  0
   -0.2020    4.6370    8.3881 O   0  0  0  0  0  0
    4.1269   10.3201    5.5198 C   0  0  0  0  0  0
    3.0067   10.2176    4.4567 C   0  0  0  0  0  0
    3.3800    9.3432    3.2424 C   0  0  0  0  0  0
    2.1969    8.5747    2.6224 C   0  0  0  0  0  0
    1.5234    7.6452    3.5460 C   0  0  0  0  0  0
    0.9977    6.9148    4.2739 N   0  0  0  0  0  0
    8.6325    7.8701    6.4235 H   0  0  0  0  0  0
    1.5233    6.0442    6.9935 H   0  0  0  0  0  0
    2.1510    6.3077   11.8970 H   0  0  0  0  0  0
    3.7184    7.4790   10.3997 H   0  0  0  0  0  0
    4.8520    5.2783    9.1051 H   0  0  0  0  0  0
    6.5531    4.8187    9.0579 H   0  0  0  0  0  0
   -0.9144    5.1571    7.9884 H   0  0  0  0  0  0
    3.9146   11.1309    6.2191 H   0  0  0  0  0  0
    5.0801   10.5627    5.0475 H   0  0  0  0  0  0
    2.0889    9.8596    4.9255 H   0  0  0  0  0  0
    2.7608   11.2187    4.0983 H   0  0  0  0  0  0
    3.8406    9.9709    2.4773 H   0  0  0  0  0  0
    4.1572    8.6370    3.5247 H   0  0  0  0  0  0
    1.4455    9.2698    2.2485 H   0  0  0  0  0  0
    2.5374    7.9835    1.7728 H   0  0  0  0  0  0
  1  2  2  0  0  0
  1  4  1  0  0  0
  2  3  1  0  0  0
  2 25  1  0  0  0
  3  6  2  0  0  0
  4  5  2  0  0  0
  4 16  1  0  0  0
  5  9  1  0  0  0
  5  6  1  0  0  0
  6  7  1  0  0  0
  7  8  1  0  0  0
  7 19  1  0  0  0
  8  9  2  0  0  0
  9 10  1  0  0  0
 10 15  1  0  0  0
 10 11  2  0  0  0
 11 12  1  0  0  0
 11 26  1  0  0  0
 12 13  2  0  0  0
 12 18  1  0  0  0
 13 14  1  0  0  0
 13 17  1  0  0  0
 14 15  2  0  0  0
 14 27  1  0  0  0
 15 28  1  0  0  0
 16 29  1  0  0  0
 16 30  1  0  0  0
 18 31  1  0  0  0
 19 20  1  0  0  0
 19 32  1  0  0  0
 19 33  1  0  0  0
 20 21  1  0  0  0
 20 34  1  0  0  0
 20 35  1  0  0  0
 21 22  1  0  0  0
 21 36  1  0  0  0
 21 37  1  0  0  0
 22 23  1  0  0  0
 22 38  1  0  0  0
 22 39  1  0  0  0
 23 24  3  0  0  0
M  END
> <s_m_entry_id>
31882

> <s_m_entry_name>
dock_pv.145

> <s_m_Source_Path>
/home/csk/Desktop/cluster/DUD-E-result/src

> <s_m_Source_File>
dock_pv.maegz

> <i_m_Source_File_Index>
145

> <chembl_id>
CHEMBL1242470

> <chembl_pref_name>
None

> <i_lp_mmshare_version>
53161

> <r_lp_tautomer_probability>
0.999999999997365

> <s_lp_Force_Field>
OPLS_2005

> <r_lp_Energy>
6.440513

> <b_lp_Chiralities_Consistent>
1

> <s_lp_Variant>
CHEMBL267_lig1807-1

> <s_i_glide_gridfile>
glide-grid_3el8

> <i_i_glide_lignum>
2070

> <i_i_glide_rotatable_bonds>
6

> <r_i_docking_score>
-8.08988200749665

> <r_i_glide_ligand_efficiency>
-0.337078416979027

> <r_i_glide_ligand_efficiency_sa>
-0.972302403065797

> <r_i_glide_ligand_efficiency_ln>
-1.93627998489022

> <r_i_glide_gscore>
-8.08988200749665

> <r_i_glide_lipo>
-2.0058354994542

> <r_i_glide_hbond>
-0.608

> <r_i_glide_metal>
0

> <r_i_glide_rewards>
-3.15771581888388

> <r_i_glide_evdw>
-35.120231628418

> <r_i_glide_ecoul>
-8.33589744567871

> <r_i_glide_erotb>
0.704412684384991

> <r_i_glide_esite>
-0.01634717527086

> <r_i_glide_emodel>
-58.9555739489148

> <r_i_glide_energy>
-43.4561290740967

> <r_i_glide_einternal>
8.90512847900391

> <i_i_glide_confnum>
18

> <i_i_glide_posenum>
183

> <r_i_glide_eff_state_penalty>
0

> <s_user_duplicate_titles>
CHEMBL267_lig1807

> <i_f3d_flags>
0

> <s_m_subgroup_title>
dock_pv

> <s_m_subgroupid>
dock_pv

> <b_m_subgroup_collapsed>
1

$$$$
CHEMBL267_lig1927
                    3D
 Schrodinger Suite 2021-1.
 41 45  0  0  1  0            999 V2000
    7.7523    6.8619    7.5824 N   0  0  0  0  0  0
    8.3214    7.8143    6.8026 C   0  0  0  0  0  0
    7.7042    8.7584    6.0519 N   0  0  0  0  0  0
    6.3993    6.8655    7.6538 C   0  0  0  0  0  0
    5.6354    7.8403    6.9808 C   0  0  0  0  0  0
    6.3735    8.7469    6.1885 C   0  0  0  0  0  0
    5.4523    9.5936    5.6071 N   0  0  0  0  0  0
    4.1963    9.2651    5.9814 N   0  0  0  0  0  0
    4.2681    8.2364    6.7974 C   0  0  0  0  0  0
    3.0370    7.6466    7.3925 C   0  0  0  0  0  0
    3.0207    7.2417    8.7315 C   0  0  0  0  0  0
    0.7412    6.8567    7.0590 C   0  0  0  0  0  0
    1.9093    7.4527    6.5833 C   0  0  0  0  0  0
    5.8213    5.8372    8.3892 N   0  0  0  0  0  0
    0.7448    6.4470    8.3979 C   0  0  0  0  0  0
    1.8654    6.6339    9.2425 C   0  0  0  0  0  0
    1.4517    6.1029   10.4973 C   0  0  0  0  0  0
    0.2334    5.6308   10.4460 N   0  0  0  0  0  0
   -0.2017    5.8270    9.1881 N   0  0  0  0  0  0
    5.6980   10.7172    4.6987 C   0  0  0  0  0  0
    5.1056   10.5184    3.2910 C   0  0  0  0  0  0
    4.7359   11.9252    2.7845 C   0  0  0  0  0  0
    5.0664   12.9034    3.9240 C   0  0  0  0  0  0
    5.1088   12.0469    5.1897 C   0  0  0  0  0  0
    9.3988    7.8355    6.7858 H   0  0  0  0  0  0
    3.8770    7.4045    9.3699 H   0  0  0  0  0  0
   -0.1126    6.7129    6.4123 H   0  0  0  0  0  0
    1.9417    7.7591    5.5462 H   0  0  0  0  0  0
    4.8166    5.7618    8.4400 H   0  0  0  0  0  0
    6.4206    5.1486    8.8222 H   0  0  0  0  0  0
    2.0268    6.0640   11.4122 H   0  0  0  0  0  0
   -1.1433    5.5567    8.9246 H   0  0  0  0  0  0
    6.7807   10.8342    4.6159 H   0  0  0  0  0  0
    5.8093   10.0198    2.6237 H   0  0  0  0  0  0
    4.1960    9.9173    3.3238 H   0  0  0  0  0  0
    5.2817   12.1855    1.8738 H   0  0  0  0  0  0
    3.6728   11.9717    2.5416 H   0  0  0  0  0  0
    6.0450   13.3587    3.7510 H   0  0  0  0  0  0
    4.3427   13.7167    3.9987 H   0  0  0  0  0  0
    4.0895   11.9164    5.5571 H   0  0  0  0  0  0
    5.7008   12.5043    5.9835 H   0  0  0  0  0  0
  1  2  2  0  0  0
  1  4  1  0  0  0
  2  3  1  0  0  0
  2 25  1  0  0  0
  3  6  2  0  0  0
  4 14  1  0  0  0
  4  5  2  0  0  0
  5  9  1  0  0  0
  5  6  1  0  0  0
  6  7  1  0  0  0
  7  8  1  0  0  0
  7 20  1  0  0  0
  8  9  2  0  0  0
  9 10  1  0  0  0
 10 13  1  0  0  0
 10 11  2  0  0  0
 11 16  1  0  0  0
 11 26  1  0  0  0
 12 15  1  0  0  0
 12 13  2  0  0  0
 12 27  1  0  0  0
 13 28  1  0  0  0
 14 29  1  0  0  0
 14 30  1  0  0  0
 15 16  2  0  0  0
 15 19  1  0  0  0
 16 17  1  0  0  0
 17 18  2  0  0  0
 17 31  1  0  0  0
 18 19  1  0  0  0
 19 32  1  0  0  0
 20 21  1  0  0  0
 20 24  1  0  0  0
 20 33  1  0  0  0
 21 22  1  0  0  0
 21 34  1  0  0  0
 21 35  1  0  0  0
 22 23  1  0  0  0
 22 36  1  0  0  0
 22 37  1  0  0  0
 23 24  1  0  0  0
 23 38  1  0  0  0
 23 39  1  0  0  0
 24 40  1  0  0  0
 24 41  1  0  0  0
M  END
> <s_m_entry_id>
31883

> <s_m_entry_name>
dock_pv.146

> <s_m_Source_Path>
/home/csk/Desktop/cluster/DUD-E-result/src

> <s_m_Source_File>
dock_pv.maegz

> <i_m_Source_File_Index>
146

> <chembl_id>
CHEMBL1242475

> <chembl_pref_name>
None

> <i_lp_mmshare_version>
53161

> <r_lp_tautomer_probability>
0.980392156862745

> <s_lp_Force_Field>
OPLS_2005

> <r_lp_Energy>
31.853627

> <b_lp_Chiralities_Consistent>
1

> <s_lp_Variant>
CHEMBL267_lig1927-1

> <s_i_glide_gridfile>
glide-grid_3el8

> <i_i_glide_lignum>
2204

> <i_i_glide_rotatable_bonds>
2

> <r_i_docking_score>
-8.0894542466127

> <r_i_glide_ligand_efficiency>
-0.337060593608862

> <r_i_glide_ligand_efficiency_sa>
-0.972250991569928

> <r_i_glide_ligand_efficiency_ln>
-1.93617760208202

> <r_i_glide_gscore>
-8.0894542466127

> <r_i_glide_lipo>
-2.15804287905569

> <r_i_glide_hbond>
-0.292804172099036

> <r_i_glide_metal>
0

> <r_i_glide_rewards>
-3.03942858611143

> <r_i_glide_evdw>
-39.199878692627

> <r_i_glide_ecoul>
-6.29783821105957

> <r_i_glide_erotb>
0.365863851434588

> <r_i_glide_esite>
-0.0603727944908536

> <r_i_glide_emodel>
-67.336969775495

> <r_i_glide_energy>
-45.4977169036865

> <r_i_glide_einternal>
0.549729943275452

> <i_i_glide_confnum>
5

> <i_i_glide_posenum>
370

> <r_i_glide_eff_state_penalty>
0

> <s_user_duplicate_titles>
CHEMBL267_lig1927,CHEMBL267_lig1927

> <i_f3d_flags>
0

> <s_m_subgroup_title>
dock_pv

> <s_m_subgroupid>
dock_pv

> <b_m_subgroup_collapsed>
1

$$$$
CHEMBL267_lig1535
                    3D
 Schrodinger Suite 2021-1.
 40 43  0  0  1  0            999 V2000
    7.8217    6.8054    7.4086 N   0  0  0  0  0  0
    8.1970    7.8371    6.6143 C   0  0  0  0  0  0
    7.3988    8.7659    6.0279 N   0  0  0  0  0  0
    6.4985    6.6887    7.6720 C   0  0  0  0  0  0
    5.5566    7.6163    7.1750 C   0  0  0  0  0  0
    6.1004    8.6219    6.3247 C   0  0  0  0  0  0
    5.0525    9.3832    5.8337 N   0  0  0  0  0  0
    3.8853    8.8982    6.3860 C   0  0  0  0  0  0
    4.1309    7.8369    7.2415 C   0  0  0  0  0  0
    3.1117    7.0965    8.0314 C   0  0  0  0  0  0
    1.9442    6.6459    7.4103 C   0  0  0  0  0  0
    1.0029    5.9186    8.1340 C   0  0  0  0  0  0
    1.2147    5.6431    9.4934 C   0  0  0  0  0  0
    2.3736    6.1129   10.1089 C   0  0  0  0  0  0
    3.3234    6.8275    9.3846 C   0  0  0  0  0  0
    6.1077    5.5610    8.3880 N   0  0  0  0  0  0
    5.1758   10.5307    4.9258 C   0  0  0  0  0  0
    0.3467    4.9211   10.2891 O   0  0  0  0  0  0
   -0.7957    4.3113    9.6966 C   0  0  0  0  0  0
    3.9286   11.1497    4.2629 C   0  0  0  0  0  0
    3.8974   12.1682    5.4136 C   0  0  0  0  0  0
    5.4053   11.9146    5.5604 C   0  0  0  0  0  0
    9.2539    7.9065    6.3913 H   0  0  0  0  0  0
    2.9436    9.3702    6.1479 H   0  0  0  0  0  0
    1.7765    6.8403    6.3613 H   0  0  0  0  0  0
    0.1224    5.5689    7.6194 H   0  0  0  0  0  0
    2.5494    5.8975   11.1544 H   0  0  0  0  0  0
    4.2203    7.1728    9.8794 H   0  0  0  0  0  0
    5.1267    5.4298    8.5951 H   0  0  0  0  0  0
    6.8056    4.9036    8.7131 H   0  0  0  0  0  0
    5.9398   10.2271    4.2079 H   0  0  0  0  0  0
   -1.3982    3.8393   10.4726 H   0  0  0  0  0  0
   -0.5046    3.5383    8.9836 H   0  0  0  0  0  0
   -1.4279    5.0375    9.1880 H   0  0  0  0  0  0
    4.1373   11.6093    3.2927 H   0  0  0  0  0  0
    3.0636   10.4968    4.1480 H   0  0  0  0  0  0
    3.6105   13.1814    5.1335 H   0  0  0  0  0  0
    3.3123   11.8492    6.2769 H   0  0  0  0  0  0
    5.7979   11.9081    6.5777 H   0  0  0  0  0  0
    6.0137   12.5821    4.9469 H   0  0  0  0  0  0
  1  2  2  0  0  0
  1  4  1  0  0  0
  2  3  1  0  0  0
  2 23  1  0  0  0
  3  6  2  0  0  0
  4  5  2  0  0  0
  4 16  1  0  0  0
  5  9  1  0  0  0
  5  6  1  0  0  0
  6  7  1  0  0  0
  7 17  1  0  0  0
  7  8  1  0  0  0
  8  9  2  0  0  0
  8 24  1  0  0  0
  9 10  1  0  0  0
 10 11  2  0  0  0
 10 15  1  0  0  0
 11 12  1  0  0  0
 11 25  1  0  0  0
 12 13  2  0  0  0
 12 26  1  0  0  0
 13 14  1  0  0  0
 13 18  1  0  0  0
 14 15  2  0  0  0
 14 27  1  0  0  0
 15 28  1  0  0  0
 16 29  1  0  0  0
 16 30  1  0  0  0
 17 20  1  0  0  0
 17 22  1  0  0  0
 17 31  1  0  0  0
 18 19  1  0  0  0
 19 32  1  0  0  0
 19 33  1  0  0  0
 19 34  1  0  0  0
 20 21  1  0  0  0
 20 35  1  0  0  0
 20 36  1  0  0  0
 21 22  1  0  0  0
 21 37  1  0  0  0
 21 38  1  0  0  0
 22 39  1  0  0  0
 22 40  1  0  0  0
M  END
> <s_m_entry_id>
31884

> <s_m_entry_name>
dock_pv.147

> <s_m_Source_Path>
/home/csk/Desktop/cluster/DUD-E-result/src

> <s_m_Source_File>
dock_pv.maegz

> <i_m_Source_File_Index>
147

> <chembl_id>
CHEMBL169079

> <chembl_pref_name>
None

> <i_lp_mmshare_version>
53161

> <r_lp_tautomer_probability>
1

> <s_lp_Force_Field>
OPLS_2005

> <r_lp_Energy>
27.126769

> <b_lp_Chiralities_Consistent>
1

> <s_lp_Variant>
CHEMBL267_lig1535-1

> <s_i_glide_gridfile>
glide-grid_3el8

> <i_i_glide_lignum>
1716

> <i_i_glide_rotatable_bonds>
3

> <r_i_docking_score>
-8.08354536024799

> <r_i_glide_ligand_efficiency>
-0.367433880011272

> <r_i_glide_ligand_efficiency_sa>
-1.02956418214609

> <r_i_glide_ligand_efficiency_ln>
-1.97591334052577

> <r_i_glide_gscore>
-8.08354536024799

> <r_i_glide_lipo>
-2.24560954436938

> <r_i_glide_hbond>
-0.392738423452431

> <r_i_glide_metal>
0

> <r_i_glide_rewards>
-3.29778037929654

> <r_i_glide_evdw>
-34.3417587280273

> <r_i_glide_ecoul>
-4.83880662918091

> <r_i_glide_erotb>
0.295491917648861

> <r_i_glide_esite>
0

> <r_i_glide_emodel>
-57.8189817492549

> <r_i_glide_energy>
-39.1805653572083

> <r_i_glide_einternal>
0.401768088340759

> <i_i_glide_confnum>
16

> <i_i_glide_posenum>
348

> <r_i_glide_eff_state_penalty>
0

> <s_user_duplicate_titles>
CHEMBL267_lig1535,282184

> <i_f3d_flags>
0

> <s_m_subgroup_title>
dock_pv

> <s_m_subgroupid>
dock_pv

> <b_m_subgroup_collapsed>
1

$$$$
CHEMBL267_lig2250
                    3D
 Schrodinger Suite 2021-1.
 53 57  0  0  1  0            999 V2000
    0.4811    4.9048    9.0360 C   0  0  0  0  0  0
    2.8508   10.5610    2.9280 C   0  0  0  0  0  0
    1.3419    5.2344    8.1126 N   0  0  0  0  0  0
    3.2034    9.8330    4.0333 N   0  0  0  0  0  0
    0.7619    5.4235   10.2875 N   0  0  0  0  0  0
    4.5724    9.7373    4.0482 C   0  0  0  0  0  0
    2.2317    6.0394    8.7618 C   0  0  0  0  0  0
    5.1002   10.3677    3.0199 N   0  0  0  0  0  0
    1.9109    6.1726   10.1349 C   0  0  0  0  0  0
    4.0779   10.8876    2.3625 C   0  0  0  0  0  0
   -0.6763    4.2304    8.7884 N   0  0  0  0  0  0
    5.3494    9.0372    5.1161 C   0  0  0  0  0  0
    3.3353    6.7126    8.2348 C   0  0  0  0  0  0
    4.8341    8.8155    6.3950 C   0  0  0  0  0  0
    2.6860    6.9462   11.0026 C   0  0  0  0  0  0
   -1.4630    0.1144    8.5194 C   0  0  0  0  0  0
    6.6152    8.6739    4.7880 N   0  0  0  0  0  0
    4.1282    7.4813    9.0923 C   0  0  0  0  0  0
    5.6611    8.2368    7.3698 C   0  0  0  0  0  0
    5.2798    8.1205    8.6860 O   0  0  0  0  0  0
   -0.8911    2.8516    8.6991 C   0  0  0  0  0  0
   -2.4814    1.0329    8.7880 C   0  0  0  0  0  0
   -0.1529    0.5751    8.3880 C   0  0  0  0  0  0
    3.7970    7.5851   10.4458 C   0  0  0  0  0  0
   -0.0417    5.2992   11.5000 C   0  0  0  0  0  0
    7.4008    8.0961    5.7289 C   0  0  0  0  0  0
    6.9647    7.8741    7.0322 C   0  0  0  0  0  0
   -2.2019    2.3977    8.8297 C   0  0  0  0  0  0
    0.1400    1.9367    8.4827 C   0  0  0  0  0  0
   -1.7542   -1.3811    8.3898 C   0  0  0  0  0  0
   -0.9466   -2.0829    9.1870 F   0  0  0  0  0  0
   -3.0127   -1.6834    8.7157 F   0  0  0  0  0  0
   -1.5456   -1.7627    7.1297 F   0  0  0  0  0  0
    1.4196   10.9141    2.5903 C   0  0  0  0  0  0
    1.3015   11.2902    1.3176 F   0  0  0  0  0  0
    0.9958   11.9202    3.3539 F   0  0  0  0  0  0
    0.6044    9.8784    2.7881 F   0  0  0  0  0  0
    2.5678    9.4312    4.7073 H   0  0  0  0  0  0
    4.2262   11.4850    1.4724 H   0  0  0  0  0  0
   -1.5223    4.7764    8.6672 H   0  0  0  0  0  0
    3.5638    6.6370    7.1880 H   0  0  0  0  0  0
    3.8401    9.1412    6.6609 H   0  0  0  0  0  0
    2.4522    7.0371   12.0536 H   0  0  0  0  0  0
   -3.5072    0.7087    8.8898 H   0  0  0  0  0  0
    0.6388   -0.1343    8.2039 H   0  0  0  0  0  0
    4.4288    8.1778   11.0918 H   0  0  0  0  0  0
   -0.5452    6.2371   11.7085 H   0  0  0  0  0  0
   -0.8070    4.5351   11.3755 H   0  0  0  0  0  0
    0.5977    5.0387   12.3427 H   0  0  0  0  0  0
    8.4058    7.8362    5.4264 H   0  0  0  0  0  0
    7.6234    7.4468    7.7732 H   0  0  0  0  0  0
   -3.0127    3.0940    8.9892 H   0  0  0  0  0  0
    1.1598    2.2772    8.3876 H   0  0  0  0  0  0
  1 11  1  0  0  0
  1  3  2  0  0  0
  1  5  1  0  0  0
  2 10  2  0  0  0
  2  4  1  0  0  0
  2 34  1  0  0  0
  3  7  1  0  0  0
  4  6  1  0  0  0
  4 38  1  0  0  0
  5  9  1  0  0  0
  5 25  1  0  0  0
  6 12  1  0  0  0
  6  8  2  0  0  0
  7 13  1  0  0  0
  7  9  2  0  0  0
  8 10  1  0  0  0
  9 15  1  0  0  0
 10 39  1  0  0  0
 11 21  1  0  0  0
 11 40  1  0  0  0
 12 14  2  0  0  0
 12 17  1  0  0  0
 13 18  2  0  0  0
 13 41  1  0  0  0
 14 19  1  0  0  0
 14 42  1  0  0  0
 15 24  2  0  0  0
 15 43  1  0  0  0
 16 22  1  0  0  0
 16 23  2  0  0  0
 16 30  1  0  0  0
 17 26  2  0  0  0
 18 20  1  0  0  0
 18 24  1  0  0  0
 19 20  1  0  0  0
 19 27  2  0  0  0
 21 28  1  0  0  0
 21 29  2  0  0  0
 22 28  2  0  0  0
 22 44  1  0  0  0
 23 29  1  0  0  0
 23 45  1  0  0  0
 24 46  1  0  0  0
 25 47  1  0  0  0
 25 48  1  0  0  0
 25 49  1  0  0  0
 26 27  1  0  0  0
 26 50  1  0  0  0
 27 51  1  0  0  0
 28 52  1  0  0  0
 29 53  1  0  0  0
 30 31  1  0  0  0
 30 32  1  0  0  0
 30 33  1  0  0  0
 34 35  1  0  0  0
 34 36  1  0  0  0
 34 37  1  0  0  0
M  END
> <s_m_entry_id>
31885

> <s_m_entry_name>
dock_pv.148

> <s_m_Source_Path>
/home/csk/Desktop/cluster/DUD-E-result/src

> <s_m_Source_File>
dock_pv.maegz

> <i_m_Source_File_Index>
148

> <chembl_id>
CHEMBL558752

> <chembl_pref_name>
RAF-265

> <i_lp_mmshare_version>
53161

> <r_lp_tautomer_probability>
0.499999999999999

> <s_lp_Force_Field>
OPLS_2005

> <r_lp_Energy>
20.528521

> <b_lp_Chiralities_Consistent>
1

> <s_lp_Variant>
CHEMBL267_lig2250-1

> <s_i_glide_gridfile>
glide-grid_3el8

> <i_i_glide_lignum>
2545

> <i_i_glide_rotatable_bonds>
7

> <r_i_docking_score>
-8.08021135840062

> <r_i_glide_ligand_efficiency>
-0.218384090767584

> <r_i_glide_ligand_efficiency_sa>
-0.727704238431684

> <r_i_glide_ligand_efficiency_ln>
-1.75240841660676

> <r_i_glide_gscore>
-8.08021135840062

> <r_i_glide_lipo>
-3.74252828709671

> <r_i_glide_hbond>
-0.210532981167568

> <r_i_glide_metal>
0

> <r_i_glide_rewards>
-1.49745994518175

> <r_i_glide_evdw>
-47.121395111084

> <r_i_glide_ecoul>
-4.1500358581543

> <r_i_glide_erotb>
0.382102846692477

> <r_i_glide_esite>
-0.0332178573697253

> <r_i_glide_emodel>
-61.8081271895522

> <r_i_glide_energy>
-51.2714309692383

> <r_i_glide_einternal>
16.7695159912109

> <i_i_glide_confnum>
3

> <i_i_glide_posenum>
43

> <r_i_glide_eff_state_penalty>
0

> <s_user_duplicate_titles>
CHEMBL267_lig2250,CHEMBL267_lig2250

> <i_f3d_flags>
0

> <s_m_subgroup_title>
dock_pv

> <s_m_subgroupid>
dock_pv

> <b_m_subgroup_collapsed>
1

$$$$
CHEMBL267_lig1923
                    3D
 Schrodinger Suite 2021-1.
 42 46  0  0  1  0            999 V2000
    7.7436    6.8944    7.5828 N   0  0  0  0  0  0
    8.3211    7.8267    6.7874 C   0  0  0  0  0  0
    7.7114    8.7500    6.0016 N   0  0  0  0  0  0
    6.3896    6.8949    7.6360 C   0  0  0  0  0  0
    5.6312    7.8486    6.9281 C   0  0  0  0  0  0
    6.3795    8.7346    6.1189 C   0  0  0  0  0  0
    5.4613    9.5597    5.5005 N   0  0  0  0  0  0
    4.2008    9.2299    5.8599 N   0  0  0  0  0  0
    4.2632    8.2381    6.7218 C   0  0  0  0  0  0
    3.0246    7.6888    7.3441 C   0  0  0  0  0  0
    3.0344    7.3174    8.6912 C   0  0  0  0  0  0
    0.7089    6.9355    7.0876 C   0  0  0  0  0  0
    1.8722    7.5067    6.5724 C   0  0  0  0  0  0
    5.8035    5.8823    8.3879 N   0  0  0  0  0  0
    0.7463    6.5296    8.4242 C   0  0  0  0  0  0
    1.8947    6.7243    9.2498 C   0  0  0  0  0  0
    1.5622    6.2366   10.5547 C   0  0  0  0  0  0
    0.2771    5.7404   10.4869 C   0  0  0  0  0  0
   -0.2018    5.9144    9.2131 N   0  0  0  0  0  0
    5.7049   10.6868    4.5930 C   0  0  0  0  0  0
    5.0674   10.5259    3.1983 C   0  0  0  0  0  0
    4.6628   11.9403    2.7433 C   0  0  0  0  0  0
    5.0899   12.8975    3.8653 C   0  0  0  0  0  0
    5.1656   12.0269    5.1200 C   0  0  0  0  0  0
    9.3981    7.8342    6.7853 H   0  0  0  0  0  0
    3.9046    7.4942    9.3054 H   0  0  0  0  0  0
   -0.1708    6.8069    6.4678 H   0  0  0  0  0  0
    1.8805    7.8018    5.5320 H   0  0  0  0  0  0
    4.7981    5.8064    8.4200 H   0  0  0  0  0  0
    6.4018    5.2080    8.8448 H   0  0  0  0  0  0
    2.1862    6.2353   11.4366 H   0  0  0  0  0  0
   -0.3504    5.2846   11.2397 H   0  0  0  0  0  0
   -1.1398    5.6402    8.9408 H   0  0  0  0  0  0
    6.7870   10.7811    4.4754 H   0  0  0  0  0  0
    5.7572   10.0591    2.4949 H   0  0  0  0  0  0
    4.1695    9.9060    3.2374 H   0  0  0  0  0  0
    5.1319   12.2113    1.7946 H   0  0  0  0  0  0
    3.5827   11.9927    2.5907 H   0  0  0  0  0  0
    6.0762   13.3126    3.6443 H   0  0  0  0  0  0
    4.4044   13.7393    3.9818 H   0  0  0  0  0  0
    4.1600   11.9170    5.5303 H   0  0  0  0  0  0
    5.7976   12.4662    5.8918 H   0  0  0  0  0  0
  1  2  2  0  0  0
  1  4  1  0  0  0
  2  3  1  0  0  0
  2 25  1  0  0  0
  3  6  2  0  0  0
  4 14  1  0  0  0
  4  5  2  0  0  0
  5  9  1  0  0  0
  5  6  1  0  0  0
  6  7  1  0  0  0
  7  8  1  0  0  0
  7 20  1  0  0  0
  8  9  2  0  0  0
  9 10  1  0  0  0
 10 13  1  0  0  0
 10 11  2  0  0  0
 11 16  1  0  0  0
 11 26  1  0  0  0
 12 15  1  0  0  0
 12 13  2  0  0  0
 12 27  1  0  0  0
 13 28  1  0  0  0
 14 29  1  0  0  0
 14 30  1  0  0  0
 15 16  2  0  0  0
 15 19  1  0  0  0
 16 17  1  0  0  0
 17 18  2  0  0  0
 17 31  1  0  0  0
 18 19  1  0  0  0
 18 32  1  0  0  0
 19 33  1  0  0  0
 20 21  1  0  0  0
 20 24  1  0  0  0
 20 34  1  0  0  0
 21 22  1  0  0  0
 21 35  1  0  0  0
 21 36  1  0  0  0
 22 23  1  0  0  0
 22 37  1  0  0  0
 22 38  1  0  0  0
 23 24  1  0  0  0
 23 39  1  0  0  0
 23 40  1  0  0  0
 24 41  1  0  0  0
 24 42  1  0  0  0
M  END
> <s_m_entry_id>
31886

> <s_m_entry_name>
dock_pv.149

> <s_m_Source_Path>
/home/csk/Desktop/cluster/DUD-E-result/src

> <s_m_Source_File>
dock_pv.maegz

> <i_m_Source_File_Index>
149

> <chembl_id>
CHEMBL1242295

> <chembl_pref_name>
None

> <i_lp_mmshare_version>
53161

> <r_lp_tautomer_probability>
1

> <s_lp_Force_Field>
OPLS_2005

> <r_lp_Energy>
31.066212

> <b_lp_Chiralities_Consistent>
1

> <s_lp_Variant>
CHEMBL267_lig1923-1

> <s_i_glide_gridfile>
glide-grid_3el8

> <i_i_glide_lignum>
2199

> <i_i_glide_rotatable_bonds>
2

> <r_i_docking_score>
-8.07671441370982

> <r_i_glide_ligand_efficiency>
-0.336529767237909

> <r_i_glide_ligand_efficiency_sa>
-0.97071982336072

> <r_i_glide_ligand_efficiency_ln>
-1.93312837547553

> <r_i_glide_gscore>
-8.07671441370982

> <r_i_glide_lipo>
-2.1872890475363

> <r_i_glide_hbond>
-0.272660769067159

> <r_i_glide_metal>
0

> <r_i_glide_rewards>
-3.05014772718909

> <r_i_glide_evdw>
-39.2686882019043

> <r_i_glide_ecoul>
-6.05431127548218

> <r_i_glide_erotb>
0.36786601449283

> <r_i_glide_esite>
-0.0629017829925701

> <r_i_glide_emodel>
-67.340175098015

> <r_i_glide_energy>
-45.3229994773865

> <r_i_glide_einternal>
0.566600203514099

> <i_i_glide_confnum>
13

> <i_i_glide_posenum>
93

> <r_i_glide_eff_state_penalty>
0

> <s_user_duplicate_titles>
CHEMBL267_lig1923

> <i_f3d_flags>
0

> <s_m_subgroup_title>
dock_pv

> <s_m_subgroupid>
dock_pv

> <b_m_subgroup_collapsed>
1

$$$$
CHEMBL267_lig425
                    3D
 Schrodinger Suite 2021-1.
 51 54  0  0  1  0            999 V2000
    5.7703    8.3215    6.4827 C   0  0  0  0  0  0
    4.6993    9.0559    5.9914 N   0  0  0  0  0  0
    5.2667    7.4300    7.4739 C   0  0  0  0  0  0
    3.8695    7.7119    7.6386 C   0  0  0  0  0  0
    3.5670    8.6543    6.6739 C   0  0  0  0  0  0
    4.7380   10.0671    4.9184 C   0  0  2  0  0  0
    7.0478    8.3831    6.0814 N   0  0  0  0  0  0
    6.1974    6.4980    7.9787 C   0  0  0  0  0  0
    2.9363    7.0389    8.5697 C   0  0  0  0  0  0
    2.7460   11.3523    4.8881 N   0  0  1  0  0  0
    7.4959    6.5234    7.5879 N   0  0  0  0  0  0
    4.1261   11.4082    5.3520 C   0  0  0  0  0  0
    7.8499    7.4708    6.6848 C   0  0  0  0  0  0
    3.8972    9.6403    3.6949 C   0  0  0  0  0  0
    2.3279   13.8752    4.3846 C   0  0  0  0  0  0
    1.9564    6.1693    8.0871 C   0  0  0  0  0  0
    1.8917   12.5419    5.0353 C   0  0  0  0  0  0
    2.7767   10.6846    3.5922 C   0  0  0  0  0  0
    1.7972   14.9325    4.7408 O   0  0  0  0  0  0
    5.7985    5.4372    8.7879 N   0  0  0  0  0  0
    1.0917    5.5092    8.9607 C   0  0  0  0  0  0
    3.2985   13.7700    3.4460 O   0  0  0  0  0  0
    3.0452    7.2668    9.9418 C   0  0  0  0  0  0
    0.1978    4.6254    8.3899 O   0  0  0  0  0  0
    2.1725    6.6354   10.8256 C   0  0  0  0  0  0
    1.1958    5.7642   10.3394 C   0  0  0  0  0  0
    3.8167   14.9271    2.8038 C   0  0  0  0  0  0
   -0.7307    3.9437    9.2278 C   0  0  0  0  0  0
    2.6162    9.1056    6.4279 H   0  0  0  0  0  0
    5.7965   10.1784    4.6723 H   0  0  0  0  0  0
    4.6440   12.2489    4.8880 H   0  0  0  0  0  0
    4.2004   11.6209    6.4194 H   0  0  0  0  0  0
    8.8900    7.4824    6.3888 H   0  0  0  0  0  0
    3.4801    8.6371    3.7981 H   0  0  0  0  0  0
    4.5056    9.6464    2.7895 H   0  0  0  0  0  0
    1.8780    5.9811    7.0253 H   0  0  0  0  0  0
    1.7744   12.7275    6.1043 H   0  0  0  0  0  0
    0.8996   12.2981    4.6547 H   0  0  0  0  0  0
    1.7989   10.2414    3.3958 H   0  0  0  0  0  0
    2.9339   11.3761    2.7619 H   0  0  0  0  0  0
    4.8386    5.3892    9.1028 H   0  0  0  0  0  0
    6.4914    4.7642    9.0895 H   0  0  0  0  0  0
    3.8045    7.9348   10.3230 H   0  0  0  0  0  0
    2.2604    6.8120   11.8875 H   0  0  0  0  0  0
    0.5393    5.2812   11.0489 H   0  0  0  0  0  0
    4.6311   14.6424    2.1343 H   0  0  0  0  0  0
    4.2147   15.6385    3.5331 H   0  0  0  0  0  0
    3.0465   15.4272    2.2107 H   0  0  0  0  0  0
   -1.3491    3.2799    8.6229 H   0  0  0  0  0  0
   -0.2244    3.3327    9.9771 H   0  0  0  0  0  0
   -1.4010    4.6387    9.7342 H   0  0  0  0  0  0
  1  2  1  0  0  0
  1  3  2  0  0  0
  1  7  1  0  0  0
  2  5  1  0  0  0
  2  6  1  0  0  0
  3  4  1  0  0  0
  3  8  1  0  0  0
  4  9  1  0  0  0
  4  5  2  0  0  0
  5 29  1  0  0  0
  6 12  1  0  0  0
  6 14  1  0  0  0
  6 30  1  0  0  0
  7 13  2  0  0  0
  8 20  1  0  0  0
  8 11  2  0  0  0
  9 16  2  0  0  0
  9 23  1  0  0  0
 10 12  1  0  0  0
 10 17  1  0  0  0
 10 18  1  0  0  0
 11 13  1  0  0  0
 12 31  1  0  0  0
 12 32  1  0  0  0
 13 33  1  0  0  0
 14 18  1  0  0  0
 14 34  1  0  0  0
 14 35  1  0  0  0
 15 17  1  0  0  0
 15 19  2  0  0  0
 15 22  1  0  0  0
 16 21  1  0  0  0
 16 36  1  0  0  0
 17 37  1  0  0  0
 17 38  1  0  0  0
 18 39  1  0  0  0
 18 40  1  0  0  0
 20 41  1  0  0  0
 20 42  1  0  0  0
 21 24  1  0  0  0
 21 26  2  0  0  0
 22 27  1  0  0  0
 23 25  2  0  0  0
 23 43  1  0  0  0
 24 28  1  0  0  0
 25 26  1  0  0  0
 25 44  1  0  0  0
 26 45  1  0  0  0
 27 46  1  0  0  0
 27 47  1  0  0  0
 27 48  1  0  0  0
 28 49  1  0  0  0
 28 50  1  0  0  0
 28 51  1  0  0  0
M  END
> <s_m_entry_id>
31887

> <s_m_entry_name>
dock_pv.150

> <s_m_Source_Path>
/home/csk/Desktop/cluster/DUD-E-result/src

> <s_m_Source_File>
dock_pv.maegz

> <i_m_Source_File_Index>
150

> <chembl_id>
CHEMBL355891

> <chembl_pref_name>
None

> <i_lp_mmshare_version>
53161

> <r_lp_tautomer_probability>
1

> <s_lp_Force_Field>
OPLS_2005

> <r_lp_Energy>
41.595219

> <b_lp_Chiralities_Consistent>
1

> <s_lp_Variant>
CHEMBL267_lig425-1

> <s_i_glide_gridfile>
glide-grid_3el8

> <i_i_glide_lignum>
504

> <i_i_glide_rotatable_bonds>
6

> <r_i_docking_score>
-8.06831557462822

> <r_i_glide_ligand_efficiency>
-0.288154127665293

> <r_i_glide_ligand_efficiency_sa>
-0.875005645296983

> <r_i_glide_ligand_efficiency_ln>
-1.86240413066324

> <r_i_glide_gscore>
-8.06831557462822

> <r_i_glide_lipo>
-2.77721570929837

> <r_i_glide_hbond>
-0.410672446774934

> <r_i_glide_metal>
0

> <r_i_glide_rewards>
-2.59667987488838

> <r_i_glide_evdw>
-39.874397277832

> <r_i_glide_ecoul>
-5.49138927459717

> <r_i_glide_erotb>
0.533680711414639

> <r_i_glide_esite>
0

> <r_i_glide_emodel>
-62.306139635323

> <r_i_glide_energy>
-45.3657865524292

> <r_i_glide_einternal>
8.57161808013916

> <i_i_glide_confnum>
21

> <i_i_glide_posenum>
347

> <r_i_glide_eff_state_penalty>
0

> <s_user_duplicate_titles>
CHEMBL267_lig425

> <i_f3d_flags>
0

> <s_m_subgroup_title>
dock_pv

> <s_m_subgroupid>
dock_pv

> <b_m_subgroup_collapsed>
1

$$$$
CHEMBL267_lig2041
                    3D
 Schrodinger Suite 2021-1.
 53 56  0  0  1  0            999 V2000
   -0.2017    4.7714   10.1877 C   0  0  0  0  0  0
    0.0277    3.6120    9.4562 C   0  0  0  0  0  0
    1.0738    3.5461    8.5476 C   0  0  0  0  0  0
    1.8715    4.6654    8.3335 C   0  0  0  0  0  0
    1.6429    5.8493    9.0462 C   0  0  0  0  0  0
    0.5975    5.8894    9.9771 C   0  0  0  0  0  0
    2.4170    7.0946    8.7343 C   0  0  0  0  0  0
    3.8627    7.0235    8.3299 C   0  0  0  0  0  0
    1.8505    8.1907    8.7880 O   0  0  0  0  0  0
    4.6907    5.9751    8.7601 C   0  0  0  0  0  0
    6.0344    5.8928    8.3880 C   0  0  0  0  0  0
    4.3866    8.0610    7.5449 C   0  0  0  0  0  0
    5.7301    7.9789    7.1720 C   0  0  0  0  0  0
    6.5648    6.9154    7.5880 C   0  0  0  0  0  0
    7.8316    7.0622    7.0921 N   0  0  0  0  0  0
    7.7756    8.1557    6.3755 C   0  0  0  0  0  0
    6.5396    8.7742    6.3840 N   0  0  0  0  0  0
    8.8319    8.6370    5.6644 N   0  0  0  0  0  0
    6.1220    9.9816    5.6673 C   0  0  0  0  0  0
    5.1815    9.6347    4.4892 C   0  0  0  0  0  0
    4.2261   10.7922    4.0948 C   0  0  0  0  0  0
    3.5709   10.5815    2.7160 C   0  0  0  0  0  0
    2.5396    9.4305    2.7111 C   0  0  0  0  0  0
    1.5080    9.6122    3.7435 N   0  0  2  0  0  0
    2.0383    9.8668    5.0893 C   0  0  0  0  0  0
    3.0692   11.0200    5.0962 C   0  0  0  0  0  0
    0.5972    8.4704    3.7597 C   0  0  0  0  0  0
   -1.0147    4.8148   10.8973 H   0  0  0  0  0  0
   -0.6131    2.7529    9.5880 H   0  0  0  0  0  0
    1.2464    2.6384    7.9884 H   0  0  0  0  0  0
    2.6451    4.6089    7.5815 H   0  0  0  0  0  0
    0.3854    6.7844   10.5391 H   0  0  0  0  0  0
    4.2893    5.1966    9.3928 H   0  0  0  0  0  0
    6.6487    5.0678    8.7192 H   0  0  0  0  0  0
    3.7740    8.8906    7.2270 H   0  0  0  0  0  0
    9.6199    8.0219    5.4843 H   0  0  0  0  0  0
    8.8156    9.5229    5.1850 H   0  0  0  0  0  0
    5.6232   10.6240    6.3884 H   0  0  0  0  0  0
    6.9925   10.5416    5.3247 H   0  0  0  0  0  0
    5.7997    9.3561    3.6344 H   0  0  0  0  0  0
    4.5946    8.7428    4.7095 H   0  0  0  0  0  0
    4.7993   11.7192    4.0320 H   0  0  0  0  0  0
    3.0979   11.4958    2.3537 H   0  0  0  0  0  0
    4.3490   10.3589    1.9880 H   0  0  0  0  0  0
    2.0544    9.3661    1.7355 H   0  0  0  0  0  0
    3.0437    8.4751    2.8610 H   0  0  0  0  0  0
    1.2123   10.0968    5.7643 H   0  0  0  0  0  0
    2.4869    8.9471    5.4646 H   0  0  0  0  0  0
    3.4568   11.1247    6.1084 H   0  0  0  0  0  0
    2.5565   11.9616    4.8940 H   0  0  0  0  0  0
   -0.1973    8.6169    4.4925 H   0  0  0  0  0  0
    0.1202    8.3385    2.7881 H   0  0  0  0  0  0
    1.1176    7.5440    4.0087 H   0  0  0  0  0  0
  1  6  1  0  0  0
  1  2  2  0  0  0
  1 28  1  0  0  0
  2  3  1  0  0  0
  2 29  1  0  0  0
  3  4  2  0  0  0
  3 30  1  0  0  0
  4  5  1  0  0  0
  4 31  1  0  0  0
  5  7  1  0  0  0
  5  6  2  0  0  0
  6 32  1  0  0  0
  7  8  1  0  0  0
  7  9  2  0  0  0
  8 10  2  0  0  0
  8 12  1  0  0  0
 10 11  1  0  0  0
 10 33  1  0  0  0
 11 14  2  0  0  0
 11 34  1  0  0  0
 12 13  2  0  0  0
 12 35  1  0  0  0
 13 14  1  0  0  0
 13 17  1  0  0  0
 14 15  1  0  0  0
 15 16  2  0  0  0
 16 17  1  0  0  0
 16 18  1  0  0  0
 17 19  1  0  0  0
 18 36  1  0  0  0
 18 37  1  0  0  0
 19 20  1  0  0  0
 19 38  1  0  0  0
 19 39  1  0  0  0
 20 21  1  0  0  0
 20 40  1  0  0  0
 20 41  1  0  0  0
 21 22  1  0  0  0
 21 26  1  0  0  0
 21 42  1  0  0  0
 22 23  1  0  0  0
 22 43  1  0  0  0
 22 44  1  0  0  0
 23 24  1  0  0  0
 23 45  1  0  0  0
 23 46  1  0  0  0
 24 25  1  0  0  0
 24 27  1  0  0  0
 25 26  1  0  0  0
 25 47  1  0  0  0
 25 48  1  0  0  0
 26 49  1  0  0  0
 26 50  1  0  0  0
 27 51  1  0  0  0
 27 52  1  0  0  0
 27 53  1  0  0  0
M  END
> <s_m_entry_id>
31888

> <s_m_entry_name>
dock_pv.151

> <s_m_Source_Path>
/home/csk/Desktop/cluster/DUD-E-result/src

> <s_m_Source_File>
dock_pv.maegz

> <i_m_Source_File_Index>
151

> <chembl_id>
CHEMBL2059177

> <chembl_pref_name>
None

> <i_lp_mmshare_version>
53161

> <r_lp_tautomer_probability>
1

> <s_lp_Force_Field>
OPLS_2005

> <r_lp_Energy>
34.30356

> <b_lp_Chiralities_Consistent>
1

> <s_lp_Variant>
CHEMBL267_lig2041-1

> <s_i_glide_gridfile>
glide-grid_3el8

> <i_i_glide_lignum>
2325

> <i_i_glide_rotatable_bonds>
5

> <r_i_docking_score>
-8.05476698240922

> <r_i_glide_ligand_efficiency>
-0.298324703052193

> <r_i_glide_ligand_efficiency_sa>
-0.894974108173351

> <r_i_glide_ligand_efficiency_ln>
-1.87501696029281

> <r_i_glide_gscore>
-8.05476698240922

> <r_i_glide_lipo>
-3.02633338482291

> <r_i_glide_hbond>
-0.32

> <r_i_glide_metal>
0

> <r_i_glide_rewards>
-2.79016883691742

> <r_i_glide_evdw>
-37.7307929992676

> <r_i_glide_ecoul>
-5.06694793701172

> <r_i_glide_erotb>
0.73077661966485

> <r_i_glide_esite>
-0.002459539818609

> <r_i_glide_emodel>
-61.7089646423565

> <r_i_glide_energy>
-42.7977409362793

> <r_i_glide_einternal>
3.03038287162781

> <i_i_glide_confnum>
147

> <i_i_glide_posenum>
294

> <r_i_glide_eff_state_penalty>
0

> <s_user_duplicate_titles>
CHEMBL267_lig2041

> <i_f3d_flags>
0

> <s_m_subgroup_title>
dock_pv

> <s_m_subgroupid>
dock_pv

> <b_m_subgroup_collapsed>
1

$$$$
CHEMBL267_lig1827
                    3D
 Schrodinger Suite 2021-1.
 39 42  0  0  1  0            999 V2000
   -1.4937    3.8370    9.1624 C   0  0  0  0  0  0
   -0.1590    3.8652    8.3945 C   0  0  0  0  0  0
    0.4934    2.4726    8.3845 C   0  0  0  0  0  0
    0.8198    4.8436    8.8940 N   0  0  0  0  0  0
    1.9044    5.1328    8.1247 N   0  0  0  0  0  0
    0.9392    5.4370   10.1374 C   0  0  0  0  0  0
    0.0866    5.4282   11.1660 N   0  0  0  0  0  0
    0.5624    6.0695   12.2576 C   0  0  0  0  0  0
    1.7750    6.6370   12.4227 N   0  0  0  0  0  0
    2.5907    6.6512   11.3501 C   0  0  0  0  0  0
    3.7980    7.3169   11.4917 N   0  0  0  0  0  0
    2.2039    6.0596   10.1437 C   0  0  0  0  0  0
    2.7338    5.8528    8.8451 C   0  0  0  0  0  0
    4.0802    6.2640    8.3880 C   0  0  0  0  0  0
    4.2970    7.4370    7.6616 C   0  0  0  0  0  0
    5.6067    7.7646    7.2220 C   0  0  0  0  0  0
    5.8851    8.8813    6.3949 C   0  0  0  0  0  0
    7.1918    9.1030    5.9668 C   0  0  0  0  0  0
    8.1980    8.2370    6.3880 C   0  0  0  0  0  0
    7.9777    7.1659    7.1880 N   0  0  0  0  0  0
    6.6994    6.9141    7.5835 C   0  0  0  0  0  0
    6.4412    5.7290    8.3025 C   0  0  0  0  0  0
    5.1440    5.4172    8.6817 C   0  0  0  0  0  0
   -2.2111    3.1769    8.6730 H   0  0  0  0  0  0
   -1.3811    3.4823   10.1867 H   0  0  0  0  0  0
   -1.9427    4.8259    9.1880 H   0  0  0  0  0  0
   -0.3968    4.1843    7.3848 H   0  0  0  0  0  0
   -0.1799    1.7129    7.9880 H   0  0  0  0  0  0
    1.3911    2.4846    7.7699 H   0  0  0  0  0  0
    0.7851    2.1591    9.3881 H   0  0  0  0  0  0
   -0.1421    6.2370   13.0529 H   0  0  0  0  0  0
    4.4705    7.2500   10.7431 H   0  0  0  0  0  0
    4.0477    7.6618   12.4063 H   0  0  0  0  0  0
    3.4684    8.0791    7.4000 H   0  0  0  0  0  0
    5.0834    9.5370    6.0869 H   0  0  0  0  0  0
    7.4240    9.9406    5.3252 H   0  0  0  0  0  0
    9.2208    8.3875    6.0719 H   0  0  0  0  0  0
    7.2514    5.0517    8.5300 H   0  0  0  0  0  0
    4.9598    4.4833    9.1880 H   0  0  0  0  0  0
  1  2  1  0  0  0
  1 24  1  0  0  0
  1 25  1  0  0  0
  1 26  1  0  0  0
  2  3  1  0  0  0
  2  4  1  0  0  0
  2 27  1  0  0  0
  3 28  1  0  0  0
  3 29  1  0  0  0
  3 30  1  0  0  0
  4  5  1  0  0  0
  4  6  1  0  0  0
  5 13  2  0  0  0
  6  7  2  0  0  0
  6 12  1  0  0  0
  7  8  1  0  0  0
  8  9  2  0  0  0
  8 31  1  0  0  0
  9 10  1  0  0  0
 10 11  1  0  0  0
 10 12  2  0  0  0
 11 32  1  0  0  0
 11 33  1  0  0  0
 12 13  1  0  0  0
 13 14  1  0  0  0
 14 15  2  0  0  0
 14 23  1  0  0  0
 15 16  1  0  0  0
 15 34  1  0  0  0
 16 17  2  0  0  0
 16 21  1  0  0  0
 17 18  1  0  0  0
 17 35  1  0  0  0
 18 19  2  0  0  0
 18 36  1  0  0  0
 19 20  1  0  0  0
 19 37  1  0  0  0
 20 21  2  0  0  0
 21 22  1  0  0  0
 22 23  2  0  0  0
 22 38  1  0  0  0
 23 39  1  0  0  0
M  END
> <s_m_entry_id>
31889

> <s_m_entry_name>
dock_pv.152

> <s_m_Source_Path>
/home/csk/Desktop/cluster/DUD-E-result/src

> <s_m_Source_File>
dock_pv.maegz

> <i_m_Source_File_Index>
152

> <chembl_id>
CHEMBL1233882

> <chembl_pref_name>
None

> <i_lp_mmshare_version>
53161

> <r_lp_tautomer_probability>
1

> <s_lp_Force_Field>
OPLS_2005

> <r_lp_Energy>
15.333948

> <b_lp_Chiralities_Consistent>
1

> <s_lp_Variant>
CHEMBL267_lig1827-1

> <s_i_glide_gridfile>
glide-grid_3el8

> <i_i_glide_lignum>
2093

> <i_i_glide_rotatable_bonds>
2

> <r_i_docking_score>
-8.05363943706004

> <r_i_glide_ligand_efficiency>
-0.350158236393915

> <r_i_glide_ligand_efficiency_sa>
-0.995803445162934

> <r_i_glide_ligand_efficiency_ln>
-1.94744304224606

> <r_i_glide_gscore>
-8.05363943706004

> <r_i_glide_lipo>
-3.09547869981562

> <r_i_glide_hbond>
-0.0200529579877202

> <r_i_glide_metal>
0

> <r_i_glide_rewards>
-3.29123114383835

> <r_i_glide_evdw>
-34.1302375793457

> <r_i_glide_ecoul>
-0.929661810398102

> <r_i_glide_erotb>
0.199084515108651

> <r_i_glide_esite>
0

> <r_i_glide_emodel>
-47.9106702390008

> <r_i_glide_energy>
-35.0598993897438

> <r_i_glide_einternal>
7.68170928955078

> <i_i_glide_confnum>
2

> <i_i_glide_posenum>
33

> <r_i_glide_eff_state_penalty>
0

> <s_user_duplicate_titles>
CHEMBL267_lig1827

> <i_f3d_flags>
0

> <s_m_subgroup_title>
dock_pv

> <s_m_subgroupid>
dock_pv

> <b_m_subgroup_collapsed>
1

$$$$
CHEMBL267_lig1911
                    3D
 Schrodinger Suite 2021-1.
 39 42  0  0  1  0            999 V2000
    7.8622    6.8967    7.5411 N   0  0  0  0  0  0
    8.4349    7.8370    6.7493 C   0  0  0  0  0  0
    7.8127    8.7711    5.9837 N   0  0  0  0  0  0
    6.5086    6.8993    7.6090 C   0  0  0  0  0  0
    5.7466    7.8539    6.9046 C   0  0  0  0  0  0
    6.4819    8.7509    6.1018 C   0  0  0  0  0  0
    5.5523    9.5709    5.4879 N   0  0  0  0  0  0
    4.2946    9.2316    5.8537 N   0  0  0  0  0  0
    4.3785    8.2363    6.7061 C   0  0  0  0  0  0
    3.1741    7.6461    7.3400 C   0  0  0  0  0  0
    3.1799    7.4384    8.7202 C   0  0  0  0  0  0
    0.9992    6.5810    7.1831 C   0  0  0  0  0  0
    2.0739    7.2348    6.5767 C   0  0  0  0  0  0
    5.9268    5.9011    8.3871 N   0  0  0  0  0  0
    1.0292    6.3417    8.5524 C   0  0  0  0  0  0
    2.1057    6.7865    9.3310 C   0  0  0  0  0  0
    2.0934    6.5631   10.8379 C   0  0  0  0  0  0
    0.9981    5.8376   11.3266 N   0  0  0  0  0  0
    0.0632    5.4369   10.5544 C   0  0  0  0  0  0
   -0.0118    5.6688    9.1940 N   0  0  0  0  0  0
    5.7861   10.6865    4.5617 C   0  0  0  0  0  0
    5.2992   12.0151    5.1792 C   0  0  0  0  0  0
    5.1386   10.3952    3.1931 C   0  0  0  0  0  0
    2.9975    7.0359   11.5240 O   0  0  0  0  0  0
    9.5142    7.8357    6.6985 H   0  0  0  0  0  0
    4.0261    7.7763    9.3073 H   0  0  0  0  0  0
    0.1639    6.2421    6.5878 H   0  0  0  0  0  0
    2.0711    7.3927    5.5079 H   0  0  0  0  0  0
    4.9208    5.8484    8.4663 H   0  0  0  0  0  0
    6.5253    5.2333    8.8523 H   0  0  0  0  0  0
   -0.8505    5.4372    8.6763 H   0  0  0  0  0  0
   -0.7768    4.8657   10.9408 H   0  0  0  0  0  0
    6.8663   10.7643    4.4139 H   0  0  0  0  0  0
    5.5305   12.8584    4.5273 H   0  0  0  0  0  0
    4.2208   12.0145    5.3451 H   0  0  0  0  0  0
    5.7812   12.2068    6.1400 H   0  0  0  0  0  0
    5.3761   11.1789    2.4728 H   0  0  0  0  0  0
    5.4992    9.4501    2.7833 H   0  0  0  0  0  0
    4.0511   10.3323    3.2645 H   0  0  0  0  0  0
  1  2  2  0  0  0
  1  4  1  0  0  0
  2  3  1  0  0  0
  2 25  1  0  0  0
  3  6  2  0  0  0
  4 14  1  0  0  0
  4  5  2  0  0  0
  5  9  1  0  0  0
  5  6  1  0  0  0
  6  7  1  0  0  0
  7  8  1  0  0  0
  7 21  1  0  0  0
  8  9  2  0  0  0
  9 10  1  0  0  0
 10 11  2  0  0  0
 10 13  1  0  0  0
 11 16  1  0  0  0
 11 26  1  0  0  0
 12 13  2  0  0  0
 12 27  1  0  0  0
 12 15  1  0  0  0
 13 28  1  0  0  0
 14 29  1  0  0  0
 14 30  1  0  0  0
 15 16  2  0  0  0
 15 20  1  0  0  0
 16 17  1  0  0  0
 17 24  2  0  0  0
 17 18  1  0  0  0
 18 19  2  0  0  0
 19 20  1  0  0  0
 19 32  1  0  0  0
 20 31  1  0  0  0
 21 22  1  0  0  0
 21 23  1  0  0  0
 21 33  1  0  0  0
 22 34  1  0  0  0
 22 35  1  0  0  0
 22 36  1  0  0  0
 23 37  1  0  0  0
 23 38  1  0  0  0
 23 39  1  0  0  0
M  END
> <s_m_entry_id>
31890

> <s_m_entry_name>
dock_pv.153

> <s_m_Source_Path>
/home/csk/Desktop/cluster/DUD-E-result/src

> <s_m_Source_File>
dock_pv.maegz

> <i_m_Source_File_Index>
153

> <chembl_id>
CHEMBL1241776

> <chembl_pref_name>
None

> <i_lp_mmshare_version>
53161

> <r_lp_tautomer_probability>
0.116051

> <s_lp_Force_Field>
OPLS_2005

> <r_lp_Energy>
16.971674

> <b_lp_Chiralities_Consistent>
1

> <s_lp_Variant>
CHEMBL267_lig1911-2

> <s_i_glide_gridfile>
glide-grid_3el8

> <i_i_glide_lignum>
2187

> <i_i_glide_rotatable_bonds>
2

> <r_i_docking_score>
-8.04758401736514

> <r_i_glide_ligand_efficiency>
-0.335316000723547

> <r_i_glide_ligand_efficiency_sa>
-0.967218714896845

> <r_i_glide_ligand_efficiency_ln>
-1.92615613492346

> <r_i_glide_gscore>
-8.04758401736514

> <r_i_glide_lipo>
-2.22600751070751

> <r_i_glide_hbond>
-0.44571408195183

> <r_i_glide_metal>
0

> <r_i_glide_rewards>
-2.59988944856094

> <r_i_glide_evdw>
-40.2803421020508

> <r_i_glide_ecoul>
-6.05567312240601

> <r_i_glide_erotb>
0.180957548390086

> <r_i_glide_esite>
-0.034562451071491

> <r_i_glide_emodel>
-67.9113425236497

> <r_i_glide_energy>
-46.3360152244568

> <r_i_glide_einternal>
1.0921026468277

> <i_i_glide_confnum>
1

> <i_i_glide_posenum>
7

> <r_i_glide_eff_state_penalty>
0

> <s_user_duplicate_titles>
CHEMBL267_lig1911

> <i_f3d_flags>
0

> <s_m_subgroup_title>
dock_pv

> <s_m_subgroupid>
dock_pv

> <b_m_subgroup_collapsed>
1

$$$$
CHEMBL267_lig3470
                    3D
 Schrodinger Suite 2021-1.
 56 60  0  0  1  0            999 V2000
    4.7865   11.6389    3.9893 O   0  0  0  0  0  0
    2.1407    8.3416    4.6850 N   0  0  0  0  0  0
    1.9794    9.7869    2.9364 N   0  0  0  0  0  0
    4.1801    8.3736    6.8009 N   0  0  0  0  0  0
    6.5364    8.0946    7.2192 N   0  0  0  0  0  0
    4.9943    7.3714    8.7878 N   0  0  0  0  0  0
    3.9427   11.5032    1.9221 N   0  0  0  0  0  0
    0.8886    4.8621    9.5422 N   0  0  0  0  0  0
   -1.1139    3.0505    8.3893 N   0  0  0  0  0  0
    3.2972    9.1125    4.6585 C   0  0  0  0  0  0
    3.1178   10.0148    3.5720 C   0  0  0  0  0  0
    1.3886    8.7581    3.5781 C   0  0  0  0  0  0
    4.4643    8.8797    5.5729 C   0  0  0  0  0  0
    4.0072   11.1114    3.1992 C   0  0  0  0  0  0
    1.7087    7.2996    5.4812 C   0  0  0  0  0  0
    0.1980    8.0844    3.2737 C   0  0  0  0  0  0
    5.7866    9.0316    5.1333 C   0  0  0  0  0  0
    5.2272    7.9758    7.5574 C   0  0  0  0  0  0
    0.5157    6.6484    5.1912 C   0  0  0  0  0  0
   -0.2189    7.0278    4.0797 C   0  0  0  0  0  0
    6.8007    8.6360    6.0044 C   0  0  0  0  0  0
    3.8566    7.0734    9.5491 C   0  0  0  0  0  0
    1.8294    5.7933    9.9346 C   0  0  0  0  0  0
    2.8597    6.2235    9.0806 C   0  0  0  0  0  0
    3.8186    7.4896   10.8798 C   0  0  0  0  0  0
    1.8064    6.2376   11.2569 C   0  0  0  0  0  0
    2.8291    7.0369   11.7391 C   0  0  0  0  0  0
   -0.5517    5.1451    9.6809 C   0  0  0  0  0  0
    1.1294    3.9959    8.3950 C   0  0  0  0  0  0
   -1.4772    3.9130    9.5212 C   0  0  0  0  0  0
    0.2979    2.7010    8.4757 C   0  0  0  0  0  0
   -1.9513    1.8566    8.3963 C   0  0  0  0  0  0
    5.8573    7.1223    9.2482 H   0  0  0  0  0  0
    3.2534   11.0949    1.3077 H   0  0  0  0  0  0
    4.5573   12.2280    1.5784 H   0  0  0  0  0  0
    2.3183    6.9915    6.3082 H   0  0  0  0  0  0
   -0.3698    8.3542    2.3885 H   0  0  0  0  0  0
    6.0255    9.3969    4.1470 H   0  0  0  0  0  0
    0.1586    5.8413    5.8141 H   0  0  0  0  0  0
   -1.1348    6.5044    3.8422 H   0  0  0  0  0  0
    7.8408    8.7170    5.7219 H   0  0  0  0  0  0
    2.9323    5.8540    8.0711 H   0  0  0  0  0  0
    4.5976    8.1206   11.2796 H   0  0  0  0  0  0
    1.0469    5.8914   11.9428 H   0  0  0  0  0  0
    2.8484    7.3194   12.7818 H   0  0  0  0  0  0
   -0.7524    5.5919   10.6537 H   0  0  0  0  0  0
   -0.8290    5.8724    8.9182 H   0  0  0  0  0  0
    0.8251    4.6322    7.5725 H   0  0  0  0  0  0
    2.1923    3.7761    8.2756 H   0  0  0  0  0  0
   -1.4941    3.3776   10.4653 H   0  0  0  0  0  0
   -2.4990    4.2581    9.3610 H   0  0  0  0  0  0
    0.5739    2.0270    7.6664 H   0  0  0  0  0  0
    0.5131    2.1723    9.4067 H   0  0  0  0  0  0
   -1.7786    1.2462    7.5104 H   0  0  0  0  0  0
   -1.7836    1.2344    9.2753 H   0  0  0  0  0  0
   -3.0023    2.1409    8.3868 H   0  0  0  0  0  0
  1 14  2  0  0  0
  2 10  1  0  0  0
  2 12  1  0  0  0
  2 15  1  0  0  0
  3 11  1  0  0  0
  3 12  2  0  0  0
  4 13  2  0  0  0
  4 18  1  0  0  0
  5 18  2  0  0  0
  5 21  1  0  0  0
  6 18  1  0  0  0
  6 22  1  0  0  0
  6 33  1  0  0  0
  7 14  1  0  0  0
  7 34  1  0  0  0
  7 35  1  0  0  0
  8 23  1  0  0  0
  8 28  1  0  0  0
  8 29  1  0  0  0
  9 30  1  0  0  0
  9 31  1  0  0  0
  9 32  1  0  0  0
 10 11  2  0  0  0
 10 13  1  0  0  0
 11 14  1  0  0  0
 12 16  1  0  0  0
 13 17  1  0  0  0
 15 19  2  0  0  0
 15 36  1  0  0  0
 16 20  2  0  0  0
 16 37  1  0  0  0
 17 21  2  0  0  0
 17 38  1  0  0  0
 19 20  1  0  0  0
 19 39  1  0  0  0
 20 40  1  0  0  0
 21 41  1  0  0  0
 22 24  2  0  0  0
 22 25  1  0  0  0
 23 24  1  0  0  0
 23 26  2  0  0  0
 24 42  1  0  0  0
 25 27  2  0  0  0
 25 43  1  0  0  0
 26 27  1  0  0  0
 26 44  1  0  0  0
 27 45  1  0  0  0
 28 30  1  0  0  0
 28 46  1  0  0  0
 28 47  1  0  0  0
 29 31  1  0  0  0
 29 48  1  0  0  0
 29 49  1  0  0  0
 30 50  1  0  0  0
 30 51  1  0  0  0
 31 52  1  0  0  0
 31 53  1  0  0  0
 32 54  1  0  0  0
 32 55  1  0  0  0
 32 56  1  0  0  0
M  END
> <s_m_entry_id>
31891

> <s_m_entry_name>
dock_pv.154

> <s_m_Source_Path>
/home/csk/Desktop/cluster/DUD-E-result/src

> <s_m_Source_File>
dock_pv.maegz

> <i_m_Source_File_Index>
154

> <chembl_id>
CHEMBL1971245

> <chembl_pref_name>
None

> <i_lp_mmshare_version>
53161

> <r_lp_tautomer_probability>
0.999999987636

> <s_lp_Force_Field>
OPLS_2005

> <r_lp_Energy>
35.577622

> <b_lp_Chiralities_Consistent>
1

> <s_lp_Variant>
CHEMBL267_lig3470-1

> <s_i_glide_gridfile>
glide-grid_3el8

> <i_i_glide_lignum>
4166

> <i_i_glide_rotatable_bonds>
5

> <r_i_docking_score>
-8.04350877691633

> <r_i_glide_ligand_efficiency>
-0.251359649278635

> <r_i_glide_ligand_efficiency_sa>
-0.798017142452621

> <r_i_glide_ligand_efficiency_ln>
-1.80116087291986

> <r_i_glide_gscore>
-8.04350877691633

> <r_i_glide_lipo>
-3.38019600404894

> <r_i_glide_hbond>
-0.214921501849846

> <r_i_glide_metal>
0

> <r_i_glide_rewards>
-2.01044849750732

> <r_i_glide_evdw>
-42.8455581665039

> <r_i_glide_ecoul>
-4.68809795379639

> <r_i_glide_erotb>
0.432762115095604

> <r_i_glide_esite>
-0.0252122872111717

> <r_i_glide_emodel>
-61.0528800685209

> <r_i_glide_energy>
-47.5336561203003

> <r_i_glide_einternal>
8.56300735473633

> <i_i_glide_confnum>
10

> <i_i_glide_posenum>
315

> <r_i_glide_eff_state_penalty>
0

> <s_user_duplicate_titles>
CHEMBL267_lig3470

> <i_f3d_flags>
0

> <s_m_subgroup_title>
dock_pv

> <s_m_subgroupid>
dock_pv

> <b_m_subgroup_collapsed>
1

$$$$
CHEMBL267_lig1533
                    3D
 Schrodinger Suite 2021-1.
 40 43  0  0  1  0            999 V2000
    7.8766    6.8882    7.5784 N   0  0  0  0  0  0
    8.4296    7.8354    6.7855 C   0  0  0  0  0  0
    7.7894    8.7585    6.0291 N   0  0  0  0  0  0
    6.5249    6.8716    7.6582 C   0  0  0  0  0  0
    5.7298    7.8374    6.9994 C   0  0  0  0  0  0
    6.4586    8.7497    6.1825 C   0  0  0  0  0  0
    5.5565    9.6183    5.5870 N   0  0  0  0  0  0
    4.2912    9.2369    5.9850 C   0  0  0  0  0  0
    4.3308    8.1782    6.8776 C   0  0  0  0  0  0
    3.1512    7.5920    7.5778 C   0  0  0  0  0  0
    3.2265    7.1969    8.9180 C   0  0  0  0  0  0
    2.1199    6.6331    9.5526 C   0  0  0  0  0  0
    0.9248    6.4694    8.8537 C   0  0  0  0  0  0
    0.8381    6.8635    7.5190 C   0  0  0  0  0  0
    1.9474    7.4212    6.8847 C   0  0  0  0  0  0
    5.9774    5.8234    8.3878 N   0  0  0  0  0  0
    5.8781   10.7153    4.6536 C   0  0  0  0  0  0
    5.6853   10.3011    3.1893 C   0  0  0  0  0  0
    4.2482   10.7132    2.8605 C   0  0  0  0  0  0
    3.9872   11.9803    3.6920 C   0  0  0  0  0  0
    5.0081   11.9737    4.8462 C   0  0  0  0  0  0
    2.1999    6.2380   10.8605 O   0  0  0  0  0  0
    9.5076    7.8365    6.7124 H   0  0  0  0  0  0
    3.4340    9.7874    5.6217 H   0  0  0  0  0  0
    4.1370    7.3519    9.4770 H   0  0  0  0  0  0
    0.0647    6.0292    9.3417 H   0  0  0  0  0  0
   -0.0864    6.7263    6.9745 H   0  0  0  0  0  0
    1.8729    7.7118    5.8462 H   0  0  0  0  0  0
    4.9743    5.7195    8.4244 H   0  0  0  0  0  0
    6.5964    5.1398    8.8026 H   0  0  0  0  0  0
    6.9224   10.9290    4.8852 H   0  0  0  0  0  0
    6.3815   10.8527    2.5560 H   0  0  0  0  0  0
    5.8697    9.2395    3.0137 H   0  0  0  0  0  0
    4.1075   10.8904    1.7934 H   0  0  0  0  0  0
    3.5558    9.9210    3.1491 H   0  0  0  0  0  0
    4.1259   12.8709    3.0717 H   0  0  0  0  0  0
    2.9609   12.0072    4.0614 H   0  0  0  0  0  0
    4.5357   12.0169    5.8275 H   0  0  0  0  0  0
    5.6372   12.8628    4.7833 H   0  0  0  0  0  0
    3.1008    6.1157   11.1759 H   0  0  0  0  0  0
  1  2  2  0  0  0
  1  4  1  0  0  0
  2  3  1  0  0  0
  2 23  1  0  0  0
  3  6  2  0  0  0
  4  5  2  0  0  0
  4 16  1  0  0  0
  5  9  1  0  0  0
  5  6  1  0  0  0
  6  7  1  0  0  0
  7 17  1  0  0  0
  7  8  1  0  0  0
  8  9  2  0  0  0
  8 24  1  0  0  0
  9 10  1  0  0  0
 10 11  2  0  0  0
 10 15  1  0  0  0
 11 12  1  0  0  0
 11 25  1  0  0  0
 12 13  2  0  0  0
 12 22  1  0  0  0
 13 14  1  0  0  0
 13 26  1  0  0  0
 14 15  2  0  0  0
 14 27  1  0  0  0
 15 28  1  0  0  0
 16 29  1  0  0  0
 16 30  1  0  0  0
 17 18  1  0  0  0
 17 21  1  0  0  0
 17 31  1  0  0  0
 18 19  1  0  0  0
 18 32  1  0  0  0
 18 33  1  0  0  0
 19 20  1  0  0  0
 19 34  1  0  0  0
 19 35  1  0  0  0
 20 21  1  0  0  0
 20 36  1  0  0  0
 20 37  1  0  0  0
 21 38  1  0  0  0
 21 39  1  0  0  0
 22 40  1  0  0  0
M  END
> <s_m_entry_id>
31892

> <s_m_entry_name>
dock_pv.155

> <s_m_Source_Path>
/home/csk/Desktop/cluster/DUD-E-result/src

> <s_m_Source_File>
dock_pv.maegz

> <i_m_Source_File_Index>
155

> <chembl_id>
CHEMBL169390

> <chembl_pref_name>
None

> <i_lp_mmshare_version>
53161

> <r_lp_tautomer_probability>
0.999999999997365

> <s_lp_Force_Field>
OPLS_2005

> <r_lp_Energy>
33.49947

> <b_lp_Chiralities_Consistent>
1

> <s_lp_Variant>
CHEMBL267_lig1533-1

> <s_i_glide_gridfile>
glide-grid_3el8

> <i_i_glide_lignum>
1714

> <i_i_glide_rotatable_bonds>
3

> <r_i_docking_score>
-8.04251096121139

> <r_i_glide_ligand_efficiency>
-0.365568680055063

> <r_i_glide_ligand_efficiency_sa>
-1.02433781851464

> <r_i_glide_ligand_efficiency_ln>
-1.96588303663516

> <r_i_glide_gscore>
-8.04251096121139

> <r_i_glide_lipo>
-2.18267809697281

> <r_i_glide_hbond>
-0.213807314415069

> <r_i_glide_metal>
0

> <r_i_glide_rewards>
-3.34485752103072

> <r_i_glide_evdw>
-34.8580589294434

> <r_i_glide_ecoul>
-5.69171333312988

> <r_i_glide_erotb>
0.295491917648861

> <r_i_glide_esite>
0

> <r_i_glide_emodel>
-59.3988783273017

> <r_i_glide_energy>
-40.5497722625732

> <r_i_glide_einternal>
0.872235119342804

> <i_i_glide_confnum>
49

> <i_i_glide_posenum>
321

> <r_i_glide_eff_state_penalty>
0

> <s_user_duplicate_titles>
CHEMBL267_lig1533,281860

> <i_f3d_flags>
0

> <s_m_subgroup_title>
dock_pv

> <s_m_subgroupid>
dock_pv

> <b_m_subgroup_collapsed>
1

$$$$
CHEMBL267_lig1347
                    3D
 Schrodinger Suite 2021-1.
 43 46  0  0  1  0            999 V2000
    0.5852    6.3145    8.6994 C   0  0  0  0  0  0
    1.3924    5.3576    9.3123 C   0  0  0  0  0  0
    2.7771    5.4370    9.1810 C   0  0  0  0  0  0
    1.1598    7.3482    7.9543 C   0  0  0  0  0  0
    2.5552    7.4346    7.8208 C   0  0  0  0  0  0
    3.3327    6.4805    8.4433 C   0  0  0  0  0  0
    4.6501    6.7534    8.1750 N   0  0  0  0  0  0
    4.8208    7.8098    7.3065 C   0  0  0  0  0  0
    3.4690    8.3495    7.0889 C   0  0  0  0  0  0
    6.0048    8.2164    6.7375 C   0  0  0  0  0  0
    7.2297    7.4370    6.9613 C   0  0  0  0  0  0
    8.2024    8.0173    6.2619 N   0  0  0  0  0  0
    6.4317    9.3094    5.8182 C   0  0  0  0  0  0
    7.7813    9.1201    5.5880 C   0  0  0  0  0  0
    8.5412    9.9694    4.7880 C   0  0  0  0  0  0
    7.9101   11.0370    4.1560 C   0  0  0  0  0  0
    6.5490   11.2580    4.3634 C   0  0  0  0  0  0
    5.8153   10.4089    5.1966 C   0  0  0  0  0  0
    3.1570    9.3612    6.3825 N   0  0  0  0  0  0
    7.3980    6.4081    7.6158 O   0  0  0  0  0  0
    1.7771    9.6134    6.2852 O   0  0  0  0  0  0
    1.4945   10.2038    5.0151 C   0  0  0  0  0  0
    0.8824    9.1644    4.0507 C   0  0  2  0  0  0
    1.7980    7.9571    3.7706 C   0  0  0  0  0  0
    0.5980    9.8179    2.8218 O   0  0  0  0  0  0
    1.0716    6.8980    3.1880 O   0  0  0  0  0  0
   -0.4900    6.2370    8.7880 H   0  0  0  0  0  0
    0.9450    4.5525    9.8775 H   0  0  0  0  0  0
    3.3980    4.6833    9.6380 H   0  0  0  0  0  0
    0.4970    8.0489    7.4723 H   0  0  0  0  0  0
    5.4828    6.2281    8.4165 H   0  0  0  0  0  0
    9.1280    7.6198    6.1779 H   0  0  0  0  0  0
    9.5974    9.8014    4.6339 H   0  0  0  0  0  0
    8.4757   11.7011    3.5186 H   0  0  0  0  0  0
    6.0626   12.0968    3.8866 H   0  0  0  0  0  0
    4.7831   10.6668    5.3237 H   0  0  0  0  0  0
    2.3604   10.6899    4.5555 H   0  0  0  0  0  0
    0.7748   11.0041    5.1879 H   0  0  0  0  0  0
   -0.0520    8.8003    4.4813 H   0  0  0  0  0  0
    2.1980    7.5530    4.6977 H   0  0  0  0  0  0
    2.6420    8.2370    3.1386 H   0  0  0  0  0  0
    0.2474    9.1733    2.1970 H   0  0  0  0  0  0
    0.9117    7.0991    2.2566 H   0  0  0  0  0  0
  1  2  2  0  0  0
  1  4  1  0  0  0
  1 27  1  0  0  0
  2  3  1  0  0  0
  2 28  1  0  0  0
  3  6  2  0  0  0
  3 29  1  0  0  0
  4  5  2  0  0  0
  4 30  1  0  0  0
  5  9  1  0  0  0
  5  6  1  0  0  0
  6  7  1  0  0  0
  7  8  1  0  0  0
  7 31  1  0  0  0
  8 10  2  0  0  0
  8  9  1  0  0  0
  9 19  2  0  0  0
 10 13  1  0  0  0
 10 11  1  0  0  0
 11 20  2  0  0  0
 11 12  1  0  0  0
 12 14  1  0  0  0
 12 32  1  0  0  0
 13 14  2  0  0  0
 13 18  1  0  0  0
 14 15  1  0  0  0
 15 16  2  0  0  0
 15 33  1  0  0  0
 16 17  1  0  0  0
 16 34  1  0  0  0
 17 18  2  0  0  0
 17 35  1  0  0  0
 18 36  1  0  0  0
 19 21  1  0  0  0
 21 22  1  0  0  0
 22 23  1  0  0  0
 22 37  1  0  0  0
 22 38  1  0  0  0
 23 24  1  0  0  0
 23 25  1  0  0  0
 23 39  1  0  0  0
 24 26  1  0  0  0
 24 40  1  0  0  0
 24 41  1  0  0  0
 25 42  1  0  0  0
 26 43  1  0  0  0
M  END
> <s_m_entry_id>
31893

> <s_m_entry_name>
dock_pv.156

> <s_m_Source_Path>
/home/csk/Desktop/cluster/DUD-E-result/src

> <s_m_Source_File>
dock_pv.maegz

> <i_m_Source_File_Index>
156

> <chembl_id>
CHEMBL1276317

> <chembl_pref_name>
None

> <i_lp_mmshare_version>
53161

> <r_lp_tautomer_probability>
1

> <s_lp_Force_Field>
OPLS_2005

> <r_lp_Energy>
79.861968

> <b_lp_Chiralities_Consistent>
1

> <s_lp_Variant>
CHEMBL267_lig1347-1

> <s_i_glide_gridfile>
glide-grid_3el8

> <i_i_glide_lignum>
1500

> <i_i_glide_rotatable_bonds>
6

> <r_i_docking_score>
-8.04068356421294

> <r_i_glide_ligand_efficiency>
-0.309257060162036

> <r_i_glide_ligand_efficiency_sa>
-0.916172823862261

> <r_i_glide_ligand_efficiency_ln>
-1.88832815142069

> <r_i_glide_gscore>
-8.04068356421294

> <r_i_glide_lipo>
-2.39383739311429

> <r_i_glide_hbond>
-0.285856661615085

> <r_i_glide_metal>
0

> <r_i_glide_rewards>
-2.3661249894795

> <r_i_glide_evdw>
-37.0592308044434

> <r_i_glide_ecoul>
-10.4964942932129

> <r_i_glide_erotb>
0.43257116420003

> <r_i_glide_esite>
0

> <r_i_glide_emodel>
-66.726432030892

> <r_i_glide_energy>
-47.5557250976562

> <r_i_glide_einternal>
3.93215703964233

> <i_i_glide_confnum>
4

> <i_i_glide_posenum>
287

> <r_i_glide_eff_state_penalty>
0

> <s_user_duplicate_titles>
CHEMBL267_lig1347

> <i_f3d_flags>
0

> <s_m_subgroup_title>
dock_pv

> <s_m_subgroupid>
dock_pv

> <b_m_subgroup_collapsed>
1

$$$$
CHEMBL267_lig1831
                    3D
 Schrodinger Suite 2021-1.
 34 37  0  0  1  0            999 V2000
    6.4755    6.8910    7.6031 C   0  0  0  0  0  0
    5.9509    5.8692    8.3879 N   0  0  0  0  0  0
    5.6532    7.8367    6.9627 C   0  0  0  0  0  0
    7.8201    6.8983    7.4312 N   0  0  0  0  0  0
    8.3205    7.8393    6.5896 C   0  0  0  0  0  0
    7.6365    8.7776    5.8846 N   0  0  0  0  0  0
    6.3175    8.7413    6.1082 C   0  0  0  0  0  0
    5.3269    9.5329    5.5594 N   0  0  0  0  0  0
    5.4352   10.5837    4.5597 C   0  0  0  0  0  0
    4.1028    9.1563    5.9872 N   0  0  0  0  0  0
    4.2649    8.1755    6.8462 C   0  0  0  0  0  0
    3.1137    7.5295    7.5277 C   0  0  0  0  0  0
    3.1341    7.3524    8.9119 C   0  0  0  0  0  0
    2.0402    7.0465    6.7801 C   0  0  0  0  0  0
    0.9981    6.3561    7.3902 C   0  0  0  0  0  0
    0.9990    6.1534    8.7912 C   0  0  0  0  0  0
    2.0773    6.6757    9.5693 C   0  0  0  0  0  0
   -0.0420    5.4487    9.4429 C   0  0  0  0  0  0
   -0.0348    5.3044   10.8261 C   0  0  0  0  0  0
    0.9979    5.8378   11.5869 C   0  0  0  0  0  0
    2.0573    6.5048   10.9757 C   0  0  0  0  0  0
    4.9521    5.8023    8.5197 H   0  0  0  0  0  0
    6.5825    5.1908    8.7918 H   0  0  0  0  0  0
    9.3935    7.8372    6.4555 H   0  0  0  0  0  0
    6.4298   11.0311    4.6000 H   0  0  0  0  0  0
    5.2699   10.1542    3.5689 H   0  0  0  0  0  0
    4.6902   11.3602    4.7500 H   0  0  0  0  0  0
    3.9588    7.7345    9.4979 H   0  0  0  0  0  0
    2.0297    7.1736    5.7065 H   0  0  0  0  0  0
    0.1879    5.9633    6.7935 H   0  0  0  0  0  0
   -0.8603    5.0418    8.8668 H   0  0  0  0  0  0
   -0.8521    4.7915   11.3090 H   0  0  0  0  0  0
    0.9835    5.7255   12.6617 H   0  0  0  0  0  0
    2.8680    6.8963   11.5749 H   0  0  0  0  0  0
  1  4  1  0  0  0
  1  2  1  0  0  0
  1  3  2  0  0  0
  2 22  1  0  0  0
  2 23  1  0  0  0
  3  7  1  0  0  0
  3 11  1  0  0  0
  4  5  2  0  0  0
  5  6  1  0  0  0
  5 24  1  0  0  0
  6  7  2  0  0  0
  7  8  1  0  0  0
  8  9  1  0  0  0
  8 10  1  0  0  0
  9 25  1  0  0  0
  9 26  1  0  0  0
  9 27  1  0  0  0
 10 11  2  0  0  0
 11 12  1  0  0  0
 12 14  1  0  0  0
 12 13  2  0  0  0
 13 17  1  0  0  0
 13 28  1  0  0  0
 14 15  2  0  0  0
 14 29  1  0  0  0
 15 16  1  0  0  0
 15 30  1  0  0  0
 16 18  2  0  0  0
 16 17  1  0  0  0
 17 21  2  0  0  0
 18 19  1  0  0  0
 18 31  1  0  0  0
 19 20  2  0  0  0
 19 32  1  0  0  0
 20 21  1  0  0  0
 20 33  1  0  0  0
 21 34  1  0  0  0
M  END
> <s_m_entry_id>
31894

> <s_m_entry_name>
dock_pv.157

> <s_m_Source_Path>
/home/csk/Desktop/cluster/DUD-E-result/src

> <s_m_Source_File>
dock_pv.maegz

> <i_m_Source_File_Index>
157

> <chembl_id>
CHEMBL1234815

> <chembl_pref_name>
None

> <i_lp_mmshare_version>
53161

> <r_lp_tautomer_probability>
1

> <s_lp_Force_Field>
OPLS_2005

> <r_lp_Energy>
10.903175

> <b_lp_Chiralities_Consistent>
1

> <s_lp_Variant>
CHEMBL267_lig1831-1

> <s_i_glide_gridfile>
glide-grid_3el8

> <i_i_glide_lignum>
2097

> <i_i_glide_rotatable_bonds>
1

> <r_i_docking_score>
-8.03524680585495

> <r_i_glide_ligand_efficiency>
-0.382630800278807

> <r_i_glide_ligand_efficiency_sa>
-1.05564936444594

> <r_i_glide_ligand_efficiency_ln>
-1.98669853600264

> <r_i_glide_gscore>
-8.03524680585495

> <r_i_glide_lipo>
-2.28067002114959

> <r_i_glide_hbond>
-0.132549750257968

> <r_i_glide_metal>
0

> <r_i_glide_rewards>
-3.4646550535481

> <r_i_glide_evdw>
-33.6830825805664

> <r_i_glide_ecoul>
-4.26132392883301

> <r_i_glide_erotb>
0.165980737453981

> <r_i_glide_esite>
0

> <r_i_glide_emodel>
-55.4599720005268

> <r_i_glide_energy>
-37.9444065093994

> <r_i_glide_einternal>
1.86112749576569

> <i_i_glide_confnum>
1

> <i_i_glide_posenum>
37

> <r_i_glide_eff_state_penalty>
0

> <s_user_duplicate_titles>
CHEMBL267_lig1831

> <i_f3d_flags>
0

> <s_m_subgroup_title>
dock_pv

> <s_m_subgroupid>
dock_pv

> <b_m_subgroup_collapsed>
1

$$$$
CHEMBL267_lig1931
                    3D
 Schrodinger Suite 2021-1.
 37 40  0  0  1  0            999 V2000
    1.3980    6.6370   12.2944 N   0  0  0  0  0  0
    0.2157    5.9921   12.1162 C   0  0  0  0  0  0
   -0.1855    5.2428   11.0701 N   0  0  0  0  0  0
    2.2717    6.5739   11.2657 C   0  0  0  0  0  0
    1.9321    5.9106   10.0806 C   0  0  0  0  0  0
    0.6957    5.2345   10.0744 C   0  0  0  0  0  0
    0.6143    4.5901    8.8580 N   0  0  0  0  0  0
    1.6997    4.8943    8.0949 N   0  0  0  0  0  0
    2.4756    5.6935    8.7931 C   0  0  0  0  0  0
    3.7234    6.2966    8.2837 C   0  0  0  0  0  0
    4.9314    5.6299    8.4894 C   0  0  0  0  0  0
    4.8243    8.0992    7.0761 C   0  0  0  0  0  0
    3.6692    7.5069    7.5880 C   0  0  0  0  0  0
    3.5188    7.1572   11.4358 N   0  0  0  0  0  0
   -0.3956    3.6457    8.3486 C   0  0  0  0  0  0
   -1.7403    3.6428    9.1085 C   0  0  0  0  0  0
    0.1894    2.2294    8.3047 C   0  0  0  0  0  0
    6.0570    7.4658    7.2926 C   0  0  0  0  0  0
    6.0821    6.2352    7.9880 C   0  0  0  0  0  0
    7.3980    5.8370    7.9880 N   0  0  0  0  0  0
    8.1980    6.7480    7.4026 N   0  0  0  0  0  0
    7.4260    7.7111    6.9708 C   0  0  0  0  0  0
    4.7485    9.2495    6.3709 F   0  0  0  0  0  0
   -0.5833    6.2370   12.7880 H   0  0  0  0  0  0
    4.9685    4.6765    8.9907 H   0  0  0  0  0  0
    2.7159    7.9890    7.4272 H   0  0  0  0  0  0
    4.2237    6.9722   10.7386 H   0  0  0  0  0  0
    3.7519    7.5376   12.3403 H   0  0  0  0  0  0
   -0.6020    3.9838    7.3396 H   0  0  0  0  0  0
   -2.4760    3.0246    8.5916 H   0  0  0  0  0  0
   -1.6441    3.2442   10.1169 H   0  0  0  0  0  0
   -2.1704    4.6370    9.1880 H   0  0  0  0  0  0
   -0.5523    1.4950    7.9884 H   0  0  0  0  0  0
    0.9980    2.1989    7.5880 H   0  0  0  0  0  0
    0.5795    1.9143    9.2733 H   0  0  0  0  0  0
    7.7732    4.9942    8.4067 H   0  0  0  0  0  0
    7.8384    8.5531    6.4346 H   0  0  0  0  0  0
  1  2  2  0  0  0
  1  4  1  0  0  0
  2  3  1  0  0  0
  2 24  1  0  0  0
  3  6  2  0  0  0
  4 14  1  0  0  0
  4  5  2  0  0  0
  5  9  1  0  0  0
  5  6  1  0  0  0
  6  7  1  0  0  0
  7 15  1  0  0  0
  7  8  1  0  0  0
  8  9  2  0  0  0
  9 10  1  0  0  0
 10 13  1  0  0  0
 10 11  2  0  0  0
 11 19  1  0  0  0
 11 25  1  0  0  0
 12 18  1  0  0  0
 12 13  2  0  0  0
 12 23  1  0  0  0
 13 26  1  0  0  0
 14 27  1  0  0  0
 14 28  1  0  0  0
 15 16  1  0  0  0
 15 17  1  0  0  0
 15 29  1  0  0  0
 16 30  1  0  0  0
 16 31  1  0  0  0
 16 32  1  0  0  0
 17 33  1  0  0  0
 17 34  1  0  0  0
 17 35  1  0  0  0
 18 19  2  0  0  0
 18 22  1  0  0  0
 19 20  1  0  0  0
 20 21  1  0  0  0
 20 36  1  0  0  0
 21 22  2  0  0  0
 22 37  1  0  0  0
M  END
> <s_m_entry_id>
31895

> <s_m_entry_name>
dock_pv.158

> <s_m_Source_Path>
/home/csk/Desktop/cluster/DUD-E-result/src

> <s_m_Source_File>
dock_pv.maegz

> <i_m_Source_File_Index>
158

> <chembl_id>
CHEMBL1242573

> <chembl_pref_name>
None

> <i_lp_mmshare_version>
53161

> <r_lp_tautomer_probability>
0.980392156862745

> <s_lp_Force_Field>
OPLS_2005

> <r_lp_Energy>
11.200047

> <b_lp_Chiralities_Consistent>
1

> <s_lp_Variant>
CHEMBL267_lig1931-1

> <s_i_glide_gridfile>
glide-grid_3el8

> <i_i_glide_lignum>
2211

> <i_i_glide_rotatable_bonds>
2

> <r_i_docking_score>
-8.03383693613048

> <r_i_glide_ligand_efficiency>
-0.349297258092629

> <r_i_glide_ligand_efficiency_sa>
-0.993354937404099

> <r_i_glide_ligand_efficiency_ln>
-1.94265461796214

> <r_i_glide_gscore>
-8.03383693613048

> <r_i_glide_lipo>
-2.76498787938179

> <r_i_glide_hbond>
-0.471932654717166

> <r_i_glide_metal>
0

> <r_i_glide_rewards>
-3.20631879511727

> <r_i_glide_evdw>
-31.6608467102051

> <r_i_glide_ecoul>
-0.943249225616455

> <r_i_glide_erotb>
0.133932112438471

> <r_i_glide_esite>
0

> <r_i_glide_emodel>
-44.1145154752702

> <r_i_glide_energy>
-32.6040959358215

> <r_i_glide_einternal>
6.52578687667847

> <i_i_glide_confnum>
1

> <i_i_glide_posenum>
8

> <r_i_glide_eff_state_penalty>
0

> <s_user_duplicate_titles>
CHEMBL267_lig1931

> <i_f3d_flags>
0

> <s_m_subgroup_title>
dock_pv

> <s_m_subgroupid>
dock_pv

> <b_m_subgroup_collapsed>
1

$$$$
CHEMBL267_lig1842
                    3D
 Schrodinger Suite 2021-1.
 38 40  0  0  1  0            999 V2000
    7.4651    6.3700    7.5880 N   0  0  0  0  0  0
    7.7980    7.3973    6.7641 C   0  0  0  0  0  0
    6.9793    8.3621    6.2685 N   0  0  0  0  0  0
    6.1708    6.3041    7.9884 C   0  0  0  0  0  0
    5.2330    7.2681    7.5880 C   0  0  0  0  0  0
    5.7146    8.2568    6.7015 C   0  0  0  0  0  0
    4.6151    9.0370    6.3768 N   0  0  0  0  0  0
    3.5025    8.5895    7.0095 N   0  0  0  0  0  0
    3.8435    7.5642    7.7576 C   0  0  0  0  0  0
    2.8528    6.8366    8.5933 C   0  0  0  0  0  0
    1.9403    5.9573    8.0017 C   0  0  0  0  0  0
    1.0043    5.2634    8.7734 C   0  0  0  0  0  0
    0.9728    5.4833   10.1576 C   0  0  0  0  0  0
    1.8749    6.3602   10.7532 C   0  0  0  0  0  0
    2.8188    7.0324    9.9765 C   0  0  0  0  0  0
    5.7980    5.2293    8.7880 N   0  0  0  0  0  0
    0.1667    4.3924    8.1091 O   0  0  0  0  0  0
    1.7980    6.6370   12.6316 Br  0  0  0  0  0  0
    4.5034   10.1681    5.4419 C   0  0  0  0  0  0
    4.6467    9.6621    3.9939 C   0  0  0  0  0  0
    5.5190   11.2840    5.7743 C   0  0  0  0  0  0
   -0.8453    3.7024    8.8381 C   0  0  0  0  0  0
    8.8288    7.4372    6.4403 H   0  0  0  0  0  0
    1.9621    5.7996    6.9332 H   0  0  0  0  0  0
    0.2583    4.9767   10.7882 H   0  0  0  0  0  0
    3.5176    7.7076   10.4490 H   0  0  0  0  0  0
    4.8500    5.1669    9.1322 H   0  0  0  0  0  0
    6.5042    4.5523    9.0594 H   0  0  0  0  0  0
    3.5028   10.5940    5.5492 H   0  0  0  0  0  0
    4.5441   10.4802    3.2803 H   0  0  0  0  0  0
    5.6179    9.1962    3.8206 H   0  0  0  0  0  0
    3.8771    8.9282    3.7541 H   0  0  0  0  0  0
    5.3924   12.1332    5.1019 H   0  0  0  0  0  0
    5.3980   11.6652    6.7880 H   0  0  0  0  0  0
    6.5502   10.9470    5.6684 H   0  0  0  0  0  0
   -1.4312    3.0884    8.1540 H   0  0  0  0  0  0
   -0.4142    3.0376    9.5878 H   0  0  0  0  0  0
   -1.5336    4.3954    9.3251 H   0  0  0  0  0  0
  1  2  2  0  0  0
  1  4  1  0  0  0
  2  3  1  0  0  0
  2 23  1  0  0  0
  3  6  2  0  0  0
  4  5  2  0  0  0
  4 16  1  0  0  0
  5  9  1  0  0  0
  5  6  1  0  0  0
  6  7  1  0  0  0
  7  8  1  0  0  0
  7 19  1  0  0  0
  8  9  2  0  0  0
  9 10  1  0  0  0
 10 11  2  0  0  0
 10 15  1  0  0  0
 11 12  1  0  0  0
 11 24  1  0  0  0
 12 13  2  0  0  0
 12 17  1  0  0  0
 13 14  1  0  0  0
 13 25  1  0  0  0
 14 15  2  0  0  0
 14 18  1  0  0  0
 15 26  1  0  0  0
 16 27  1  0  0  0
 16 28  1  0  0  0
 17 22  1  0  0  0
 19 20  1  0  0  0
 19 21  1  0  0  0
 19 29  1  0  0  0
 20 30  1  0  0  0
 20 31  1  0  0  0
 20 32  1  0  0  0
 21 33  1  0  0  0
 21 34  1  0  0  0
 21 35  1  0  0  0
 22 36  1  0  0  0
 22 37  1  0  0  0
 22 38  1  0  0  0
M  END
> <s_m_entry_id>
31896

> <s_m_entry_name>
dock_pv.159

> <s_m_Source_Path>
/home/csk/Desktop/cluster/DUD-E-result/src

> <s_m_Source_File>
dock_pv.maegz

> <i_m_Source_File_Index>
159

> <chembl_id>
CHEMBL1242200

> <chembl_pref_name>
None

> <i_lp_mmshare_version>
53161

> <r_lp_tautomer_probability>
1

> <s_lp_Force_Field>
OPLS_2005

> <r_lp_Energy>
15.067151

> <b_lp_Chiralities_Consistent>
1

> <s_lp_Variant>
CHEMBL267_lig1842-1

> <s_i_glide_gridfile>
glide-grid_3el8

> <i_i_glide_lignum>
2109

> <i_i_glide_rotatable_bonds>
3

> <r_i_docking_score>
-8.03282688658669

> <r_i_glide_ligand_efficiency>
-0.36512849484485

> <r_i_glide_ligand_efficiency_sa>
-1.02310440224412

> <r_i_glide_ligand_efficiency_ln>
-1.96351589556168

> <r_i_glide_gscore>
-8.03282688658669

> <r_i_glide_lipo>
-2.88553259470971

> <r_i_glide_hbond>
-0.483903675985212

> <r_i_glide_metal>
0

> <r_i_glide_rewards>
-2.26410778171981

> <r_i_glide_evdw>
-35.3947944641113

> <r_i_glide_ecoul>
-5.17249202728271

> <r_i_glide_erotb>
0.146330693126017

> <r_i_glide_esite>
0

> <r_i_glide_emodel>
-57.4393378045357

> <r_i_glide_energy>
-40.567286491394

> <r_i_glide_einternal>
4.94907379150391

> <i_i_glide_confnum>
2

> <i_i_glide_posenum>
216

> <r_i_glide_eff_state_penalty>
0

> <s_user_duplicate_titles>
CHEMBL267_lig1842

> <i_f3d_flags>
0

> <s_m_subgroup_title>
dock_pv

> <s_m_subgroupid>
dock_pv

> <b_m_subgroup_collapsed>
1

$$$$
CHEMBL267_lig3396
                    3D
 Schrodinger Suite 2021-1.
 49 52  0  0  1  0            999 V2000
    5.0350    9.0374    5.9880 N   0  0  0  0  0  0
    1.3980    5.8370   10.6451 N   0  0  0  0  0  0
   -0.6020    8.2370    6.7880 N   0  0  0  0  0  0
   -2.6052   -1.2827    8.3697 N   0  0  0  0  0  0
    3.2340    8.1567    7.0963 C   0  0  0  0  0  0
    4.4376    7.4397    7.4869 C   0  0  0  0  0  0
    5.5392    8.0124    6.7587 C   0  0  0  0  0  0
    1.7725    7.9954    7.5389 C   0  0  2  0  0  0
    3.6806    9.0971    6.1804 C   0  0  0  0  0  0
    1.4610    6.7668    8.4090 C   0  0  0  0  0  0
    4.7194    6.3578    8.3474 C   0  0  0  0  0  0
    6.8517    7.5342    6.8676 C   0  0  0  0  0  0
    0.7867    5.6309    7.9243 C   0  0  0  0  0  0
    0.7857    8.2120    6.3564 C   0  0  0  0  0  0
    1.7646    6.8037    9.7739 C   0  0  0  0  0  0
    6.0091    5.8370    8.3880 C   0  0  0  0  0  0
    0.4060    4.6079    8.8010 C   0  0  0  0  0  0
    7.0499    6.4201    7.6743 C   0  0  0  0  0  0
    5.7948    9.8815    5.0786 C   0  0  0  0  0  0
    0.7227    4.7694   10.1502 C   0  0  0  0  0  0
   -0.4008    3.4458    8.3880 C   0  0  0  0  0  0
   -0.0397    2.1562    8.5608 C   0  0  0  0  0  0
   -0.9276    0.9864    8.3880 C   0  0  0  0  0  0
   -0.4407   -0.2609    7.9792 C   0  0  0  0  0  0
   -2.2671    1.0719    8.7880 C   0  0  0  0  0  0
   -1.3146   -1.3548    7.9623 C   0  0  0  0  0  0
   -3.0602   -0.0777    8.7880 C   0  0  0  0  0  0
   -1.1908    8.5011    6.0055 H   0  0  0  0  0  0
   -0.8953    7.2933    7.0308 H   0  0  0  0  0  0
    1.5920    8.8400    8.2074 H   0  0  0  0  0  0
    3.1167    9.8424    5.6381 H   0  0  0  0  0  0
    3.9484    5.8643    8.9145 H   0  0  0  0  0  0
    7.6713    7.9734    6.3175 H   0  0  0  0  0  0
    0.5138    5.5591    6.8825 H   0  0  0  0  0  0
    0.9829    9.1662    5.8676 H   0  0  0  0  0  0
    0.9170    7.4410    5.5957 H   0  0  0  0  0  0
    2.2811    7.6494   10.2039 H   0  0  0  0  0  0
    6.2055    4.9766    9.0106 H   0  0  0  0  0  0
    8.0390    6.0011    7.7624 H   0  0  0  0  0  0
    6.6181   10.3475    5.6215 H   0  0  0  0  0  0
    6.1971    9.2687    4.2711 H   0  0  0  0  0  0
    5.1593   10.6621    4.6585 H   0  0  0  0  0  0
    0.4135    4.0287   10.8728 H   0  0  0  0  0  0
   -1.3788    3.6721    7.9889 H   0  0  0  0  0  0
    0.9536    1.9392    8.9292 H   0  0  0  0  0  0
    0.5923   -0.3834    7.6874 H   0  0  0  0  0  0
   -2.6876    2.0052    9.1323 H   0  0  0  0  0  0
   -1.0020   -2.3297    7.6282 H   0  0  0  0  0  0
   -4.0955   -0.0288    9.0913 H   0  0  0  0  0  0
  1  7  1  0  0  0
  1  9  1  0  0  0
  1 19  1  0  0  0
  2 15  1  0  0  0
  2 20  2  0  0  0
  3 14  1  0  0  0
  3 28  1  0  0  0
  3 29  1  0  0  0
  4 26  2  0  0  0
  4 27  1  0  0  0
  5  6  1  0  0  0
  5  8  1  0  0  0
  5  9  2  0  0  0
  6  7  1  0  0  0
  6 11  2  0  0  0
  7 12  2  0  0  0
  8 10  1  0  0  0
  8 14  1  0  0  0
  8 30  1  0  0  0
  9 31  1  0  0  0
 10 13  1  0  0  0
 10 15  2  0  0  0
 11 16  1  0  0  0
 11 32  1  0  0  0
 12 18  1  0  0  0
 12 33  1  0  0  0
 13 17  2  0  0  0
 13 34  1  0  0  0
 14 35  1  0  0  0
 14 36  1  0  0  0
 15 37  1  0  0  0
 16 18  2  0  0  0
 16 38  1  0  0  0
 17 20  1  0  0  0
 17 21  1  0  0  0
 18 39  1  0  0  0
 19 40  1  0  0  0
 19 41  1  0  0  0
 19 42  1  0  0  0
 20 43  1  0  0  0
 21 22  2  3  0  0
 21 44  1  0  0  0
 22 23  1  0  0  0
 22 45  1  0  0  0
 23 24  2  0  0  0
 23 25  1  0  0  0
 24 26  1  0  0  0
 24 46  1  0  0  0
 25 27  2  0  0  0
 25 47  1  0  0  0
 26 48  1  0  0  0
 27 49  1  0  0  0
M  END
> <s_m_entry_id>
31897

> <s_m_entry_name>
dock_pv.160

> <s_m_Source_Path>
/home/csk/Desktop/cluster/DUD-E-result/src

> <s_m_Source_File>
dock_pv.maegz

> <i_m_Source_File_Index>
160

> <chembl_id>
CHEMBL1979357

> <chembl_pref_name>
None

> <i_lp_mmshare_version>
53161

> <r_lp_tautomer_probability>
1

> <s_lp_Force_Field>
OPLS_2005

> <r_lp_Energy>
16.461406

> <b_lp_Chiralities_Consistent>
1

> <s_lp_Variant>
CHEMBL267_lig3396-1

> <s_i_glide_gridfile>
glide-grid_3el8

> <i_i_glide_lignum>
4046

> <i_i_glide_rotatable_bonds>
5

> <r_i_docking_score>
-8.0241364157931

> <r_i_glide_ligand_efficiency>
-0.297190237621967

> <r_i_glide_ligand_efficiency_sa>
-0.891570711886409

> <r_i_glide_ligand_efficiency_ln>
-1.86788666936893

> <r_i_glide_gscore>
-8.0241364157931

> <r_i_glide_lipo>
-4.22703480741865

> <r_i_glide_hbond>
-0.420733553984941

> <r_i_glide_metal>
0

> <r_i_glide_rewards>
-1.48145928766283

> <r_i_glide_evdw>
-38.3078842163086

> <r_i_glide_ecoul>
-3.91944026947021

> <r_i_glide_erotb>
0.608401484509282

> <r_i_glide_esite>
0

> <r_i_glide_emodel>
-53.1678959183655

> <r_i_glide_energy>
-42.2273244857788

> <r_i_glide_einternal>
15.8726234436035

> <i_i_glide_confnum>
12

> <i_i_glide_posenum>
185

> <r_i_glide_eff_state_penalty>
0

> <s_user_duplicate_titles>
CHEMBL267_lig3396

> <i_f3d_flags>
0

> <s_m_subgroup_title>
dock_pv

> <s_m_subgroupid>
dock_pv

> <b_m_subgroup_collapsed>
1

$$$$
CHEMBL267_lig413
                    3D
 Schrodinger Suite 2021-1.
 50 53  0  0  1  0            999 V2000
    6.2811    8.5747    6.4327 C   0  0  0  0  0  0
    5.3214    9.4188    5.9019 N   0  0  0  0  0  0
    5.6183    7.6049    7.2432 C   0  0  0  0  0  0
    4.2113    7.9353    7.2534 C   0  0  0  0  0  0
    4.0947    9.0121    6.3873 C   0  0  0  0  0  0
    5.5583   10.5295    4.9687 C   0  0  2  0  0  0
    7.6016    8.6311    6.2123 N   0  0  0  0  0  0
    6.4647    6.6089    7.7711 C   0  0  0  0  0  0
    7.8048    6.6375    7.5879 N   0  0  0  0  0  0
    4.5223   11.5979    3.1356 N   0  0  1  0  0  0
    2.5126   12.0451    4.6888 C   0  0  0  0  0  0
    4.9951   11.8858    5.4150 C   0  0  0  0  0  0
    1.6607   11.2610    3.6852 C   0  0  0  0  0  0
    4.0066   12.2991    4.3111 C   0  0  1  0  0  0
    8.2962    7.6519    6.8388 C   0  0  0  0  0  0
    3.0981    7.3356    8.0525 C   0  0  0  0  0  0
    4.9626   10.2848    3.5808 C   0  0  0  0  0  0
    1.2738   11.7839    2.6386 O   0  0  0  0  0  0
    5.9656    5.4890    8.4237 N   0  0  0  0  0  0
    1.4479    9.9837    4.0650 O   0  0  0  0  0  0
    3.3058    6.8975    9.3656 C   0  0  0  0  0  0
    1.8284    7.2125    7.4797 C   0  0  0  0  0  0
    0.7792    9.0867    3.1881 C   0  0  0  0  0  0
    0.5997    7.7241    3.8616 C   0  0  0  0  0  0
    0.7798    6.6513    8.2050 C   0  0  0  0  0  0
    2.2590    6.3347   10.0923 C   0  0  0  0  0  0
    1.0002    6.2116    9.5085 C   0  0  0  0  0  0
    3.2087    9.5558    6.1003 H   0  0  0  0  0  0
    6.6441   10.6086    4.8897 H   0  0  0  0  0  0
    3.8427   11.5688    2.3839 H   0  0  0  0  0  0
    2.0217   13.0064    4.8392 H   0  0  0  0  0  0
    2.4430   11.5435    5.6521 H   0  0  0  0  0  0
    5.7842   12.6346    5.5166 H   0  0  0  0  0  0
    4.5206   11.8389    6.3947 H   0  0  0  0  0  0
    4.1394   13.3587    4.0858 H   0  0  0  0  0  0
    9.3686    7.6740    6.7080 H   0  0  0  0  0  0
    5.6820    9.8389    2.8930 H   0  0  0  0  0  0
    4.0996    9.6172    3.6266 H   0  0  0  0  0  0
    4.9694    5.4068    8.5723 H   0  0  0  0  0  0
    6.6118    4.7897    8.7681 H   0  0  0  0  0  0
    4.2715    7.0078    9.8370 H   0  0  0  0  0  0
    1.6556    7.5446    6.4679 H   0  0  0  0  0  0
    1.3634    8.9749    2.2731 H   0  0  0  0  0  0
   -0.1961    9.4878    2.9037 H   0  0  0  0  0  0
    0.0845    7.0372    3.1903 H   0  0  0  0  0  0
    0.0007    7.8069    4.7688 H   0  0  0  0  0  0
    1.5610    7.2774    4.1188 H   0  0  0  0  0  0
   -0.2009    6.5507    7.7598 H   0  0  0  0  0  0
    2.4266    5.9966   11.1053 H   0  0  0  0  0  0
    0.1857    5.7735   10.0684 H   0  0  0  0  0  0
  1  2  1  0  0  0
  1  3  2  0  0  0
  1  7  1  0  0  0
  2  5  1  0  0  0
  2  6  1  0  0  0
  3  4  1  0  0  0
  3  8  1  0  0  0
  4 16  1  0  0  0
  4  5  2  0  0  0
  5 28  1  0  0  0
  6 12  1  0  0  0
  6 17  1  0  0  0
  6 29  1  0  0  0
  7 15  2  0  0  0
  8 19  1  0  0  0
  8  9  2  0  0  0
  9 15  1  0  0  0
 10 17  1  0  0  0
 10 14  1  0  0  0
 10 30  1  0  0  0
 11 14  1  0  0  0
 11 13  1  0  0  0
 11 31  1  0  0  0
 11 32  1  0  0  0
 12 14  1  0  0  0
 12 33  1  0  0  0
 12 34  1  0  0  0
 13 18  2  0  0  0
 13 20  1  0  0  0
 14 35  1  0  0  0
 15 36  1  0  0  0
 16 21  2  0  0  0
 16 22  1  0  0  0
 17 37  1  0  0  0
 17 38  1  0  0  0
 19 39  1  0  0  0
 19 40  1  0  0  0
 20 23  1  0  0  0
 21 26  1  0  0  0
 21 41  1  0  0  0
 22 25  2  0  0  0
 22 42  1  0  0  0
 23 24  1  0  0  0
 23 43  1  0  0  0
 23 44  1  0  0  0
 24 45  1  0  0  0
 24 46  1  0  0  0
 24 47  1  0  0  0
 25 27  1  0  0  0
 25 48  1  0  0  0
 26 27  2  0  0  0
 26 49  1  0  0  0
 27 50  1  0  0  0
M  END
> <s_m_entry_id>
31898

> <s_m_entry_name>
dock_pv.161

> <s_m_Source_Path>
/home/csk/Desktop/cluster/DUD-E-result/src

> <s_m_Source_File>
dock_pv.maegz

> <i_m_Source_File_Index>
161

> <chembl_id>
CHEMBL352829

> <chembl_pref_name>
None

> <i_lp_mmshare_version>
53161

> <r_lp_tautomer_probability>
1

> <s_lp_Force_Field>
OPLS_2005

> <r_lp_Energy>
35.258301

> <b_lp_Chiralities_Consistent>
1

> <s_lp_Variant>
CHEMBL267_lig413-1

> <s_i_glide_gridfile>
glide-grid_3el8

> <i_i_glide_lignum>
489

> <i_i_glide_rotatable_bonds>
6

> <r_i_docking_score>
-8.01298013501658

> <r_i_glide_ligand_efficiency>
-0.296777042037651

> <r_i_glide_ligand_efficiency_sa>
-0.890331125134824

> <r_i_glide_ligand_efficiency_ln>
-1.86528967112982

> <r_i_glide_gscore>
-8.01298013501658

> <r_i_glide_lipo>
-2.28454455204641

> <r_i_glide_hbond>
-0.472192076849976

> <r_i_glide_metal>
0

> <r_i_glide_rewards>
-2.98271177888166

> <r_i_glide_evdw>
-40.4227447509766

> <r_i_glide_ecoul>
-5.04376983642578

> <r_i_glide_erotb>
0.504170985774161

> <r_i_glide_esite>
0

> <r_i_glide_emodel>
-62.0492469966132

> <r_i_glide_energy>
-45.4665145874023

> <r_i_glide_einternal>
8.04107856750488

> <i_i_glide_confnum>
89

> <i_i_glide_posenum>
184

> <r_i_glide_eff_state_penalty>
0

> <s_user_duplicate_titles>
CHEMBL267_lig413,282675

> <i_f3d_flags>
0

> <s_m_subgroup_title>
dock_pv

> <s_m_subgroupid>
dock_pv

> <b_m_subgroup_collapsed>
1

$$$$
CHEMBL267_lig1534
                    3D
 Schrodinger Suite 2021-1.
 36 39  0  0  1  0            999 V2000
    7.4880    6.5057    7.5879 N   0  0  0  0  0  0
    7.8544    7.4522    6.6924 C   0  0  0  0  0  0
    7.0650    8.3825    6.1002 N   0  0  0  0  0  0
    6.1884    6.4951    7.9775 C   0  0  0  0  0  0
    5.2601    7.4331    7.4728 C   0  0  0  0  0  0
    5.7863    8.3330    6.5007 C   0  0  0  0  0  0
    4.7429    9.1196    6.0437 N   0  0  0  0  0  0
    3.5904    8.7112    6.6819 C   0  0  0  0  0  0
    3.8534    7.7187    7.6102 C   0  0  0  0  0  0
    2.8614    7.0812    8.5169 C   0  0  0  0  0  0
    3.1344    6.9447    9.8806 C   0  0  0  0  0  0
    2.1997    6.3442   10.7208 C   0  0  0  0  0  0
    0.9987    5.8728   10.1946 C   0  0  0  0  0  0
    0.7227    6.0015    8.8352 C   0  0  0  0  0  0
    1.6528    6.6123    7.9975 C   0  0  0  0  0  0
    5.7969    5.4370    8.7878 N   0  0  0  0  0  0
    4.8245   10.1819    5.0458 C   0  0  0  0  0  0
    3.8537   11.3796    5.0943 C   0  0  0  0  0  0
    4.9899   12.2482    4.5387 C   0  0  0  0  0  0
    5.9558   11.2187    5.1417 C   0  0  0  0  0  0
    8.8932    7.4433    6.3891 H   0  0  0  0  0  0
    2.6559    9.1984    6.4475 H   0  0  0  0  0  0
    4.0656    7.3041   10.2926 H   0  0  0  0  0  0
    2.4104    6.2377   11.7747 H   0  0  0  0  0  0
    0.2750    5.4037   10.8455 H   0  0  0  0  0  0
   -0.2034    5.6240    8.4302 H   0  0  0  0  0  0
    1.4391    6.7048    6.9424 H   0  0  0  0  0  0
    4.8354    5.3698    9.0935 H   0  0  0  0  0  0
    6.4948    4.7642    9.0864 H   0  0  0  0  0  0
    4.8121    9.6655    4.0819 H   0  0  0  0  0  0
    2.9585   11.2832    4.4779 H   0  0  0  0  0  0
    3.5503   11.6589    6.1063 H   0  0  0  0  0  0
    5.0219   12.2947    3.4474 H   0  0  0  0  0  0
    5.0621   13.2573    4.9482 H   0  0  0  0  0  0
    6.2508   11.4369    6.1719 H   0  0  0  0  0  0
    6.8580   10.9919    4.5711 H   0  0  0  0  0  0
  1  4  1  0  0  0
  1  2  2  0  0  0
  2  3  1  0  0  0
  2 21  1  0  0  0
  3  6  2  0  0  0
  4  5  2  0  0  0
  4 16  1  0  0  0
  5  6  1  0  0  0
  5  9  1  0  0  0
  6  7  1  0  0  0
  7 17  1  0  0  0
  7  8  1  0  0  0
  8  9  2  0  0  0
  8 22  1  0  0  0
  9 10  1  0  0  0
 10 11  2  0  0  0
 10 15  1  0  0  0
 11 12  1  0  0  0
 11 23  1  0  0  0
 12 13  2  0  0  0
 12 24  1  0  0  0
 13 14  1  0  0  0
 13 25  1  0  0  0
 14 15  2  0  0  0
 14 26  1  0  0  0
 15 27  1  0  0  0
 16 28  1  0  0  0
 16 29  1  0  0  0
 17 18  1  0  0  0
 17 20  1  0  0  0
 17 30  1  0  0  0
 18 19  1  0  0  0
 18 31  1  0  0  0
 18 32  1  0  0  0
 19 20  1  0  0  0
 19 33  1  0  0  0
 19 34  1  0  0  0
 20 35  1  0  0  0
 20 36  1  0  0  0
M  END
> <s_m_entry_id>
31899

> <s_m_entry_name>
dock_pv.162

> <s_m_Source_Path>
/home/csk/Desktop/cluster/DUD-E-result/src

> <s_m_Source_File>
dock_pv.maegz

> <i_m_Source_File_Index>
162

> <chembl_id>
CHEMBL166766

> <chembl_pref_name>
None

> <i_lp_mmshare_version>
53161

> <r_lp_tautomer_probability>
1

> <s_lp_Force_Field>
OPLS_2005

> <r_lp_Energy>
23.885745

> <b_lp_Chiralities_Consistent>
1

> <s_lp_Variant>
CHEMBL267_lig1534-1

> <s_i_glide_gridfile>
glide-grid_3el8

> <i_i_glide_lignum>
1715

> <i_i_glide_rotatable_bonds>
2

> <r_i_docking_score>
-8.0125378205164

> <r_i_glide_ligand_efficiency>
-0.40062689102582

> <r_i_glide_ligand_efficiency_sa>
-1.08746868959621

> <r_i_glide_ligand_efficiency_ln>
-2.00527394529105

> <r_i_glide_gscore>
-8.0125378205164

> <r_i_glide_lipo>
-2.2969137329714

> <r_i_glide_hbond>
-0.413068267390991

> <r_i_glide_metal>
0

> <r_i_glide_rewards>
-3.45722097093964

> <r_i_glide_evdw>
-32.5472106933594

> <r_i_glide_ecoul>
-4.8453311920166

> <r_i_glide_erotb>
0.508825364256085

> <r_i_glide_esite>
0

> <r_i_glide_emodel>
-54.3879614556674

> <r_i_glide_energy>
-37.392541885376

> <r_i_glide_einternal>
1.03336405754089

> <i_i_glide_confnum>
15

> <i_i_glide_posenum>
276

> <r_i_glide_eff_state_penalty>
0

> <s_user_duplicate_titles>
CHEMBL267_lig1534,281721

> <i_f3d_flags>
0

> <s_m_subgroup_title>
dock_pv

> <s_m_subgroupid>
dock_pv

> <b_m_subgroup_collapsed>
1

$$$$
CHEMBL267_lig1559
                    3D
 Schrodinger Suite 2021-1.
 37 38  0  0  1  0            999 V2000
    1.3509    4.3063    9.3260 C   0  0  2  0  0  0
    0.9980    2.9762    8.7880 N   0  0  0  0  0  0
    0.1704    4.8358   10.1780 C   0  0  0  0  0  0
   -1.0413    4.6370    9.5880 O   0  0  0  0  0  0
    0.3490    5.4555   11.2243 O   0  0  0  0  0  0
    6.1980   11.1659    4.7162 C   0  0  0  0  0  0
    7.5368   11.0542    4.3246 C   0  0  0  0  0  0
    8.3202    9.9950    4.7880 C   0  0  0  0  0  0
    5.6316   10.2092    5.5617 C   0  0  0  0  0  0
    6.4175    9.1451    6.0068 C   0  0  0  0  0  0
    7.7280    9.0387    5.6080 C   0  0  0  0  0  0
    8.2625    7.9116    6.1758 N   0  0  0  0  0  0
    7.3980    7.2669    6.9689 C   0  0  0  0  0  0
    6.1576    8.0231    6.8944 C   0  0  0  0  0  0
    7.6494    6.2370    7.5880 O   0  0  0  0  0  0
    5.0199    7.7008    7.5400 C   0  0  0  0  0  0
    4.7340    6.6560    8.3880 N   0  0  0  0  0  0
    3.6337    6.6973    9.3408 C   0  0  0  0  0  0
    2.2318    6.6898    8.6896 C   0  0  0  0  0  0
    1.7496    5.2995    8.2046 C   0  0  0  0  0  0
    5.1492   12.6370    4.1218 Br  0  0  0  0  0  0
    2.2080    4.1913    9.9880 H   0  0  0  0  0  0
    1.7880    2.5430    8.3325 H   0  0  0  0  0  0
    0.7130    2.3445    9.5259 H   0  0  0  0  0  0
   -1.7367    5.1641   10.0049 H   0  0  0  0  0  0
    7.9710   11.8022    3.6771 H   0  0  0  0  0  0
    9.3566    9.9199    4.4923 H   0  0  0  0  0  0
    4.6008   10.3106    5.8667 H   0  0  0  0  0  0
    9.1850    7.5495    5.9681 H   0  0  0  0  0  0
    4.1574    8.3338    7.3920 H   0  0  0  0  0  0
    5.5190    6.0963    8.6974 H   0  0  0  0  0  0
    3.7474    7.5637    9.9945 H   0  0  0  0  0  0
    3.7326    5.8370    9.9987 H   0  0  0  0  0  0
    2.2105    7.3772    7.8441 H   0  0  0  0  0  0
    1.5145    7.1121    9.3928 H   0  0  0  0  0  0
    2.5284    4.8535    7.5842 H   0  0  0  0  0  0
    0.8963    5.4370    7.5369 H   0  0  0  0  0  0
  1  2  1  0  0  0
  1  3  1  0  0  0
  1 20  1  0  0  0
  1 22  1  0  0  0
  2 23  1  0  0  0
  2 24  1  0  0  0
  3  4  1  0  0  0
  3  5  2  0  0  0
  4 25  1  0  0  0
  6  7  2  0  0  0
  6  9  1  0  0  0
  6 21  1  0  0  0
  7  8  1  0  0  0
  7 26  1  0  0  0
  8 11  2  0  0  0
  8 27  1  0  0  0
  9 10  2  0  0  0
  9 28  1  0  0  0
 10 14  1  0  0  0
 10 11  1  0  0  0
 11 12  1  0  0  0
 12 13  1  0  0  0
 12 29  1  0  0  0
 13 14  1  0  0  0
 13 15  2  0  0  0
 14 16  2  0  0  0
 16 17  1  0  0  0
 16 30  1  0  0  0
 17 18  1  0  0  0
 17 31  1  0  0  0
 18 19  1  0  0  0
 18 32  1  0  0  0
 18 33  1  0  0  0
 19 20  1  0  0  0
 19 34  1  0  0  0
 19 35  1  0  0  0
 20 36  1  0  0  0
 20 37  1  0  0  0
M  END
> <s_m_entry_id>
31900

> <s_m_entry_name>
dock_pv.163

> <s_m_Source_Path>
/home/csk/Desktop/cluster/DUD-E-result/src

> <s_m_Source_File>
dock_pv.maegz

> <i_m_Source_File_Index>
163

> <chembl_id>
CHEMBL503236

> <chembl_pref_name>
None

> <i_lp_mmshare_version>
53161

> <r_lp_tautomer_probability>
0.499999999999422

> <s_lp_Force_Field>
OPLS_2005

> <r_lp_Energy>
24.656706

> <b_lp_Chiralities_Consistent>
1

> <s_lp_Variant>
CHEMBL267_lig1559-1

> <s_i_glide_gridfile>
glide-grid_3el8

> <i_i_glide_lignum>
1748

> <i_i_glide_rotatable_bonds>
7

> <r_i_docking_score>
-7.9916444140087

> <r_i_glide_ligand_efficiency>
-0.380554495905176

> <r_i_glide_ligand_efficiency_sa>
-1.04992099811782

> <r_i_glide_ligand_efficiency_ln>
-1.97591793272558

> <r_i_glide_gscore>
-7.9916444140087

> <r_i_glide_lipo>
-2.48952200769596

> <r_i_glide_hbond>
-0.570562782281379

> <r_i_glide_metal>
0

> <r_i_glide_rewards>
-2.53096148418326

> <r_i_glide_evdw>
-34.5347023010254

> <r_i_glide_ecoul>
-8.75654888153076

> <r_i_glide_erotb>
0.639619307432781

> <r_i_glide_esite>
0

> <r_i_glide_emodel>
-60.5756595319536

> <r_i_glide_energy>
-43.2912511825562

> <r_i_glide_einternal>
7.91059017181396

> <i_i_glide_confnum>
47

> <i_i_glide_posenum>
85

> <r_i_glide_eff_state_penalty>
0

> <s_user_duplicate_titles>
CHEMBL267_lig1559,CHEMBL267_lig1559

> <i_f3d_flags>
0

> <s_m_subgroup_title>
dock_pv

> <s_m_subgroupid>
dock_pv

> <b_m_subgroup_collapsed>
1

$$$$
CHEMBL267_lig425
                    3D
 Schrodinger Suite 2021-1.
 51 54  0  0  1  0            999 V2000
    5.8289    8.3044    6.3766 C   0  0  0  0  0  0
    4.7918    9.0524    5.8361 N   0  0  0  0  0  0
    5.2819    7.4370    7.3704 C   0  0  0  0  0  0
    3.8777    7.7438    7.4707 C   0  0  0  0  0  0
    3.6357    8.7003    6.5042 C   0  0  0  0  0  0
    4.9182   10.0699    4.7745 C   0  0  1  0  0  0
    7.1188    8.3490    6.0145 N   0  0  0  0  0  0
    6.1988    6.5239    7.9401 C   0  0  0  0  0  0
    2.8765    7.1747    8.4024 C   0  0  0  0  0  0
    3.0800   11.5753    4.9314 N   0  0  2  0  0  0
    7.5088    6.5333    7.5879 N   0  0  0  0  0  0
    3.5892   10.4773    4.1163 C   0  0  0  0  0  0
    7.8954    7.4492    6.6689 C   0  0  0  0  0  0
    5.4403   11.4022    5.3377 C   0  0  0  0  0  0
    1.1685   13.2517    5.1840 C   0  0  0  0  0  0
    3.1619    7.1630    9.7668 C   0  0  0  0  0  0
    1.9677   12.2869    4.2840 C   0  0  0  0  0  0
    4.2804   12.3855    5.1251 C   0  0  0  0  0  0
    1.3988   13.4088    6.3870 O   0  0  0  0  0  0
    5.7977    5.4953    8.7879 N   0  0  0  0  0  0
    2.2406    6.6480   10.6891 C   0  0  0  0  0  0
    0.1992   13.8839    4.4910 O   0  0  0  0  0  0
    1.6577    6.6671    7.9462 C   0  0  0  0  0  0
    2.4439    6.6370   12.0525 O   0  0  0  0  0  0
    0.7373    6.1432    8.8528 C   0  0  0  0  0  0
    1.0292    6.1366   10.2172 C   0  0  0  0  0  0
   -0.6553   14.8188    5.1359 C   0  0  0  0  0  0
    3.7097    7.0372   12.5723 C   0  0  0  0  0  0
    2.7064    9.1961    6.2631 H   0  0  0  0  0  0
    5.5990    9.6059    4.0582 H   0  0  0  0  0  0
    2.8726    9.6620    4.0035 H   0  0  0  0  0  0
    3.7389   10.8160    3.0881 H   0  0  0  0  0  0
    8.9426    7.4411    6.4012 H   0  0  0  0  0  0
    6.3224   11.7314    4.7872 H   0  0  0  0  0  0
    5.7269   11.3362    6.3880 H   0  0  0  0  0  0
    4.0997    7.5841   10.0947 H   0  0  0  0  0  0
    1.2588   11.5457    3.9128 H   0  0  0  0  0  0
    2.3223   12.8221    3.4013 H   0  0  0  0  0  0
    4.4681   13.0580    4.2848 H   0  0  0  0  0  0
    4.1391   13.0319    5.9883 H   0  0  0  0  0  0
    4.8303    5.4304    9.0727 H   0  0  0  0  0  0
    6.4918    4.8346    9.1160 H   0  0  0  0  0  0
    1.4269    6.6702    6.8909 H   0  0  0  0  0  0
   -0.2024    5.7439    8.4999 H   0  0  0  0  0  0
    0.3075    5.7378   10.9157 H   0  0  0  0  0  0
   -1.3762   15.2153    4.4203 H   0  0  0  0  0  0
   -0.0869   15.6556    5.5458 H   0  0  0  0  0  0
   -1.2096   14.3488    5.9500 H   0  0  0  0  0  0
    3.7980    6.6623   13.5879 H   0  0  0  0  0  0
    4.5581    6.6370   12.0183 H   0  0  0  0  0  0
    3.8042    8.1210   12.5972 H   0  0  0  0  0  0
  1  2  1  0  0  0
  1  3  2  0  0  0
  1  7  1  0  0  0
  2  5  1  0  0  0
  2  6  1  0  0  0
  3  4  1  0  0  0
  3  8  1  0  0  0
  4  9  1  0  0  0
  4  5  2  0  0  0
  5 29  1  0  0  0
  6 12  1  0  0  0
  6 14  1  0  0  0
  6 30  1  0  0  0
  7 13  2  0  0  0
  8 20  1  0  0  0
  8 11  2  0  0  0
  9 16  2  0  0  0
  9 23  1  0  0  0
 10 12  1  0  0  0
 10 17  1  0  0  0
 10 18  1  0  0  0
 11 13  1  0  0  0
 12 31  1  0  0  0
 12 32  1  0  0  0
 13 33  1  0  0  0
 14 18  1  0  0  0
 14 34  1  0  0  0
 14 35  1  0  0  0
 15 17  1  0  0  0
 15 19  2  0  0  0
 15 22  1  0  0  0
 16 21  1  0  0  0
 16 36  1  0  0  0
 17 37  1  0  0  0
 17 38  1  0  0  0
 18 39  1  0  0  0
 18 40  1  0  0  0
 20 41  1  0  0  0
 20 42  1  0  0  0
 21 24  1  0  0  0
 21 26  2  0  0  0
 22 27  1  0  0  0
 23 25  2  0  0  0
 23 43  1  0  0  0
 24 28  1  0  0  0
 25 26  1  0  0  0
 25 44  1  0  0  0
 26 45  1  0  0  0
 27 46  1  0  0  0
 27 47  1  0  0  0
 27 48  1  0  0  0
 28 49  1  0  0  0
 28 50  1  0  0  0
 28 51  1  0  0  0
M  END
> <s_m_entry_id>
31901

> <s_m_entry_name>
dock_pv.164

> <s_m_Source_Path>
/home/csk/Desktop/cluster/DUD-E-result/src

> <s_m_Source_File>
dock_pv.maegz

> <i_m_Source_File_Index>
164

> <chembl_id>
CHEMBL355891

> <chembl_pref_name>
None

> <i_lp_mmshare_version>
53161

> <r_lp_tautomer_probability>
1

> <s_lp_Force_Field>
OPLS_2005

> <r_lp_Energy>
40.978542

> <b_lp_Chiralities_Consistent>
1

> <s_lp_Variant>
CHEMBL267_lig425-2

> <s_i_glide_gridfile>
glide-grid_3el8

> <i_i_glide_lignum>
505

> <i_i_glide_rotatable_bonds>
6

> <r_i_docking_score>
-7.99020113607014

> <r_i_glide_ligand_efficiency>
-0.285364326288219

> <r_i_glide_ligand_efficiency_sa>
-0.866534165211046

> <r_i_glide_ligand_efficiency_ln>
-1.84437302470446

> <r_i_glide_gscore>
-7.99020113607014

> <r_i_glide_lipo>
-2.37760569291786

> <r_i_glide_hbond>
-0.409752455828234

> <r_i_glide_metal>
0

> <r_i_glide_rewards>
-2.76268978016721

> <r_i_glide_evdw>
-41.4705657958984

> <r_i_glide_ecoul>
-6.002037525177

> <r_i_glide_erotb>
0.533680711414639

> <r_i_glide_esite>
0

> <r_i_glide_emodel>
-66.817233688974

> <r_i_glide_energy>
-47.4726033210754

> <r_i_glide_einternal>
4.90499830245972

> <i_i_glide_confnum>
16

> <i_i_glide_posenum>
244

> <r_i_glide_eff_state_penalty>
0

> <s_user_duplicate_titles>
CHEMBL267_lig425,281737

> <i_f3d_flags>
0

> <s_m_subgroup_title>
dock_pv

> <s_m_subgroupid>
dock_pv

> <b_m_subgroup_collapsed>
1

$$$$
CHEMBL267_lig480
                    3D
 Schrodinger Suite 2021-1.
 29 31  0  0  1  0            999 V2000
    3.1558    6.9001    8.6529 C   0  0  0  0  0  0
    4.1131    8.4666    7.0509 N   0  0  0  0  0  0
    6.3343    8.3625    6.4368 N   0  0  0  0  0  0
    5.3084    7.8370    7.1611 C   0  0  0  0  0  0
    3.0806    8.0110    7.7936 C   0  0  0  0  0  0
    2.0059    6.4105    9.4751 C   0  0  0  0  0  0
    5.4791    6.6934    7.9881 C   0  0  0  0  0  0
    4.3779    6.2280    8.7340 C   0  0  0  0  0  0
    7.5218    7.7263    6.5406 C   0  0  0  0  0  0
    7.7982    6.6295    7.2777 N   0  0  0  0  0  0
    6.7660    6.1202    7.9880 C   0  0  0  0  0  0
    2.0664    6.4356   10.8842 C   0  0  0  0  0  0
    0.8456    5.8900    8.8669 C   0  0  0  0  0  0
    1.9081    8.7391    7.6470 N   0  0  0  0  0  0
    8.5586    8.2374    5.7886 N   0  0  0  0  0  0
    0.6623    5.8370    7.1464 Cl  0  0  0  0  0  0
    3.4491    7.0370   11.7360 Cl  0  0  0  0  0  0
   -0.1277    5.4369   11.0328 C   0  0  0  0  0  0
   -0.2020    5.4005    9.6459 C   0  0  0  0  0  0
    0.9980    5.9666   11.6486 C   0  0  0  0  0  0
    4.4900    5.3645    9.3732 H   0  0  0  0  0  0
    6.9701    5.2430    8.5866 H   0  0  0  0  0  0
    1.0633    8.2982    7.9720 H   0  0  0  0  0  0
    1.8968    9.4080    6.8924 H   0  0  0  0  0  0
    8.3310    8.9948    5.1666 H   0  0  0  0  0  0
    9.3343    7.6095    5.5882 H   0  0  0  0  0  0
   -0.9553    5.0720   11.6248 H   0  0  0  0  0  0
   -1.0970    5.0093    9.1842 H   0  0  0  0  0  0
    1.0471    6.0011   12.7272 H   0  0  0  0  0  0
  1  5  1  0  0  0
  1  6  1  0  0  0
  1  8  2  0  0  0
  2  5  2  0  0  0
  2  4  1  0  0  0
  3  4  2  0  0  0
  3  9  1  0  0  0
  4  7  1  0  0  0
  5 14  1  0  0  0
  6 12  2  0  0  0
  6 13  1  0  0  0
  7  8  1  0  0  0
  7 11  2  0  0  0
  8 21  1  0  0  0
  9 10  2  0  0  0
  9 15  1  0  0  0
 10 11  1  0  0  0
 11 22  1  0  0  0
 12 17  1  0  0  0
 12 20  1  0  0  0
 13 16  1  0  0  0
 13 19  2  0  0  0
 14 23  1  0  0  0
 14 24  1  0  0  0
 15 25  1  0  0  0
 15 26  1  0  0  0
 18 19  1  0  0  0
 18 20  2  0  0  0
 18 27  1  0  0  0
 19 28  1  0  0  0
 20 29  1  0  0  0
M  END
> <s_m_entry_id>
31902

> <s_m_entry_name>
dock_pv.165

> <s_m_Source_Path>
/home/csk/Desktop/cluster/DUD-E-result/src

> <s_m_Source_File>
dock_pv.maegz

> <i_m_Source_File_Index>
165

> <chembl_id>
CHEMBL58627

> <chembl_pref_name>
None

> <i_lp_mmshare_version>
53161

> <r_lp_tautomer_probability>
1

> <s_lp_Force_Field>
OPLS_2005

> <r_lp_Energy>
10.419989

> <b_lp_Chiralities_Consistent>
1

> <s_lp_Variant>
CHEMBL267_lig480-1

> <s_i_glide_gridfile>
glide-grid_3el8

> <i_i_glide_lignum>
572

> <i_i_glide_rotatable_bonds>
1

> <r_i_docking_score>
-7.98541390811555

> <r_i_glide_ligand_efficiency>
-0.399270695405777

> <r_i_glide_ligand_efficiency_sa>
-1.0837874083173

> <r_i_glide_ligand_efficiency_ln>
-1.99848572462362

> <r_i_glide_gscore>
-7.98541390811555

> <r_i_glide_lipo>
-1.90659815427313

> <r_i_glide_hbond>
-0.5346060275438

> <r_i_glide_metal>
0

> <r_i_glide_rewards>
-3.1035177343533

> <r_i_glide_evdw>
-31.82839012146

> <r_i_glide_ecoul>
-6.58132028579712

> <r_i_glide_erotb>
0.137925556997243

> <r_i_glide_esite>
0

> <r_i_glide_emodel>
-55.8945303152301

> <r_i_glide_energy>
-38.4097104072571

> <r_i_glide_einternal>
0.322525441646576

> <i_i_glide_confnum>
1

> <i_i_glide_posenum>
383

> <r_i_glide_eff_state_penalty>
0

> <s_user_duplicate_titles>
CHEMBL267_lig480,88663

> <i_f3d_flags>
0

> <s_m_subgroup_title>
dock_pv

> <s_m_subgroupid>
dock_pv

> <b_m_subgroup_collapsed>
1

$$$$
CHEMBL267_lig1019
                    3D
 Schrodinger Suite 2021-1.
 50 52  0  0  1  0            999 V2000
    6.0397   10.0561    5.2687 C   0  0  0  0  0  0
    7.3952    9.6987    5.1791 C   0  0  0  0  0  0
    7.8499    8.5489    5.8391 C   0  0  0  0  0  0
    5.1650    9.3121    6.0645 C   0  0  0  0  0  0
    5.6228    8.1818    6.7897 C   0  0  0  0  0  0
    6.9820    7.7774    6.6342 C   0  0  0  0  0  0
    7.4773    6.6561    7.2289 N   0  0  0  0  0  0
    6.6127    5.9467    7.9900 C   0  0  0  0  0  0
    5.3363    6.2789    8.2881 N   0  0  0  0  0  0
    4.8369    7.3884    7.6833 C   0  0  0  0  0  0
    3.4939    7.7087    7.9515 N   0  0  0  0  0  0
    2.5999    7.0622    8.8211 C   0  0  0  0  0  0
    1.4962    6.3963    8.2799 C   0  0  0  0  0  0
    0.5658    5.7767    9.1142 C   0  0  0  0  0  0
    0.7183    5.8371   10.4961 C   0  0  0  0  0  0
    1.8022    6.5218   11.0450 C   0  0  0  0  0  0
    2.7501    7.1304   10.2148 C   0  0  0  0  0  0
    8.2313   10.5032    4.4222 O   0  0  0  0  0  0
    5.5092   11.2923    4.5402 C   0  0  0  0  0  0
    9.6338   10.2384    4.3965 C   0  0  0  0  0  0
    1.9279    6.6461   12.7599 Cl  0  0  0  0  0  0
    3.7872    7.8126   10.7627 F   0  0  0  0  0  0
    4.7089   10.9511    3.3487 N   0  0  1  0  0  0
    3.2281   10.9769    3.5924 C   0  0  1  0  0  0
    2.5932   12.3836    3.7451 C   0  0  0  0  0  0
    2.4960   10.1412    2.5067 C   0  0  0  0  0  0
    2.1974    8.8722    2.7894 N   0  0  0  0  0  0
    2.1958   10.6469    1.4270 O   0  0  0  0  0  0
    5.1573   11.7478    2.1996 C   0  0  0  0  0  0
    8.8773    8.2248    5.7654 H   0  0  0  0  0  0
    4.1362    9.6162    6.1695 H   0  0  0  0  0  0
    6.9912    5.0455    8.4561 H   0  0  0  0  0  0
    3.1097    8.4706    7.4164 H   0  0  0  0  0  0
    1.3603    6.3489    7.2096 H   0  0  0  0  0  0
   -0.2851    5.2616    8.6913 H   0  0  0  0  0  0
   -0.0165    5.3730   11.1396 H   0  0  0  0  0  0
    6.3541   11.9327    4.2805 H   0  0  0  0  0  0
    4.9288   11.8923    5.2422 H   0  0  0  0  0  0
   10.1287   10.9741    3.7625 H   0  0  0  0  0  0
   10.0809   10.3042    5.3895 H   0  0  0  0  0  0
    9.8541    9.2532    3.9857 H   0  0  0  0  0  0
    3.0102   10.4819    4.5380 H   0  0  0  0  0  0
    1.5209   12.3169    3.9367 H   0  0  0  0  0  0
    3.0314   12.9351    4.5766 H   0  0  0  0  0  0
    2.7203   12.9891    2.8463 H   0  0  0  0  0  0
    1.6874    8.3336    2.0995 H   0  0  0  0  0  0
    2.4559    8.4563    3.6698 H   0  0  0  0  0  0
    6.2175   11.5786    2.0071 H   0  0  0  0  0  0
    4.6267   11.4788    1.2861 H   0  0  0  0  0  0
    5.0146   12.8160    2.3695 H   0  0  0  0  0  0
  1  2  1  0  0  0
  1 19  1  0  0  0
  1  4  2  0  0  0
  2 18  1  0  0  0
  2  3  2  0  0  0
  3  6  1  0  0  0
  3 30  1  0  0  0
  4  5  1  0  0  0
  4 31  1  0  0  0
  5 10  2  0  0  0
  5  6  1  0  0  0
  6  7  2  0  0  0
  7  8  1  0  0  0
  8  9  2  0  0  0
  8 32  1  0  0  0
  9 10  1  0  0  0
 10 11  1  0  0  0
 11 12  1  0  0  0
 11 33  1  0  0  0
 12 17  2  0  0  0
 12 13  1  0  0  0
 13 14  2  0  0  0
 13 34  1  0  0  0
 14 15  1  0  0  0
 14 35  1  0  0  0
 15 16  2  0  0  0
 15 36  1  0  0  0
 16 17  1  0  0  0
 16 21  1  0  0  0
 17 22  1  0  0  0
 18 20  1  0  0  0
 19 23  1  0  0  0
 19 37  1  0  0  0
 19 38  1  0  0  0
 20 39  1  0  0  0
 20 40  1  0  0  0
 20 41  1  0  0  0
 23 24  1  0  0  0
 23 29  1  0  0  0
 24 25  1  0  0  0
 24 26  1  0  0  0
 24 42  1  0  0  0
 25 43  1  0  0  0
 25 44  1  0  0  0
 25 45  1  0  0  0
 26 27  1  0  0  0
 26 28  2  0  0  0
 27 46  1  0  0  0
 27 47  1  0  0  0
 29 48  1  0  0  0
 29 49  1  0  0  0
 29 50  1  0  0  0
M  END
> <s_m_entry_id>
31903

> <s_m_entry_name>
dock_pv.166

> <s_m_Source_Path>
/home/csk/Desktop/cluster/DUD-E-result/src

> <s_m_Source_File>
dock_pv.maegz

> <i_m_Source_File_Index>
166

> <chembl_id>
CHEMBL207687

> <chembl_pref_name>
None

> <i_lp_mmshare_version>
53161

> <r_lp_tautomer_probability>
0.999978000241998

> <s_lp_Force_Field>
OPLS_2005

> <r_lp_Energy>
31.074568

> <b_lp_Chiralities_Consistent>
1

> <s_lp_Variant>
CHEMBL267_lig1019-1

> <s_i_glide_gridfile>
glide-grid_3el8

> <i_i_glide_lignum>
1158

> <i_i_glide_rotatable_bonds>
7

> <r_i_docking_score>
-7.98219897549686

> <r_i_glide_ligand_efficiency>
-0.275248240534375

> <r_i_glide_ligand_efficiency_sa>
-0.845649799685

> <r_i_glide_ligand_efficiency_ln>
-1.82772115428727

> <r_i_glide_gscore>
-7.98219897549686

> <r_i_glide_lipo>
-3.39674906441845

> <r_i_glide_hbond>
-0.266610117578847

> <r_i_glide_metal>
0

> <r_i_glide_rewards>
-2.19323661775636

> <r_i_glide_evdw>
-41.7646484375

> <r_i_glide_ecoul>
-3.87908601760864

> <r_i_glide_erotb>
0.566089554587947

> <r_i_glide_esite>
-0.0215974058148567

> <r_i_glide_emodel>
-64.4917987830047

> <r_i_glide_energy>
-45.6437344551086

> <r_i_glide_einternal>
5.96842050552368

> <i_i_glide_confnum>
19

> <i_i_glide_posenum>
339

> <r_i_glide_eff_state_penalty>
0

> <s_user_duplicate_titles>
CHEMBL267_lig1019

> <i_f3d_flags>
0

> <s_m_subgroup_title>
dock_pv

> <s_m_subgroupid>
dock_pv

> <b_m_subgroup_collapsed>
1

$$$$
CHEMBL267_lig590
                    3D
 Schrodinger Suite 2021-1.
 48 51  0  0  1  0            999 V2000
    8.1582    6.9915    7.1615 N   0  0  0  0  0  0
    7.2566    6.2946    7.8896 C   0  0  0  0  0  0
    5.9277    6.5265    7.9880 N   0  0  0  0  0  0
    7.6733    7.9818    6.3756 C   0  0  0  0  0  0
    6.2990    8.2946    6.3275 C   0  0  0  0  0  0
    5.4841    7.5232    7.2070 C   0  0  0  0  0  0
    4.1674    7.9403    7.0652 N   0  0  0  0  0  0
    4.1553    8.9171    6.0878 C   0  0  0  0  0  0
    5.4217    9.1710    5.5866 C   0  0  0  0  0  0
    5.7495   10.1392    4.5007 C   0  0  0  0  0  0
    6.8166   11.0301    4.6269 C   0  0  0  0  0  0
    7.1293   11.9056    3.5891 C   0  0  0  0  0  0
    6.3631   11.8938    2.4252 C   0  0  0  0  0  0
    5.2909   11.0145    2.2925 C   0  0  0  0  0  0
    4.9865   10.1367    3.3285 C   0  0  0  0  0  0
    3.0380    7.4740    7.7803 C   0  0  0  0  0  0
    3.1685    7.0696    9.1130 C   0  0  0  0  0  0
    2.1023    6.4774    9.7723 C   0  0  0  0  0  0
    0.8901    6.2933    9.1060 C   0  0  0  0  0  0
    0.7384    6.7386    7.7918 C   0  0  0  0  0  0
    1.8131    7.3139    7.1217 C   0  0  0  0  0  0
    8.6007    8.6371    5.5854 N   0  0  0  0  0  0
   -0.2722    5.6261    9.8229 C   0  0  0  0  0  0
    0.0506    4.2714   10.2576 N   0  0  1  0  0  0
    0.0272    3.2683    9.1963 C   0  0  0  0  0  0
   -1.4224    2.8813    8.8465 C   0  0  0  0  0  0
   -1.4095    1.7553    7.9946 O   0  0  0  0  0  0
    7.6299    5.4663    8.4742 H   0  0  0  0  0  0
    3.2172    9.3777    5.8148 H   0  0  0  0  0  0
    7.4007   11.0388    5.5365 H   0  0  0  0  0  0
    7.9554   12.5947    3.6859 H   0  0  0  0  0  0
    6.5982   12.5723    1.6180 H   0  0  0  0  0  0
    4.7003   11.0224    1.3878 H   0  0  0  0  0  0
    4.1604    9.4479    3.2181 H   0  0  0  0  0  0
    4.1017    7.1799    9.6487 H   0  0  0  0  0  0
    2.2267    6.1474   10.7925 H   0  0  0  0  0  0
   -0.2010    6.6175    7.2729 H   0  0  0  0  0  0
    1.6919    7.5990    6.0854 H   0  0  0  0  0  0
    8.2856    9.3296    4.9236 H   0  0  0  0  0  0
    9.5518    8.2882    5.5873 H   0  0  0  0  0  0
   -1.1612    5.6262    9.1918 H   0  0  0  0  0  0
   -0.5138    6.2294   10.7000 H   0  0  0  0  0  0
    0.9169    4.2466   10.7748 H   0  0  0  0  0  0
    0.5498    2.3907    9.5839 H   0  0  0  0  0  0
    0.5696    3.6371    8.3231 H   0  0  0  0  0  0
   -1.9590    3.7025    8.3784 H   0  0  0  0  0  0
   -1.9890    2.6324    9.7438 H   0  0  0  0  0  0
   -2.3084    1.6002    7.6633 H   0  0  0  0  0  0
  1  2  2  0  0  0
  1  4  1  0  0  0
  2  3  1  0  0  0
  2 28  1  0  0  0
  3  6  2  0  0  0
  4  5  2  0  0  0
  4 22  1  0  0  0
  5  9  1  0  0  0
  5  6  1  0  0  0
  6  7  1  0  0  0
  7  8  1  0  0  0
  7 16  1  0  0  0
  8  9  2  0  0  0
  8 29  1  0  0  0
  9 10  1  0  0  0
 10 15  1  0  0  0
 10 11  2  0  0  0
 11 12  1  0  0  0
 11 30  1  0  0  0
 12 13  2  0  0  0
 12 31  1  0  0  0
 13 14  1  0  0  0
 13 32  1  0  0  0
 14 15  2  0  0  0
 14 33  1  0  0  0
 15 34  1  0  0  0
 16 17  2  0  0  0
 16 21  1  0  0  0
 17 18  1  0  0  0
 17 35  1  0  0  0
 18 19  2  0  0  0
 18 36  1  0  0  0
 19 20  1  0  0  0
 19 23  1  0  0  0
 20 21  2  0  0  0
 20 37  1  0  0  0
 21 38  1  0  0  0
 22 39  1  0  0  0
 22 40  1  0  0  0
 23 24  1  0  0  0
 23 41  1  0  0  0
 23 42  1  0  0  0
 24 25  1  0  0  0
 24 43  1  0  0  0
 25 26  1  0  0  0
 25 44  1  0  0  0
 25 45  1  0  0  0
 26 27  1  0  0  0
 26 46  1  0  0  0
 26 47  1  0  0  0
 27 48  1  0  0  0
M  END
> <s_m_entry_id>
31904

> <s_m_entry_name>
dock_pv.167

> <s_m_Source_Path>
/home/csk/Desktop/cluster/DUD-E-result/src

> <s_m_Source_File>
dock_pv.maegz

> <i_m_Source_File_Index>
167

> <chembl_id>
CHEMBL173453

> <chembl_pref_name>
None

> <i_lp_mmshare_version>
53161

> <r_lp_tautomer_probability>
1

> <s_lp_Force_Field>
OPLS_2005

> <r_lp_Energy>
24.263297

> <b_lp_Chiralities_Consistent>
1

> <s_lp_Variant>
CHEMBL267_lig590-1

> <s_i_glide_gridfile>
glide-grid_3el8

> <i_i_glide_lignum>
693

> <i_i_glide_rotatable_bonds>
7

> <r_i_docking_score>
-7.9819692547826

> <r_i_glide_ligand_efficiency>
-0.295628490917874

> <r_i_glide_ligand_efficiency_sa>
-0.886885471779279

> <r_i_glide_ligand_efficiency_ln>
-1.85807084946567

> <r_i_glide_gscore>
-7.9819692547826

> <r_i_glide_lipo>
-2.8159190746278

> <r_i_glide_hbond>
-0.480062332742706

> <r_i_glide_metal>
0

> <r_i_glide_rewards>
-2.35009679358339

> <r_i_glide_evdw>
-40.6994552612305

> <r_i_glide_ecoul>
-6.16046762466431

> <r_i_glide_erotb>
0.62315185293246

> <r_i_glide_esite>
0

> <r_i_glide_emodel>
-68.2029978286398

> <r_i_glide_energy>
-46.8599228858948

> <r_i_glide_einternal>
3.15363478660583

> <i_i_glide_confnum>
13

> <i_i_glide_posenum>
18

> <r_i_glide_eff_state_penalty>
0

> <s_user_duplicate_titles>
CHEMBL267_lig590,290463

> <i_f3d_flags>
0

> <s_m_subgroup_title>
dock_pv

> <s_m_subgroupid>
dock_pv

> <b_m_subgroup_collapsed>
1

$$$$
CHEMBL267_lig2053
                    3D
 Schrodinger Suite 2021-1.
 37 39  0  0  1  0            999 V2000
    7.4774    6.5631    7.5880 N   0  0  0  0  0  0
    7.7979    7.5261    6.6854 C   0  0  0  0  0  0
    6.9630    8.4235    6.0942 N   0  0  0  0  0  0
    6.1820    6.5074    7.9879 C   0  0  0  0  0  0
    5.2361    7.4282    7.5065 C   0  0  0  0  0  0
    5.6959    8.3303    6.5245 C   0  0  0  0  0  0
    4.5705    9.0296    6.1086 N   0  0  0  0  0  0
    3.4730    8.6380    6.8045 N   0  0  0  0  0  0
    3.8504    7.7299    7.6761 C   0  0  0  0  0  0
    5.8001    5.4371    8.7880 N   0  0  0  0  0  0
    4.4344   10.0628    5.0727 C   0  0  0  0  0  0
    4.7733    9.4794    3.6862 C   0  0  0  0  0  0
    5.2931   11.2948    5.4220 C   0  0  0  0  0  0
    2.9325    7.1353    8.6838 C   0  0  0  0  0  0
    3.2732    7.2345   10.0372 C   0  0  0  0  0  0
    2.4764    6.6370   11.0120 C   0  0  0  0  0  0
    1.3422    5.9191   10.6386 C   0  0  0  0  0  0
    1.0011    5.7979    9.2899 C   0  0  0  0  0  0
    1.7869    6.4226    8.3139 C   0  0  0  0  0  0
   -0.1901    4.9469    8.8990 C   0  0  0  0  0  0
    8.8353    7.5687    6.3855 H   0  0  0  0  0  0
    4.8433    5.3693    9.1070 H   0  0  0  0  0  0
    6.5039    4.7694    9.0799 H   0  0  0  0  0  0
    3.3898   10.3830    5.0506 H   0  0  0  0  0  0
    4.6445   10.2291    2.9051 H   0  0  0  0  0  0
    5.8037    9.1265    3.6315 H   0  0  0  0  0  0
    4.1212    8.6420    3.4367 H   0  0  0  0  0  0
    5.1642   12.0836    4.6803 H   0  0  0  0  0  0
    5.0145   11.7139    6.3882 H   0  0  0  0  0  0
    6.3560   11.0556    5.4575 H   0  0  0  0  0  0
    4.1642    7.7676   10.3368 H   0  0  0  0  0  0
    2.7508    6.7110   12.0544 H   0  0  0  0  0  0
    0.7407    5.4397   11.3977 H   0  0  0  0  0  0
    1.5344    6.3211    7.2681 H   0  0  0  0  0  0
   -0.1541    3.9877    9.4175 H   0  0  0  0  0  0
   -1.1188    5.4380    9.1880 H   0  0  0  0  0  0
   -0.2020    4.7355    7.8297 H   0  0  0  0  0  0
  1  4  1  0  0  0
  1  2  2  0  0  0
  2  3  1  0  0  0
  2 21  1  0  0  0
  3  6  2  0  0  0
  4 10  1  0  0  0
  4  5  2  0  0  0
  5  6  1  0  0  0
  5  9  1  0  0  0
  6  7  1  0  0  0
  7 11  1  0  0  0
  7  8  1  0  0  0
  8  9  2  0  0  0
  9 14  1  0  0  0
 10 22  1  0  0  0
 10 23  1  0  0  0
 11 12  1  0  0  0
 11 13  1  0  0  0
 11 24  1  0  0  0
 12 25  1  0  0  0
 12 26  1  0  0  0
 12 27  1  0  0  0
 13 28  1  0  0  0
 13 29  1  0  0  0
 13 30  1  0  0  0
 14 15  2  0  0  0
 14 19  1  0  0  0
 15 16  1  0  0  0
 15 31  1  0  0  0
 16 17  2  0  0  0
 16 32  1  0  0  0
 17 18  1  0  0  0
 17 33  1  0  0  0
 18 19  2  0  0  0
 18 20  1  0  0  0
 19 34  1  0  0  0
 20 35  1  0  0  0
 20 36  1  0  0  0
 20 37  1  0  0  0
M  END
> <s_m_entry_id>
31905

> <s_m_entry_name>
dock_pv.168

> <s_m_Source_Path>
/home/csk/Desktop/cluster/DUD-E-result/src

> <s_m_Source_File>
dock_pv.maegz

> <i_m_Source_File_Index>
168

> <chembl_id>
CHEMBL2069940

> <chembl_pref_name>
None

> <i_lp_mmshare_version>
53161

> <r_lp_tautomer_probability>
1

> <s_lp_Force_Field>
OPLS_2005

> <r_lp_Energy>
12.187394

> <b_lp_Chiralities_Consistent>
1

> <s_lp_Variant>
CHEMBL267_lig2053-1

> <s_i_glide_gridfile>
glide-grid_3el8

> <i_i_glide_lignum>
2337

> <i_i_glide_rotatable_bonds>
2

> <r_i_docking_score>
-7.97958084153948

> <r_i_glide_ligand_efficiency>
-0.398979042076974

> <r_i_glide_ligand_efficiency_sa>
-1.08299573938444

> <r_i_glide_ligand_efficiency_ln>
-1.99702590044705

> <r_i_glide_gscore>
-7.97958084153948

> <r_i_glide_lipo>
-2.22526232166572

> <r_i_glide_hbond>
-0.380929623439769

> <r_i_glide_metal>
0

> <r_i_glide_rewards>
-3.30879815953037

> <r_i_glide_evdw>
-32.5917129516602

> <r_i_glide_ecoul>
-4.56334543228149

> <r_i_glide_erotb>
0.24949672552161

> <r_i_glide_esite>
0

> <r_i_glide_emodel>
-51.5027163365932

> <r_i_glide_energy>
-37.1550583839417

> <r_i_glide_einternal>
3.41217184066772

> <i_i_glide_confnum>
1

> <i_i_glide_posenum>
194

> <r_i_glide_eff_state_penalty>
0

> <s_user_duplicate_titles>
CHEMBL267_lig2053

> <i_f3d_flags>
0

> <s_m_subgroup_title>
dock_pv

> <s_m_subgroupid>
dock_pv

> <b_m_subgroup_collapsed>
1

$$$$
CHEMBL267_lig3096
                    3D
 Schrodinger Suite 2021-1.
 43 45  0  0  1  0            999 V2000
    0.9133    8.1949    7.1242 C   0  0  0  0  0  0
    2.3054    8.1548    7.0600 C   0  0  0  0  0  0
    3.0187    7.2917    7.9122 C   0  0  0  0  0  0
    2.2698    6.5150    8.8161 C   0  0  0  0  0  0
    0.8777    6.6138    8.8205 C   0  0  0  0  0  0
    0.1985    7.4370    7.9875 N   0  0  0  0  0  0
    4.5012    7.1647    7.8140 C   0  0  0  0  0  0
    5.3282    8.0666    7.0000 C   0  0  0  0  0  0
    6.6733    7.8784    6.8769 C   0  0  0  0  0  0
    7.3546    6.7901    7.5879 C   0  0  0  0  0  0
    6.5360    5.9371    8.2623 N   0  0  0  0  0  0
    5.1904    6.1475    8.3884 C   0  0  0  0  0  0
    8.5761    6.6370    7.5881 O   0  0  0  0  0  0
    7.5158    8.6372    6.0960 N   0  0  0  0  0  0
    7.2899    9.7049    5.2936 C   0  0  0  0  0  0
    8.5191   10.2750    4.6091 C   0  0  0  0  0  0
    6.1831   10.2176    5.1085 O   0  0  0  0  0  0
    8.3858   11.3711    3.7485 C   0  0  0  0  0  0
    9.4871   11.8845    3.0702 C   0  0  0  0  0  0
   10.7647   11.3240    3.2264 C   0  0  0  0  0  0
   10.8975   10.2369    4.1056 C   0  0  0  0  0  0
    9.7993    9.7225    4.7879 C   0  0  0  0  0  0
   11.8874   11.8480    2.5254 N   0  0  0  0  0  0
   13.1667   11.1349    2.5387 C   0  0  0  0  0  0
   11.6943   12.8232    1.4516 C   0  0  0  0  0  0
    0.3469    8.8287    6.4577 H   0  0  0  0  0  0
    2.7921    8.7672    6.3199 H   0  0  0  0  0  0
    2.7373    5.8348    9.5106 H   0  0  0  0  0  0
    0.2804    6.0180    9.4971 H   0  0  0  0  0  0
    4.8491    8.8775    6.4819 H   0  0  0  0  0  0
    6.9986    5.1713    8.7317 H   0  0  0  0  0  0
    4.7521    5.3713    9.0007 H   0  0  0  0  0  0
    8.4759    8.3205    6.1328 H   0  0  0  0  0  0
    7.4210   11.8313    3.5822 H   0  0  0  0  0  0
    9.3182   12.7233    2.4152 H   0  0  0  0  0  0
   11.8517    9.7622    4.2750 H   0  0  0  0  0  0
    9.9753    8.8760    5.4373 H   0  0  0  0  0  0
   13.4941   10.9191    3.5564 H   0  0  0  0  0  0
   13.9588   11.7075    2.0569 H   0  0  0  0  0  0
   13.0700   10.1853    2.0092 H   0  0  0  0  0  0
   11.1496   13.6977    1.8086 H   0  0  0  0  0  0
   12.6405   13.1693    1.0358 H   0  0  0  0  0  0
   11.1135   12.3805    0.6407 H   0  0  0  0  0  0
  1  6  1  0  0  0
  1  2  2  0  0  0
  1 26  1  0  0  0
  2  3  1  0  0  0
  2 27  1  0  0  0
  3  7  1  0  0  0
  3  4  2  0  0  0
  4  5  1  0  0  0
  4 28  1  0  0  0
  5  6  2  0  0  0
  5 29  1  0  0  0
  7 12  2  0  0  0
  7  8  1  0  0  0
  8  9  2  0  0  0
  8 30  1  0  0  0
  9 14  1  0  0  0
  9 10  1  0  0  0
 10 13  2  0  0  0
 10 11  1  0  0  0
 11 12  1  0  0  0
 11 31  1  0  0  0
 12 32  1  0  0  0
 14 15  1  0  0  0
 14 33  1  0  0  0
 15 16  1  0  0  0
 15 17  2  0  0  0
 16 18  2  0  0  0
 16 22  1  0  0  0
 18 19  1  0  0  0
 18 34  1  0  0  0
 19 20  2  0  0  0
 19 35  1  0  0  0
 20 21  1  0  0  0
 20 23  1  0  0  0
 21 22  2  0  0  0
 21 36  1  0  0  0
 22 37  1  0  0  0
 23 24  1  0  0  0
 23 25  1  0  0  0
 24 38  1  0  0  0
 24 39  1  0  0  0
 24 40  1  0  0  0
 25 41  1  0  0  0
 25 42  1  0  0  0
 25 43  1  0  0  0
M  END
> <s_m_entry_id>
31906

> <s_m_entry_name>
dock_pv.169

> <s_m_Source_Path>
/home/csk/Desktop/cluster/DUD-E-result/src

> <s_m_Source_File>
dock_pv.maegz

> <i_m_Source_File_Index>
169

> <chembl_id>
CHEMBL1765772

> <chembl_pref_name>
None

> <i_lp_mmshare_version>
53161

> <r_lp_tautomer_probability>
0.999

> <s_lp_Force_Field>
OPLS_2005

> <r_lp_Energy>
29.678843

> <b_lp_Chiralities_Consistent>
1

> <s_lp_Variant>
CHEMBL267_lig3096-1

> <s_i_glide_gridfile>
glide-grid_3el8

> <i_i_glide_lignum>
3572

> <i_i_glide_rotatable_bonds>
5

> <r_i_docking_score>
-7.97887456166004

> <r_i_glide_ligand_efficiency>
-0.319154982466402

> <r_i_glide_ligand_efficiency_sa>
-0.933214828969473

> <r_i_glide_ligand_efficiency_ln>
-1.89123237868924

> <r_i_glide_gscore>
-7.97887456166004

> <r_i_glide_lipo>
-2.58185337735202

> <r_i_glide_hbond>
-0.618481369646204

> <r_i_glide_metal>
0

> <r_i_glide_rewards>
-2.29597692827077

> <r_i_glide_evdw>
-31.3230648040771

> <r_i_glide_ecoul>
-9.25817203521729

> <r_i_glide_erotb>
0.472316159095414

> <r_i_glide_esite>
0

> <r_i_glide_emodel>
-59.9667999865745

> <r_i_glide_energy>
-40.5812368392944

> <r_i_glide_einternal>
0.513577520847321

> <i_i_glide_confnum>
3

> <i_i_glide_posenum>
138

> <r_i_glide_eff_state_penalty>
0

> <s_user_duplicate_titles>
CHEMBL267_lig3096

> <i_f3d_flags>
0

> <s_m_subgroup_title>
dock_pv

> <s_m_subgroupid>
dock_pv

> <b_m_subgroup_collapsed>
1

$$$$
CHEMBL267_lig3435
                    3D
 Schrodinger Suite 2021-1.
 49 52  0  0  1  0            999 V2000
    0.5061    8.9277    4.0286 O   0  0  0  0  0  0
    8.6058    7.8368    6.7600 N   0  0  0  0  0  0
    8.0997    6.9114    7.5881 N   0  0  0  0  0  0
    2.5517   11.9628    3.8951 N   0  0  0  0  0  0
   -0.6020    8.2370    6.7880 N   0  0  0  0  0  0
    6.4179    8.0833    6.6725 C   0  0  0  0  0  0
    7.6280    8.5756    6.1406 C   0  0  0  0  0  0
    5.2320    9.6421    5.2542 C   0  0  0  0  0  0
    5.2164    8.6403    6.2344 C   0  0  0  0  0  0
    6.7981    7.0384    7.5718 C   0  0  0  0  0  0
    3.9443   10.1548    4.7209 C   0  0  0  0  0  0
    7.6776    9.5957    5.1882 C   0  0  0  0  0  0
    6.4549   10.1105    4.7595 C   0  0  0  0  0  0
    2.8685    9.2796    4.5587 C   0  0  0  0  0  0
    1.6225    9.7344    4.1237 C   0  0  0  0  0  0
    3.7341   11.4950    4.3713 C   0  0  0  0  0  0
    1.5240   11.0833    3.7781 C   0  0  0  0  0  0
    5.9177    6.1188    8.3882 C   0  0  0  0  0  0
    0.4908    7.6427    4.6692 C   0  0  0  0  0  0
    0.6296    7.7118    6.2208 C   0  0  2  0  0  0
    1.1872    6.3418    8.3571 C   0  0  0  0  0  0
    0.9685    6.3372    6.8452 C   0  0  0  0  0  0
    0.1982    5.8442    9.2091 C   0  0  0  0  0  0
    2.3860    6.8187    8.8929 C   0  0  0  0  0  0
    0.4010    5.8309   10.5869 C   0  0  0  0  0  0
    2.5981    6.7893   10.2703 C   0  0  0  0  0  0
    1.6057    6.2906   11.1104 C   0  0  0  0  0  0
    9.6001    7.8745    6.5843 H   0  0  0  0  0  0
   -0.9621    8.9457    6.1583 H   0  0  0  0  0  0
   -1.2917    7.4901    6.7865 H   0  0  0  0  0  0
    4.2846    8.2737    6.6329 H   0  0  0  0  0  0
    8.6121    9.9620    4.7872 H   0  0  0  0  0  0
    6.4604   10.8796    4.0006 H   0  0  0  0  0  0
    3.0054    8.2373    4.7914 H   0  0  0  0  0  0
    4.5230   12.2256    4.4693 H   0  0  0  0  0  0
    0.5960   11.4865    3.4075 H   0  0  0  0  0  0
    5.1486    5.6444    7.7831 H   0  0  0  0  0  0
    6.4803    5.3105    8.8561 H   0  0  0  0  0  0
    5.3986    6.6457    9.1876 H   0  0  0  0  0  0
    1.2695    7.0171    4.2309 H   0  0  0  0  0  0
   -0.4453    7.1502    4.4000 H   0  0  0  0  0  0
    1.4231    8.4050    6.4979 H   0  0  0  0  0  0
    1.8755    5.9450    6.3832 H   0  0  0  0  0  0
    0.1967    5.6103    6.5928 H   0  0  0  0  0  0
   -0.7299    5.4658    8.8086 H   0  0  0  0  0  0
    3.1575    7.1986    8.2437 H   0  0  0  0  0  0
   -0.3710    5.4523   11.2416 H   0  0  0  0  0  0
    3.5284    7.1446   10.6896 H   0  0  0  0  0  0
    1.7697    6.2674   12.1768 H   0  0  0  0  0  0
  1 15  1  0  0  0
  1 19  1  0  0  0
  2  3  1  0  0  0
  2  7  1  0  0  0
  2 28  1  0  0  0
  3 10  2  0  0  0
  4 16  1  0  0  0
  4 17  2  0  0  0
  5 20  1  0  0  0
  5 29  1  0  0  0
  5 30  1  0  0  0
  6  7  1  0  0  0
  6  9  2  0  0  0
  6 10  1  0  0  0
  7 12  2  0  0  0
  8  9  1  0  0  0
  8 11  1  0  0  0
  8 13  2  0  0  0
  9 31  1  0  0  0
 10 18  1  0  0  0
 11 14  1  0  0  0
 11 16  2  0  0  0
 12 13  1  0  0  0
 12 32  1  0  0  0
 13 33  1  0  0  0
 14 15  2  0  0  0
 14 34  1  0  0  0
 15 17  1  0  0  0
 16 35  1  0  0  0
 17 36  1  0  0  0
 18 37  1  0  0  0
 18 38  1  0  0  0
 18 39  1  0  0  0
 19 20  1  0  0  0
 19 40  1  0  0  0
 19 41  1  0  0  0
 20 22  1  0  0  0
 20 42  1  0  0  0
 21 22  1  0  0  0
 21 23  2  0  0  0
 21 24  1  0  0  0
 22 43  1  0  0  0
 22 44  1  0  0  0
 23 25  1  0  0  0
 23 45  1  0  0  0
 24 26  2  0  0  0
 24 46  1  0  0  0
 25 27  2  0  0  0
 25 47  1  0  0  0
 26 27  1  0  0  0
 26 48  1  0  0  0
 27 49  1  0  0  0
M  END
> <s_m_entry_id>
31907

> <s_m_entry_name>
dock_pv.170

> <s_m_Source_Path>
/home/csk/Desktop/cluster/DUD-E-result/src

> <s_m_Source_File>
dock_pv.maegz

> <i_m_Source_File_Index>
170

> <chembl_id>
CHEMBL2002726

> <chembl_pref_name>
None

> <i_lp_mmshare_version>
53161

> <r_lp_tautomer_probability>
0.980392156862745

> <s_lp_Force_Field>
OPLS_2005

> <r_lp_Energy>
23.887771

> <b_lp_Chiralities_Consistent>
1

> <s_lp_Variant>
CHEMBL267_lig3435-1

> <s_i_glide_gridfile>
glide-grid_3el8

> <i_i_glide_lignum>
4108

> <i_i_glide_rotatable_bonds>
6

> <r_i_docking_score>
-7.97115173580406

> <r_i_glide_ligand_efficiency>
-0.295227842066817

> <r_i_glide_ligand_efficiency_sa>
-0.885683525227428

> <r_i_glide_ligand_efficiency_ln>
-1.8555527093882

> <r_i_glide_gscore>
-7.97115173580406

> <r_i_glide_lipo>
-3.45630960424047

> <r_i_glide_hbond>
-0.666122708377461

> <r_i_glide_metal>
0

> <r_i_glide_rewards>
-1.52939088397067

> <r_i_glide_evdw>
-38.4692153930664

> <r_i_glide_ecoul>
-7.60908985137939

> <r_i_glide_erotb>
0.745495708144768

> <r_i_glide_esite>
0

> <r_i_glide_emodel>
-66.784857833418

> <r_i_glide_energy>
-46.0783052444458

> <r_i_glide_einternal>
1.77136206626892

> <i_i_glide_confnum>
18

> <i_i_glide_posenum>
248

> <r_i_glide_eff_state_penalty>
0

> <s_user_duplicate_titles>
CHEMBL267_lig3435,CHEMBL267_lig3435

> <i_f3d_flags>
0

> <s_m_subgroup_title>
dock_pv

> <s_m_subgroupid>
dock_pv

> <b_m_subgroup_collapsed>
1

$$$$
CHEMBL267_lig134
                    3D
 Schrodinger Suite 2021-1.
 44 47  0  0  1  0            999 V2000
    5.4943    7.8352    7.1471 C   0  0  0  0  0  0
    6.0791    8.7258    6.1984 C   0  0  0  0  0  0
    5.0188    9.5237    5.6492 C   0  0  0  0  0  0
    4.1215    8.0688    7.1764 N   0  0  0  0  0  0
    3.8716    9.1009    6.2920 C   0  0  0  0  0  0
    6.1806    6.9204    7.8499 N   0  0  0  0  0  0
    7.4765    8.6143    6.0492 C   0  0  0  0  0  0
    5.1196   10.6075    4.6450 C   0  0  0  0  0  0
    8.1971    7.7052    6.7455 N   0  0  0  0  0  0
    3.1344    7.4370    7.9750 C   0  0  0  0  0  0
    7.5086    6.9030    7.5879 C   0  0  0  0  0  0
    5.6411   10.3272    3.3809 C   0  0  0  0  0  0
    1.8486    7.2448    7.4528 C   0  0  0  0  0  0
    3.4481    6.9256    9.2411 C   0  0  0  0  0  0
    8.1908    9.4365    5.1880 N   0  0  0  0  0  0
    5.7345   11.3331    2.4228 C   0  0  0  0  0  0
    2.4899    6.2353    9.9754 C   0  0  0  0  0  0
    0.8894    6.5651    8.1949 C   0  0  0  0  0  0
    1.2104    6.0476    9.4518 C   0  0  0  0  0  0
    4.6965   11.9050    4.9478 C   0  0  0  0  0  0
    6.2356   11.0373    1.1878 O   0  0  0  0  0  0
   -0.6018    3.8370    8.4276 O   0  0  0  0  0  0
    4.8008   12.9164    3.9914 C   0  0  0  0  0  0
    5.3161   12.6295    2.7249 C   0  0  0  0  0  0
    0.1578    5.2958   10.2538 C   0  0  0  0  0  0
   -0.1491    3.8667    9.7653 C   0  0  0  0  0  0
    2.8622    9.4702    6.1781 H   0  0  0  0  0  0
    8.0821    6.1666    8.1275 H   0  0  0  0  0  0
    5.9580    9.3240    3.1387 H   0  0  0  0  0  0
    1.5830    7.5958    6.4661 H   0  0  0  0  0  0
    4.4303    7.0489    9.6742 H   0  0  0  0  0  0
    7.7081   10.1560    4.6700 H   0  0  0  0  0  0
    9.1903    9.3087    5.1247 H   0  0  0  0  0  0
    2.7521    5.8380   10.9455 H   0  0  0  0  0  0
   -0.0983    6.4205    7.7811 H   0  0  0  0  0  0
    4.2960   12.1312    5.9263 H   0  0  0  0  0  0
    6.1326   11.7557    0.5454 H   0  0  0  0  0  0
   -1.3659    4.4219    8.3604 H   0  0  0  0  0  0
    4.4848   13.9215    4.2289 H   0  0  0  0  0  0
    5.3898   13.4137    1.9847 H   0  0  0  0  0  0
   -0.7523    5.8867   10.2490 H   0  0  0  0  0  0
    0.4582    5.2583   11.3023 H   0  0  0  0  0  0
   -0.9294    3.4378   10.3888 H   0  0  0  0  0  0
    0.7375    3.2343    9.8410 H   0  0  0  0  0  0
  1  2  1  0  0  0
  1  4  1  0  0  0
  1  6  2  0  0  0
  2  3  1  0  0  0
  2  7  2  0  0  0
  3  8  1  0  0  0
  3  5  2  0  0  0
  4  5  1  0  0  0
  4 10  1  0  0  0
  5 27  1  0  0  0
  6 11  1  0  0  0
  7 15  1  0  0  0
  7  9  1  0  0  0
  8 12  2  0  0  0
  8 20  1  0  0  0
  9 11  2  0  0  0
 10 13  1  0  0  0
 10 14  2  0  0  0
 11 28  1  0  0  0
 12 16  1  0  0  0
 12 29  1  0  0  0
 13 18  2  0  0  0
 13 30  1  0  0  0
 14 17  1  0  0  0
 14 31  1  0  0  0
 15 32  1  0  0  0
 15 33  1  0  0  0
 16 21  1  0  0  0
 16 24  2  0  0  0
 17 19  2  0  0  0
 17 34  1  0  0  0
 18 19  1  0  0  0
 18 35  1  0  0  0
 19 25  1  0  0  0
 20 23  2  0  0  0
 20 36  1  0  0  0
 21 37  1  0  0  0
 22 26  1  0  0  0
 22 38  1  0  0  0
 23 24  1  0  0  0
 23 39  1  0  0  0
 24 40  1  0  0  0
 25 26  1  0  0  0
 25 41  1  0  0  0
 25 42  1  0  0  0
 26 43  1  0  0  0
 26 44  1  0  0  0
M  END
> <s_m_entry_id>
31908

> <s_m_entry_name>
dock_pv.171

> <s_m_Source_Path>
/home/csk/Desktop/cluster/DUD-E-result/src

> <s_m_Source_File>
dock_pv.maegz

> <i_m_Source_File_Index>
171

> <chembl_id>
CHEMBL102946

> <chembl_pref_name>
None

> <i_lp_mmshare_version>
53161

> <r_lp_tautomer_probability>
0.999999999997365

> <s_lp_Force_Field>
OPLS_2005

> <r_lp_Energy>
15.407843

> <b_lp_Chiralities_Consistent>
1

> <s_lp_Variant>
CHEMBL267_lig134-1

> <s_i_glide_gridfile>
glide-grid_3el8

> <i_i_glide_lignum>
182

> <i_i_glide_rotatable_bonds>
6

> <r_i_docking_score>
-7.96771028608963

> <r_i_glide_ligand_efficiency>
-0.306450395618832

> <r_i_glide_ligand_efficiency_sa>
-0.90785809119671

> <r_i_glide_ligand_efficiency_ln>
-1.87119061649829

> <r_i_glide_gscore>
-7.96771028608963

> <r_i_glide_lipo>
-2.45043055145101

> <r_i_glide_hbond>
-0.838488848857285

> <r_i_glide_metal>
0

> <r_i_glide_rewards>
-2.05138107792108

> <r_i_glide_evdw>
-39.1935882568359

> <r_i_glide_ecoul>
-8.67697334289551

> <r_i_glide_erotb>
0.633815606415867

> <r_i_glide_esite>
0

> <r_i_glide_emodel>
-70.904562022725

> <r_i_glide_energy>
-47.8705615997314

> <r_i_glide_einternal>
1.77484357357025

> <i_i_glide_confnum>
63

> <i_i_glide_posenum>
226

> <r_i_glide_eff_state_penalty>
0

> <s_user_duplicate_titles>
CHEMBL267_lig134,170081

> <i_f3d_flags>
0

> <s_m_subgroup_title>
dock_pv

> <s_m_subgroupid>
dock_pv

> <b_m_subgroup_collapsed>
1

$$$$
CHEMBL267_lig3853
                    3D
 Schrodinger Suite 2021-1.
 52 57  0  0  1  0            999 V2000
    1.9644    6.6330   11.8525 C   0  0  0  0  0  0
    0.6867    6.1378   11.5824 C   0  0  0  0  0  0
    0.1975    5.8985   10.3392 N   0  0  0  0  0  0
    2.8524    6.8497   10.8025 C   0  0  0  0  0  0
    2.3959    6.6070    9.4982 C   0  0  0  0  0  0
    1.0491    6.1632    9.3470 C   0  0  0  0  0  0
    0.7894    6.0755    8.0003 N   0  0  0  0  0  0
    1.9339    6.3897    7.3091 C   0  0  0  0  0  0
    2.9647    6.6932    8.1870 C   0  0  0  0  0  0
    4.3647    7.0387    7.8553 C   0  0  0  0  0  0
    4.5637    8.0364    6.9588 N   0  0  0  0  0  0
    5.8494    8.2649    6.5683 C   0  0  0  0  0  0
    6.9102    7.4928    7.0727 C   0  0  0  0  0  0
    6.5927    6.4836    7.9878 C   0  0  0  0  0  0
    5.3219    6.2430    8.3942 N   0  0  0  0  0  0
    8.1955    7.6994    6.6996 F   0  0  0  0  0  0
    6.1201    9.3143    5.6704 N   0  0  0  0  0  0
    5.0945   10.2533    5.1926 C   0  0  1  0  0  0
    5.7137   11.6762    5.0784 C   0  0  1  0  0  0
    6.7076   11.7115    3.8806 C   0  0  0  0  0  0
    6.0025   11.3135    2.5523 C   0  0  0  0  0  0
    4.5065   10.9715    2.7920 C   0  0  1  0  0  0
    4.4599    9.7932    3.8257 C   0  0  2  0  0  0
    2.3623    6.8380   13.1248 F   0  0  0  0  0  0
    3.0371    9.2361    3.9783 C   0  0  0  0  0  0
    2.4966    8.7703    2.8506 O   0  0  0  0  0  0
    2.2071    9.0568    5.0152 C   0  0  0  0  0  0
    1.0519    8.3654    4.5121 C   0  0  0  0  0  0
    1.2420    8.3115    3.1880 N   0  0  0  0  0  0
    0.1053    7.9097    5.1454 O   0  0  0  0  0  0
    4.5416   12.6367    4.7458 C   0  0  0  0  0  0
    3.8297   12.2215    3.4262 C   0  0  0  0  0  0
   -0.0009    5.9342   12.3879 H   0  0  0  0  0  0
    3.8600    7.1862   10.9923 H   0  0  0  0  0  0
   -0.0863    5.8308    7.5543 H   0  0  0  0  0  0
    1.9289    6.3390    6.2303 H   0  0  0  0  0  0
    7.3527    5.8244    8.3759 H   0  0  0  0  0  0
    7.0482    9.3783    5.2799 H   0  0  0  0  0  0
    4.3201   10.3079    5.9575 H   0  0  0  0  0  0
    6.1963   11.9696    6.0099 H   0  0  0  0  0  0
    7.1311   12.7127    3.7854 H   0  0  0  0  0  0
    7.5582   11.0559    4.0699 H   0  0  0  0  0  0
    6.0838   12.1247    1.8269 H   0  0  0  0  0  0
    6.5136   10.4642    2.0983 H   0  0  0  0  0  0
    4.0284   10.7067    1.8472 H   0  0  0  0  0  0
    5.0689    8.9853    3.4139 H   0  0  0  0  0  0
    2.3759    9.3017    6.0512 H   0  0  0  0  0  0
    0.8064    7.9261    2.3558 H   0  0  0  0  0  0
    3.8240   12.6482    5.5679 H   0  0  0  0  0  0
    4.9158   13.6591    4.6644 H   0  0  0  0  0  0
    2.7742   12.0247    3.6144 H   0  0  0  0  0  0
    3.8484   13.0490    2.7149 H   0  0  0  0  0  0
  1  2  2  0  0  0
  1  4  1  0  0  0
  1 24  1  0  0  0
  2  3  1  0  0  0
  2 33  1  0  0  0
  3  6  2  0  0  0
  4  5  2  0  0  0
  4 34  1  0  0  0
  5  6  1  0  0  0
  5  9  1  0  0  0
  6  7  1  0  0  0
  7  8  1  0  0  0
  7 35  1  0  0  0
  8  9  2  0  0  0
  8 36  1  0  0  0
  9 10  1  0  0  0
 10 11  2  0  0  0
 10 15  1  0  0  0
 11 12  1  0  0  0
 12 13  2  0  0  0
 12 17  1  0  0  0
 13 14  1  0  0  0
 13 16  1  0  0  0
 14 15  2  0  0  0
 14 37  1  0  0  0
 17 18  1  0  0  0
 17 38  1  0  0  0
 18 19  1  0  0  0
 18 23  1  0  0  0
 18 39  1  0  0  0
 19 20  1  0  0  0
 19 31  1  0  0  0
 19 40  1  0  0  0
 20 21  1  0  0  0
 20 41  1  0  0  0
 20 42  1  0  0  0
 21 22  1  0  0  0
 21 43  1  0  0  0
 21 44  1  0  0  0
 22 23  1  0  0  0
 22 32  1  0  0  0
 22 45  1  0  0  0
 23 46  1  0  0  0
 23 25  1  0  0  0
 25 26  1  0  0  0
 25 27  2  0  0  0
 26 29  1  0  0  0
 27 47  1  0  0  0
 27 28  1  0  0  0
 28 30  2  0  0  0
 28 29  1  0  0  0
 29 48  1  0  0  0
 31 32  1  0  0  0
 31 49  1  0  0  0
 31 50  1  0  0  0
 32 51  1  0  0  0
 32 52  1  0  0  0
M  END
> <s_m_entry_id>
31909

> <s_m_entry_name>
dock_pv.172

> <s_m_Source_Path>
/home/csk/Desktop/cluster/DUD-E-result/src

> <s_m_Source_File>
dock_pv.maegz

> <i_m_Source_File_Index>
172

> <chembl_id>
CHEMBL3401981

> <chembl_pref_name>
None

> <i_lp_mmshare_version>
53161

> <r_lp_tautomer_probability>
0.0320612188330551

> <s_lp_Force_Field>
OPLS_2005

> <r_lp_Energy>
46.403509

> <b_lp_Chiralities_Consistent>
1

> <s_lp_Variant>
CHEMBL267_lig3853-2

> <s_i_glide_gridfile>
glide-grid_3el8

> <i_i_glide_lignum>
4740

> <i_i_glide_rotatable_bonds>
4

> <r_i_docking_score>
-7.96605968249882

> <r_i_glide_ligand_efficiency>
-0.248939365078088

> <r_i_glide_ligand_efficiency_sa>
-0.790333219089477

> <r_i_glide_ligand_efficiency_ln>
-1.78381790949721

> <r_i_glide_gscore>
-7.96605968249882

> <r_i_glide_lipo>
-3.08918809429275

> <r_i_glide_hbond>
-0.524250142596123

> <r_i_glide_metal>
0

> <r_i_glide_rewards>
-2.09760733754578

> <r_i_glide_evdw>
-45.0606842041016

> <r_i_glide_ecoul>
-2.47894501686096

> <r_i_glide_erotb>
0.41514188377921

> <r_i_glide_esite>
-0.0452800291091624

> <r_i_glide_emodel>
-64.6234216288305

> <r_i_glide_energy>
-47.5396292209625

> <r_i_glide_einternal>
8.3609561920166

> <i_i_glide_confnum>
1

> <i_i_glide_posenum>
79

> <r_i_glide_eff_state_penalty>
0

> <s_user_duplicate_titles>
CHEMBL267_lig3853,CHEMBL267_lig3853

> <i_f3d_flags>
0

> <s_m_subgroup_title>
dock_pv

> <s_m_subgroupid>
dock_pv

> <b_m_subgroup_collapsed>
1

$$$$
CHEMBL267_lig1861
                    3D
 Schrodinger Suite 2021-1.
 38 40  0  0  1  0            999 V2000
    7.5012    6.5249    7.5880 N   0  0  0  0  0  0
    7.8466    7.4831    6.6891 C   0  0  0  0  0  0
    7.0356    8.4009    6.0969 N   0  0  0  0  0  0
    6.2042    6.4980    7.9879 C   0  0  0  0  0  0
    5.2813    7.4368    7.4985 C   0  0  0  0  0  0
    5.7659    8.3279    6.5195 C   0  0  0  0  0  0
    4.6604    9.0372    6.0806 N   0  0  0  0  0  0
    3.5531    8.6920    6.7879 N   0  0  0  0  0  0
    3.9021    7.7664    7.6517 C   0  0  0  0  0  0
    2.9542    7.1561    8.6139 C   0  0  0  0  0  0
    1.8796    6.3928    8.1555 C   0  0  0  0  0  0
    1.0556    5.7236    9.0638 C   0  0  0  0  0  0
    1.2752    5.8599   10.4362 C   0  0  0  0  0  0
    2.3372    6.6370   10.8976 C   0  0  0  0  0  0
    3.1822    7.2742    9.9887 C   0  0  0  0  0  0
    5.7984    5.4370    8.7879 N   0  0  0  0  0  0
    4.6101   10.1053    5.0720 C   0  0  0  0  0  0
    4.6949   11.4820    5.7584 C   0  0  0  0  0  0
    3.3660    9.9811    4.1667 C   0  0  0  0  0  0
   -0.0471    4.8223    8.5537 C   0  0  0  0  0  0
    0.3118    3.4034    8.6877 C   0  0  0  0  0  0
    0.5977    2.2881    8.7876 N   0  0  0  0  0  0
    8.8847    7.5001    6.3878 H   0  0  0  0  0  0
    1.7207    6.2792    7.0923 H   0  0  0  0  0  0
    0.6383    5.3474   11.1436 H   0  0  0  0  0  0
    2.5199    6.7239   11.9590 H   0  0  0  0  0  0
    4.0212    7.8488   10.3542 H   0  0  0  0  0  0
    4.8407    5.3892    9.1071 H   0  0  0  0  0  0
    6.4892    4.7576    9.0847 H   0  0  0  0  0  0
    5.4904    9.9836    4.4380 H   0  0  0  0  0  0
    4.7432   12.2857    5.0230 H   0  0  0  0  0  0
    3.8247   11.6675    6.3882 H   0  0  0  0  0  0
    5.5853   11.5616    6.3839 H   0  0  0  0  0  0
    3.3855   10.7297    3.3743 H   0  0  0  0  0  0
    3.3180    9.0029    3.6878 H   0  0  0  0  0  0
    2.4401   10.1227    4.7254 H   0  0  0  0  0  0
   -0.2020    5.0162    7.4936 H   0  0  0  0  0  0
   -0.9809    5.0103    9.0860 H   0  0  0  0  0  0
  1  2  2  0  0  0
  1  4  1  0  0  0
  2  3  1  0  0  0
  2 23  1  0  0  0
  3  6  2  0  0  0
  4  5  2  0  0  0
  4 16  1  0  0  0
  5  9  1  0  0  0
  5  6  1  0  0  0
  6  7  1  0  0  0
  7 17  1  0  0  0
  7  8  1  0  0  0
  8  9  2  0  0  0
  9 10  1  0  0  0
 10 11  2  0  0  0
 10 15  1  0  0  0
 11 12  1  0  0  0
 11 24  1  0  0  0
 12 13  2  0  0  0
 12 20  1  0  0  0
 13 14  1  0  0  0
 13 25  1  0  0  0
 14 15  2  0  0  0
 14 26  1  0  0  0
 15 27  1  0  0  0
 16 28  1  0  0  0
 16 29  1  0  0  0
 17 18  1  0  0  0
 17 19  1  0  0  0
 17 30  1  0  0  0
 18 31  1  0  0  0
 18 32  1  0  0  0
 18 33  1  0  0  0
 19 34  1  0  0  0
 19 35  1  0  0  0
 19 36  1  0  0  0
 20 21  1  0  0  0
 20 37  1  0  0  0
 20 38  1  0  0  0
 21 22  3  0  0  0
M  END
> <s_m_entry_id>
31910

> <s_m_entry_name>
dock_pv.173

> <s_m_Source_Path>
/home/csk/Desktop/cluster/DUD-E-result/src

> <s_m_Source_File>
dock_pv.maegz

> <i_m_Source_File_Index>
173

> <chembl_id>
CHEMBL1241583

> <chembl_pref_name>
None

> <i_lp_mmshare_version>
53161

> <r_lp_tautomer_probability>
1

> <s_lp_Force_Field>
OPLS_2005

> <r_lp_Energy>
12.54704

> <b_lp_Chiralities_Consistent>
1

> <s_lp_Variant>
CHEMBL267_lig1861-1

> <s_i_glide_gridfile>
glide-grid_3el8

> <i_i_glide_lignum>
2129

> <i_i_glide_rotatable_bonds>
3

> <r_i_docking_score>
-7.96323200559465

> <r_i_glide_ligand_efficiency>
-0.361965091163393

> <r_i_glide_ligand_efficiency_sa>
-1.01424042071907

> <r_i_glide_ligand_efficiency_ln>
-1.94650436811226

> <r_i_glide_gscore>
-7.96323200559465

> <r_i_glide_lipo>
-2.16153856071902

> <r_i_glide_hbond>
-0.413599290563493

> <r_i_glide_metal>
0

> <r_i_glide_rewards>
-3.48626964199047

> <r_i_glide_evdw>
-34.973876953125

> <r_i_glide_ecoul>
-3.86898946762085

> <r_i_glide_erotb>
0.427217755477707

> <r_i_glide_esite>
0

> <r_i_glide_emodel>
-55.3508287187508

> <r_i_glide_energy>
-38.8428664207458

> <r_i_glide_einternal>
3.53471612930298

> <i_i_glide_confnum>
7

> <i_i_glide_posenum>
247

> <r_i_glide_eff_state_penalty>
0

> <s_user_duplicate_titles>
CHEMBL267_lig1861

> <i_f3d_flags>
0

> <s_m_subgroup_title>
dock_pv

> <s_m_subgroupid>
dock_pv

> <b_m_subgroup_collapsed>
1

$$$$
CHEMBL267_lig1632
                    3D
 Schrodinger Suite 2021-1.
 41 45  0  0  1  0            999 V2000
    4.9783   10.3475    3.2461 C   0  0  0  0  0  0
    4.6981   11.7371    2.6741 C   0  0  0  0  0  0
    4.2144   12.5415    3.8825 C   0  0  0  0  0  0
    4.9966   11.9901    5.0862 C   0  0  0  0  0  0
    5.5915   10.6359    4.6299 C   0  0  0  0  0  0
    5.3876    9.5484    5.5934 N   0  0  0  0  0  0
    4.1371    9.1984    5.9827 N   0  0  0  0  0  0
    6.3375    8.7431    6.1936 C   0  0  0  0  0  0
    7.6713    8.7718    6.0497 N   0  0  0  0  0  0
    8.3109    7.8363    6.8024 C   0  0  0  0  0  0
    7.7515    6.8808    7.5860 N   0  0  0  0  0  0
    6.3979    6.8723    7.6645 C   0  0  0  0  0  0
    5.8219    5.8365    8.3884 N   0  0  0  0  0  0
    5.6164    7.8372    7.0013 C   0  0  0  0  0  0
    4.2365    8.2015    6.8335 C   0  0  0  0  0  0
    3.0270    7.5920    7.4677 C   0  0  0  0  0  0
    3.0115    7.2710    8.8319 C   0  0  0  0  0  0
    1.8692    6.6452    9.3606 C   0  0  0  0  0  0
    1.4554    6.1732   10.6510 C   0  0  0  0  0  0
    0.1987    5.6121   10.4962 C   0  0  0  0  0  0
   -0.2019    5.7547    9.1882 N   0  0  0  0  0  0
    0.7953    6.3778    8.4643 C   0  0  0  0  0  0
    0.7718    6.6810    7.1623 N   0  0  0  0  0  0
    1.8984    7.2826    6.6961 C   0  0  0  0  0  0
    5.6374    9.7571    2.6082 H   0  0  0  0  0  0
    4.0283    9.8151    3.3366 H   0  0  0  0  0  0
    5.6159   12.1709    2.2714 H   0  0  0  0  0  0
    3.9658   11.7166    1.8650 H   0  0  0  0  0  0
    4.3601   13.6148    3.7500 H   0  0  0  0  0  0
    3.1445   12.3804    4.0290 H   0  0  0  0  0  0
    4.3379   11.8987    5.9533 H   0  0  0  0  0  0
    5.7979   12.6777    5.3688 H   0  0  0  0  0  0
    6.6721   10.7584    4.5224 H   0  0  0  0  0  0
    9.3954    7.8424    6.7859 H   0  0  0  0  0  0
    4.8166    5.7657    8.4469 H   0  0  0  0  0  0
    6.4275    5.1440    8.8093 H   0  0  0  0  0  0
    3.8553    7.5020    9.4678 H   0  0  0  0  0  0
    2.0096    6.2184   11.5781 H   0  0  0  0  0  0
   -0.4564    5.1244   11.2077 H   0  0  0  0  0  0
   -1.1036    5.4378    8.8479 H   0  0  0  0  0  0
    1.8899    7.5090    5.6396 H   0  0  0  0  0  0
  1  2  1  0  0  0
  1  5  1  0  0  0
  1 25  1  0  0  0
  1 26  1  0  0  0
  2  3  1  0  0  0
  2 27  1  0  0  0
  2 28  1  0  0  0
  3  4  1  0  0  0
  3 29  1  0  0  0
  3 30  1  0  0  0
  4  5  1  0  0  0
  4 31  1  0  0  0
  4 32  1  0  0  0
  5  6  1  0  0  0
  5 33  1  0  0  0
  6  7  1  0  0  0
  6  8  1  0  0  0
  7 15  2  0  0  0
  8  9  2  0  0  0
  8 14  1  0  0  0
  9 10  1  0  0  0
 10 11  2  0  0  0
 10 34  1  0  0  0
 11 12  1  0  0  0
 12 13  1  0  0  0
 12 14  2  0  0  0
 13 35  1  0  0  0
 13 36  1  0  0  0
 14 15  1  0  0  0
 15 16  1  0  0  0
 16 17  2  0  0  0
 16 24  1  0  0  0
 17 18  1  0  0  0
 17 37  1  0  0  0
 18 19  1  0  0  0
 18 22  2  0  0  0
 19 20  2  0  0  0
 19 38  1  0  0  0
 20 21  1  0  0  0
 20 39  1  0  0  0
 21 22  1  0  0  0
 21 40  1  0  0  0
 22 23  1  0  0  0
 23 24  2  0  0  0
 24 41  1  0  0  0
M  END
> <s_m_entry_id>
31911

> <s_m_entry_name>
dock_pv.174

> <s_m_Source_Path>
/home/csk/Desktop/cluster/DUD-E-result/src

> <s_m_Source_File>
dock_pv.maegz

> <i_m_Source_File_Index>
174

> <chembl_id>
CHEMBL1081312

> <chembl_pref_name>
None

> <i_lp_mmshare_version>
53161

> <r_lp_tautomer_probability>
0.999998432528457

> <s_lp_Force_Field>
OPLS_2005

> <r_lp_Energy>
33.72648

> <b_lp_Chiralities_Consistent>
1

> <s_lp_Variant>
CHEMBL267_lig1632-1

> <s_i_glide_gridfile>
glide-grid_3el8

> <i_i_glide_lignum>
1857

> <i_i_glide_rotatable_bonds>
2

> <r_i_docking_score>
-7.96235277427721

> <r_i_glide_ligand_efficiency>
-0.331764698928217

> <r_i_glide_ligand_efficiency_sa>
-0.956974987931003

> <r_i_glide_ligand_efficiency_ln>
-1.90575638744561

> <r_i_glide_gscore>
-7.96235277427721

> <r_i_glide_lipo>
-1.97692063052145

> <r_i_glide_hbond>
-0.305967403195137

> <r_i_glide_metal>
0

> <r_i_glide_rewards>
-3.20500790421661

> <r_i_glide_evdw>
-39.7374534606934

> <r_i_glide_ecoul>
-5.30061340332031

> <r_i_glide_erotb>
0.365863851434588

> <r_i_glide_esite>
-0.0583560042458888

> <r_i_glide_emodel>
-66.2484678403764

> <r_i_glide_energy>
-45.0380668640137

> <r_i_glide_einternal>
1.14360702037811

> <i_i_glide_confnum>
22

> <i_i_glide_posenum>
224

> <r_i_glide_eff_state_penalty>
0

> <s_user_duplicate_titles>
CHEMBL267_lig1632,616450

> <i_f3d_flags>
0

> <s_m_subgroup_title>
dock_pv

> <s_m_subgroupid>
dock_pv

> <b_m_subgroup_collapsed>
1

$$$$
CHEMBL267_lig2171
                    3D
 Schrodinger Suite 2021-1.
 34 37  0  0  1  0            999 V2000
    5.6717    6.3092    8.2119 C   0  0  0  0  0  0
    6.9980    5.9441    7.9880 C   0  0  0  0  0  0
    7.8618    6.6370    7.2033 N   0  0  0  0  0  0
    5.1426    7.4370    7.5681 C   0  0  0  0  0  0
    6.0087    8.1684    6.7238 C   0  0  0  0  0  0
    7.3451    7.7115    6.6024 C   0  0  0  0  0  0
    8.0158    8.5509    5.7419 N   0  0  0  0  0  0
    5.8893    9.3092    5.8945 C   0  0  0  0  0  0
    7.1623    9.5446    5.2983 C   0  0  0  0  0  0
    7.3891   10.6220    4.4319 C   0  0  0  0  0  0
    6.3072   11.4595    4.1599 C   0  0  0  0  0  0
    5.0526   11.2439    4.7231 C   0  0  0  0  0  0
    4.8249   10.1753    5.5880 C   0  0  0  0  0  0
    3.7879    7.7815    7.6804 N   0  0  0  0  0  0
    2.8150    7.2354    8.5253 C   0  0  0  0  0  0
    3.0231    7.1606    9.9054 C   0  0  0  0  0  0
    2.0313    6.6371   10.7329 C   0  0  0  0  0  0
    0.8390    6.1669   10.1859 C   0  0  0  0  0  0
    0.6302    6.2357    8.8092 C   0  0  0  0  0  0
    1.6101    6.7850    7.9814 C   0  0  0  0  0  0
    2.2076    6.6370   12.0866 O   0  0  0  0  0  0
    5.0558    5.6871    8.8444 H   0  0  0  0  0  0
    7.3973    5.0525    8.4497 H   0  0  0  0  0  0
    8.9838    8.4375    5.4768 H   0  0  0  0  0  0
    8.3559   10.8031    3.9851 H   0  0  0  0  0  0
    6.4453   12.2997    3.4943 H   0  0  0  0  0  0
    4.2429   11.9179    4.4841 H   0  0  0  0  0  0
    3.8455   10.0319    6.0175 H   0  0  0  0  0  0
    3.4380    8.3516    6.9268 H   0  0  0  0  0  0
    3.9436    7.5313   10.3315 H   0  0  0  0  0  0
    0.0682    5.7643   10.8281 H   0  0  0  0  0  0
   -0.2926    5.8676    8.3881 H   0  0  0  0  0  0
    1.4377    6.8377    6.9161 H   0  0  0  0  0  0
    3.1165    6.8114   12.3424 H   0  0  0  0  0  0
  1  2  2  0  0  0
  1  4  1  0  0  0
  1 22  1  0  0  0
  2  3  1  0  0  0
  2 23  1  0  0  0
  3  6  2  0  0  0
  4  5  2  0  0  0
  4 14  1  0  0  0
  5  6  1  0  0  0
  5  8  1  0  0  0
  6  7  1  0  0  0
  7  9  1  0  0  0
  7 24  1  0  0  0
  8  9  2  0  0  0
  8 13  1  0  0  0
  9 10  1  0  0  0
 10 11  2  0  0  0
 10 25  1  0  0  0
 11 12  1  0  0  0
 11 26  1  0  0  0
 12 13  2  0  0  0
 12 27  1  0  0  0
 13 28  1  0  0  0
 14 15  1  0  0  0
 14 29  1  0  0  0
 15 16  2  0  0  0
 15 20  1  0  0  0
 16 17  1  0  0  0
 16 30  1  0  0  0
 17 18  2  0  0  0
 17 21  1  0  0  0
 18 19  1  0  0  0
 18 31  1  0  0  0
 19 20  2  0  0  0
 19 32  1  0  0  0
 20 33  1  0  0  0
 21 34  1  0  0  0
M  END
> <s_m_entry_id>
31912

> <s_m_entry_name>
dock_pv.175

> <s_m_Source_Path>
/home/csk/Desktop/cluster/DUD-E-result/src

> <s_m_Source_File>
dock_pv.maegz

> <i_m_Source_File_Index>
175

> <chembl_id>
CHEMBL3133821

> <chembl_pref_name>
None

> <i_lp_mmshare_version>
53161

> <r_lp_tautomer_probability>
1

> <s_lp_Force_Field>
OPLS_2005

> <r_lp_Energy>
20.477661

> <b_lp_Chiralities_Consistent>
1

> <s_lp_Variant>
CHEMBL267_lig2171-1

> <s_i_glide_gridfile>
glide-grid_3el8

> <i_i_glide_lignum>
2459

> <i_i_glide_rotatable_bonds>
3

> <r_i_docking_score>
-7.95735859314911

> <r_i_glide_ligand_efficiency>
-0.378921837769005

> <r_i_glide_ligand_efficiency_sa>
-1.04541661811874

> <r_i_glide_ligand_efficiency_ln>
-1.96744083279907

> <r_i_glide_gscore>
-7.95735859314911

> <r_i_glide_lipo>
-2.94113525466208

> <r_i_glide_hbond>
-0.264522302773782

> <r_i_glide_metal>
0

> <r_i_glide_rewards>
-2.82733021368943

> <r_i_glide_evdw>
-32.8595771789551

> <r_i_glide_ecoul>
-5.03754997253418

> <r_i_glide_erotb>
0.474240532804054

> <r_i_glide_esite>
0

> <r_i_glide_emodel>
-53.0671865822726

> <r_i_glide_energy>
-37.8971271514893

> <r_i_glide_einternal>
5.69597721099854

> <i_i_glide_confnum>
4

> <i_i_glide_posenum>
9

> <r_i_glide_eff_state_penalty>
0

> <s_user_duplicate_titles>
CHEMBL267_lig2171

> <i_f3d_flags>
0

> <s_m_subgroup_title>
dock_pv

> <s_m_subgroupid>
dock_pv

> <b_m_subgroup_collapsed>
1

$$$$
CHEMBL267_lig2757
                    3D
 Schrodinger Suite 2021-1.
 38 40  0  0  1  0            999 V2000
    8.1028    6.6377    7.5879 N   0  0  0  0  0  0
    8.5980    7.6725    6.8665 C   0  0  0  0  0  0
    7.9088    8.6370    6.2096 N   0  0  0  0  0  0
    6.7568    6.5700    7.7023 C   0  0  0  0  0  0
    5.9375    7.5421    7.1174 C   0  0  0  0  0  0
    6.5832    8.5483    6.3623 C   0  0  0  0  0  0
    5.5746    9.3608    5.8470 N   0  0  0  0  0  0
    4.3700    8.9085    6.2694 N   0  0  0  0  0  0
    4.5596    7.8380    7.0109 C   0  0  0  0  0  0
    5.6127   10.6033    5.0223 C   0  0  0  0  0  0
    4.6529   10.4474    3.8144 C   0  0  0  0  0  0
    7.0297   10.8980    4.4770 C   0  0  0  0  0  0
    5.1607   11.7872    5.9096 C   0  0  0  0  0  0
    6.2157    5.4859    8.3880 N   0  0  0  0  0  0
    3.5375    7.1319    7.5989 O   0  0  0  0  0  0
    2.2565    7.3808    7.1844 C   0  0  0  0  0  0
    1.5722    8.4855    7.6931 C   0  0  0  0  0  0
    0.3180    8.8113    7.1881 C   0  0  0  0  0  0
   -0.2591    8.0067    6.2105 C   0  0  0  0  0  0
    0.4223    6.9108    5.6905 C   0  0  0  0  0  0
    1.6772    6.5889    6.1911 C   0  0  0  0  0  0
   -0.2654    5.9753    4.4139 Cl  0  0  0  0  0  0
    9.6738    7.7201    6.7880 H   0  0  0  0  0  0
    3.6168   10.3075    4.1260 H   0  0  0  0  0  0
    4.6730   11.3274    3.1701 H   0  0  0  0  0  0
    4.9241    9.5882    3.1995 H   0  0  0  0  0  0
    7.7549   11.0368    5.2770 H   0  0  0  0  0  0
    7.3949   10.0905    3.8473 H   0  0  0  0  0  0
    7.0453   11.8073    3.8752 H   0  0  0  0  0  0
    5.7979   11.8836    6.7879 H   0  0  0  0  0  0
    5.2002   12.7347    5.3696 H   0  0  0  0  0  0
    4.1378   11.6622    6.2673 H   0  0  0  0  0  0
    5.2134    5.4346    8.5049 H   0  0  0  0  0  0
    6.8323    4.8004    8.8093 H   0  0  0  0  0  0
    2.0397    9.1039    8.4448 H   0  0  0  0  0  0
   -0.2021    9.6846    7.5510 H   0  0  0  0  0  0
   -1.2483    8.2366    5.8587 H   0  0  0  0  0  0
    2.1980    5.7383    5.7851 H   0  0  0  0  0  0
  1  2  2  0  0  0
  1  4  1  0  0  0
  2  3  1  0  0  0
  2 23  1  0  0  0
  3  6  2  0  0  0
  4  5  2  0  0  0
  4 14  1  0  0  0
  5  6  1  0  0  0
  5  9  1  0  0  0
  6  7  1  0  0  0
  7  8  1  0  0  0
  7 10  1  0  0  0
  8  9  2  0  0  0
  9 15  1  0  0  0
 10 11  1  0  0  0
 10 12  1  0  0  0
 10 13  1  0  0  0
 11 24  1  0  0  0
 11 25  1  0  0  0
 11 26  1  0  0  0
 12 27  1  0  0  0
 12 28  1  0  0  0
 12 29  1  0  0  0
 13 30  1  0  0  0
 13 31  1  0  0  0
 13 32  1  0  0  0
 14 33  1  0  0  0
 14 34  1  0  0  0
 15 16  1  0  0  0
 16 17  2  0  0  0
 16 21  1  0  0  0
 17 18  1  0  0  0
 17 35  1  0  0  0
 18 19  2  0  0  0
 18 36  1  0  0  0
 19 20  1  0  0  0
 19 37  1  0  0  0
 20 21  2  0  0  0
 20 22  1  0  0  0
 21 38  1  0  0  0
M  END
> <s_m_entry_id>
31913

> <s_m_entry_name>
dock_pv.176

> <s_m_Source_Path>
/home/csk/Desktop/cluster/DUD-E-result/src

> <s_m_Source_File>
dock_pv.maegz

> <i_m_Source_File_Index>
176

> <chembl_id>
CHEMBL4087915

> <chembl_pref_name>
None

> <i_lp_mmshare_version>
53161

> <r_lp_tautomer_probability>
1

> <s_lp_Force_Field>
OPLS_2005

> <r_lp_Energy>
19.912134

> <b_lp_Chiralities_Consistent>
1

> <s_lp_Variant>
CHEMBL267_lig2757-1

> <s_i_glide_gridfile>
glide-grid_3el8

> <i_i_glide_lignum>
3125

> <i_i_glide_rotatable_bonds>
3

> <r_i_docking_score>
-7.95714121076127

> <r_i_glide_ligand_efficiency>
-0.361688236852785

> <r_i_glide_ligand_efficiency_sa>
-1.01346466405268

> <r_i_glide_ligand_efficiency_ln>
-1.94501555568784

> <r_i_glide_gscore>
-7.95714121076127

> <r_i_glide_lipo>
-2.34394825642614

> <r_i_glide_hbond>
-0.608

> <r_i_glide_metal>
0

> <r_i_glide_rewards>
-3.12901146848758

> <r_i_glide_evdw>
-30.7136688232422

> <r_i_glide_ecoul>
-3.99243116378784

> <r_i_glide_erotb>
0.258366629882736

> <r_i_glide_esite>
0

> <r_i_glide_emodel>
-50.97772960823

> <r_i_glide_energy>
-34.70609998703

> <r_i_glide_einternal>
1.43156158924103

> <i_i_glide_confnum>
4

> <i_i_glide_posenum>
244

> <r_i_glide_eff_state_penalty>
0

> <s_user_duplicate_titles>
CHEMBL267_lig2757

> <i_f3d_flags>
0

> <s_m_subgroup_title>
dock_pv

> <s_m_subgroupid>
dock_pv

> <b_m_subgroup_collapsed>
1

$$$$
CHEMBL267_lig1884
                    3D
 Schrodinger Suite 2021-1.
 44 47  0  0  1  0            999 V2000
    0.9321    8.8880    5.4501 N   0  0  0  0  0  0
    0.1775    8.5586    6.5218 C   0  0  0  0  0  0
    0.5980    8.0819    7.7177 N   0  0  0  0  0  0
    2.2669    8.7212    5.5693 C   0  0  0  0  0  0
    2.8393    8.2104    6.7569 C   0  0  0  0  0  0
    1.9143    7.8633    7.7722 C   0  0  0  0  0  0
    2.6450    7.2427    8.7715 N   0  0  0  0  0  0
    3.9631    7.3069    8.4903 N   0  0  0  0  0  0
    4.1238    7.9170    7.3344 C   0  0  0  0  0  0
    5.4925    8.2370    6.8208 C   0  0  0  0  0  0
    6.5975    7.4739    7.2160 C   0  0  0  0  0  0
    7.8683    7.7599    6.7262 C   0  0  0  0  0  0
    8.0493    8.7920    5.7996 C   0  0  0  0  0  0
    6.9619    9.5742    5.4219 C   0  0  0  0  0  0
    5.7002    9.3112    5.9473 C   0  0  0  0  0  0
    2.9981    9.0370    4.4335 N   0  0  0  0  0  0
    9.6159    9.2013    5.1880 Cl  0  0  0  0  0  0
    8.9301    7.0370    7.1880 O   0  0  0  0  0  0
    2.2261    6.6537   10.0550 C   0  0  0  0  0  0
    1.3080    5.3940    9.9762 C   0  0  0  0  0  0
   -0.1370    5.6008    9.4793 C   0  0  0  0  0  0
   -0.9819    4.3168    9.5723 C   0  0  0  0  0  0
   -0.3641    3.2461    8.7881 N   0  0  1  0  0  0
    1.0188    2.9710    9.1811 C   0  0  0  0  0  0
    1.9094    4.2370    9.1595 C   0  0  0  0  0  0
   -0.8909    8.6370    6.3942 H   0  0  0  0  0  0
    6.4750    6.6582    7.9144 H   0  0  0  0  0  0
    7.1025   10.4087    4.7500 H   0  0  0  0  0  0
    4.8961    9.9836    5.6985 H   0  0  0  0  0  0
    3.9872    8.8433    4.4071 H   0  0  0  0  0  0
    2.4934    9.3475    3.6163 H   0  0  0  0  0  0
    9.6841    7.1422    6.5924 H   0  0  0  0  0  0
    1.7725    7.4370   10.6540 H   0  0  0  0  0  0
    3.1240    6.3742   10.6124 H   0  0  0  0  0  0
    1.1940    5.0370   11.0001 H   0  0  0  0  0  0
   -0.1852    5.9437    8.4527 H   0  0  0  0  0  0
   -0.6020    6.3881   10.0702 H   0  0  0  0  0  0
   -1.9871    4.4982    9.1889 H   0  0  0  0  0  0
   -1.0826    3.9950   10.6101 H   0  0  0  0  0  0
   -0.9196    2.4040    8.8707 H   0  0  0  0  0  0
    1.3980    2.2370    8.4750 H   0  0  0  0  0  0
    1.0329    2.5099   10.1691 H   0  0  0  0  0  0
    2.8828    3.9945    9.5880 H   0  0  0  0  0  0
    2.1284    4.5309    8.1318 H   0  0  0  0  0  0
  1  2  2  0  0  0
  1  4  1  0  0  0
  2  3  1  0  0  0
  2 26  1  0  0  0
  3  6  2  0  0  0
  4  5  2  0  0  0
  4 16  1  0  0  0
  5  9  1  0  0  0
  5  6  1  0  0  0
  6  7  1  0  0  0
  7  8  1  0  0  0
  7 19  1  0  0  0
  8  9  2  0  0  0
  9 10  1  0  0  0
 10 15  1  0  0  0
 10 11  2  0  0  0
 11 12  1  0  0  0
 11 27  1  0  0  0
 12 13  2  0  0  0
 12 18  1  0  0  0
 13 14  1  0  0  0
 13 17  1  0  0  0
 14 15  2  0  0  0
 14 28  1  0  0  0
 15 29  1  0  0  0
 16 30  1  0  0  0
 16 31  1  0  0  0
 18 32  1  0  0  0
 19 20  1  0  0  0
 19 33  1  0  0  0
 19 34  1  0  0  0
 20 21  1  0  0  0
 20 25  1  0  0  0
 20 35  1  0  0  0
 21 22  1  0  0  0
 21 36  1  0  0  0
 21 37  1  0  0  0
 22 23  1  0  0  0
 22 38  1  0  0  0
 22 39  1  0  0  0
 23 24  1  0  0  0
 23 40  1  0  0  0
 24 25  1  0  0  0
 24 41  1  0  0  0
 24 42  1  0  0  0
 25 43  1  0  0  0
 25 44  1  0  0  0
M  END
> <s_m_entry_id>
31914

> <s_m_entry_name>
dock_pv.177

> <s_m_Source_Path>
/home/csk/Desktop/cluster/DUD-E-result/src

> <s_m_Source_File>
dock_pv.maegz

> <i_m_Source_File_Index>
177

> <chembl_id>
CHEMBL1241859

> <chembl_pref_name>
None

> <i_lp_mmshare_version>
53161

> <r_lp_tautomer_probability>
0.999999999997365

> <s_lp_Force_Field>
OPLS_2005

> <r_lp_Energy>
20.052629

> <b_lp_Chiralities_Consistent>
1

> <s_lp_Variant>
CHEMBL267_lig1884-1

> <s_i_glide_gridfile>
glide-grid_3el8

> <i_i_glide_lignum>
2155

> <i_i_glide_rotatable_bonds>
4

> <r_i_docking_score>
-7.95355558967938

> <r_i_glide_ligand_efficiency>
-0.318142223587175

> <r_i_glide_ligand_efficiency_sa>
-0.93025350404526

> <r_i_glide_ligand_efficiency_ln>
-1.88523102358146

> <r_i_glide_gscore>
-7.95355558967938

> <r_i_glide_lipo>
-2.98027591987306

> <r_i_glide_hbond>
-0.639176457798616

> <r_i_glide_metal>
0

> <r_i_glide_rewards>
-1.88127988366865

> <r_i_glide_evdw>
-35.8995018005371

> <r_i_glide_ecoul>
-7.20643758773804

> <r_i_glide_erotb>
0.44643418525167

> <r_i_glide_esite>
-0.0233167854031516

> <r_i_glide_emodel>
-61.9126943705514

> <r_i_glide_energy>
-43.1059393882751

> <r_i_glide_einternal>
2.23212146759033

> <i_i_glide_confnum>
4

> <i_i_glide_posenum>
396

> <r_i_glide_eff_state_penalty>
0

> <s_user_duplicate_titles>
CHEMBL267_lig1884

> <i_f3d_flags>
0

> <s_m_subgroup_title>
dock_pv

> <s_m_subgroupid>
dock_pv

> <b_m_subgroup_collapsed>
1

$$$$
CHEMBL267_lig1932
                    3D
 Schrodinger Suite 2021-1.
 32 35  0  0  1  0            999 V2000
    7.8623    6.7850    7.5876 N   0  0  0  0  0  0
    8.4308    7.7219    6.7913 C   0  0  0  0  0  0
    7.8108    8.6408    6.0113 N   0  0  0  0  0  0
    6.5116    6.8016    7.6663 C   0  0  0  0  0  0
    5.7518    7.7803    6.9972 C   0  0  0  0  0  0
    6.4829    8.6534    6.1673 C   0  0  0  0  0  0
    5.5485    9.4827    5.5790 N   0  0  0  0  0  0
    4.2958    9.1613    5.9652 N   0  0  0  0  0  0
    4.3852    8.1740    6.8304 C   0  0  0  0  0  0
    3.1889    7.5729    7.4789 C   0  0  0  0  0  0
    3.2059    7.3096    8.8537 C   0  0  0  0  0  0
    1.0088    6.5322    7.2184 C   0  0  0  0  0  0
    2.1041    7.2025    6.6833 C   0  0  0  0  0  0
    5.9194    5.7735    8.3881 N   0  0  0  0  0  0
    5.7462   10.5325    4.5934 C   0  0  0  0  0  0
    0.9942    6.2366    8.5881 C   0  0  0  0  0  0
    2.1005    6.6427    9.3921 C   0  0  0  0  0  0
    1.8216    6.2377   10.6825 N   0  0  0  0  0  0
    0.5984    5.6144   10.7285 C   0  0  0  0  0  0
    0.0716    5.5725    9.4567 C   0  0  0  0  0  0
    9.5058    7.7495    6.7878 H   0  0  0  0  0  0
    4.0451    7.6018    9.4694 H   0  0  0  0  0  0
    0.1978    6.2322    6.5744 H   0  0  0  0  0  0
    2.1255    7.4038    5.6221 H   0  0  0  0  0  0
    4.9129    5.7273    8.4515 H   0  0  0  0  0  0
    6.5117    5.0780    8.8189 H   0  0  0  0  0  0
    6.7362   10.9752    4.7228 H   0  0  0  0  0  0
    5.6646   10.1090    3.5910 H   0  0  0  0  0  0
    4.9911   11.3104    4.7185 H   0  0  0  0  0  0
    2.4065    6.3512   11.4979 H   0  0  0  0  0  0
    0.2092    5.2363   11.6637 H   0  0  0  0  0  0
   -0.8782    5.1296    9.1884 H   0  0  0  0  0  0
  1  4  1  0  0  0
  1  2  2  0  0  0
  2  3  1  0  0  0
  2 21  1  0  0  0
  3  6  2  0  0  0
  4 14  1  0  0  0
  4  5  2  0  0  0
  5  6  1  0  0  0
  5  9  1  0  0  0
  6  7  1  0  0  0
  7 15  1  0  0  0
  7  8  1  0  0  0
  8  9  2  0  0  0
  9 10  1  0  0  0
 10 11  2  0  0  0
 10 13  1  0  0  0
 11 17  1  0  0  0
 11 22  1  0  0  0
 12 16  1  0  0  0
 12 13  2  0  0  0
 12 23  1  0  0  0
 13 24  1  0  0  0
 14 25  1  0  0  0
 14 26  1  0  0  0
 15 27  1  0  0  0
 15 28  1  0  0  0
 15 29  1  0  0  0
 16 17  2  0  0  0
 16 20  1  0  0  0
 17 18  1  0  0  0
 18 19  1  0  0  0
 18 30  1  0  0  0
 19 20  2  0  0  0
 19 31  1  0  0  0
 20 32  1  0  0  0
M  END
> <s_m_entry_id>
31915

> <s_m_entry_name>
dock_pv.178

> <s_m_Source_Path>
/home/csk/Desktop/cluster/DUD-E-result/src

> <s_m_Source_File>
dock_pv.maegz

> <i_m_Source_File_Index>
178

> <chembl_id>
CHEMBL1240566

> <chembl_pref_name>
None

> <i_lp_mmshare_version>
53161

> <r_lp_tautomer_probability>
1

> <s_lp_Force_Field>
OPLS_2005

> <r_lp_Energy>
5.591206

> <b_lp_Chiralities_Consistent>
1

> <s_lp_Variant>
CHEMBL267_lig1932-1

> <s_i_glide_gridfile>
glide-grid_3el8

> <i_i_glide_lignum>
2213

> <i_i_glide_rotatable_bonds>
1

> <r_i_docking_score>
-7.95329826168458

> <r_i_glide_ligand_efficiency>
-0.397664913084229

> <r_i_glide_ligand_efficiency_sa>
-1.07942864449962

> <r_i_glide_ligand_efficiency_ln>
-1.99044823756686

> <r_i_glide_gscore>
-7.95329826168458

> <r_i_glide_lipo>
-1.91477179630111

> <r_i_glide_hbond>
-0.265147783194048

> <r_i_glide_metal>
0

> <r_i_glide_rewards>
-3.59602775711983

> <r_i_glide_evdw>
-33.1471977233887

> <r_i_glide_ecoul>
-4.65417432785034

> <r_i_glide_erotb>
0.17813511027739

> <r_i_glide_esite>
0

> <r_i_glide_emodel>
-55.6019042251995

> <r_i_glide_energy>
-37.801372051239

> <r_i_glide_einternal>
0.880057990550995

> <i_i_glide_confnum>
4

> <i_i_glide_posenum>
373

> <r_i_glide_eff_state_penalty>
0

> <s_user_duplicate_titles>
CHEMBL267_lig1932

> <i_f3d_flags>
0

> <s_m_subgroup_title>
dock_pv

> <s_m_subgroupid>
dock_pv

> <b_m_subgroup_collapsed>
1

$$$$
CHEMBL267_lig1437
                    3D
 Schrodinger Suite 2021-1.
 44 47  0  0  1  0            999 V2000
    3.4160    7.8076    7.4242 C   0  0  0  0  0  0
    3.7858    6.8094    8.3312 C   0  0  0  0  0  0
    5.1212    6.4035    8.3983 C   0  0  0  0  0  0
    6.1115    7.0373    7.6465 C   0  0  0  0  0  0
    2.7509    6.2180    9.2185 C   0  0  0  0  0  0
    1.9051    5.1331    8.6707 C   0  0  0  0  0  0
    0.8352    4.7273    9.4566 N   0  0  0  0  0  0
    0.6373    5.3149   10.6966 C   0  0  0  0  0  0
    1.4436    6.2371   11.2502 C   0  0  0  0  0  0
    2.5828    6.7123   10.4807 C   0  0  0  0  0  0
    4.3968    8.4517    6.6338 C   0  0  0  0  0  0
    5.7683    8.0834    6.7639 C   0  0  0  0  0  0
    6.7510    8.7214    6.0638 N   0  0  0  0  0  0
    6.3587    9.7230    5.2407 C   0  0  0  0  0  0
    5.0914   10.1391    5.0167 N   0  0  0  0  0  0
    4.1282    9.4904    5.7130 C   0  0  0  0  0  0
   -0.0659    3.6743    9.0775 C   0  0  0  0  0  0
   -1.4365    3.8371    9.3149 C   0  0  0  0  0  0
   -2.3381    2.7881    9.1855 C   0  0  0  0  0  0
    0.3611    2.4285    8.5744 C   0  0  0  0  0  0
   -0.5427    1.3616    8.4100 C   0  0  0  0  0  0
   -1.8812    1.5394    8.7827 C   0  0  0  0  0  0
    7.3639   10.4069    4.5779 N   0  0  0  0  0  0
    3.5708    7.6757   11.1259 C   0  0  0  0  0  0
    2.1979    4.6308    7.5880 O   0  0  0  0  0  0
   -2.7348    0.4889    8.7880 F   0  0  0  0  0  0
   -0.0810   -0.0298    7.9880 C   0  0  0  0  0  0
    2.3838    8.1156    7.3422 H   0  0  0  0  0  0
    5.3992    5.6153    9.0836 H   0  0  0  0  0  0
    7.1447    6.7381    7.7388 H   0  0  0  0  0  0
   -0.2141    4.9312   11.2416 H   0  0  0  0  0  0
    1.2389    6.6292   12.2366 H   0  0  0  0  0  0
    3.1125    9.8214    5.5557 H   0  0  0  0  0  0
   -1.8021    4.7935    9.6407 H   0  0  0  0  0  0
   -3.3811    2.9292    9.4266 H   0  0  0  0  0  0
    1.4059    2.2590    8.3875 H   0  0  0  0  0  0
    8.3215   10.1604    4.7712 H   0  0  0  0  0  0
    7.1151   11.1936    3.9990 H   0  0  0  0  0  0
    3.5436    7.6016   12.2135 H   0  0  0  0  0  0
    4.5931    7.4061   10.8648 H   0  0  0  0  0  0
    3.4000    8.6975   10.7884 H   0  0  0  0  0  0
   -0.4693   -0.7686    8.6909 H   0  0  0  0  0  0
   -0.4768   -0.2967    7.0079 H   0  0  0  0  0  0
    0.9979   -0.1629    7.9882 H   0  0  0  0  0  0
  1  2  2  0  0  0
  1 11  1  0  0  0
  1 28  1  0  0  0
  2  3  1  0  0  0
  2  5  1  0  0  0
  3  4  2  0  0  0
  3 29  1  0  0  0
  4 12  1  0  0  0
  4 30  1  0  0  0
  5 10  2  0  0  0
  5  6  1  0  0  0
  6  7  1  0  0  0
  6 25  2  0  0  0
  7  8  1  0  0  0
  7 17  1  0  0  0
  8  9  2  0  0  0
  8 31  1  0  0  0
  9 10  1  0  0  0
  9 32  1  0  0  0
 10 24  1  0  0  0
 11 16  2  0  0  0
 11 12  1  0  0  0
 12 13  2  0  0  0
 13 14  1  0  0  0
 14 15  2  0  0  0
 14 23  1  0  0  0
 15 16  1  0  0  0
 16 33  1  0  0  0
 17 18  2  0  0  0
 17 20  1  0  0  0
 18 19  1  0  0  0
 18 34  1  0  0  0
 19 22  2  0  0  0
 19 35  1  0  0  0
 20 21  2  0  0  0
 20 36  1  0  0  0
 21 22  1  0  0  0
 21 27  1  0  0  0
 22 26  1  0  0  0
 23 37  1  0  0  0
 23 38  1  0  0  0
 24 39  1  0  0  0
 24 40  1  0  0  0
 24 41  1  0  0  0
 27 42  1  0  0  0
 27 43  1  0  0  0
 27 44  1  0  0  0
M  END
> <s_m_entry_id>
31916

> <s_m_entry_name>
dock_pv.179

> <s_m_Source_Path>
/home/csk/Desktop/cluster/DUD-E-result/src

> <s_m_Source_File>
dock_pv.maegz

> <i_m_Source_File_Index>
179

> <chembl_id>
CHEMBL497958

> <chembl_pref_name>
None

> <i_lp_mmshare_version>
53161

> <r_lp_tautomer_probability>
1

> <s_lp_Force_Field>
OPLS_2005

> <r_lp_Energy>
38.687145

> <b_lp_Chiralities_Consistent>
1

> <s_lp_Variant>
CHEMBL267_lig1437-1

> <s_i_glide_gridfile>
glide-grid_3el8

> <i_i_glide_lignum>
1605

> <i_i_glide_rotatable_bonds>
2

> <r_i_docking_score>
-7.94001362664495

> <r_i_glide_ligand_efficiency>
-0.294074578764628

> <r_i_glide_ligand_efficiency_sa>
-0.882223735324661

> <r_i_glide_ligand_efficiency_ln>
-1.84830427092781

> <r_i_glide_gscore>
-7.94001362664495

> <r_i_glide_lipo>
-4.20702427464831

> <r_i_glide_hbond>
0

> <r_i_glide_metal>
0

> <r_i_glide_rewards>
-1.71988412248184

> <r_i_glide_evdw>
-39.6578330993652

> <r_i_glide_ecoul>
-1.73053419589996

> <r_i_glide_erotb>
0.295331484751482

> <r_i_glide_esite>
-0.065964929913024

> <r_i_glide_emodel>
-52.76506867301

> <r_i_glide_energy>
-41.3883672952652

> <r_i_glide_einternal>
2.07556056976318

> <i_i_glide_confnum>
4

> <i_i_glide_posenum>
50

> <r_i_glide_eff_state_penalty>
0

> <s_user_duplicate_titles>
CHEMBL267_lig1437,486701

> <i_f3d_flags>
0

> <s_m_subgroup_title>
dock_pv

> <s_m_subgroupid>
dock_pv

> <b_m_subgroup_collapsed>
1

$$$$
CHEMBL267_lig3347
                    3D
 Schrodinger Suite 2021-1.
 45 50  0  0  1  0            999 V2000
    9.4045    9.4274    5.1388 F   0  0  0  0  0  0
    4.5979    8.6369   11.1880 F   0  0  0  0  0  0
    7.2824   10.9448    4.5703 O   0  0  0  0  0  0
    3.6350   10.5109    2.5208 O   0  0  0  0  0  0
    3.4077    9.5820    4.6697 N   0  0  0  0  0  0
    1.3619    6.6846    7.9852 N   0  0  0  0  0  0
    2.4221    8.1893    6.4711 N   0  0  0  0  0  0
    2.0856    8.9248    3.0732 N   0  0  0  0  0  0
    0.6117    6.7598    5.7165 N   0  0  0  0  0  0
    0.4799    5.3879    9.6347 N   0  0  0  0  0  0
    2.5246    8.6488    5.1977 C   0  0  0  0  0  0
    4.5179   10.2359    5.4213 C   0  0  1  0  0  0
    1.7054    8.2372    4.1886 C   0  0  0  0  0  0
    3.1135    9.7604    3.3408 C   0  0  0  0  0  0
    1.4715    7.2320    6.6772 C   0  0  0  0  0  0
    5.7672    9.3914    5.7481 C   0  0  0  0  0  0
    2.0825    6.9771    9.1451 C   0  0  0  0  0  0
    7.0428    9.7815    5.2787 C   0  0  0  0  0  0
    0.7305    7.2796    4.4620 C   0  0  0  0  0  0
    1.4695    6.1688   10.1434 C   0  0  0  0  0  0
    4.9698   11.6513    4.9729 C   0  0  0  0  0  0
    0.4710    5.6979    8.3722 C   0  0  0  0  0  0
    5.7118    8.2370    6.5444 C   0  0  0  0  0  0
    8.1875    9.0370    5.5876 C   0  0  0  0  0  0
    3.1518    7.8349    9.4647 C   0  0  0  0  0  0
    6.1535   11.5861    3.9871 C   0  0  0  0  0  0
    1.8952    6.2371   11.4692 C   0  0  0  0  0  0
    3.6006    7.8216   10.7882 C   0  0  0  0  0  0
    8.0916    7.9063    6.3898 C   0  0  0  0  0  0
    6.8534    7.5092    6.8756 C   0  0  0  0  0  0
    2.9981    7.0360   11.7616 C   0  0  0  0  0  0
    1.6537    8.8370    2.1627 H   0  0  0  0  0  0
    4.0246   10.4199    6.3770 H   0  0  0  0  0  0
    0.0466    6.9130    3.7091 H   0  0  0  0  0  0
    4.1443   12.2148    4.5362 H   0  0  0  0  0  0
    5.3042   12.2170    5.8445 H   0  0  0  0  0  0
   -0.2016    5.2641    7.6481 H   0  0  0  0  0  0
    4.7809    7.8839    6.9441 H   0  0  0  0  0  0
    3.6202    8.4857    8.7461 H   0  0  0  0  0  0
    5.8997   11.0487    3.0766 H   0  0  0  0  0  0
    6.4459   12.5932    3.6887 H   0  0  0  0  0  0
    1.3979    5.6595   12.2339 H   0  0  0  0  0  0
    8.9833    7.3510    6.6381 H   0  0  0  0  0  0
    6.7723    6.6341    7.5040 H   0  0  0  0  0  0
    3.3718    7.0777   12.7753 H   0  0  0  0  0  0
  1 24  1  0  0  0
  2 28  1  0  0  0
  3 18  1  0  0  0
  3 26  1  0  0  0
  4 14  2  0  0  0
  5 11  1  0  0  0
  5 12  1  0  0  0
  5 14  1  0  0  0
  6 15  1  0  0  0
  6 17  1  0  0  0
  6 22  1  0  0  0
  7 11  2  0  0  0
  7 15  1  0  0  0
  8 13  1  0  0  0
  8 14  1  0  0  0
  8 32  1  0  0  0
  9 15  2  0  0  0
  9 19  1  0  0  0
 10 20  1  0  0  0
 10 22  2  0  0  0
 11 13  1  0  0  0
 12 16  1  0  0  0
 12 21  1  0  0  0
 12 33  1  0  0  0
 13 19  2  0  0  0
 16 18  1  0  0  0
 16 23  2  0  0  0
 17 20  1  0  0  0
 17 25  2  0  0  0
 18 24  2  0  0  0
 19 34  1  0  0  0
 20 27  2  0  0  0
 21 26  1  0  0  0
 21 35  1  0  0  0
 21 36  1  0  0  0
 22 37  1  0  0  0
 23 30  1  0  0  0
 23 38  1  0  0  0
 24 29  1  0  0  0
 25 28  1  0  0  0
 25 39  1  0  0  0
 26 40  1  0  0  0
 26 41  1  0  0  0
 27 31  1  0  0  0
 27 42  1  0  0  0
 28 31  2  0  0  0
 29 30  2  0  0  0
 29 43  1  0  0  0
 30 44  1  0  0  0
 31 45  1  0  0  0
M  END
> <s_m_entry_id>
31917

> <s_m_entry_name>
dock_pv.180

> <s_m_Source_Path>
/home/csk/Desktop/cluster/DUD-E-result/src

> <s_m_Source_File>
dock_pv.maegz

> <i_m_Source_File_Index>
180

> <chembl_id>
CHEMBL2000393

> <chembl_pref_name>
None

> <i_lp_mmshare_version>
53161

> <r_lp_tautomer_probability>
1

> <s_lp_Force_Field>
OPLS_2005

> <r_lp_Energy>
37.783053

> <b_lp_Chiralities_Consistent>
1

> <s_lp_Variant>
CHEMBL267_lig3347-2

> <s_i_glide_gridfile>
glide-grid_3el8

> <i_i_glide_lignum>
3963

> <i_i_glide_rotatable_bonds>
2

> <r_i_docking_score>
-7.93895108089934

> <r_i_glide_ligand_efficiency>
-0.256095196158043

> <r_i_glide_ligand_efficiency_sa>
-0.804492493460383

> <r_i_glide_ligand_efficiency_ln>
-1.79047676837425

> <r_i_glide_gscore>
-7.93895108089934

> <r_i_glide_lipo>
-3.15303719571432

> <r_i_glide_hbond>
-0.0770863728538573

> <r_i_glide_metal>
0

> <r_i_glide_rewards>
-2.46283182739659

> <r_i_glide_evdw>
-40.8419914245605

> <r_i_glide_ecoul>
-2.77381372451782

> <r_i_glide_erotb>
0.22400050772532

> <r_i_glide_esite>
-0.0118245627541899

> <r_i_glide_emodel>
-58.1014855891786

> <r_i_glide_energy>
-43.6158051490784

> <r_i_glide_einternal>
10.7861795425415

> <i_i_glide_confnum>
5

> <i_i_glide_posenum>
246

> <r_i_glide_eff_state_penalty>
0

> <s_user_duplicate_titles>
CHEMBL267_lig3347

> <i_f3d_flags>
0

> <s_m_subgroup_title>
dock_pv

> <s_m_subgroupid>
dock_pv

> <b_m_subgroup_collapsed>
1

$$$$
CHEMBL267_lig686
                    3D
 Schrodinger Suite 2021-1.
 38 41  0  0  1  0            999 V2000
    4.1550    7.3561    8.0119 N   0  0  0  0  0  0
    3.1982    8.1914    7.4328 C   0  0  0  0  0  0
    5.3822    7.5947    7.3989 C   0  0  0  0  0  0
    3.8351    8.9153    6.3880 C   0  0  0  0  0  0
    5.1884    8.5656    6.3855 C   0  0  0  0  0  0
    1.8383    8.3881    7.7128 C   0  0  0  0  0  0
    6.6505    7.0543    7.6425 C   0  0  0  0  0  0
    6.2801    9.0094    5.6228 C   0  0  0  0  0  0
    3.1001    9.8252    5.6153 C   0  0  0  0  0  0
    7.7226    7.5398    6.8979 C   0  0  0  0  0  0
    1.1327    9.2911    6.9244 C   0  0  0  0  0  0
    3.9924    6.4848    9.1907 C   0  0  0  0  0  0
    7.5475    8.5045    5.9004 C   0  0  0  0  0  0
    1.7535   10.0174    5.9034 C   0  0  0  0  0  0
    0.6419    5.7947   10.8686 N   0  0  0  0  0  0
    2.6051    5.9026    9.4469 C   0  0  0  0  0  0
    8.9617    7.0370    7.1880 O   0  0  0  0  0  0
   -0.2020    9.4370    7.1880 O   0  0  0  0  0  0
    8.6128    8.9992    5.1880 O   0  0  0  0  0  0
    1.0733   10.9717    5.1916 O   0  0  0  0  0  0
    1.8986    6.2370   10.6095 C   0  0  0  0  0  0
    0.0632    4.9702    9.9593 C   0  0  0  0  0  0
    1.9943    5.0370    8.5316 C   0  0  0  0  0  0
    0.7051    4.5632    8.7880 C   0  0  0  0  0  0
    1.3212    7.8593    8.4956 H   0  0  0  0  0  0
    6.8125    6.2943    8.3895 H   0  0  0  0  0  0
    6.1517    9.7578    4.8549 H   0  0  0  0  0  0
    3.5743   10.3979    4.8319 H   0  0  0  0  0  0
    4.3215    7.0569   10.0589 H   0  0  0  0  0  0
    4.6837    5.6459    9.1018 H   0  0  0  0  0  0
    9.5648    7.0370    6.4346 H   0  0  0  0  0  0
   -0.7115    9.6874    6.4107 H   0  0  0  0  0  0
    9.4535    8.5877    5.4011 H   0  0  0  0  0  0
    0.2361   11.2180    5.5880 H   0  0  0  0  0  0
    2.3295    6.8896   11.3548 H   0  0  0  0  0  0
   -0.9428    4.6418   10.1824 H   0  0  0  0  0  0
    2.5053    4.7483    7.6244 H   0  0  0  0  0  0
    0.2080    3.9052    8.0913 H   0  0  0  0  0  0
  1  2  1  0  0  0
  1  3  1  0  0  0
  1 12  1  0  0  0
  2  4  2  0  0  0
  2  6  1  0  0  0
  3  5  2  0  0  0
  3  7  1  0  0  0
  4  9  1  0  0  0
  4  5  1  0  0  0
  5  8  1  0  0  0
  6 11  2  0  0  0
  6 25  1  0  0  0
  7 10  2  0  0  0
  7 26  1  0  0  0
  8 13  2  0  0  0
  8 27  1  0  0  0
  9 14  2  0  0  0
  9 28  1  0  0  0
 10 13  1  0  0  0
 10 17  1  0  0  0
 11 14  1  0  0  0
 11 18  1  0  0  0
 12 16  1  0  0  0
 12 29  1  0  0  0
 12 30  1  0  0  0
 13 19  1  0  0  0
 14 20  1  0  0  0
 15 21  2  0  0  0
 15 22  1  0  0  0
 16 21  1  0  0  0
 16 23  2  0  0  0
 17 31  1  0  0  0
 18 32  1  0  0  0
 19 33  1  0  0  0
 20 34  1  0  0  0
 21 35  1  0  0  0
 22 24  2  0  0  0
 22 36  1  0  0  0
 23 24  1  0  0  0
 23 37  1  0  0  0
 24 38  1  0  0  0
M  END
> <s_m_entry_id>
31918

> <s_m_entry_name>
dock_pv.181

> <s_m_Source_Path>
/home/csk/Desktop/cluster/DUD-E-result/src

> <s_m_Source_File>
dock_pv.maegz

> <i_m_Source_File_Index>
181

> <chembl_id>
CHEMBL266154

> <chembl_pref_name>
None

> <i_lp_mmshare_version>
53161

> <r_lp_tautomer_probability>
1

> <s_lp_Force_Field>
OPLS_2005

> <r_lp_Energy>
14.355333

> <b_lp_Chiralities_Consistent>
1

> <s_lp_Variant>
CHEMBL267_lig686-1

> <s_i_glide_gridfile>
glide-grid_3el8

> <i_i_glide_lignum>
805

> <i_i_glide_rotatable_bonds>
6

> <r_i_docking_score>
-7.93851248154386

> <r_i_glide_ligand_efficiency>
-0.330771353397661

> <r_i_glide_ligand_efficiency_sa>
-0.954109683604815

> <r_i_glide_ligand_efficiency_ln>
-1.90005031143477

> <r_i_glide_gscore>
-7.93851248154386

> <r_i_glide_lipo>
-3.23951929769031

> <r_i_glide_hbond>
0

> <r_i_glide_metal>
0

> <r_i_glide_rewards>
-1.98021121439593

> <r_i_glide_evdw>
-33.8556442260742

> <r_i_glide_ecoul>
-9.23987197875977

> <r_i_glide_erotb>
0.359981038660061

> <r_i_glide_esite>
0

> <r_i_glide_emodel>
-56.2137968738276

> <r_i_glide_energy>
-43.095516204834

> <r_i_glide_einternal>
6.06877040863037

> <i_i_glide_confnum>
2

> <i_i_glide_posenum>
89

> <r_i_glide_eff_state_penalty>
0

> <s_user_duplicate_titles>
CHEMBL267_lig686

> <i_f3d_flags>
0

> <s_m_subgroup_title>
dock_pv

> <s_m_subgroupid>
dock_pv

> <b_m_subgroup_collapsed>
1

$$$$
CHEMBL267_lig1508
                    3D
 Schrodinger Suite 2021-1.
 51 54  0  0  1  0            999 V2000
    8.1980    7.0370    7.0226 N   0  0  0  0  0  0
    7.3053    6.3974    7.8108 C   0  0  0  0  0  0
    5.9893    6.6753    7.9679 N   0  0  0  0  0  0
    7.7182    8.0181    6.2227 C   0  0  0  0  0  0
    6.3549    8.3596    6.2180 C   0  0  0  0  0  0
    5.5432    7.6463    7.1514 C   0  0  0  0  0  0
    4.2313    8.0825    7.0012 N   0  0  0  0  0  0
    4.2358    9.0370    5.9972 C   0  0  0  0  0  0
    5.5038    9.2396    5.4695 C   0  0  0  0  0  0
    5.9032   10.1847    4.3846 C   0  0  0  0  0  0
    5.0431   10.4179    3.3051 C   0  0  0  0  0  0
    5.4399   11.2376    2.2476 C   0  0  0  0  0  0
    6.6964   11.8394    2.2610 C   0  0  0  0  0  0
    7.5569   11.6226    3.3360 C   0  0  0  0  0  0
    7.1636   10.7948    4.3880 C   0  0  0  0  0  0
    3.0918    7.6382    7.7204 C   0  0  0  0  0  0
    1.8634    7.4997    7.0625 C   0  0  0  0  0  0
    0.7719    6.9610    7.7374 C   0  0  0  0  0  0
    0.9055    6.5325    9.0567 C   0  0  0  0  0  0
    2.1244    6.6763    9.7209 C   0  0  0  0  0  0
    3.2121    7.2302    9.0567 C   0  0  0  0  0  0
   -0.2020    6.0253    9.6905 O   0  0  0  0  0  0
   -0.1004    4.7327   10.2966 C   0  0  0  0  0  0
    0.1552    3.6093    9.2637 C   0  0  0  0  0  0
   -2.0508    2.5644    8.9149 C   0  0  0  0  0  0
   -1.7136    1.0559    8.8411 C   0  0  0  0  0  0
    4.6001   11.4370    1.1880 O   0  0  0  0  0  0
   -1.0019    3.4370    8.3880 N   0  0  1  0  0  0
   -1.8020    0.5115    7.5547 O   0  0  0  0  0  0
    7.6859    5.5711    8.3917 H   0  0  0  0  0  0
    8.4274    8.4767    5.5503 H   0  0  0  0  0  0
    3.3070    9.5176    5.7268 H   0  0  0  0  0  0
    4.0731    9.9446    3.2685 H   0  0  0  0  0  0
    7.0057   12.4746    1.4428 H   0  0  0  0  0  0
    8.5297   12.0920    3.3518 H   0  0  0  0  0  0
    7.8445   10.6412    5.2102 H   0  0  0  0  0  0
    1.7489    7.7783    6.0247 H   0  0  0  0  0  0
   -0.1755    6.8472    7.2301 H   0  0  0  0  0  0
    2.2311    6.3693   10.7507 H   0  0  0  0  0  0
    4.1433    7.3278    9.5955 H   0  0  0  0  0  0
   -1.0289    4.5492   10.8374 H   0  0  0  0  0  0
    0.6740    4.7316   11.0610 H   0  0  0  0  0  0
    0.4221    2.6762    9.7594 H   0  0  0  0  0  0
    1.0144    3.8758    8.6473 H   0  0  0  0  0  0
   -2.9887    2.7471    8.3881 H   0  0  0  0  0  0
   -2.2545    2.8434    9.9496 H   0  0  0  0  0  0
   -2.4061    0.5070    9.4779 H   0  0  0  0  0  0
   -0.7052    0.8425    9.1880 H   0  0  0  0  0  0
    4.9978   11.9483    0.4678 H   0  0  0  0  0  0
   -1.4072    4.3606    8.2301 H   0  0  0  0  0  0
   -2.6512    0.8002    7.1644 H   0  0  0  0  0  0
  1  4  1  0  0  0
  1  2  2  0  0  0
  2  3  1  0  0  0
  2 30  1  0  0  0
  3  6  2  0  0  0
  4  5  2  0  0  0
  4 31  1  0  0  0
  5  9  1  0  0  0
  5  6  1  0  0  0
  6  7  1  0  0  0
  7  8  1  0  0  0
  7 16  1  0  0  0
  8  9  2  0  0  0
  8 32  1  0  0  0
  9 10  1  0  0  0
 10 15  1  0  0  0
 10 11  2  0  0  0
 11 12  1  0  0  0
 11 33  1  0  0  0
 12 13  2  0  0  0
 12 27  1  0  0  0
 13 14  1  0  0  0
 13 34  1  0  0  0
 14 15  2  0  0  0
 14 35  1  0  0  0
 15 36  1  0  0  0
 16 17  2  0  0  0
 16 21  1  0  0  0
 17 18  1  0  0  0
 17 37  1  0  0  0
 18 19  2  0  0  0
 18 38  1  0  0  0
 19 20  1  0  0  0
 19 22  1  0  0  0
 20 21  2  0  0  0
 20 39  1  0  0  0
 21 40  1  0  0  0
 22 23  1  0  0  0
 23 24  1  0  0  0
 23 41  1  0  0  0
 23 42  1  0  0  0
 24 28  1  0  0  0
 24 43  1  0  0  0
 24 44  1  0  0  0
 25 26  1  0  0  0
 25 28  1  0  0  0
 25 45  1  0  0  0
 25 46  1  0  0  0
 26 29  1  0  0  0
 26 47  1  0  0  0
 26 48  1  0  0  0
 27 49  1  0  0  0
 28 50  1  0  0  0
 29 51  1  0  0  0
M  END
> <s_m_entry_id>
31919

> <s_m_entry_name>
dock_pv.182

> <s_m_Source_Path>
/home/csk/Desktop/cluster/DUD-E-result/src

> <s_m_Source_File>
dock_pv.maegz

> <i_m_Source_File_Index>
182

> <chembl_id>
CHEMBL475414

> <chembl_pref_name>
None

> <i_lp_mmshare_version>
53161

> <r_lp_tautomer_probability>
0.999999999997365

> <s_lp_Force_Field>
OPLS_2005

> <r_lp_Energy>
27.724208

> <b_lp_Chiralities_Consistent>
1

> <s_lp_Variant>
CHEMBL267_lig1508-1

> <s_i_glide_gridfile>
glide-grid_3el8

> <i_i_glide_lignum>
1689

> <i_i_glide_rotatable_bonds>
10

> <r_i_docking_score>
-7.9381903214827

> <r_i_glide_ligand_efficiency>
-0.273730700740783

> <r_i_glide_ligand_efficiency_sa>
-0.840987436648733

> <r_i_glide_ligand_efficiency_ln>
-1.8176442884812

> <r_i_glide_gscore>
-7.9381903214827

> <r_i_glide_lipo>
-3.12860085301291

> <r_i_glide_hbond>
-1.13488129244221

> <r_i_glide_metal>
0

> <r_i_glide_rewards>
-0.66484619502682

> <r_i_glide_evdw>
-40.3118782043457

> <r_i_glide_ecoul>
-13.4523820877075

> <r_i_glide_erotb>
1.02358924237265

> <r_i_glide_esite>
0

> <r_i_glide_emodel>
-74.1468033657566

> <r_i_glide_energy>
-53.7642602920532

> <r_i_glide_einternal>
8.84073352813721

> <i_i_glide_confnum>
8

> <i_i_glide_posenum>
64

> <r_i_glide_eff_state_penalty>
0

> <s_user_duplicate_titles>
CHEMBL267_lig1508,459382

> <i_f3d_flags>
0

> <s_m_subgroup_title>
dock_pv

> <s_m_subgroupid>
dock_pv

> <b_m_subgroup_collapsed>
1

$$$$
CHEMBL267_lig1817
                    3D
 Schrodinger Suite 2021-1.
 44 47  0  0  1  0            999 V2000
    0.6037    8.6421    5.4406 N   0  0  0  0  0  0
   -0.1377    8.2476    6.5001 C   0  0  0  0  0  0
    0.3060    7.8375    7.7071 N   0  0  0  0  0  0
    1.9491    8.6023    5.5864 C   0  0  0  0  0  0
    2.5448    8.1245    6.7792 C   0  0  0  0  0  0
    1.6330    7.7194    7.7839 C   0  0  0  0  0  0
    2.3858    7.1615    8.8040 N   0  0  0  0  0  0
    3.7000    7.3013    8.5373 N   0  0  0  0  0  0
    3.8387    7.8972    7.3702 C   0  0  0  0  0  0
    5.2046    8.2364    6.8593 C   0  0  0  0  0  0
    6.3154    7.4821    7.2596 C   0  0  0  0  0  0
    7.5797    7.7620    6.7520 C   0  0  0  0  0  0
    7.7514    8.7809    5.8124 C   0  0  0  0  0  0
    6.6639    9.5654    5.4403 C   0  0  0  0  0  0
    5.4040    9.3062    5.9758 C   0  0  0  0  0  0
    2.6712    9.0170    4.4774 N   0  0  0  0  0  0
    8.9716    9.0369    5.2864 F   0  0  0  0  0  0
    8.6500    7.0365    7.1879 O   0  0  0  0  0  0
    1.9893    6.5437   10.0828 C   0  0  0  0  0  0
    1.1586    5.2282    9.9877 C   0  0  0  0  0  0
   -0.2456    5.3735    9.4003 C   0  0  0  0  0  0
   -1.0660    4.0906    9.5464 C   0  0  0  0  0  0
   -0.4148    3.0212    8.7867 N   0  0  1  0  0  0
    1.0041    2.8228    9.1021 C   0  0  0  0  0  0
    1.8349    4.1255    9.1612 C   0  0  0  0  0  0
   -1.2093    8.2371    6.3877 H   0  0  0  0  0  0
    6.2003    6.6702    7.9638 H   0  0  0  0  0  0
    6.8005   10.3842    4.7487 H   0  0  0  0  0  0
    4.5947    9.9737    5.7243 H   0  0  0  0  0  0
    3.6748    8.9139    4.4704 H   0  0  0  0  0  0
    2.1588    9.2910    3.6516 H   0  0  0  0  0  0
    9.4140    7.1945    6.6190 H   0  0  0  0  0  0
    1.4422    7.2819   10.6598 H   0  0  0  0  0  0
    2.8906    6.3381   10.6665 H   0  0  0  0  0  0
    0.9982    4.8727   11.0058 H   0  0  0  0  0  0
   -0.2024    5.6273    8.3505 H   0  0  0  0  0  0
   -0.7473    6.1990    9.9008 H   0  0  0  0  0  0
   -2.0871    4.2375    9.1893 H   0  0  0  0  0  0
   -1.1275    3.8039   10.5960 H   0  0  0  0  0  0
   -0.9282    2.1572    8.8920 H   0  0  0  0  0  0
    1.3979    2.2365    8.2800 H   0  0  0  0  0  0
    1.1153    2.2375   10.0135 H   0  0  0  0  0  0
    2.8112    3.9054    9.5892 H   0  0  0  0  0  0
    2.0581    4.4623    8.1475 H   0  0  0  0  0  0
  1  2  2  0  0  0
  1  4  1  0  0  0
  2  3  1  0  0  0
  2 26  1  0  0  0
  3  6  2  0  0  0
  4  5  2  0  0  0
  4 16  1  0  0  0
  5  9  1  0  0  0
  5  6  1  0  0  0
  6  7  1  0  0  0
  7  8  1  0  0  0
  7 19  1  0  0  0
  8  9  2  0  0  0
  9 10  1  0  0  0
 10 15  1  0  0  0
 10 11  2  0  0  0
 11 12  1  0  0  0
 11 27  1  0  0  0
 12 13  2  0  0  0
 12 18  1  0  0  0
 13 14  1  0  0  0
 13 17  1  0  0  0
 14 15  2  0  0  0
 14 28  1  0  0  0
 15 29  1  0  0  0
 16 30  1  0  0  0
 16 31  1  0  0  0
 18 32  1  0  0  0
 19 20  1  0  0  0
 19 33  1  0  0  0
 19 34  1  0  0  0
 20 21  1  0  0  0
 20 25  1  0  0  0
 20 35  1  0  0  0
 21 22  1  0  0  0
 21 36  1  0  0  0
 21 37  1  0  0  0
 22 23  1  0  0  0
 22 38  1  0  0  0
 22 39  1  0  0  0
 23 24  1  0  0  0
 23 40  1  0  0  0
 24 25  1  0  0  0
 24 41  1  0  0  0
 24 42  1  0  0  0
 25 43  1  0  0  0
 25 44  1  0  0  0
M  END
> <s_m_entry_id>
31920

> <s_m_entry_name>
dock_pv.183

> <s_m_Source_Path>
/home/csk/Desktop/cluster/DUD-E-result/src

> <s_m_Source_File>
dock_pv.maegz

> <i_m_Source_File_Index>
183

> <chembl_id>
CHEMBL1242844

> <chembl_pref_name>
None

> <i_lp_mmshare_version>
53161

> <r_lp_tautomer_probability>
0.999999999997365

> <s_lp_Force_Field>
OPLS_2005

> <r_lp_Energy>
20.050689

> <b_lp_Chiralities_Consistent>
1

> <s_lp_Variant>
CHEMBL267_lig1817-1

> <s_i_glide_gridfile>
glide-grid_3el8

> <i_i_glide_lignum>
2083

> <i_i_glide_rotatable_bonds>
4

> <r_i_docking_score>
-7.93713849871522

> <r_i_glide_ligand_efficiency>
-0.317485539948609

> <r_i_glide_ligand_efficiency_sa>
-0.928333349439758

> <r_i_glide_ligand_efficiency_ln>
-1.88133968104244

> <r_i_glide_gscore>
-7.93713849871522

> <r_i_glide_lipo>
-2.9658962800484

> <r_i_glide_hbond>
-0.69972252083047

> <r_i_glide_metal>
0

> <r_i_glide_rewards>
-1.91620089444147

> <r_i_glide_evdw>
-35.9940528869629

> <r_i_glide_ecoul>
-6.76985740661621

> <r_i_glide_erotb>
0.485293251859072

> <r_i_glide_esite>
-0.025430799913377

> <r_i_glide_emodel>
-61.5408052638308

> <r_i_glide_energy>
-42.7639102935791

> <r_i_glide_einternal>
2.03812742233276

> <i_i_glide_confnum>
23

> <i_i_glide_posenum>
326

> <r_i_glide_eff_state_penalty>
0

> <s_user_duplicate_titles>
CHEMBL267_lig1817

> <i_f3d_flags>
0

> <s_m_subgroup_title>
dock_pv

> <s_m_subgroupid>
dock_pv

> <b_m_subgroup_collapsed>
1

$$$$
CHEMBL267_lig2142
                    3D
 Schrodinger Suite 2021-1.
 55 58  0  0  1  0            999 V2000
    5.7397   10.0996    4.1237 O   0  0  0  0  0  0
    4.8185    9.9646    5.2580 S   0  0  0  0  0  0
    4.4386   11.1771    5.9878 O   0  0  0  0  0  0
    1.2103    8.1956    5.6022 C   0  0  0  0  0  0
    0.4513    7.4313    6.4811 C   0  0  0  0  0  0
    1.0431    6.7889    7.5654 C   0  0  0  0  0  0
    2.4126    6.9650    7.7833 C   0  0  0  0  0  0
    2.5950    8.3404    5.7750 C   0  0  0  0  0  0
    3.2036    7.7182    6.8964 C   0  0  0  0  0  0
    3.3597    9.0370    4.7923 N   0  0  0  0  0  0
    5.4829    8.7356    6.3880 C   0  0  0  0  0  0
    4.6872    7.8370    7.0597 C   0  0  0  0  0  0
    5.6170    7.0863    7.7619 N   0  0  0  0  0  0
    6.8876    7.5048    7.5880 N   0  0  0  0  0  0
    6.8069    8.5044    6.7439 C   0  0  0  0  0  0
    2.7956    9.4077    3.4942 C   0  0  0  0  0  0
    0.1980    6.0255    8.3883 N   0  0  0  0  0  0
    0.5874    4.9914    9.3433 C   0  0  0  0  0  0
   -0.0696    3.6424    9.0094 C   0  0  0  0  0  0
   -1.4568    3.4552    8.9807 C   0  0  0  0  0  0
   -2.0034    2.2032    8.6795 C   0  0  0  0  0  0
   -1.1816    1.0985    8.3909 C   0  0  0  0  0  0
    0.1980    1.2948    8.4861 C   0  0  0  0  0  0
    0.7413    2.5397    8.7875 C   0  0  0  0  0  0
   -1.7369   -0.3305    8.1027 C   0  0  0  0  0  0
   -3.1838   -0.5448    8.6282 C   0  0  0  0  0  0
   -0.8516   -1.4352    8.7553 C   0  0  0  0  0  0
   -1.7305   -0.5750    6.5806 C   0  0  0  0  0  0
    5.3974    5.9208    8.6106 C   0  0  0  0  0  0
    0.7010    8.6509    4.7673 H   0  0  0  0  0  0
   -0.6073    7.3288    6.2969 H   0  0  0  0  0  0
    2.8604    6.5070    8.6484 H   0  0  0  0  0  0
    7.6758    9.0391    6.3896 H   0  0  0  0  0  0
    2.0766   10.2199    3.6040 H   0  0  0  0  0  0
    3.5714    9.7422    2.8038 H   0  0  0  0  0  0
    2.2957    8.5577    3.0276 H   0  0  0  0  0  0
   -0.7572    5.9075    8.0438 H   0  0  0  0  0  0
    0.2430    5.2878   10.3352 H   0  0  0  0  0  0
    1.6707    4.8863    9.4077 H   0  0  0  0  0  0
   -2.1194    4.2847    9.1889 H   0  0  0  0  0  0
   -3.0772    2.1038    8.6623 H   0  0  0  0  0  0
    0.8702    0.4592    8.3879 H   0  0  0  0  0  0
    1.8058    2.6398    8.8563 H   0  0  0  0  0  0
   -3.4588   -1.6005    8.6637 H   0  0  0  0  0  0
   -3.9314   -0.0812    7.9881 H   0  0  0  0  0  0
   -3.3255   -0.1411    9.6265 H   0  0  0  0  0  0
    0.0986   -1.5561    8.2357 H   0  0  0  0  0  0
   -0.6011   -1.2149    9.7913 H   0  0  0  0  0  0
   -1.3271   -2.4170    8.7311 H   0  0  0  0  0  0
   -0.7108   -0.6550    6.2147 H   0  0  0  0  0  0
   -2.2372   -1.5036    6.3144 H   0  0  0  0  0  0
   -2.2020    0.2345    6.0263 H   0  0  0  0  0  0
    4.7047    5.2366    8.1225 H   0  0  0  0  0  0
    6.3327    5.3867    8.7874 H   0  0  0  0  0  0
    4.9909    6.2376    9.5710 H   0  0  0  0  0  0
  1  2  2  0  0  0
  2  3  2  0  0  0
  2 11  1  0  0  0
  2 10  1  0  0  0
  4  8  2  0  0  0
  4  5  1  0  0  0
  4 30  1  0  0  0
  5  6  2  0  0  0
  5 31  1  0  0  0
  6  7  1  0  0  0
  6 17  1  0  0  0
  7  9  2  0  0  0
  7 32  1  0  0  0
  8  9  1  0  0  0
  8 10  1  0  0  0
  9 12  1  0  0  0
 10 16  1  0  0  0
 11 12  2  0  0  0
 11 15  1  0  0  0
 12 13  1  0  0  0
 13 14  1  0  0  0
 13 29  1  0  0  0
 14 15  2  0  0  0
 15 33  1  0  0  0
 16 34  1  0  0  0
 16 35  1  0  0  0
 16 36  1  0  0  0
 17 18  1  0  0  0
 17 37  1  0  0  0
 18 19  1  0  0  0
 18 38  1  0  0  0
 18 39  1  0  0  0
 19 20  2  0  0  0
 19 24  1  0  0  0
 20 21  1  0  0  0
 20 40  1  0  0  0
 21 22  2  0  0  0
 21 41  1  0  0  0
 22 23  1  0  0  0
 22 25  1  0  0  0
 23 24  2  0  0  0
 23 42  1  0  0  0
 24 43  1  0  0  0
 25 26  1  0  0  0
 25 27  1  0  0  0
 25 28  1  0  0  0
 26 44  1  0  0  0
 26 45  1  0  0  0
 26 46  1  0  0  0
 27 47  1  0  0  0
 27 48  1  0  0  0
 27 49  1  0  0  0
 28 50  1  0  0  0
 28 51  1  0  0  0
 28 52  1  0  0  0
 29 53  1  0  0  0
 29 54  1  0  0  0
 29 55  1  0  0  0
M  END
> <s_m_entry_id>
31921

> <s_m_entry_name>
dock_pv.184

> <s_m_Source_Path>
/home/csk/Desktop/cluster/DUD-E-result/src

> <s_m_Source_File>
dock_pv.maegz

> <i_m_Source_File_Index>
184

> <chembl_id>
CHEMBL2333444

> <chembl_pref_name>
None

> <i_lp_mmshare_version>
53161

> <r_lp_tautomer_probability>
1

> <s_lp_Force_Field>
OPLS_2005

> <r_lp_Energy>
26.333556

> <b_lp_Chiralities_Consistent>
1

> <s_lp_Variant>
CHEMBL267_lig2142-1

> <s_i_glide_gridfile>
glide-grid_3el8

> <i_i_glide_lignum>
2428

> <i_i_glide_rotatable_bonds>
4

> <r_i_docking_score>
-7.93694344720152

> <r_i_glide_ligand_efficiency>
-0.273687705075914

> <r_i_glide_ligand_efficiency_sa>
-0.840855340344275

> <r_i_glide_ligand_efficiency_ln>
-1.81735878588882

> <r_i_glide_gscore>
-7.93694344720152

> <r_i_glide_lipo>
-3.38083429343483

> <r_i_glide_hbond>
-0.32

> <r_i_glide_metal>
0

> <r_i_glide_rewards>
-1.22216967445952

> <r_i_glide_evdw>
-40.4150466918945

> <r_i_glide_ecoul>
-8.76566505432129

> <r_i_glide_erotb>
0.350682914299329

> <r_i_glide_esite>
-0.0290203008635763

> <r_i_glide_emodel>
-65.5598242539954

> <r_i_glide_energy>
-49.1807117462158

> <r_i_glide_einternal>
5.27562999725342

> <i_i_glide_confnum>
2

> <i_i_glide_posenum>
7

> <r_i_glide_eff_state_penalty>
0

> <s_user_duplicate_titles>
CHEMBL267_lig2142

> <i_f3d_flags>
0

> <s_m_subgroup_title>
dock_pv

> <s_m_subgroupid>
dock_pv

> <b_m_subgroup_collapsed>
1

$$$$
CHEMBL267_lig1813
                    3D
 Schrodinger Suite 2021-1.
 38 41  0  0  1  0            999 V2000
    7.5294    6.4822    7.5880 N   0  0  0  0  0  0
    7.9282    7.4398    6.7142 C   0  0  0  0  0  0
    7.1611    8.3838    6.1121 N   0  0  0  0  0  0
    6.2233    6.4867    7.9630 C   0  0  0  0  0  0
    5.3288    7.4370    7.4283 C   0  0  0  0  0  0
    5.8732    8.3275    6.4757 C   0  0  0  0  0  0
    4.8075    9.0677    5.9880 N   0  0  0  0  0  0
    3.6651    8.7324    6.6342 N   0  0  0  0  0  0
    3.9436    7.7903    7.5055 C   0  0  0  0  0  0
    2.9053    7.2288    8.4080 C   0  0  0  0  0  0
    3.1737    7.1517    9.7769 C   0  0  0  0  0  0
    2.2218    6.6370   10.6543 C   0  0  0  0  0  0
    1.0080    6.1497   10.1608 C   0  0  0  0  0  0
    0.7383    6.2129    8.7928 C   0  0  0  0  0  0
    1.6800    6.7609    7.9192 C   0  0  0  0  0  0
    5.7980    5.4479    8.7880 N   0  0  0  0  0  0
    0.0885    5.6213   11.0009 F   0  0  0  0  0  0
    2.4864    6.6370   11.9969 O   0  0  0  0  0  0
    4.8295   10.1566    4.9926 C   0  0  2  0  0  0
    3.4804   10.5599    4.3641 C   0  0  0  0  0  0
    3.6485   10.2370    2.8817 C   0  0  0  0  0  0
    5.0639   10.4271    2.6123 N   0  0  2  0  0  0
    5.7130    9.8370    3.7723 C   0  0  0  0  0  0
    8.9744    7.4370    6.4412 H   0  0  0  0  0  0
    4.1133    7.5217   10.1617 H   0  0  0  0  0  0
   -0.2020    5.8370    8.4134 H   0  0  0  0  0  0
    1.4643    6.8065    6.8611 H   0  0  0  0  0  0
    4.8285    5.3855    9.0637 H   0  0  0  0  0  0
    6.4805    4.7647    9.0956 H   0  0  0  0  0  0
    3.4184    6.7354   12.2067 H   0  0  0  0  0  0
    5.2362   10.9899    5.5679 H   0  0  0  0  0  0
    2.6087   10.0499    4.7734 H   0  0  0  0  0  0
    3.2872   11.6254    4.4959 H   0  0  0  0  0  0
    3.3366    9.2136    2.6627 H   0  0  0  0  0  0
    3.0637   10.9100    2.2525 H   0  0  0  0  0  0
    5.2610   11.4195    2.5779 H   0  0  0  0  0  0
    6.7382   10.1889    3.8967 H   0  0  0  0  0  0
    5.7597    8.7588    3.6029 H   0  0  0  0  0  0
  1  2  2  0  0  0
  1  4  1  0  0  0
  2  3  1  0  0  0
  2 24  1  0  0  0
  3  6  2  0  0  0
  4  5  2  0  0  0
  4 16  1  0  0  0
  5  9  1  0  0  0
  5  6  1  0  0  0
  6  7  1  0  0  0
  7  8  1  0  0  0
  7 19  1  0  0  0
  8  9  2  0  0  0
  9 10  1  0  0  0
 10 15  1  0  0  0
 10 11  2  0  0  0
 11 12  1  0  0  0
 11 25  1  0  0  0
 12 13  2  0  0  0
 12 18  1  0  0  0
 13 14  1  0  0  0
 13 17  1  0  0  0
 14 15  2  0  0  0
 14 26  1  0  0  0
 15 27  1  0  0  0
 16 28  1  0  0  0
 16 29  1  0  0  0
 18 30  1  0  0  0
 19 20  1  0  0  0
 19 23  1  0  0  0
 19 31  1  0  0  0
 20 21  1  0  0  0
 20 32  1  0  0  0
 20 33  1  0  0  0
 21 22  1  0  0  0
 21 34  1  0  0  0
 21 35  1  0  0  0
 22 23  1  0  0  0
 22 36  1  0  0  0
 23 37  1  0  0  0
 23 38  1  0  0  0
M  END
> <s_m_entry_id>
31922

> <s_m_entry_name>
dock_pv.185

> <s_m_Source_Path>
/home/csk/Desktop/cluster/DUD-E-result/src

> <s_m_Source_File>
dock_pv.maegz

> <i_m_Source_File_Index>
185

> <chembl_id>
CHEMBL1242658

> <chembl_pref_name>
None

> <i_lp_mmshare_version>
53161

> <r_lp_tautomer_probability>
0.999999999997365

> <s_lp_Force_Field>
OPLS_2005

> <r_lp_Energy>
31.108095

> <b_lp_Chiralities_Consistent>
1

> <s_lp_Variant>
CHEMBL267_lig1813-1

> <s_i_glide_gridfile>
glide-grid_3el8

> <i_i_glide_lignum>
2079

> <i_i_glide_rotatable_bonds>
3

> <r_i_docking_score>
-7.93389344242862

> <r_i_glide_ligand_efficiency>
-0.344951888801244

> <r_i_glide_ligand_efficiency_sa>
-0.980997285173984

> <r_i_glide_ligand_efficiency_ln>
-1.91848737494753

> <r_i_glide_gscore>
-7.93389344242862

> <r_i_glide_lipo>
-2.05919262577145

> <r_i_glide_hbond>
-0.451033591429741

> <r_i_glide_metal>
0

> <r_i_glide_rewards>
-2.92293883417369

> <r_i_glide_evdw>
-35.5942268371582

> <r_i_glide_ecoul>
-7.31521463394165

> <r_i_glide_erotb>
0.376265145895412

> <r_i_glide_esite>
0

> <r_i_glide_emodel>
-58.7753141697508

> <r_i_glide_energy>
-42.9094414710999

> <r_i_glide_einternal>
5.67399930953979

> <i_i_glide_confnum>
40

> <i_i_glide_posenum>
92

> <r_i_glide_eff_state_penalty>
0

> <s_user_duplicate_titles>
CHEMBL267_lig1813

> <i_f3d_flags>
0

> <s_m_subgroup_title>
dock_pv

> <s_m_subgroupid>
dock_pv

> <b_m_subgroup_collapsed>
1

$$$$
CHEMBL267_lig422
                    3D
 Schrodinger Suite 2021-1.
 46 49  0  0  1  0            999 V2000
    6.6248    8.7347    6.2475 C   0  0  0  0  0  0
    5.8353    9.7218    5.6814 N   0  0  0  0  0  0
    5.7804    7.8381    6.9712 C   0  0  0  0  0  0
    4.4222    8.2774    6.7575 C   0  0  0  0  0  0
    4.5219    9.3908    5.9381 C   0  0  0  0  0  0
    6.3032   10.8876    4.9093 C   0  0  1  0  0  0
    7.9576    8.6370    6.1559 N   0  0  0  0  0  0
    6.4612    6.8006    7.6481 C   0  0  0  0  0  0
    3.1479    7.7234    7.2851 C   0  0  0  0  0  0
    4.8431   11.2800    3.0755 N   0  0  2  0  0  0
    7.8082    6.6774    7.5879 N   0  0  0  0  0  0
    6.1360   10.6938    3.4005 C   0  0  0  0  0  0
    8.4731    7.5950    6.8491 C   0  0  0  0  0  0
    3.2017   11.8361    1.2515 C   0  0  0  0  0  0
    5.5023   12.1732    5.2031 C   0  0  0  0  0  0
    2.0559    7.6351    6.4182 C   0  0  0  0  0  0
    4.6652   11.5217    1.6338 C   0  0  0  0  0  0
    4.7863   12.4937    3.8883 C   0  0  0  0  0  0
    2.2670   11.7669    2.0478 O   0  0  0  0  0  0
    5.7999    5.8267    8.3879 N   0  0  0  0  0  0
    2.9901   12.1821   -0.0147 N   0  0  0  0  0  0
    0.8492    7.1037    6.8566 C   0  0  0  0  0  0
    3.0136    7.2788    8.6055 C   0  0  0  0  0  0
   -0.2019    7.0370    5.9879 O   0  0  0  0  0  0
    1.8032    6.7363    9.0434 C   0  0  0  0  0  0
    0.7194    6.6465    8.1690 C   0  0  0  0  0  0
    3.7359   10.0134    5.5356 H   0  0  0  0  0  0
    7.3503   10.9973    5.1981 H   0  0  0  0  0  0
    6.2049    9.6560    3.0722 H   0  0  0  0  0  0
    6.9253   11.2061    2.8460 H   0  0  0  0  0  0
    9.5442    7.4764    6.7891 H   0  0  0  0  0  0
    6.1728   12.9945    5.4441 H   0  0  0  0  0  0
    4.8110   12.0739    6.0399 H   0  0  0  0  0  0
    2.1440    7.9690    5.3934 H   0  0  0  0  0  0
    4.9578   10.6370    1.0704 H   0  0  0  0  0  0
    5.3141   12.3264    1.2813 H   0  0  0  0  0  0
    5.2500   13.3460    3.3851 H   0  0  0  0  0  0
    3.7447   12.7776    4.0489 H   0  0  0  0  0  0
    4.7919    5.8323    8.4369 H   0  0  0  0  0  0
    6.3459    5.0966    8.8214 H   0  0  0  0  0  0
    2.0530   12.3861   -0.3218 H   0  0  0  0  0  0
    3.7635   12.2481   -0.6705 H   0  0  0  0  0  0
    3.8375    7.3618    9.3010 H   0  0  0  0  0  0
   -0.9664    6.5943    6.3846 H   0  0  0  0  0  0
    1.7037    6.3876   10.0612 H   0  0  0  0  0  0
   -0.2135    6.2234    8.5144 H   0  0  0  0  0  0
  1  2  1  0  0  0
  1  3  2  0  0  0
  1  7  1  0  0  0
  2  5  1  0  0  0
  2  6  1  0  0  0
  3  4  1  0  0  0
  3  8  1  0  0  0
  4  9  1  0  0  0
  4  5  2  0  0  0
  5 27  1  0  0  0
  6 12  1  0  0  0
  6 15  1  0  0  0
  6 28  1  0  0  0
  7 13  2  0  0  0
  8 20  1  0  0  0
  8 11  2  0  0  0
  9 16  2  0  0  0
  9 23  1  0  0  0
 10 12  1  0  0  0
 10 17  1  0  0  0
 10 18  1  0  0  0
 11 13  1  0  0  0
 12 29  1  0  0  0
 12 30  1  0  0  0
 13 31  1  0  0  0
 14 17  1  0  0  0
 14 19  2  0  0  0
 14 21  1  0  0  0
 15 18  1  0  0  0
 15 32  1  0  0  0
 15 33  1  0  0  0
 16 22  1  0  0  0
 16 34  1  0  0  0
 17 35  1  0  0  0
 17 36  1  0  0  0
 18 37  1  0  0  0
 18 38  1  0  0  0
 20 39  1  0  0  0
 20 40  1  0  0  0
 21 41  1  0  0  0
 21 42  1  0  0  0
 22 24  1  0  0  0
 22 26  2  0  0  0
 23 25  2  0  0  0
 23 43  1  0  0  0
 24 44  1  0  0  0
 25 26  1  0  0  0
 25 45  1  0  0  0
 26 46  1  0  0  0
M  END
> <s_m_entry_id>
31923

> <s_m_entry_name>
dock_pv.186

> <s_m_Source_Path>
/home/csk/Desktop/cluster/DUD-E-result/src

> <s_m_Source_File>
dock_pv.maegz

> <i_m_Source_File_Index>
186

> <chembl_id>
CHEMBL408683

> <chembl_pref_name>
None

> <i_lp_mmshare_version>
53161

> <r_lp_tautomer_probability>
0.999999999997365

> <s_lp_Force_Field>
OPLS_2005

> <r_lp_Energy>
33.239967

> <b_lp_Chiralities_Consistent>
1

> <s_lp_Variant>
CHEMBL267_lig422-2

> <s_i_glide_gridfile>
glide-grid_3el8

> <i_i_glide_lignum>
501

> <i_i_glide_rotatable_bonds>
5

> <r_i_docking_score>
-7.93365952847787

> <r_i_glide_ligand_efficiency>
-0.305140751095303

> <r_i_glide_ligand_efficiency_sa>
-0.903978274448956

> <r_i_glide_ligand_efficiency_ln>
-1.86319390780281

> <r_i_glide_gscore>
-7.93365952847787

> <r_i_glide_lipo>
-2.10713693184563

> <r_i_glide_hbond>
-0.637818894451787

> <r_i_glide_metal>
0

> <r_i_glide_rewards>
-2.47373317924823

> <r_i_glide_evdw>
-34.3646812438965

> <r_i_glide_ecoul>
-9.10889530181885

> <r_i_glide_erotb>
0.461051978563439

> <r_i_glide_esite>
-0.0914541440280083

> <r_i_glide_emodel>
-64.2162606380755

> <r_i_glide_energy>
-43.4735765457153

> <r_i_glide_einternal>
2.08294486999512

> <i_i_glide_confnum>
24

> <i_i_glide_posenum>
300

> <r_i_glide_eff_state_penalty>
0

> <s_user_duplicate_titles>
CHEMBL267_lig422

> <i_f3d_flags>
0

> <s_m_subgroup_title>
dock_pv

> <s_m_subgroupid>
dock_pv

> <b_m_subgroup_collapsed>
1

$$$$
CHEMBL267_lig433
                    3D
 Schrodinger Suite 2021-1.
 39 42  0  0  1  0            999 V2000
    5.7534    8.3285    6.4900 C   0  0  0  0  0  0
    5.2333    7.4369    7.4782 C   0  0  0  0  0  0
    4.7005    9.0777    5.9872 N   0  0  0  0  0  0
    3.8269    7.7369    7.6286 C   0  0  0  0  0  0
    3.5638    8.7103    6.6785 C   0  0  0  0  0  0
    7.0317    8.3821    6.0886 N   0  0  0  0  0  0
    6.1701    6.5037    7.9815 C   0  0  0  0  0  0
    7.4681    6.5209    7.5883 N   0  0  0  0  0  0
    2.8256    7.1487    8.5654 C   0  0  0  0  0  0
    7.8280    7.4643    6.6881 C   0  0  0  0  0  0
    4.7679   10.0800    4.9042 C   0  0  1  0  0  0
    3.0115   11.6614    5.2025 N   0  0  2  0  0  0
    3.1510    6.9259    9.9062 C   0  0  0  0  0  0
    1.5498    6.8138    8.0977 C   0  0  0  0  0  0
    5.7962    5.4370    8.7880 N   0  0  0  0  0  0
    0.9337    6.0653   10.3031 C   0  0  0  0  0  0
    3.7262    9.8293    3.8035 C   0  0  0  0  0  0
    0.6042    6.2707    8.9657 C   0  0  0  0  0  0
    2.2019    6.3924   10.7753 C   0  0  0  0  0  0
    4.4466   11.4995    5.3801 C   0  0  0  0  0  0
    0.0012    5.5565   11.1659 O   0  0  0  0  0  0
    2.7094   10.9678    3.9577 C   0  0  0  0  0  0
    2.6308    9.2033    6.4440 H   0  0  0  0  0  0
    8.8667    7.4658    6.3881 H   0  0  0  0  0  0
    5.7850    9.9988    4.5191 H   0  0  0  0  0  0
    2.7682   12.6393    5.1235 H   0  0  0  0  0  0
    4.1303    7.1827   10.2839 H   0  0  0  0  0  0
    1.2901    6.9683    7.0603 H   0  0  0  0  0  0
    4.8361    5.3538    9.0931 H   0  0  0  0  0  0
    6.5030    4.7700    9.0742 H   0  0  0  0  0  0
    4.2005    9.8814    2.8229 H   0  0  0  0  0  0
    3.2563    8.8484    3.8822 H   0  0  0  0  0  0
   -0.3780    6.0113    8.5993 H   0  0  0  0  0  0
    2.4522    6.2367   11.8143 H   0  0  0  0  0  0
    4.7724   11.6880    6.4032 H   0  0  0  0  0  0
    4.9676   12.2244    4.7511 H   0  0  0  0  0  0
   -0.8848    5.5157   10.7897 H   0  0  0  0  0  0
    2.7680   11.6536    3.1100 H   0  0  0  0  0  0
    1.6883   10.5849    3.9844 H   0  0  0  0  0  0
  1  2  2  0  0  0
  1  3  1  0  0  0
  1  6  1  0  0  0
  2  4  1  0  0  0
  2  7  1  0  0  0
  3  5  1  0  0  0
  3 11  1  0  0  0
  4  9  1  0  0  0
  4  5  2  0  0  0
  5 23  1  0  0  0
  6 10  2  0  0  0
  7 15  1  0  0  0
  7  8  2  0  0  0
  8 10  1  0  0  0
  9 13  2  0  0  0
  9 14  1  0  0  0
 10 24  1  0  0  0
 11 17  1  0  0  0
 11 20  1  0  0  0
 11 25  1  0  0  0
 12 20  1  0  0  0
 12 22  1  0  0  0
 12 26  1  0  0  0
 13 19  1  0  0  0
 13 27  1  0  0  0
 14 18  2  0  0  0
 14 28  1  0  0  0
 15 29  1  0  0  0
 15 30  1  0  0  0
 16 18  1  0  0  0
 16 21  1  0  0  0
 16 19  2  0  0  0
 17 22  1  0  0  0
 17 31  1  0  0  0
 17 32  1  0  0  0
 18 33  1  0  0  0
 19 34  1  0  0  0
 20 35  1  0  0  0
 20 36  1  0  0  0
 21 37  1  0  0  0
 22 38  1  0  0  0
 22 39  1  0  0  0
M  END
> <s_m_entry_id>
31925

> <s_m_entry_name>
dock_pv.188

> <s_m_Source_Path>
/home/csk/Desktop/cluster/DUD-E-result/src

> <s_m_Source_File>
dock_pv.maegz

> <i_m_Source_File_Index>
188

> <chembl_id>
CHEMBL354033

> <chembl_pref_name>
None

> <i_lp_mmshare_version>
53161

> <r_lp_tautomer_probability>
0.999999999997365

> <s_lp_Force_Field>
OPLS_2005

> <r_lp_Energy>
34.37461

> <b_lp_Chiralities_Consistent>
1

> <s_lp_Variant>
CHEMBL267_lig433-2

> <s_i_glide_gridfile>
glide-grid_3el8

> <i_i_glide_lignum>
516

> <i_i_glide_rotatable_bonds>
3

> <r_i_docking_score>
-7.93202173428299

> <r_i_glide_ligand_efficiency>
-0.360546442467409

> <r_i_glide_ligand_efficiency_sa>
-1.01026531128063

> <r_i_glide_ligand_efficiency_ln>
-1.93887543938138

> <r_i_glide_gscore>
-7.93202173428299

> <r_i_glide_lipo>
-2.0377538135064

> <r_i_glide_hbond>
-0.43566728058706

> <r_i_glide_metal>
0

> <r_i_glide_rewards>
-3.21817986648931

> <r_i_glide_evdw>
-34.9617500305176

> <r_i_glide_ecoul>
-6.08000564575195

> <r_i_glide_erotb>
0.41966757468845

> <r_i_glide_esite>
0

> <r_i_glide_emodel>
-60.0657119277432

> <r_i_glide_energy>
-41.0417556762695

> <r_i_glide_einternal>
0.414137244224548

> <i_i_glide_confnum>
25

> <i_i_glide_posenum>
79

> <r_i_glide_eff_state_penalty>
0

> <s_user_duplicate_titles>
CHEMBL267_lig433,282205

> <i_f3d_flags>
0

> <s_m_subgroup_title>
dock_pv

> <s_m_subgroupid>
dock_pv

> <b_m_subgroup_collapsed>
1

$$$$
CHEMBL267_lig1545
                    3D
 Schrodinger Suite 2021-1.
 43 45  0  0  1  0            999 V2000
    7.7990    6.6372    7.1675 N   0  0  0  0  0  0
    7.0799    5.8390    7.9871 C   0  0  0  0  0  0
    5.7980    5.9992    8.3859 N   0  0  0  0  0  0
    7.1473    7.6717    6.5889 C   0  0  0  0  0  0
    5.7792    7.9120    6.8374 C   0  0  0  0  0  0
    5.1910    7.0361    7.7978 C   0  0  0  0  0  0
    3.8864    7.4305    7.9950 N   0  0  0  0  0  0
    3.6193    8.4697    7.1288 C   0  0  0  0  0  0
    4.7439    8.8125    6.3872 C   0  0  0  0  0  0
    4.8292    9.8725    5.3388 C   0  0  0  0  0  0
    4.2894   11.1398    5.5804 C   0  0  0  0  0  0
    4.3976   12.1442    4.6210 C   0  0  0  0  0  0
    5.0414   11.8784    3.4148 C   0  0  0  0  0  0
    5.5742   10.6175    3.1593 C   0  0  0  0  0  0
    5.4665    9.6158    4.1209 C   0  0  0  0  0  0
    7.9054    8.4592    5.7337 N   0  0  0  0  0  0
    2.9425    6.8373    8.9338 C   0  0  0  0  0  0
    2.2438    5.5747    8.3579 C   0  0  0  0  0  0
    0.9578    5.1753    9.1440 C   0  0  0  0  0  0
    0.1994    3.9421    8.5954 C   0  0  0  0  0  0
   -0.0276    6.3512    9.2811 C   0  0  0  0  0  0
   -0.2010    7.0384    8.0530 O   0  0  0  0  0  0
    0.9982    2.7831    8.5799 O   0  0  0  0  0  0
    7.6143    5.0064    8.4096 H   0  0  0  0  0  0
    2.6248    8.8925    7.1064 H   0  0  0  0  0  0
    3.7980   11.3532    6.5161 H   0  0  0  0  0  0
    3.9870   13.1255    4.8087 H   0  0  0  0  0  0
    5.1255   12.6553    2.6683 H   0  0  0  0  0  0
    6.0659   10.4216    2.2183 H   0  0  0  0  0  0
    5.8710    8.6369    3.9129 H   0  0  0  0  0  0
    7.4838    9.2630    5.2919 H   0  0  0  0  0  0
    8.8714    8.2008    5.5829 H   0  0  0  0  0  0
    3.4618    6.6026    9.8652 H   0  0  0  0  0  0
    2.2330    7.6244    9.1804 H   0  0  0  0  0  0
    1.9834    5.7402    7.3110 H   0  0  0  0  0  0
    2.9481    4.7416    8.3559 H   0  0  0  0  0  0
    1.2693    4.9137   10.1569 H   0  0  0  0  0  0
   -0.6921    3.7435    9.1931 H   0  0  0  0  0  0
   -0.1713    4.1356    7.5880 H   0  0  0  0  0  0
   -1.0020    5.9842    9.5884 H   0  0  0  0  0  0
    0.3007    7.0361   10.0564 H   0  0  0  0  0  0
   -0.8677    6.5426    7.5473 H   0  0  0  0  0  0
    0.4282    2.0125    8.5059 H   0  0  0  0  0  0
  1  2  2  0  0  0
  1  4  1  0  0  0
  2  3  1  0  0  0
  2 24  1  0  0  0
  3  6  2  0  0  0
  4  5  2  0  0  0
  4 16  1  0  0  0
  5  9  1  0  0  0
  5  6  1  0  0  0
  6  7  1  0  0  0
  7 17  1  0  0  0
  7  8  1  0  0  0
  8  9  2  0  0  0
  8 25  1  0  0  0
  9 10  1  0  0  0
 10 15  1  0  0  0
 10 11  2  0  0  0
 11 12  1  0  0  0
 11 26  1  0  0  0
 12 13  2  0  0  0
 12 27  1  0  0  0
 13 14  1  0  0  0
 13 28  1  0  0  0
 14 15  2  0  0  0
 14 29  1  0  0  0
 15 30  1  0  0  0
 16 31  1  0  0  0
 16 32  1  0  0  0
 17 18  1  0  0  0
 17 33  1  0  0  0
 17 34  1  0  0  0
 18 19  1  0  0  0
 18 35  1  0  0  0
 18 36  1  0  0  0
 19 20  1  0  0  0
 19 21  1  0  0  0
 19 37  1  0  0  0
 20 23  1  0  0  0
 20 38  1  0  0  0
 20 39  1  0  0  0
 21 22  1  0  0  0
 21 40  1  0  0  0
 21 41  1  0  0  0
 22 42  1  0  0  0
 23 43  1  0  0  0
M  END
> <s_m_entry_id>
31926

> <s_m_entry_name>
dock_pv.189

> <s_m_Source_Path>
/home/csk/Desktop/cluster/DUD-E-result/src

> <s_m_Source_File>
dock_pv.maegz

> <i_m_Source_File_Index>
189

> <chembl_id>
CHEMBL475189

> <chembl_pref_name>
None

> <i_lp_mmshare_version>
53161

> <r_lp_tautomer_probability>
1

> <s_lp_Force_Field>
OPLS_2005

> <r_lp_Energy>
15.939389

> <b_lp_Chiralities_Consistent>
1

> <s_lp_Variant>
CHEMBL267_lig1545-1

> <s_i_glide_gridfile>
glide-grid_3el8

> <i_i_glide_lignum>
1726

> <i_i_glide_rotatable_bonds>
8

> <r_i_docking_score>
-7.92565579684837

> <r_i_glide_ligand_efficiency>
-0.344593730297755

> <r_i_glide_ligand_efficiency_sa>
-0.979978730033423

> <r_i_glide_ligand_efficiency_ln>
-1.91649543755139

> <r_i_glide_gscore>
-7.92565579684837

> <r_i_glide_lipo>
-2.37553491108518

> <r_i_glide_hbond>
-0.674812259519051

> <r_i_glide_metal>
0

> <r_i_glide_rewards>
-2.92549509834699

> <r_i_glide_evdw>
-28.818977355957

> <r_i_glide_ecoul>
-8.71813201904297

> <r_i_glide_erotb>
0.798855142757146

> <r_i_glide_esite>
0

> <r_i_glide_emodel>
-54.8942349392948

> <r_i_glide_energy>
-37.537109375

> <r_i_glide_einternal>
4.30126857757568

> <i_i_glide_confnum>
35

> <i_i_glide_posenum>
246

> <r_i_glide_eff_state_penalty>
0

> <s_user_duplicate_titles>
CHEMBL267_lig1545

> <i_f3d_flags>
0

> <s_m_subgroup_title>
dock_pv

> <s_m_subgroupid>
dock_pv

> <b_m_subgroup_collapsed>
1

$$$$
CHEMBL267_lig3711
                    3D
 Schrodinger Suite 2021-1.
 33 35  0  0  1  0            999 V2000
    8.0301    6.6368    7.5870 O   0  0  0  0  0  0
    6.4781    9.4305    4.7892 N   0  0  0  0  0  0
    8.5962    8.2371    6.1763 N   0  0  0  0  0  0
   -0.2019    5.6273    9.1880 N   0  0  0  0  0  0
    5.6833    8.8910    5.7686 C   0  0  0  0  0  0
    6.2255    8.0280    6.7973 C   0  0  0  0  0  0
    4.2783    9.1784    5.7738 C   0  0  0  0  0  0
    3.9765    7.8278    7.7818 C   0  0  0  0  0  0
    5.3414    7.5349    7.7699 C   0  0  0  0  0  0
    3.4516    8.6364    6.7783 C   0  0  0  0  0  0
    3.0913    7.2753    8.8439 C   0  0  0  0  0  0
    7.6807    7.5807    6.8811 C   0  0  0  0  0  0
    3.7429   10.0105    4.7572 C   0  0  0  0  0  0
    1.8524    6.7040    8.5217 C   0  0  0  0  0  0
    3.4752    7.3160   10.1911 C   0  0  0  0  0  0
    5.9371   10.2294    3.8394 C   0  0  0  0  0  0
    4.5844   10.5366    3.7840 C   0  0  0  0  0  0
    1.0252    6.1879    9.5195 C   0  0  0  0  0  0
    2.6550    6.7905   11.1874 C   0  0  0  0  0  0
    1.4227    6.2369   10.8535 C   0  0  0  0  0  0
    8.3109    8.9930    5.5725 H   0  0  0  0  0  0
    9.5457    7.8880    6.1491 H   0  0  0  0  0  0
   -0.8729    5.4648    9.9297 H   0  0  0  0  0  0
   -0.5564    5.7265    8.2439 H   0  0  0  0  0  0
    5.7185    6.8824    8.5459 H   0  0  0  0  0  0
    2.3970    8.8697    6.7672 H   0  0  0  0  0  0
    2.6855   10.2304    4.7426 H   0  0  0  0  0  0
    1.5389    6.6503    7.4888 H   0  0  0  0  0  0
    4.4174    7.7581   10.4756 H   0  0  0  0  0  0
    6.6180   10.6280    3.1024 H   0  0  0  0  0  0
    4.1948   11.1747    3.0032 H   0  0  0  0  0  0
    2.9709    6.8228   12.2201 H   0  0  0  0  0  0
    0.7852    5.8370   11.6305 H   0  0  0  0  0  0
  1 12  2  0  0  0
  2  5  2  0  0  0
  2 16  1  0  0  0
  3 12  1  0  0  0
  3 21  1  0  0  0
  3 22  1  0  0  0
  4 18  1  0  0  0
  4 23  1  0  0  0
  4 24  1  0  0  0
  5  6  1  0  0  0
  5  7  1  0  0  0
  6  9  2  0  0  0
  6 12  1  0  0  0
  7 10  1  0  0  0
  7 13  2  0  0  0
  8  9  1  0  0  0
  8 10  2  0  0  0
  8 11  1  0  0  0
  9 25  1  0  0  0
 10 26  1  0  0  0
 11 14  1  0  0  0
 11 15  2  0  0  0
 13 17  1  0  0  0
 13 27  1  0  0  0
 14 18  2  0  0  0
 14 28  1  0  0  0
 15 19  1  0  0  0
 15 29  1  0  0  0
 16 17  2  0  0  0
 16 30  1  0  0  0
 17 31  1  0  0  0
 18 20  1  0  0  0
 19 20  2  0  0  0
 19 32  1  0  0  0
 20 33  1  0  0  0
M  END
> <s_m_entry_id>
31927

> <s_m_entry_name>
dock_pv.190

> <s_m_Source_Path>
/home/csk/Desktop/cluster/DUD-E-result/src

> <s_m_Source_File>
dock_pv.maegz

> <i_m_Source_File_Index>
190

> <chembl_id>
CHEMBL1970314

> <chembl_pref_name>
None

> <i_lp_mmshare_version>
53161

> <r_lp_tautomer_probability>
1

> <s_lp_Force_Field>
OPLS_2005

> <r_lp_Energy>
23.802917

> <b_lp_Chiralities_Consistent>
1

> <s_lp_Variant>
CHEMBL267_lig3711-1

> <s_i_glide_gridfile>
glide-grid_3el8

> <i_i_glide_lignum>
4519

> <i_i_glide_rotatable_bonds>
2

> <r_i_docking_score>
-7.91762151904316

> <r_i_glide_ligand_efficiency>
-0.395881075952158

> <r_i_glide_ligand_efficiency_sa>
-1.07458656556803

> <r_i_glide_ligand_efficiency_ln>
-1.98151952558144

> <r_i_glide_gscore>
-7.91762151904316

> <r_i_glide_lipo>
-2.57460160141856

> <r_i_glide_hbond>
-0.72180282591053

> <r_i_glide_metal>
0

> <r_i_glide_rewards>
-2.16390509090909

> <r_i_glide_evdw>
-32.7972145080566

> <r_i_glide_ecoul>
-6.79812669754028

> <r_i_glide_erotb>
0.256133936522098

> <r_i_glide_esite>
-0.0538662072932028

> <r_i_glide_emodel>
-58.1449626197076

> <r_i_glide_energy>
-39.5953412055969

> <r_i_glide_einternal>
1.17949366569519

> <i_i_glide_confnum>
2

> <i_i_glide_posenum>
311

> <r_i_glide_eff_state_penalty>
0

> <s_user_duplicate_titles>
CHEMBL267_lig3711

> <i_f3d_flags>
0

> <s_m_subgroup_title>
dock_pv

> <s_m_subgroupid>
dock_pv

> <b_m_subgroup_collapsed>
1

$$$$
CHEMBL267_lig3394
                    3D
 Schrodinger Suite 2021-1.
 52 54  0  0  1  0            999 V2000
    2.3855    8.0969    7.1344 C   0  0  0  0  0  0
    1.2880    8.4057    6.3449 N   0  0  0  0  0  0
    1.8577    7.3823    8.2385 C   0  0  0  0  0  0
    3.6802    8.3673    6.9363 N   0  0  0  0  0  0
    0.4977    7.2658    8.1292 N   0  0  0  0  0  0
    4.1170    7.1511    8.9887 N   0  0  0  0  0  0
    4.4982    7.8140    7.8726 C   0  0  0  0  0  0
    2.7962    6.9370    9.1960 C   0  0  0  0  0  0
    0.2074    7.8488    6.9964 C   0  0  0  0  0  0
    2.5063    6.2366   10.3769 N   0  0  0  0  0  0
    5.8858    7.8412    7.7017 N   0  0  0  0  0  0
    1.2227    9.1631    5.0911 C   0  0  0  0  0  0
    1.1660    5.8101   10.7829 C   0  0  0  0  0  0
    0.5822    4.6694    9.9453 C   0  0  0  0  0  0
    6.6137    8.5305    6.6340 C   0  0  1  0  0  0
    8.5979    7.0730    6.7896 O   0  0  0  0  0  0
    2.1185    8.5404    4.0088 C   0  0  0  0  0  0
    1.5554   10.6429    5.3530 C   0  0  0  0  0  0
    8.1392    8.4094    6.8581 C   0  0  0  0  0  0
   -0.7908    4.4385   10.0003 C   0  0  0  0  0  0
    1.3752    3.8381    9.1532 C   0  0  0  0  0  0
    6.2243    8.1129    5.1903 C   0  0  0  0  0  0
    6.0790    9.3107    4.2388 C   0  0  0  0  0  0
    0.7794    2.8419    8.3885 C   0  0  0  0  0  0
   -1.3932    3.4615    9.2124 C   0  0  0  0  0  0
   -0.6000    2.6621    8.4008 C   0  0  0  0  0  0
   -0.7812    7.9238    6.5638 H   0  0  0  0  0  0
    3.2920    5.9617   10.9535 H   0  0  0  0  0  0
    6.4302    7.3458    8.3903 H   0  0  0  0  0  0
    0.1979    9.0936    4.7258 H   0  0  0  0  0  0
    1.1953    5.4967   11.8264 H   0  0  0  0  0  0
    0.4823    6.6564   10.7393 H   0  0  0  0  0  0
    6.3587    9.5843    6.7593 H   0  0  0  0  0  0
    9.2226    6.9929    6.0511 H   0  0  0  0  0  0
    1.9692    9.0335    3.0473 H   0  0  0  0  0  0
    1.8885    7.4834    3.8670 H   0  0  0  0  0  0
    3.1744    8.6363    4.2557 H   0  0  0  0  0  0
    1.4471   11.2355    4.4441 H   0  0  0  0  0  0
    0.8914   11.0724    6.1038 H   0  0  0  0  0  0
    2.5800   10.7684    5.7056 H   0  0  0  0  0  0
    8.6857    9.0343    6.1500 H   0  0  0  0  0  0
    8.3931    8.7762    7.8536 H   0  0  0  0  0  0
   -1.3981    5.0380   10.6540 H   0  0  0  0  0  0
    2.4451    3.9722    9.1145 H   0  0  0  0  0  0
    6.9599    7.4199    4.7807 H   0  0  0  0  0  0
    5.2974    7.5469    5.1885 H   0  0  0  0  0  0
    5.8323    8.9827    3.2292 H   0  0  0  0  0  0
    5.2802    9.9751    4.5690 H   0  0  0  0  0  0
    6.9979    9.8948    4.1881 H   0  0  0  0  0  0
    1.3913    2.2378    7.7476 H   0  0  0  0  0  0
   -2.4632    3.3165    9.2446 H   0  0  0  0  0  0
   -1.0600    1.8932    7.7975 H   0  0  0  0  0  0
  1  2  1  0  0  0
  1  3  2  0  0  0
  1  4  1  0  0  0
  2  9  1  0  0  0
  2 12  1  0  0  0
  3  5  1  0  0  0
  3  8  1  0  0  0
  4  7  2  0  0  0
  5  9  2  0  0  0
  6  7  1  0  0  0
  6  8  2  0  0  0
  7 11  1  0  0  0
  8 10  1  0  0  0
  9 27  1  0  0  0
 10 13  1  0  0  0
 10 28  1  0  0  0
 11 15  1  0  0  0
 11 29  1  0  0  0
 12 17  1  0  0  0
 12 18  1  0  0  0
 12 30  1  0  0  0
 13 14  1  0  0  0
 13 31  1  0  0  0
 13 32  1  0  0  0
 14 20  2  0  0  0
 14 21  1  0  0  0
 15 19  1  0  0  0
 15 22  1  0  0  0
 15 33  1  0  0  0
 16 19  1  0  0  0
 16 34  1  0  0  0
 17 35  1  0  0  0
 17 36  1  0  0  0
 17 37  1  0  0  0
 18 38  1  0  0  0
 18 39  1  0  0  0
 18 40  1  0  0  0
 19 41  1  0  0  0
 19 42  1  0  0  0
 20 25  1  0  0  0
 20 43  1  0  0  0
 21 24  2  0  0  0
 21 44  1  0  0  0
 22 23  1  0  0  0
 22 45  1  0  0  0
 22 46  1  0  0  0
 23 47  1  0  0  0
 23 48  1  0  0  0
 23 49  1  0  0  0
 24 26  1  0  0  0
 24 50  1  0  0  0
 25 26  2  0  0  0
 25 51  1  0  0  0
 26 52  1  0  0  0
M  END
> <s_m_entry_id>
31928

> <s_m_entry_name>
dock_pv.191

> <s_m_Source_Path>
/home/csk/Desktop/cluster/DUD-E-result/src

> <s_m_Source_File>
dock_pv.maegz

> <i_m_Source_File_Index>
191

> <chembl_id>
CHEMBL52387

> <chembl_pref_name>
(RS)-ROSCOVITINE

> <i_lp_mmshare_version>
53161

> <r_lp_tautomer_probability>
1

> <s_lp_Force_Field>
OPLS_2005

> <r_lp_Energy>
16.196584

> <b_lp_Chiralities_Consistent>
1

> <s_lp_Variant>
CHEMBL267_lig3394-2

> <s_i_glide_gridfile>
glide-grid_3el8

> <i_i_glide_lignum>
4044

> <i_i_glide_rotatable_bonds>
9

> <r_i_docking_score>
-7.91690135417547

> <r_i_glide_ligand_efficiency>
-0.304496205929826

> <r_i_glide_ligand_efficiency_sa>
-0.902068811932395

> <r_i_glide_ligand_efficiency_ln>
-1.85925830555595

> <r_i_glide_gscore>
-7.91690135417547

> <r_i_glide_lipo>
-3.01532144437443

> <r_i_glide_hbond>
-0.760164095171515

> <r_i_glide_metal>
0

> <r_i_glide_rewards>
-2.01640313283255

> <r_i_glide_evdw>
-35.7099189758301

> <r_i_glide_ecoul>
-8.17145919799805

> <r_i_glide_erotb>
0.912594160958804

> <r_i_glide_esite>
-0.0263920142645742

> <r_i_glide_emodel>
-58.5172227361799

> <r_i_glide_energy>
-43.8813781738281

> <r_i_glide_einternal>
9.01415538787842

> <i_i_glide_confnum>
8

> <i_i_glide_posenum>
141

> <r_i_glide_eff_state_penalty>
0

> <s_user_duplicate_titles>
CHEMBL267_lig3394

> <i_f3d_flags>
0

> <s_m_subgroup_title>
dock_pv

> <s_m_subgroupid>
dock_pv

> <b_m_subgroup_collapsed>
1

$$$$
CHEMBL267_lig1759
                    3D
 Schrodinger Suite 2021-1.
 44 47  0  0  1  0            999 V2000
    1.0991    5.9218    7.6025 N   0  0  0  0  0  0
    1.4225    7.1958    7.2343 C   0  0  0  0  0  0
    2.1668    8.0660    7.9673 N   0  0  0  0  0  0
    1.5686    5.4317    8.7799 C   0  0  0  0  0  0
    2.3422    6.2893    9.5741 C   0  0  0  0  0  0
    2.6155    7.6009    9.1263 C   0  0  0  0  0  0
    3.3980    8.2852   10.0099 N   0  0  0  0  0  0
    3.6200    7.4370   10.9744 C   0  0  0  0  0  0
    2.9945    6.2370   10.7848 N   0  0  0  0  0  0
    1.2861    4.0962    9.1121 N   0  0  0  0  0  0
    0.0807    3.4016    8.9075 C   0  0  0  0  0  0
   -1.1269    4.0099    9.2460 C   0  0  0  0  0  0
   -2.3205    3.2968    9.1880 C   0  0  0  0  0  0
   -2.3170    1.9642    8.7880 C   0  0  0  0  0  0
   -1.1334    1.3395    8.3880 C   0  0  0  0  0  0
    0.0678    2.0655    8.4775 C   0  0  0  0  0  0
    1.0846    7.6035    5.9468 N   0  0  0  0  0  0
   -0.0135    6.9834    5.1880 C   0  0  0  0  0  0
    0.1980    7.0368    3.6694 C   0  0  0  0  0  0
    0.4350    8.3892    3.1880 N   0  0  0  0  0  0
    1.6078    8.9281    3.8554 C   0  0  0  0  0  0
    1.4098    8.9357    5.3872 C   0  0  0  0  0  0
   -1.1776   -0.4160    7.9484 S   0  0  0  0  0  0
   -1.8020   -0.5185    6.3323 N   0  0  0  0  0  0
    0.1980   -0.9112    7.9020 O   0  0  0  0  0  0
   -2.1884   -1.0612    8.7880 O   0  0  0  0  0  0
    3.1279    5.4487   11.4091 H   0  0  0  0  0  0
    4.2268    7.5974   11.8555 H   0  0  0  0  0  0
    1.7735    3.7873    9.9382 H   0  0  0  0  0  0
   -1.1493    5.0370    9.5821 H   0  0  0  0  0  0
   -3.2464    3.7758    9.4659 H   0  0  0  0  0  0
   -3.2505    1.4182    8.7880 H   0  0  0  0  0  0
    0.9980    1.5715    8.2845 H   0  0  0  0  0  0
   -0.9394    7.5054    5.4346 H   0  0  0  0  0  0
   -0.1703    5.9451    5.4815 H   0  0  0  0  0  0
    1.0185    6.3830    3.3679 H   0  0  0  0  0  0
   -0.6909    6.6395    3.1880 H   0  0  0  0  0  0
    0.5654    8.3503    2.1777 H   0  0  0  0  0  0
    2.4911    8.3494    3.5802 H   0  0  0  0  0  0
    1.7893    9.9373    3.4843 H   0  0  0  0  0  0
    2.3093    9.3482    5.8443 H   0  0  0  0  0  0
    0.5980    9.6206    5.6361 H   0  0  0  0  0  0
   -2.6982   -0.0151    6.2558 H   0  0  0  0  0  0
   -1.1340   -0.1937    5.6308 H   0  0  0  0  0  0
  1  2  2  0  0  0
  1  4  1  0  0  0
  2 17  1  0  0  0
  2  3  1  0  0  0
  3  6  2  0  0  0
  4 10  1  0  0  0
  4  5  2  0  0  0
  5  9  1  0  0  0
  5  6  1  0  0  0
  6  7  1  0  0  0
  7  8  2  0  0  0
  8  9  1  0  0  0
  8 28  1  0  0  0
  9 27  1  0  0  0
 10 11  1  0  0  0
 10 29  1  0  0  0
 11 16  1  0  0  0
 11 12  2  0  0  0
 12 13  1  0  0  0
 12 30  1  0  0  0
 13 14  2  0  0  0
 13 31  1  0  0  0
 14 15  1  0  0  0
 14 32  1  0  0  0
 15 16  2  0  0  0
 15 23  1  0  0  0
 16 33  1  0  0  0
 17 18  1  0  0  0
 17 22  1  0  0  0
 18 19  1  0  0  0
 18 34  1  0  0  0
 18 35  1  0  0  0
 19 20  1  0  0  0
 19 36  1  0  0  0
 19 37  1  0  0  0
 20 21  1  0  0  0
 20 38  1  0  0  0
 21 22  1  0  0  0
 21 39  1  0  0  0
 21 40  1  0  0  0
 22 41  1  0  0  0
 22 42  1  0  0  0
 23 24  1  0  0  0
 23 25  2  0  0  0
 23 26  2  0  0  0
 24 43  1  0  0  0
 24 44  1  0  0  0
M  END
> <s_m_entry_id>
31929

> <s_m_entry_name>
dock_pv.192

> <s_m_Source_Path>
/home/csk/Desktop/cluster/DUD-E-result/src

> <s_m_Source_File>
dock_pv.maegz

> <i_m_Source_File_Index>
192

> <chembl_id>
CHEMBL1173309

> <chembl_pref_name>
None

> <i_lp_mmshare_version>
53161

> <r_lp_tautomer_probability>
0.0419191988452545

> <s_lp_Force_Field>
OPLS_2005

> <r_lp_Energy>
40.043932

> <b_lp_Chiralities_Consistent>
1

> <s_lp_Variant>
CHEMBL267_lig1759-2

> <s_i_glide_gridfile>
glide-grid_3el8

> <i_i_glide_lignum>
1997

> <i_i_glide_rotatable_bonds>
4

> <r_i_docking_score>
-7.9151294219954

> <r_i_glide_ligand_efficiency>
-0.304428054692131

> <r_i_glide_ligand_efficiency_sa>
-0.901866914158884

> <r_i_glide_ligand_efficiency_ln>
-1.85884217309764

> <r_i_glide_gscore>
-7.9151294219954

> <r_i_glide_lipo>
-2.12743302441733

> <r_i_glide_hbond>
-0.624422664023505

> <r_i_glide_metal>
0

> <r_i_glide_rewards>
-2.01792397190957

> <r_i_glide_evdw>
-41.6343078613281

> <r_i_glide_ecoul>
-9.58492565155029

> <r_i_glide_erotb>
0.413772414729439

> <r_i_glide_esite>
-0.0396679355754759

> <r_i_glide_emodel>
-69.9052667116203

> <r_i_glide_energy>
-51.2192335128784

> <r_i_glide_einternal>
7.3694953918457

> <i_i_glide_confnum>
20

> <i_i_glide_posenum>
4

> <r_i_glide_eff_state_penalty>
0

> <s_user_duplicate_titles>
CHEMBL267_lig1759,CHEMBL267_lig1759,650369

> <i_f3d_flags>
0

> <s_m_subgroup_title>
dock_pv

> <s_m_subgroupid>
dock_pv

> <b_m_subgroup_collapsed>
1

$$$$
CHEMBL267_lig309
                    3D
 Schrodinger Suite 2021-1.
 39 41  0  0  1  0            999 V2000
    3.1969    7.9083    7.9023 C   0  0  0  0  0  0
    3.3531    6.8392    8.8015 C   0  0  0  0  0  0
    4.1994    8.3610    7.1012 N   0  0  0  0  0  0
    6.3945    8.3140    6.4155 N   0  0  0  0  0  0
    5.4125    7.7713    7.1820 C   0  0  0  0  0  0
    1.9610    8.5730    7.8656 N   0  0  0  0  0  0
    2.2738    6.4043    9.7390 C   0  0  0  0  0  0
    5.6400    6.6471    8.0193 C   0  0  0  0  0  0
    4.5832    6.1811    8.8234 C   0  0  0  0  0  0
    7.6020    7.7167    6.4974 C   0  0  0  0  0  0
    1.2828    9.0429    6.8003 C   0  0  0  0  0  0
    7.9337    6.6370    7.2394 N   0  0  0  0  0  0
    6.9392    6.1060    7.9864 C   0  0  0  0  0  0
    1.1029    5.7835    9.2638 C   0  0  0  0  0  0
    2.3950    6.6362   11.1223 C   0  0  0  0  0  0
    0.1980    9.5901    6.9703 O   0  0  0  0  0  0
    1.8258    8.8225    5.5867 N   0  0  0  0  0  0
    8.5980    8.2577    5.7169 N   0  0  0  0  0  0
    3.7980    7.4019   11.7985 Cl  0  0  0  0  0  0
    0.8795    5.4373    7.5878 Cl  0  0  0  0  0  0
    0.1993    5.6872   11.5005 C   0  0  0  0  0  0
    0.0780    5.4320   10.1398 C   0  0  0  0  0  0
    1.3616    6.2762   11.9880 C   0  0  0  0  0  0
    1.1298    8.8149    4.3048 C   0  0  0  0  0  0
    0.1980    7.6052    4.1274 C   0  0  0  0  0  0
    1.4593    8.5704    8.7382 H   0  0  0  0  0  0
    4.7476    5.3512    9.4921 H   0  0  0  0  0  0
    7.1826    5.2433    8.5910 H   0  0  0  0  0  0
    2.8078    8.5852    5.5635 H   0  0  0  0  0  0
    8.3333    8.9957    5.0861 H   0  0  0  0  0  0
    9.4082    7.6668    5.5359 H   0  0  0  0  0  0
   -0.6098    5.4375   12.1718 H   0  0  0  0  0  0
   -0.8285    4.9784    9.7619 H   0  0  0  0  0  0
    1.4551    6.4748   13.0458 H   0  0  0  0  0  0
    0.5940    9.7547    4.1731 H   0  0  0  0  0  0
    1.8845    8.7974    3.5178 H   0  0  0  0  0  0
   -0.2706    7.6209    3.1431 H   0  0  0  0  0  0
    0.7449    6.6654    4.2101 H   0  0  0  0  0  0
   -0.6017    7.6004    4.8695 H   0  0  0  0  0  0
  1  2  2  0  0  0
  1  3  1  0  0  0
  1  6  1  0  0  0
  2  7  1  0  0  0
  2  9  1  0  0  0
  3  5  2  0  0  0
  4  5  1  0  0  0
  4 10  2  0  0  0
  5  8  1  0  0  0
  6 11  1  0  0  0
  6 26  1  0  0  0
  7 14  2  0  0  0
  7 15  1  0  0  0
  8 13  1  0  0  0
  8  9  2  0  0  0
  9 27  1  0  0  0
 10 18  1  0  0  0
 10 12  1  0  0  0
 11 16  2  0  0  0
 11 17  1  0  0  0
 12 13  2  0  0  0
 13 28  1  0  0  0
 14 20  1  0  0  0
 14 22  1  0  0  0
 15 19  1  0  0  0
 15 23  2  0  0  0
 17 24  1  0  0  0
 17 29  1  0  0  0
 18 30  1  0  0  0
 18 31  1  0  0  0
 21 23  1  0  0  0
 21 22  2  0  0  0
 21 32  1  0  0  0
 22 33  1  0  0  0
 23 34  1  0  0  0
 24 25  1  0  0  0
 24 35  1  0  0  0
 24 36  1  0  0  0
 25 37  1  0  0  0
 25 38  1  0  0  0
 25 39  1  0  0  0
M  END
> <s_m_entry_id>
31930

> <s_m_entry_name>
dock_pv.193

> <s_m_Source_Path>
/home/csk/Desktop/cluster/DUD-E-result/src

> <s_m_Source_File>
dock_pv.maegz

> <i_m_Source_File_Index>
193

> <chembl_id>
CHEMBL432738

> <chembl_pref_name>
None

> <i_lp_mmshare_version>
53161

> <r_lp_tautomer_probability>
1

> <s_lp_Force_Field>
OPLS_2005

> <r_lp_Energy>
13.422016

> <b_lp_Chiralities_Consistent>
1

> <s_lp_Variant>
CHEMBL267_lig309-1

> <s_i_glide_gridfile>
glide-grid_3el8

> <i_i_glide_lignum>
375

> <i_i_glide_rotatable_bonds>
5

> <r_i_docking_score>
-7.91395272135769

> <r_i_glide_ligand_efficiency>
-0.316558108854308

> <r_i_glide_ligand_efficiency_sa>
-0.925621524471961

> <r_i_glide_ligand_efficiency_ln>
-1.87584395698703

> <r_i_glide_gscore>
-7.91395272135769

> <r_i_glide_lipo>
-2.5582698288194

> <r_i_glide_hbond>
-0.599597658700038

> <r_i_glide_metal>
0

> <r_i_glide_rewards>
-1.96614580738442

> <r_i_glide_evdw>
-39.9671325683594

> <r_i_glide_ecoul>
-7.81763172149658

> <r_i_glide_erotb>
0.381061960188628

> <r_i_glide_esite>
0

> <r_i_glide_emodel>
-66.2131356545595

> <r_i_glide_energy>
-47.784764289856

> <r_i_glide_einternal>
2.23547887802124

> <i_i_glide_confnum>
16

> <i_i_glide_posenum>
136

> <r_i_glide_eff_state_penalty>
0

> <s_user_duplicate_titles>
CHEMBL267_lig309,119186

> <i_f3d_flags>
0

> <s_m_subgroup_title>
dock_pv

> <s_m_subgroupid>
dock_pv

> <b_m_subgroup_collapsed>
1

$$$$
CHEMBL267_lig451
                    3D
 Schrodinger Suite 2021-1.
 51 54  0  0  1  0            999 V2000
    5.7531    8.3470    6.4808 C   0  0  0  0  0  0
    4.7032    9.1129    5.9905 N   0  0  0  0  0  0
    5.2290    7.4370    7.4559 C   0  0  0  0  0  0
    3.8195    7.7239    7.5841 C   0  0  0  0  0  0
    3.5601    8.7153    6.6519 C   0  0  0  0  0  0
    4.7665   10.1598    4.9594 C   0  0  2  0  0  0
    7.0351    8.4110    6.0921 N   0  0  0  0  0  0
    6.1661    6.5070    7.9726 C   0  0  0  0  0  0
    7.4668    6.5404    7.5887 N   0  0  0  0  0  0
    3.5819   11.1435    3.1820 N   0  0  1  0  0  0
    2.8056    7.1031    8.4814 C   0  0  0  0  0  0
    1.8218   11.9691    4.7124 C   0  0  0  0  0  0
    4.2954   11.5560    5.4061 C   0  0  0  0  0  0
    1.2653   13.2530    5.3404 C   0  0  0  0  0  0
    3.3175   12.0283    4.3092 C   0  0  1  0  0  0
    7.8283    7.4914    6.6931 C   0  0  0  0  0  0
    3.9128    9.8414    3.7318 C   0  0  0  0  0  0
    1.7981   14.3537    5.1868 O   0  0  0  0  0  0
    1.5377    6.7972    7.9733 C   0  0  0  0  0  0
    3.1046    6.8140    9.8159 C   0  0  0  0  0  0
    5.7969    5.4385    8.7869 N   0  0  0  0  0  0
    0.8714    5.9578   10.1314 C   0  0  0  0  0  0
    0.5730    6.2265    8.7981 C   0  0  0  0  0  0
    2.1369    6.2420   10.6397 C   0  0  0  0  0  0
    0.1277   13.0278    6.0269 O   0  0  0  0  0  0
   -0.0885    5.4346   10.9544 O   0  0  0  0  0  0
   -0.5999   14.0923    6.6343 C   0  0  0  0  0  0
   -0.2022   14.2816    8.1034 C   0  0  0  0  0  0
    2.6232    9.1993    6.4176 H   0  0  0  0  0  0
    5.8130   10.2016    4.6513 H   0  0  0  0  0  0
    2.8161   11.1208    2.5217 H   0  0  0  0  0  0
    1.6385   11.1263    5.3787 H   0  0  0  0  0  0
    1.2139   11.7924    3.8243 H   0  0  0  0  0  0
    5.1376   12.2456    5.4796 H   0  0  0  0  0  0
    3.8176   11.5492    6.3874 H   0  0  0  0  0  0
    3.5960   13.0228    3.9557 H   0  0  0  0  0  0
    8.8684    7.5001    6.3989 H   0  0  0  0  0  0
    4.4356    9.2032    3.0170 H   0  0  0  0  0  0
    2.9900    9.3249    4.0048 H   0  0  0  0  0  0
    1.2994    6.9970    6.9372 H   0  0  0  0  0  0
    4.0782    7.0465   10.2251 H   0  0  0  0  0  0
    4.8350    5.3455    9.0843 H   0  0  0  0  0  0
    6.5091    4.7809    9.0809 H   0  0  0  0  0  0
   -0.4008    5.9938    8.3924 H   0  0  0  0  0  0
    2.3686    6.0336   11.6726 H   0  0  0  0  0  0
   -0.9695    5.4449   10.5653 H   0  0  0  0  0  0
   -1.6588   13.8386    6.5886 H   0  0  0  0  0  0
   -0.4922   15.0290    6.0842 H   0  0  0  0  0  0
   -0.8391   15.0205    8.5897 H   0  0  0  0  0  0
    0.8259   14.6373    8.1854 H   0  0  0  0  0  0
   -0.2886   13.3493    8.6633 H   0  0  0  0  0  0
  1  2  1  0  0  0
  1  3  2  0  0  0
  1  7  1  0  0  0
  2  5  1  0  0  0
  2  6  1  0  0  0
  3  4  1  0  0  0
  3  8  1  0  0  0
  4 11  1  0  0  0
  4  5  2  0  0  0
  5 29  1  0  0  0
  6 13  1  0  0  0
  6 17  1  0  0  0
  6 30  1  0  0  0
  7 16  2  0  0  0
  8 21  1  0  0  0
  8  9  2  0  0  0
  9 16  1  0  0  0
 10 17  1  0  0  0
 10 15  1  0  0  0
 10 31  1  0  0  0
 11 19  2  0  0  0
 11 20  1  0  0  0
 12 15  1  0  0  0
 12 14  1  0  0  0
 12 32  1  0  0  0
 12 33  1  0  0  0
 13 15  1  0  0  0
 13 34  1  0  0  0
 13 35  1  0  0  0
 14 18  2  0  0  0
 14 25  1  0  0  0
 15 36  1  0  0  0
 16 37  1  0  0  0
 17 38  1  0  0  0
 17 39  1  0  0  0
 19 23  1  0  0  0
 19 40  1  0  0  0
 20 24  2  0  0  0
 20 41  1  0  0  0
 21 42  1  0  0  0
 21 43  1  0  0  0
 22 24  1  0  0  0
 22 26  1  0  0  0
 22 23  2  0  0  0
 23 44  1  0  0  0
 24 45  1  0  0  0
 25 27  1  0  0  0
 26 46  1  0  0  0
 27 28  1  0  0  0
 27 47  1  0  0  0
 27 48  1  0  0  0
 28 49  1  0  0  0
 28 50  1  0  0  0
 28 51  1  0  0  0
M  END
> <s_m_entry_id>
31931

> <s_m_entry_name>
dock_pv.194

> <s_m_Source_Path>
/home/csk/Desktop/cluster/DUD-E-result/src

> <s_m_Source_File>
dock_pv.maegz

> <i_m_Source_File_Index>
194

> <chembl_id>
CHEMBL169939

> <chembl_pref_name>
None

> <i_lp_mmshare_version>
53161

> <r_lp_tautomer_probability>
0.999999999997365

> <s_lp_Force_Field>
OPLS_2005

> <r_lp_Energy>
31.331451

> <b_lp_Chiralities_Consistent>
1

> <s_lp_Variant>
CHEMBL267_lig451-1

> <s_i_glide_gridfile>
glide-grid_3el8

> <i_i_glide_lignum>
540

> <i_i_glide_rotatable_bonds>
7

> <r_i_docking_score>
-7.90477820367949

> <r_i_glide_ligand_efficiency>
-0.282313507274268

> <r_i_glide_ligand_efficiency_sa>
-0.857270081848381

> <r_i_glide_ligand_efficiency_ln>
-1.82465490378242

> <r_i_glide_gscore>
-7.90477820367949

> <r_i_glide_lipo>
-2.07752085488839

> <r_i_glide_hbond>
-0.433810075104338

> <r_i_glide_metal>
0

> <r_i_glide_rewards>
-2.75951395084264

> <r_i_glide_evdw>
-44.7135848999023

> <r_i_glide_ecoul>
-7.10236644744873

> <r_i_glide_erotb>
0.667100889268298

> <r_i_glide_esite>
0

> <r_i_glide_emodel>
-73.5625132316606

> <r_i_glide_energy>
-51.8159513473511

> <r_i_glide_einternal>
4.90761947631836

> <i_i_glide_confnum>
77

> <i_i_glide_posenum>
276

> <r_i_glide_eff_state_penalty>
0

> <s_user_duplicate_titles>
CHEMBL267_lig451,282674

> <i_f3d_flags>
0

> <s_m_subgroup_title>
dock_pv

> <s_m_subgroupid>
dock_pv

> <b_m_subgroup_collapsed>
1

$$$$
CHEMBL267_lig3318
                    3D
 Schrodinger Suite 2021-1.
 34 37  0  0  1  0            999 V2000
    0.5915    9.3286    7.2553 C   0  0  0  0  0  0
    1.6630    8.3832    7.5353 N   0  0  0  0  0  0
    3.0007    8.6377    7.3645 C   0  0  0  0  0  0
    3.7833    7.5475    7.7042 C   0  0  0  0  0  0
    5.2271    7.3548    7.6135 C   0  0  0  0  0  0
    6.1643    7.9665    6.8512 C   0  0  0  0  0  0
    7.5568    7.5373    6.9184 C   0  0  0  0  0  0
    8.0598    6.6370    7.5879 O   0  0  0  0  0  0
    8.2406    8.3170    6.0686 N   0  0  0  0  0  0
    7.4419    9.2492    5.4551 C   0  0  0  0  0  0
    7.7465   10.2764    4.5612 C   0  0  0  0  0  0
    6.6931   11.0542    4.0699 C   0  0  0  0  0  0
    5.3912   10.7721    4.5038 C   0  0  0  0  0  0
    5.1054    9.7814    5.3915 N   0  0  0  0  0  0
    6.1468    9.0458    5.8597 C   0  0  0  0  0  0
    2.8466    6.5903    8.2293 C   0  0  0  0  0  0
    2.9907    5.3120    8.7894 C   0  0  0  0  0  0
    1.8581    4.6064    9.1878 C   0  0  0  0  0  0
    0.5880    5.1511    9.0482 C   0  0  0  0  0  0
    0.3946    6.4200    8.5084 C   0  0  0  0  0  0
    1.5294    7.1312    8.1024 C   0  0  0  0  0  0
   -0.2436    8.8049    6.7890 H   0  0  0  0  0  0
    0.2657    9.7940    8.1855 H   0  0  0  0  0  0
    0.9401   10.1010    6.5674 H   0  0  0  0  0  0
    3.2829    9.6040    6.9832 H   0  0  0  0  0  0
    5.5544    6.5637    8.2756 H   0  0  0  0  0  0
    9.2206    8.1669    5.8717 H   0  0  0  0  0  0
    8.7603   10.4663    4.2420 H   0  0  0  0  0  0
    6.8795   11.8543    3.3664 H   0  0  0  0  0  0
    4.5533   11.3498    4.1418 H   0  0  0  0  0  0
    3.9692    4.8732    8.9123 H   0  0  0  0  0  0
    1.9656    3.6167    9.6067 H   0  0  0  0  0  0
   -0.2746    4.5754    9.3568 H   0  0  0  0  0  0
   -0.6025    6.8072    8.3887 H   0  0  0  0  0  0
  1  2  1  0  0  0
  1 22  1  0  0  0
  1 23  1  0  0  0
  1 24  1  0  0  0
  2  3  1  0  0  0
  2 21  1  0  0  0
  3  4  2  0  0  0
  3 25  1  0  0  0
  4  5  1  0  0  0
  4 16  1  0  0  0
  5  6  2  3  0  0
  5 26  1  0  0  0
  6  7  1  0  0  0
  6 15  1  0  0  0
  7  8  2  0  0  0
  7  9  1  0  0  0
  9 10  1  0  0  0
  9 27  1  0  0  0
 10 11  2  0  0  0
 10 15  1  0  0  0
 11 12  1  0  0  0
 11 28  1  0  0  0
 12 13  2  0  0  0
 12 29  1  0  0  0
 13 14  1  0  0  0
 13 30  1  0  0  0
 14 15  2  0  0  0
 16 17  2  0  0  0
 16 21  1  0  0  0
 17 18  1  0  0  0
 17 31  1  0  0  0
 18 19  2  0  0  0
 18 32  1  0  0  0
 19 20  1  0  0  0
 19 33  1  0  0  0
 20 21  2  0  0  0
 20 34  1  0  0  0
M  END
> <s_m_entry_id>
31932

> <s_m_entry_name>
dock_pv.195

> <s_m_Source_Path>
/home/csk/Desktop/cluster/DUD-E-result/src

> <s_m_Source_File>
dock_pv.maegz

> <i_m_Source_File_Index>
195

> <chembl_id>
CHEMBL1516890

> <chembl_pref_name>
GW441756X

> <i_lp_mmshare_version>
53161

> <r_lp_tautomer_probability>
1

> <s_lp_Force_Field>
OPLS_2005

> <r_lp_Energy>
34.69794

> <b_lp_Chiralities_Consistent>
1

> <s_lp_Variant>
CHEMBL267_lig3318-2

> <s_i_glide_gridfile>
glide-grid_3el8

> <i_i_glide_lignum>
3914

> <i_i_glide_rotatable_bonds>
1

> <r_i_docking_score>
-7.90056445725584

> <r_i_glide_ligand_efficiency>
-0.376217355107421

> <r_i_glide_ligand_efficiency_sa>
-1.03795515552667

> <r_i_glide_ligand_efficiency_ln>
-1.95339859746282

> <r_i_glide_gscore>
-7.90056445725584

> <r_i_glide_lipo>
-2.59950436063863

> <r_i_glide_hbond>
-0.402080336518982

> <r_i_glide_metal>
0

> <r_i_glide_rewards>
-2.82682686829443

> <r_i_glide_evdw>
-32.5345191955566

> <r_i_glide_ecoul>
-4.07607412338257

> <r_i_glide_erotb>
0.165984186481419

> <r_i_glide_esite>
0

> <r_i_glide_emodel>
-53.1545929725388

> <r_i_glide_energy>
-36.6105933189392

> <r_i_glide_einternal>
0.0297863241285086

> <i_i_glide_confnum>
1

> <i_i_glide_posenum>
243

> <r_i_glide_eff_state_penalty>
0

> <s_user_duplicate_titles>
CHEMBL267_lig3318,CHEMBL267_lig3318

> <i_f3d_flags>
0

> <s_m_subgroup_title>
dock_pv

> <s_m_subgroupid>
dock_pv

> <b_m_subgroup_collapsed>
1

$$$$
CHEMBL267_lig3481
                    3D
 Schrodinger Suite 2021-1.
 36 40  0  0  1  0            999 V2000
    8.3533   10.6370    4.3879 S   0  0  0  0  0  0
    8.1979    6.7031    7.5870 O   0  0  0  0  0  0
    6.2280    7.8200    7.0563 N   0  0  0  0  0  0
    4.2139    8.6354    6.6844 N   0  0  0  0  0  0
    8.2256    8.4095    6.0168 N   0  0  0  0  0  0
    5.4067    7.1378    7.8655 N   0  0  0  0  0  0
    0.5318    7.0355    8.1979 N   0  0  0  0  0  0
    6.1853    9.6597    5.4676 C   0  0  0  0  0  0
    5.4758    8.7431    6.3664 C   0  0  0  0  0  0
    7.5582    9.4381    5.3514 C   0  0  0  0  0  0
    5.7525   10.7575    4.7010 C   0  0  0  0  0  0
    6.8234   11.3906    4.0438 C   0  0  0  0  0  0
    7.6425    7.5840    6.9279 C   0  0  0  0  0  0
    4.2222    7.6590    7.5882 C   0  0  0  0  0  0
    4.3222   11.2866    4.6305 C   0  0  0  0  0  0
    2.9593    7.1600    8.2242 C   0  0  0  0  0  0
    6.7060   12.6521    3.1996 C   0  0  0  0  0  0
    4.3098   12.7341    4.0876 C   0  0  0  0  0  0
    5.2208   12.9026    2.8571 C   0  0  0  0  0  0
    1.7053    7.4798    7.6835 C   0  0  0  0  0  0
    2.9757    6.3448    9.3661 C   0  0  0  0  0  0
    1.7775    5.8788    9.9098 C   0  0  0  0  0  0
    0.5796    6.2372    9.2927 C   0  0  0  0  0  0
    9.2096    8.2421    5.8622 H   0  0  0  0  0  0
    3.8423   11.2530    5.6095 H   0  0  0  0  0  0
    3.7270   10.6426    3.9815 H   0  0  0  0  0  0
    7.2943   12.5789    2.2842 H   0  0  0  0  0  0
    7.0892   13.5083    3.7588 H   0  0  0  0  0  0
    3.2885   13.0211    3.8349 H   0  0  0  0  0  0
    4.6318   13.4256    4.8687 H   0  0  0  0  0  0
    4.9013   12.2171    2.0692 H   0  0  0  0  0  0
    5.1078   13.9059    2.4423 H   0  0  0  0  0  0
    1.6203    8.0970    6.8007 H   0  0  0  0  0  0
    3.9085    6.0637    9.8332 H   0  0  0  0  0  0
    1.7776    5.2522   10.7876 H   0  0  0  0  0  0
   -0.3702    5.8882    9.6758 H   0  0  0  0  0  0
  1 10  1  0  0  0
  1 12  1  0  0  0
  2 13  2  0  0  0
  3  6  1  0  0  0
  3  9  1  0  0  0
  3 13  1  0  0  0
  4  9  2  0  0  0
  4 14  1  0  0  0
  5 10  1  0  0  0
  5 13  1  0  0  0
  5 24  1  0  0  0
  6 14  2  0  0  0
  7 20  2  0  0  0
  7 23  1  0  0  0
  8  9  1  0  0  0
  8 10  2  0  0  0
  8 11  1  0  0  0
 11 12  2  0  0  0
 11 15  1  0  0  0
 12 17  1  0  0  0
 14 16  1  0  0  0
 15 18  1  0  0  0
 15 25  1  0  0  0
 15 26  1  0  0  0
 16 20  1  0  0  0
 16 21  2  0  0  0
 17 19  1  0  0  0
 17 27  1  0  0  0
 17 28  1  0  0  0
 18 19  1  0  0  0
 18 29  1  0  0  0
 18 30  1  0  0  0
 19 31  1  0  0  0
 19 32  1  0  0  0
 20 33  1  0  0  0
 21 22  1  0  0  0
 21 34  1  0  0  0
 22 23  2  0  0  0
 22 35  1  0  0  0
 23 36  1  0  0  0
M  END
> <s_m_entry_id>
31933

> <s_m_entry_name>
dock_pv.196

> <s_m_Source_Path>
/home/csk/Desktop/cluster/DUD-E-result/src

> <s_m_Source_File>
dock_pv.maegz

> <i_m_Source_File_Index>
196

> <chembl_id>
CHEMBL1970806

> <chembl_pref_name>
None

> <i_lp_mmshare_version>
53161

> <r_lp_tautomer_probability>
1

> <s_lp_Force_Field>
OPLS_2005

> <r_lp_Energy>
29.439017

> <b_lp_Chiralities_Consistent>
1

> <s_lp_Variant>
CHEMBL267_lig3481-1

> <s_i_glide_gridfile>
glide-grid_3el8

> <i_i_glide_lignum>
4179

> <i_i_glide_rotatable_bonds>
1

> <r_i_docking_score>
-7.89015453693518

> <r_i_glide_ligand_efficiency>
-0.343050197258051

> <r_i_glide_ligand_efficiency_sa>
-0.975589127394087

> <r_i_glide_ligand_efficiency_ln>
-1.90791091099675

> <r_i_glide_gscore>
-7.89015453693518

> <r_i_glide_lipo>
-1.83819416375574

> <r_i_glide_hbond>
-0.372565139197678

> <r_i_glide_metal>
0

> <r_i_glide_rewards>
-3.20151091945544

> <r_i_glide_evdw>
-35.8786315917969

> <r_i_glide_ecoul>
-5.39479780197144

> <r_i_glide_erotb>
0.125266935359243

> <r_i_glide_esite>
0

> <r_i_glide_emodel>
-60.3535960576583

> <r_i_glide_energy>
-41.2734293937683

> <r_i_glide_einternal>
0.23655304312706

> <i_i_glide_confnum>
4

> <i_i_glide_posenum>
6

> <r_i_glide_eff_state_penalty>
0

> <s_user_duplicate_titles>
CHEMBL267_lig3481

> <i_f3d_flags>
0

> <s_m_subgroup_title>
dock_pv

> <s_m_subgroupid>
dock_pv

> <b_m_subgroup_collapsed>
1

$$$$
CHEMBL267_lig1810
                    3D
 Schrodinger Suite 2021-1.
 39 42  0  0  1  0            999 V2000
    7.5007    6.5098    7.5880 N   0  0  0  0  0  0
    7.8645    7.4541    6.6838 C   0  0  0  0  0  0
    7.0700    8.3722    6.0754 N   0  0  0  0  0  0
    6.1989    6.4915    7.9734 C   0  0  0  0  0  0
    5.2808    7.4246    7.4502 C   0  0  0  0  0  0
    5.7929    8.3099    6.4750 C   0  0  0  0  0  0
    4.7056    9.0377    6.0186 N   0  0  0  0  0  0
    3.5756    8.6741    6.6681 N   0  0  0  0  0  0
    3.8912    7.7577    7.5540 C   0  0  0  0  0  0
    2.8851    7.2053    8.4978 C   0  0  0  0  0  0
    3.2070    7.1371    9.8556 C   0  0  0  0  0  0
    2.2874    6.6371   10.7745 C   0  0  0  0  0  0
    1.0510    6.1560   10.3341 C   0  0  0  0  0  0
    0.7284    6.2088    8.9773 C   0  0  0  0  0  0
    1.6384    6.7414    8.0619 C   0  0  0  0  0  0
    5.7980    5.4371    8.7880 N   0  0  0  0  0  0
    0.1611    5.6428   11.2146 F   0  0  0  0  0  0
    2.6083    6.6371   12.1044 O   0  0  0  0  0  0
    4.6428   10.0835    4.9886 C   0  0  0  0  0  0
    5.5572   11.2892    5.3085 C   0  0  0  0  0  0
    6.5726   11.3609    4.1627 C   0  0  0  0  0  0
    5.8405   10.7431    2.9712 C   0  0  0  0  0  0
    5.0522    9.5842    3.5865 C   0  0  0  0  0  0
    8.9046    7.4585    6.3886 H   0  0  0  0  0  0
    4.1639    7.5026   10.2003 H   0  0  0  0  0  0
   -0.2284    5.8368    8.6390 H   0  0  0  0  0  0
    1.3804    6.7798    7.0130 H   0  0  0  0  0  0
    4.8318    5.3565    9.0706 H   0  0  0  0  0  0
    6.4941    4.7632    9.0858 H   0  0  0  0  0  0
    3.5505    6.7170   12.2739 H   0  0  0  0  0  0
    3.6099   10.4411    4.9798 H   0  0  0  0  0  0
    4.9634   12.2048    5.3272 H   0  0  0  0  0  0
    6.0468   11.2231    6.2821 H   0  0  0  0  0  0
    6.9039   12.3812    3.9640 H   0  0  0  0  0  0
    7.4576   10.7697    4.4073 H   0  0  0  0  0  0
    5.1599   11.4720    2.5261 H   0  0  0  0  0  0
    6.5270   10.4157    2.1901 H   0  0  0  0  0  0
    5.7111    8.7161    3.6472 H   0  0  0  0  0  0
    4.1915    9.3057    2.9768 H   0  0  0  0  0  0
  1  2  2  0  0  0
  1  4  1  0  0  0
  2  3  1  0  0  0
  2 24  1  0  0  0
  3  6  2  0  0  0
  4  5  2  0  0  0
  4 16  1  0  0  0
  5  9  1  0  0  0
  5  6  1  0  0  0
  6  7  1  0  0  0
  7  8  1  0  0  0
  7 19  1  0  0  0
  8  9  2  0  0  0
  9 10  1  0  0  0
 10 15  1  0  0  0
 10 11  2  0  0  0
 11 12  1  0  0  0
 11 25  1  0  0  0
 12 13  2  0  0  0
 12 18  1  0  0  0
 13 14  1  0  0  0
 13 17  1  0  0  0
 14 15  2  0  0  0
 14 26  1  0  0  0
 15 27  1  0  0  0
 16 28  1  0  0  0
 16 29  1  0  0  0
 18 30  1  0  0  0
 19 20  1  0  0  0
 19 23  1  0  0  0
 19 31  1  0  0  0
 20 21  1  0  0  0
 20 32  1  0  0  0
 20 33  1  0  0  0
 21 22  1  0  0  0
 21 34  1  0  0  0
 21 35  1  0  0  0
 22 23  1  0  0  0
 22 36  1  0  0  0
 22 37  1  0  0  0
 23 38  1  0  0  0
 23 39  1  0  0  0
M  END
> <s_m_entry_id>
31934

> <s_m_entry_name>
dock_pv.197

> <s_m_Source_Path>
/home/csk/Desktop/cluster/DUD-E-result/src

> <s_m_Source_File>
dock_pv.maegz

> <i_m_Source_File_Index>
197

> <chembl_id>
CHEMBL1242568

> <chembl_pref_name>
None

> <i_lp_mmshare_version>
53161

> <r_lp_tautomer_probability>
0.999999999997365

> <s_lp_Force_Field>
OPLS_2005

> <r_lp_Energy>
30.942751

> <b_lp_Chiralities_Consistent>
1

> <s_lp_Variant>
CHEMBL267_lig1810-1

> <s_i_glide_gridfile>
glide-grid_3el8

> <i_i_glide_lignum>
2073

> <i_i_glide_rotatable_bonds>
3

> <r_i_docking_score>
-7.88133899472863

> <r_i_glide_ligand_efficiency>
-0.342666912814288

> <r_i_glide_ligand_efficiency_sa>
-0.974499117421718

> <r_i_glide_ligand_efficiency_ln>
-1.90577923295629

> <r_i_glide_gscore>
-7.88133899472863

> <r_i_glide_lipo>
-2.33347643558305

> <r_i_glide_hbond>
-0.419837833496351

> <r_i_glide_metal>
0

> <r_i_glide_rewards>
-2.79214056919049

> <r_i_glide_evdw>
-37.2336692810059

> <r_i_glide_ecoul>
-5.68369770050049

> <r_i_glide_erotb>
0.378353962666628

> <r_i_glide_esite>
0

> <r_i_glide_emodel>
-58.7867203875088

> <r_i_glide_energy>
-42.9173669815063

> <r_i_glide_einternal>
5.05745697021484

> <i_i_glide_confnum>
42

> <i_i_glide_posenum>
302

> <r_i_glide_eff_state_penalty>
0

> <s_user_duplicate_titles>
CHEMBL267_lig1810

> <i_f3d_flags>
0

> <s_m_subgroup_title>
dock_pv

> <s_m_subgroupid>
dock_pv

> <b_m_subgroup_collapsed>
1

$$$$
CHEMBL267_lig324
                    3D
 Schrodinger Suite 2021-1.
 34 36  0  0  1  0            999 V2000
    5.9017    7.4870    7.4642 C   0  0  0  0  0  0
    6.0537    6.1423    7.9959 C   0  0  0  0  0  0
    4.6613    8.0363    7.3761 C   0  0  0  0  0  0
    7.0704    8.2413    7.0402 C   0  0  0  0  0  0
    4.9196    5.5657    8.5450 O   0  0  0  0  0  0
    3.4519    7.3292    7.7994 C   0  0  0  0  0  0
    3.6410    6.0840    8.4049 C   0  0  0  0  0  0
    6.8986    8.9112    5.8824 N   0  0  0  0  0  0
    7.0964    5.4345    7.9881 N   0  0  0  0  0  0
    8.1225    8.2370    7.6837 O   0  0  0  0  0  0
    2.1587    7.7930    7.5443 C   0  0  0  0  0  0
    7.8290    9.6828    5.1853 C   0  0  0  0  0  0
    9.2139    9.4371    5.1876 C   0  0  0  0  0  0
    2.5459    5.3207    8.8078 C   0  0  0  0  0  0
    1.0603    7.0086    7.9007 C   0  0  0  0  0  0
   10.0571   10.2279    4.3987 C   0  0  0  0  0  0
    1.2519    5.7836    8.5479 C   0  0  0  0  0  0
   -0.2017    7.4370    7.5882 O   0  0  0  0  0  0
   11.4067   10.0051    4.3986 O   0  0  0  0  0  0
    8.1558   11.4765    3.5882 C   0  0  0  0  0  0
    7.3092   10.6980    4.3777 C   0  0  0  0  0  0
    9.5289   11.2390    3.5971 C   0  0  0  0  0  0
    4.5350    9.0370    6.9922 H   0  0  0  0  0  0
    5.9739    8.8993    5.4844 H   0  0  0  0  0  0
    6.9323    4.5471    8.4484 H   0  0  0  0  0  0
    2.0036    8.7345    7.0375 H   0  0  0  0  0  0
    9.6375    8.6364    5.7733 H   0  0  0  0  0  0
    2.6994    4.3665    9.2894 H   0  0  0  0  0  0
    0.4033    5.1793    8.8361 H   0  0  0  0  0  0
   -0.8565    6.7195    7.5821 H   0  0  0  0  0  0
   11.6929    9.3501    5.0393 H   0  0  0  0  0  0
    7.7497   12.2626    2.9678 H   0  0  0  0  0  0
    6.2462   10.8936    4.3495 H   0  0  0  0  0  0
   10.1850   11.8410    2.9877 H   0  0  0  0  0  0
  1  2  1  0  0  0
  1  3  2  0  0  0
  1  4  1  0  0  0
  2  5  1  0  0  0
  2  9  2  0  0  0
  3  6  1  0  0  0
  3 23  1  0  0  0
  4  8  1  0  0  0
  4 10  2  0  0  0
  5  7  1  0  0  0
  6  7  1  0  0  0
  6 11  2  0  0  0
  7 14  2  0  0  0
  8 12  1  0  0  0
  8 24  1  0  0  0
  9 25  1  0  0  0
 11 15  1  0  0  0
 11 26  1  0  0  0
 12 13  1  0  0  0
 12 21  2  0  0  0
 13 16  2  0  0  0
 13 27  1  0  0  0
 14 17  1  0  0  0
 14 28  1  0  0  0
 15 17  2  0  0  0
 15 18  1  0  0  0
 16 19  1  0  0  0
 16 22  1  0  0  0
 17 29  1  0  0  0
 18 30  1  0  0  0
 19 31  1  0  0  0
 20 21  1  0  0  0
 20 22  2  0  0  0
 20 32  1  0  0  0
 21 33  1  0  0  0
 22 34  1  0  0  0
M  END
> <s_m_entry_id>
31935

> <s_m_entry_name>
dock_pv.198

> <s_m_Source_Path>
/home/csk/Desktop/cluster/DUD-E-result/src

> <s_m_Source_File>
dock_pv.maegz

> <i_m_Source_File_Index>
198

> <chembl_id>
CHEMBL79888

> <chembl_pref_name>
None

> <i_lp_mmshare_version>
53161

> <r_lp_tautomer_probability>
0.999999999997365

> <s_lp_Force_Field>
OPLS_2005

> <r_lp_Energy>
38.864109

> <b_lp_Chiralities_Consistent>
1

> <s_lp_Variant>
CHEMBL267_lig324-1

> <s_i_glide_gridfile>
glide-grid_3el8

> <i_i_glide_lignum>
390

> <i_i_glide_rotatable_bonds>
5

> <r_i_docking_score>
-7.87801263084387

> <r_i_glide_ligand_efficiency>
-0.358091483220176

> <r_i_glide_ligand_efficiency_sa>
-1.00338641892182

> <r_i_glide_ligand_efficiency_ln>
-1.92567364447095

> <r_i_glide_gscore>
-7.87801263084387

> <r_i_glide_lipo>
-2.6403426519091

> <r_i_glide_hbond>
-0.714430274413481

> <r_i_glide_metal>
0

> <r_i_glide_rewards>
-1.92797050556275

> <r_i_glide_evdw>
-29.3716011047363

> <r_i_glide_ecoul>
-11.6847381591797

> <r_i_glide_erotb>
0.626021580155232

> <r_i_glide_esite>
0

> <r_i_glide_emodel>
-58.57735547311

> <r_i_glide_energy>
-41.056339263916

> <r_i_glide_einternal>
2.76393270492554

> <i_i_glide_confnum>
15

> <i_i_glide_posenum>
280

> <r_i_glide_eff_state_penalty>
0

> <s_user_duplicate_titles>
CHEMBL267_lig324

> <i_f3d_flags>
0

> <s_m_subgroup_title>
dock_pv

> <s_m_subgroupid>
dock_pv

> <b_m_subgroup_collapsed>
1

$$$$
CHEMBL267_lig2545
                    3D
 Schrodinger Suite 2021-1.
 62 67  0  0  1  0            999 V2000
   -1.0895    2.6224    8.7881 C   0  0  0  0  0  0
   -0.0240    1.8095    8.3880 C   0  0  0  0  0  0
   -0.2245    0.4424    8.1961 C   0  0  0  0  0  0
   -1.4901   -0.1040    8.3877 C   0  0  0  0  0  0
   -2.5546    0.7009    8.7880 C   0  0  0  0  0  0
   -2.3589    2.0693    8.9688 C   0  0  0  0  0  0
    2.9490    7.0396    8.5694 C   0  0  0  0  0  0
    1.9445    6.1861    8.1076 C   0  0  0  0  0  0
    1.0798    5.5443    8.9981 C   0  0  0  0  0  0
    1.2152    5.8068   10.3738 C   0  0  0  0  0  0
    2.2311    6.6370   10.8398 C   0  0  0  0  0  0
    3.0970    7.2534    9.9405 C   0  0  0  0  0  0
    7.6741   12.8193    3.1871 N   0  0  0  0  0  0
    8.9734   13.2806    2.7056 C   0  0  0  0  0  0
    8.4168   14.6934    2.6032 C   0  0  0  0  0  0
    7.0606   14.0029    2.5863 C   0  0  0  0  0  0
    4.7635   10.0701    4.9356 C   0  0  2  0  0  0
    5.3834    9.7336    3.5624 C   0  0  0  0  0  0
    5.8345   11.2007    3.4999 C   0  0  1  0  0  0
    5.7745   11.2304    5.0349 C   0  0  0  0  0  0
    5.7892    8.3117    6.4820 C   0  0  0  0  0  0
    5.2770    7.4200    7.4664 C   0  0  0  0  0  0
    3.8803    7.7056    7.6295 C   0  0  0  0  0  0
    3.5843    8.6534    6.6654 C   0  0  0  0  0  0
    4.7216    9.0514    5.9888 N   0  0  0  0  0  0
    7.0714    8.3664    6.0894 N   0  0  0  0  0  0
    7.8670    7.4486    6.6929 C   0  0  0  0  0  0
    7.5027    6.5002    7.5880 N   0  0  0  0  0  0
    6.2028    6.4878    7.9751 C   0  0  0  0  0  0
    7.1975   11.4876    2.8418 C   0  0  0  0  0  0
    0.1691    4.6710    8.4342 O   0  0  0  0  0  0
   -0.8433    4.0535    9.2339 C   0  0  0  0  0  0
    3.7392   10.4390    4.8344 H   0  0  0  0  0  0
    5.0848   11.8508    3.0415 H   0  0  0  0  0  0
    5.7980    5.4370    8.7879 N   0  0  0  0  0  0
    0.9667    2.2273    8.2809 H   0  0  0  0  0  0
    0.5976   -0.1937    7.9048 H   0  0  0  0  0  0
   -1.6458   -1.1613    8.2345 H   0  0  0  0  0  0
   -3.5361    0.2743    8.9315 H   0  0  0  0  0  0
   -3.1861    2.6838    9.2941 H   0  0  0  0  0  0
    1.8450    5.9985    7.0486 H   0  0  0  0  0  0
    0.5728    5.3676   11.1181 H   0  0  0  0  0  0
    2.3454    6.8058   11.9007 H   0  0  0  0  0  0
    3.8808    7.8988   10.3105 H   0  0  0  0  0  0
    9.2476   12.8616    1.7344 H   0  0  0  0  0  0
    9.7869   13.1178    3.4141 H   0  0  0  0  0  0
    8.5983   15.3201    3.4782 H   0  0  0  0  0  0
    8.6751   15.2282    1.6895 H   0  0  0  0  0  0
    6.2682   14.4479    3.1886 H   0  0  0  0  0  0
    6.6876   13.8282    1.5736 H   0  0  0  0  0  0
    4.6775    9.3925    2.8042 H   0  0  0  0  0  0
    6.1982    9.0137    3.6512 H   0  0  0  0  0  0
    6.7032   10.9290    5.5220 H   0  0  0  0  0  0
    5.4002   12.1426    5.5002 H   0  0  0  0  0  0
    2.6342    9.1084    6.4246 H   0  0  0  0  0  0
    8.9083    7.4571    6.4027 H   0  0  0  0  0  0
    7.1325   11.3842    1.7575 H   0  0  0  0  0  0
    7.9309   10.7591    3.1903 H   0  0  0  0  0  0
   -0.5928    3.9522   10.2862 H   0  0  0  0  0  0
   -1.7621    4.6377    9.1880 H   0  0  0  0  0  0
    4.8401    5.3981    9.1100 H   0  0  0  0  0  0
    6.4896    4.7638    9.0963 H   0  0  0  0  0  0
  1  6  1  0  0  0
  1  2  2  0  0  0
  1 32  1  0  0  0
  2  3  1  0  0  0
  2 36  1  0  0  0
  3  4  2  0  0  0
  3 37  1  0  0  0
  4  5  1  0  0  0
  4 38  1  0  0  0
  5  6  2  0  0  0
  5 39  1  0  0  0
  6 40  1  0  0  0
  7 12  1  0  0  0
  7  8  2  0  0  0
  7 23  1  0  0  0
  8  9  1  0  0  0
  8 41  1  0  0  0
  9 10  2  0  0  0
  9 31  1  0  0  0
 10 11  1  0  0  0
 10 42  1  0  0  0
 11 12  2  0  0  0
 11 43  1  0  0  0
 12 44  1  0  0  0
 13 14  1  0  0  0
 13 30  1  0  0  0
 13 16  1  0  0  0
 14 15  1  0  0  0
 14 45  1  0  0  0
 14 46  1  0  0  0
 15 16  1  0  0  0
 15 47  1  0  0  0
 15 48  1  0  0  0
 16 49  1  0  0  0
 16 50  1  0  0  0
 17 20  1  0  0  0
 17 25  1  0  0  0
 17 33  1  0  0  0
 17 18  1  0  0  0
 18 19  1  0  0  0
 18 51  1  0  0  0
 18 52  1  0  0  0
 19 20  1  0  0  0
 19 30  1  0  0  0
 19 34  1  0  0  0
 20 53  1  0  0  0
 20 54  1  0  0  0
 21 22  2  0  0  0
 21 25  1  0  0  0
 21 26  1  0  0  0
 22 23  1  0  0  0
 22 29  1  0  0  0
 23 24  2  0  0  0
 24 25  1  0  0  0
 24 55  1  0  0  0
 26 27  2  0  0  0
 27 28  1  0  0  0
 27 56  1  0  0  0
 28 29  2  0  0  0
 29 35  1  0  0  0
 30 57  1  0  0  0
 30 58  1  0  0  0
 31 32  1  0  0  0
 32 59  1  0  0  0
 32 60  1  0  0  0
 35 61  1  0  0  0
 35 62  1  0  0  0
M  END
> <s_m_entry_id>
31936

> <s_m_entry_name>
dock_pv.199

> <s_m_Source_Path>
/home/csk/Desktop/cluster/DUD-E-result/src

> <s_m_Source_File>
dock_pv.maegz

> <i_m_Source_File_Index>
199

> <chembl_id>
CHEMBL1614712

> <chembl_pref_name>
None

> <i_lp_mmshare_version>
53161

> <r_lp_tautomer_probability>
1

> <s_lp_Force_Field>
OPLS_2005

> <r_lp_Energy>
48.602153

> <b_lp_Chiralities_Consistent>
1

> <s_lp_Variant>
CHEMBL267_lig2545-1

> <s_i_glide_gridfile>
glide-grid_3el8

> <i_i_glide_lignum>
2850

> <i_i_glide_rotatable_bonds>
7

> <r_i_docking_score>
-7.87498355694406

> <r_i_glide_ligand_efficiency>
-0.238635865361941

> <r_i_glide_ligand_efficiency_sa>
-0.765432729624575

> <r_i_glide_ligand_efficiency_ln>
-1.75135556858171

> <r_i_glide_gscore>
-7.87498355694406

> <r_i_glide_lipo>
-3.76163697740891

> <r_i_glide_hbond>
-0.42525872442348

> <r_i_glide_metal>
0

> <r_i_glide_rewards>
-1.51393840832562

> <r_i_glide_evdw>
-45.6978454589844

> <r_i_glide_ecoul>
-4.08262634277344

> <r_i_glide_erotb>
0.723136777579188

> <r_i_glide_esite>
0

> <r_i_glide_emodel>
-66.6544472455538

> <r_i_glide_energy>
-49.7804718017578

> <r_i_glide_einternal>
7.97437429428101

> <i_i_glide_confnum>
4

> <i_i_glide_posenum>
351

> <r_i_glide_eff_state_penalty>
0

> <s_user_duplicate_titles>
CHEMBL267_lig2545

> <i_f3d_flags>
0

> <s_m_subgroup_title>
dock_pv

> <s_m_subgroupid>
dock_pv

> <b_m_subgroup_collapsed>
1

$$$$
CHEMBL267_lig447
                    3D
 Schrodinger Suite 2021-1.
 57 60  0  0  1  0            999 V2000
    6.2012    8.6528    6.2434 C   0  0  0  0  0  0
    5.1779    9.4308    5.7223 N   0  0  0  0  0  0
    5.6231    7.6767    7.1062 C   0  0  0  0  0  0
    4.2020    7.9256    7.1457 C   0  0  0  0  0  0
    3.9909    8.9706    6.2573 C   0  0  0  0  0  0
    2.0836   11.7447    3.3876 C   0  0  0  0  0  0
    3.2752   11.5033    4.0780 N   0  0  0  0  0  0
    5.3281   10.5807    4.8080 C   0  0  1  0  0  0
    7.5078    8.7666    5.9714 N   0  0  0  0  0  0
    6.5382    6.7434    7.6420 C   0  0  0  0  0  0
    7.8642    6.8296    7.4017 N   0  0  0  0  0  0
    4.3286   10.5721    3.6402 C   0  0  0  0  0  0
    2.0879   11.1230    2.1693 O   0  0  0  0  0  0
    3.1630    7.2249    7.9483 C   0  0  0  0  0  0
    8.2724    7.8369    6.5953 C   0  0  0  0  0  0
    5.0951   11.9085    5.5198 C   0  0  0  0  0  0
    3.6129   12.2268    5.3048 C   0  0  0  0  0  0
    1.1654   12.4537    3.8026 O   0  0  0  0  0  0
    1.0854   11.2855    1.1518 C   0  0  0  0  0  0
    3.3931    6.9408    9.2960 C   0  0  0  0  0  0
    1.9717    6.8100    7.3473 C   0  0  0  0  0  0
    6.1188    5.6435    8.3880 N   0  0  0  0  0  0
    1.2669    5.8013    9.4373 C   0  0  0  0  0  0
    2.4470    6.2372   10.0333 C   0  0  0  0  0  0
    1.0310    6.0975    8.0865 C   0  0  0  0  0  0
    0.4037    5.0888   10.2463 O   0  0  0  0  0  0
    0.8930   12.7701    0.7506 C   0  0  0  0  0  0
   -0.2514   10.6518    1.5986 C   0  0  0  0  0  0
    1.6543   10.5256   -0.0584 C   0  0  0  0  0  0
   -0.7472    4.4817    9.6677 C   0  0  0  0  0  0
    3.0650    9.4576    5.9913 H   0  0  0  0  0  0
    6.3537   10.4919    4.4470 H   0  0  0  0  0  0
    3.9280    9.5752    3.4354 H   0  0  0  0  0  0
    4.7855   10.9651    2.7302 H   0  0  0  0  0  0
    9.3331    7.8755    6.3880 H   0  0  0  0  0  0
    5.6971   12.6812    5.0363 H   0  0  0  0  0  0
    5.3846   11.9134    6.5720 H   0  0  0  0  0  0
    3.4398   13.2987    5.1878 H   0  0  0  0  0  0
    2.9986   11.8606    6.1287 H   0  0  0  0  0  0
    4.3067    7.2624    9.7743 H   0  0  0  0  0  0
    1.7828    7.0158    6.3048 H   0  0  0  0  0  0
    5.1325    5.5311    8.5801 H   0  0  0  0  0  0
    6.7992    4.9787    8.7301 H   0  0  0  0  0  0
    2.6425    6.0110   11.0712 H   0  0  0  0  0  0
    0.1284    5.7754    7.5897 H   0  0  0  0  0  0
    0.2517   12.8652   -0.1267 H   0  0  0  0  0  0
    1.8467   13.2413    0.5116 H   0  0  0  0  0  0
    0.4334   13.3569    1.5448 H   0  0  0  0  0  0
   -0.1047    9.6444    1.9878 H   0  0  0  0  0  0
   -0.7298   11.2339    2.3866 H   0  0  0  0  0  0
   -0.9567   10.5846    0.7722 H   0  0  0  0  0  0
    1.7996    9.4673    0.1660 H   0  0  0  0  0  0
    0.9992   10.5956   -0.9260 H   0  0  0  0  0  0
    2.6254   10.9264   -0.3576 H   0  0  0  0  0  0
   -1.3275    3.9882   10.4483 H   0  0  0  0  0  0
   -1.3966    5.2101    9.1900 H   0  0  0  0  0  0
   -0.4665    3.7237    8.9340 H   0  0  0  0  0  0
  1  2  1  0  0  0
  1  3  2  0  0  0
  1  9  1  0  0  0
  2  5  1  0  0  0
  2  8  1  0  0  0
  3  4  1  0  0  0
  3 10  1  0  0  0
  4 14  1  0  0  0
  4  5  2  0  0  0
  5 31  1  0  0  0
  6  7  1  0  0  0
  6 13  1  0  0  0
  6 18  2  0  0  0
  7 12  1  0  0  0
  7 17  1  0  0  0
  8 12  1  0  0  0
  8 16  1  0  0  0
  8 32  1  0  0  0
  9 15  2  0  0  0
 10 22  1  0  0  0
 10 11  2  0  0  0
 11 15  1  0  0  0
 12 33  1  0  0  0
 12 34  1  0  0  0
 13 19  1  0  0  0
 14 20  1  0  0  0
 14 21  2  0  0  0
 15 35  1  0  0  0
 16 17  1  0  0  0
 16 36  1  0  0  0
 16 37  1  0  0  0
 17 38  1  0  0  0
 17 39  1  0  0  0
 19 27  1  0  0  0
 19 28  1  0  0  0
 19 29  1  0  0  0
 20 24  2  0  0  0
 20 40  1  0  0  0
 21 25  1  0  0  0
 21 41  1  0  0  0
 22 42  1  0  0  0
 22 43  1  0  0  0
 23 25  2  0  0  0
 23 26  1  0  0  0
 23 24  1  0  0  0
 24 44  1  0  0  0
 25 45  1  0  0  0
 26 30  1  0  0  0
 27 46  1  0  0  0
 27 47  1  0  0  0
 27 48  1  0  0  0
 28 49  1  0  0  0
 28 50  1  0  0  0
 28 51  1  0  0  0
 29 52  1  0  0  0
 29 53  1  0  0  0
 29 54  1  0  0  0
 30 55  1  0  0  0
 30 56  1  0  0  0
 30 57  1  0  0  0
M  END
> <s_m_entry_id>
31937

> <s_m_entry_name>
dock_pv.200

> <s_m_Source_Path>
/home/csk/Desktop/cluster/DUD-E-result/src

> <s_m_Source_File>
dock_pv.maegz

> <i_m_Source_File_Index>
200

> <chembl_id>
CHEMBL352619

> <chembl_pref_name>
None

> <i_lp_mmshare_version>
53161

> <r_lp_tautomer_probability>
1

> <s_lp_Force_Field>
OPLS_2005

> <r_lp_Energy>
45.654598

> <b_lp_Chiralities_Consistent>
1

> <s_lp_Variant>
CHEMBL267_lig447-2

> <s_i_glide_gridfile>
glide-grid_3el8

> <i_i_glide_lignum>
534

> <i_i_glide_rotatable_bonds>
6

> <r_i_docking_score>
-7.87469063398818

> <r_i_glide_ligand_efficiency>
-0.262489687799606

> <r_i_glide_ligand_efficiency_sa>
-0.815616489483925

> <r_i_glide_ligand_efficiency_ln>
-1.78921551366874

> <r_i_glide_gscore>
-7.87469063398818

> <r_i_glide_lipo>
-2.39660615024804

> <r_i_glide_hbond>
-0.367206788019886

> <r_i_glide_metal>
0

> <r_i_glide_rewards>
-2.52847229110119

> <r_i_glide_evdw>
-41.3000411987305

> <r_i_glide_ecoul>
-5.64150524139404

> <r_i_glide_erotb>
0.328822441526566

> <r_i_glide_esite>
0

> <r_i_glide_emodel>
-66.7217130347436

> <r_i_glide_energy>
-46.9415464401245

> <r_i_glide_einternal>
2.96822810173035

> <i_i_glide_confnum>
10

> <i_i_glide_posenum>
99

> <r_i_glide_eff_state_penalty>
0

> <s_user_duplicate_titles>
CHEMBL267_lig447,282204

> <i_f3d_flags>
0

> <s_m_subgroup_title>
dock_pv

> <s_m_subgroupid>
dock_pv

> <b_m_subgroup_collapsed>
1

$$$$
CHEMBL267_lig1815
                    3D
 Schrodinger Suite 2021-1.
 37 40  0  0  1  0            999 V2000
    7.8012    6.9857    7.2927 N   0  0  0  0  0  0
    8.1695    7.9428    6.4051 C   0  0  0  0  0  0
    7.3675    8.8273    5.7573 N   0  0  0  0  0  0
    6.4819    6.9032    7.5880 C   0  0  0  0  0  0
    5.5503    7.8005    7.0308 C   0  0  0  0  0  0
    6.0753    8.7289    6.1023 C   0  0  0  0  0  0
    4.9890    9.4617    5.6417 N   0  0  0  0  0  0
    3.8426    9.0020    6.1947 N   0  0  0  0  0  0
    4.1420    8.0691    7.0678 C   0  0  0  0  0  0
    3.0901    7.4430    7.9189 C   0  0  0  0  0  0
    3.3310    7.2206    9.2794 C   0  0  0  0  0  0
    2.3543    6.6361   10.0861 C   0  0  0  0  0  0
    1.1369    6.2371    9.5289 C   0  0  0  0  0  0
    0.8919    6.4484    8.1727 C   0  0  0  0  0  0
    1.8618    7.0523    7.3717 C   0  0  0  0  0  0
    6.0851    5.8369    8.3880 N   0  0  0  0  0  0
    0.1908    5.6497   10.2962 F   0  0  0  0  0  0
    2.6023    6.4502   11.4195 O   0  0  0  0  0  0
    4.9104   10.4883    4.5865 C   0  0  2  0  0  0
    6.1863   11.3000    4.4024 C   0  0  0  0  0  0
    5.6854   12.6624    3.9537 C   0  0  0  0  0  0
    4.5200   12.8322    4.7470 O   0  0  0  0  0  0
    3.8415   11.5800    4.8360 C   0  0  0  0  0  0
    9.2240    8.0013    6.1764 H   0  0  0  0  0  0
    4.2663    7.5329    9.7204 H   0  0  0  0  0  0
   -0.0520    6.1415    7.7455 H   0  0  0  0  0  0
    1.6609    7.2080    6.3211 H   0  0  0  0  0  0
    5.1036    5.6974    8.5765 H   0  0  0  0  0  0
    6.7818    5.1878    8.7279 H   0  0  0  0  0  0
    3.4543    6.0303   11.5885 H   0  0  0  0  0  0
    4.6537    9.9409    3.6773 H   0  0  0  0  0  0
    6.7021   11.4368    5.3544 H   0  0  0  0  0  0
    6.8807   10.8553    3.6887 H   0  0  0  0  0  0
    6.4054   13.4580    4.1444 H   0  0  0  0  0  0
    5.4351   12.7196    2.8925 H   0  0  0  0  0  0
    3.0580   11.5366    4.0771 H   0  0  0  0  0  0
    3.3528   11.5196    5.8103 H   0  0  0  0  0  0
  1  2  2  0  0  0
  1  4  1  0  0  0
  2  3  1  0  0  0
  2 24  1  0  0  0
  3  6  2  0  0  0
  4  5  2  0  0  0
  4 16  1  0  0  0
  5  9  1  0  0  0
  5  6  1  0  0  0
  6  7  1  0  0  0
  7  8  1  0  0  0
  7 19  1  0  0  0
  8  9  2  0  0  0
  9 10  1  0  0  0
 10 15  1  0  0  0
 10 11  2  0  0  0
 11 12  1  0  0  0
 11 25  1  0  0  0
 12 13  2  0  0  0
 12 18  1  0  0  0
 13 14  1  0  0  0
 13 17  1  0  0  0
 14 15  2  0  0  0
 14 26  1  0  0  0
 15 27  1  0  0  0
 16 28  1  0  0  0
 16 29  1  0  0  0
 18 30  1  0  0  0
 19 20  1  0  0  0
 19 23  1  0  0  0
 19 31  1  0  0  0
 20 21  1  0  0  0
 20 32  1  0  0  0
 20 33  1  0  0  0
 21 22  1  0  0  0
 21 34  1  0  0  0
 21 35  1  0  0  0
 22 23  1  0  0  0
 23 36  1  0  0  0
 23 37  1  0  0  0
M  END
> <s_m_entry_id>
31938

> <s_m_entry_name>
dock_pv.201

> <s_m_Source_Path>
/home/csk/Desktop/cluster/DUD-E-result/src

> <s_m_Source_File>
dock_pv.maegz

> <i_m_Source_File_Index>
201

> <chembl_id>
CHEMBL1242749

> <chembl_pref_name>
None

> <i_lp_mmshare_version>
53161

> <r_lp_tautomer_probability>
0.999999999997365

> <s_lp_Force_Field>
OPLS_2005

> <r_lp_Energy>
26.794262

> <b_lp_Chiralities_Consistent>
1

> <s_lp_Variant>
CHEMBL267_lig1815-1

> <s_i_glide_gridfile>
glide-grid_3el8

> <i_i_glide_lignum>
2081

> <i_i_glide_rotatable_bonds>
3

> <r_i_docking_score>
-7.86047704389175

> <r_i_glide_ligand_efficiency>
-0.341759871473555

> <r_i_glide_ligand_efficiency_sa>
-0.971919612506141

> <r_i_glide_ligand_efficiency_ln>
-1.90073462407822

> <r_i_glide_gscore>
-7.86047704389175

> <r_i_glide_lipo>
-1.96333107316804

> <r_i_glide_hbond>
-0.372261534633607

> <r_i_glide_metal>
0

> <r_i_glide_rewards>
-2.91037022408911

> <r_i_glide_evdw>
-35.2483825683594

> <r_i_glide_ecoul>
-7.42690324783325

> <r_i_glide_erotb>
0.261940403591956

> <r_i_glide_esite>
0

> <r_i_glide_emodel>
-59.7108736481314

> <r_i_glide_energy>
-42.6752858161926

> <r_i_glide_einternal>
3.74446082115173

> <i_i_glide_confnum>
3

> <i_i_glide_posenum>
340

> <r_i_glide_eff_state_penalty>
0

> <s_user_duplicate_titles>
CHEMBL267_lig1815

> <i_f3d_flags>
0

> <s_m_subgroup_title>
dock_pv

> <s_m_subgroupid>
dock_pv

> <b_m_subgroup_collapsed>
1

$$$$
CHEMBL267_lig642
                    3D
 Schrodinger Suite 2021-1.
 34 36  0  0  1  0            999 V2000
    2.6138    8.8276    5.7125 N   0  0  0  0  0  0
    3.7843    9.3054    5.1804 C   0  0  0  0  0  0
    2.4983    7.9365    6.8268 C   0  0  0  0  0  0
    5.0353    8.7734    5.8515 C   0  0  0  0  0  0
    3.6587    7.5080    7.5118 C   0  0  0  0  0  0
    4.9956    7.9164    6.9677 C   0  0  0  0  0  0
    1.2434    7.4734    7.2773 C   0  0  0  0  0  0
    6.2700    9.1517    5.3031 C   0  0  0  0  0  0
    3.5259    6.6895    8.6445 C   0  0  0  0  0  0
    6.2133    7.4370    7.4822 C   0  0  0  0  0  0
    1.1286    6.6439    8.3892 C   0  0  0  0  0  0
    2.2756    6.2631    9.0859 C   0  0  0  0  0  0
    7.4352    7.7670    6.8950 C   0  0  0  0  0  0
    7.4653    8.6421    5.8023 C   0  0  0  0  0  0
    3.8291   10.0890    4.2247 O   0  0  0  0  0  0
    1.3685    9.2453    5.0101 C   0  0  0  0  0  0
   -0.1149    6.2160    8.7882 O   0  0  0  0  0  0
    8.6390    9.0166    5.1886 O   0  0  0  0  0  0
    8.5811    7.2040    7.3998 O   0  0  0  0  0  0
    2.1986    5.4529   10.1913 O   0  0  0  0  0  0
    0.8478    8.1886    4.0141 C   0  0  0  0  0  0
    0.3295    7.7432    6.7747 H   0  0  0  0  0  0
    6.3192    9.8195    4.4530 H   0  0  0  0  0  0
    4.3928    6.3559    9.1950 H   0  0  0  0  0  0
    6.2327    6.7550    8.3152 H   0  0  0  0  0  0
    0.5960    9.5053    5.7352 H   0  0  0  0  0  0
    1.5074   10.1791    4.4610 H   0  0  0  0  0  0
   -0.8106    6.2256    8.1178 H   0  0  0  0  0  0
    9.3909    8.4466    5.3683 H   0  0  0  0  0  0
    9.3798    7.4397    6.9156 H   0  0  0  0  0  0
    3.0519    5.2147   10.5747 H   0  0  0  0  0  0
   -0.0753    8.5282    3.5404 H   0  0  0  0  0  0
    1.5697    8.0155    3.2136 H   0  0  0  0  0  0
    0.6346    7.2341    4.4927 H   0  0  0  0  0  0
  1  2  1  0  0  0
  1  3  1  0  0  0
  1 16  1  0  0  0
  2  4  1  0  0  0
  2 15  2  0  0  0
  3  5  1  0  0  0
  3  7  2  0  0  0
  4  8  2  0  0  0
  4  6  1  0  0  0
  5  6  1  0  0  0
  5  9  2  0  0  0
  6 10  2  0  0  0
  7 11  1  0  0  0
  7 22  1  0  0  0
  8 14  1  0  0  0
  8 23  1  0  0  0
  9 12  1  0  0  0
  9 24  1  0  0  0
 10 13  1  0  0  0
 10 25  1  0  0  0
 11 12  2  0  0  0
 11 17  1  0  0  0
 12 20  1  0  0  0
 13 19  1  0  0  0
 13 14  2  0  0  0
 14 18  1  0  0  0
 16 21  1  0  0  0
 16 26  1  0  0  0
 16 27  1  0  0  0
 17 28  1  0  0  0
 18 29  1  0  0  0
 19 30  1  0  0  0
 20 31  1  0  0  0
 21 32  1  0  0  0
 21 33  1  0  0  0
 21 34  1  0  0  0
M  END
> <s_m_entry_id>
31939

> <s_m_entry_name>
dock_pv.202

> <s_m_Source_Path>
/home/csk/Desktop/cluster/DUD-E-result/src

> <s_m_Source_File>
dock_pv.maegz

> <i_m_Source_File_Index>
202

> <chembl_id>
CHEMBL72682

> <chembl_pref_name>
None

> <i_lp_mmshare_version>
53161

> <r_lp_tautomer_probability>
1

> <s_lp_Force_Field>
OPLS_2005

> <r_lp_Energy>
29.42027

> <b_lp_Chiralities_Consistent>
1

> <s_lp_Variant>
CHEMBL267_lig642-1

> <s_i_glide_gridfile>
glide-grid_3el8

> <i_i_glide_lignum>
761

> <i_i_glide_rotatable_bonds>
5

> <r_i_docking_score>
-7.85305137816303

> <r_i_glide_ligand_efficiency>
-0.373954827531573

> <r_i_glide_ligand_efficiency_sa>
-1.03171301350426

> <r_i_glide_ligand_efficiency_ln>
-1.94165108466634

> <r_i_glide_gscore>
-7.85305137816303

> <r_i_glide_lipo>
-2.69016526293691

> <r_i_glide_hbond>
0

> <r_i_glide_metal>
0

> <r_i_glide_rewards>
-1.98755061260161

> <r_i_glide_evdw>
-30.1906356811523

> <r_i_glide_ecoul>
-11.1053581237793

> <r_i_glide_erotb>
0

> <r_i_glide_esite>
0

> <r_i_glide_emodel>
-58.8000485375072

> <r_i_glide_energy>
-41.2959938049316

> <r_i_glide_einternal>
1.60469472408295

> <i_i_glide_confnum>
1

> <i_i_glide_posenum>
332

> <r_i_glide_eff_state_penalty>
0

> <s_user_duplicate_titles>
CHEMBL267_lig642

> <i_f3d_flags>
0

> <s_m_subgroup_title>
dock_pv

> <s_m_subgroupid>
dock_pv

> <b_m_subgroup_collapsed>
1

$$$$
CHEMBL267_lig589
                    3D
 Schrodinger Suite 2021-1.
 40 43  0  0  1  0            999 V2000
    7.5035    6.5028    7.5882 N   0  0  0  0  0  0
    7.8716    7.4547    6.6982 C   0  0  0  0  0  0
    7.0821    8.3856    6.1068 N   0  0  0  0  0  0
    6.2059    6.4979    7.9871 C   0  0  0  0  0  0
    5.2837    7.4369    7.4799 C   0  0  0  0  0  0
    5.7993    8.3352    6.5008 C   0  0  0  0  0  0
    4.7309    9.0649    5.9893 N   0  0  0  0  0  0
    3.5944    8.6610    6.6674 C   0  0  0  0  0  0
    3.8864    7.7194    7.6368 C   0  0  0  0  0  0
    2.9466    7.0489    8.5642 C   0  0  0  0  0  0
    1.9620    6.1844    8.0820 C   0  0  0  0  0  0
    1.0973    5.5233    8.9573 C   0  0  0  0  0  0
    1.2070    5.7741   10.3362 C   0  0  0  0  0  0
    2.1904    6.6368   10.8217 C   0  0  0  0  0  0
    3.0614    7.2699    9.9379 C   0  0  0  0  0  0
    4.7621   10.0607    4.9857 C   0  0  0  0  0  0
    3.7922   10.0549    3.9748 C   0  0  0  0  0  0
    3.8457   11.0036    2.9564 C   0  0  0  0  0  0
    4.8663   11.9517    2.9484 C   0  0  0  0  0  0
    5.8374   11.9618    3.9486 C   0  0  0  0  0  0
    5.7919   11.0101    4.9646 C   0  0  0  0  0  0
    5.7994    5.4374    8.7879 N   0  0  0  0  0  0
    0.1980    4.6441    8.3878 O   0  0  0  0  0  0
   -0.7238    3.9543    9.2263 C   0  0  0  0  0  0
    8.9104    7.4526    6.3966 H   0  0  0  0  0  0
    2.6447    9.1174    6.4268 H   0  0  0  0  0  0
    1.8827    5.9985    7.0211 H   0  0  0  0  0  0
    0.5530    5.2906   11.0464 H   0  0  0  0  0  0
    2.2825    6.8068   11.8841 H   0  0  0  0  0  0
    3.8262    7.9305   10.3224 H   0  0  0  0  0  0
    3.0053    9.3130    3.9632 H   0  0  0  0  0  0
    3.1038   11.0017    2.1708 H   0  0  0  0  0  0
    4.9087   12.6848    2.1546 H   0  0  0  0  0  0
    6.6243   12.7027    3.9318 H   0  0  0  0  0  0
    6.5533   11.0220    5.7313 H   0  0  0  0  0  0
    4.8425    5.3983    9.1129 H   0  0  0  0  0  0
    6.4892    4.7603    9.0905 H   0  0  0  0  0  0
   -1.3406    3.2931    8.6178 H   0  0  0  0  0  0
   -0.2087    3.3393    9.9656 H   0  0  0  0  0  0
   -1.3968    4.6424    9.7395 H   0  0  0  0  0  0
  1  2  2  0  0  0
  1  4  1  0  0  0
  2  3  1  0  0  0
  2 25  1  0  0  0
  3  6  2  0  0  0
  4  5  2  0  0  0
  4 22  1  0  0  0
  5  9  1  0  0  0
  5  6  1  0  0  0
  6  7  1  0  0  0
  7  8  1  0  0  0
  7 16  1  0  0  0
  8  9  2  0  0  0
  8 26  1  0  0  0
  9 10  1  0  0  0
 10 15  1  0  0  0
 10 11  2  0  0  0
 11 12  1  0  0  0
 11 27  1  0  0  0
 12 13  2  0  0  0
 12 23  1  0  0  0
 13 14  1  0  0  0
 13 28  1  0  0  0
 14 15  2  0  0  0
 14 29  1  0  0  0
 15 30  1  0  0  0
 16 17  2  0  0  0
 16 21  1  0  0  0
 17 18  1  0  0  0
 17 31  1  0  0  0
 18 19  2  0  0  0
 18 32  1  0  0  0
 19 20  1  0  0  0
 19 33  1  0  0  0
 20 21  2  0  0  0
 20 34  1  0  0  0
 21 35  1  0  0  0
 22 36  1  0  0  0
 22 37  1  0  0  0
 23 24  1  0  0  0
 24 38  1  0  0  0
 24 39  1  0  0  0
 24 40  1  0  0  0
M  END
> <s_m_entry_id>
31940

> <s_m_entry_name>
dock_pv.203

> <s_m_Source_Path>
/home/csk/Desktop/cluster/DUD-E-result/src

> <s_m_Source_File>
dock_pv.maegz

> <i_m_Source_File_Index>
203

> <chembl_id>
CHEMBL172973

> <chembl_pref_name>
None

> <i_lp_mmshare_version>
53161

> <r_lp_tautomer_probability>
1

> <s_lp_Force_Field>
OPLS_2005

> <r_lp_Energy>
20.469835

> <b_lp_Chiralities_Consistent>
1

> <s_lp_Variant>
CHEMBL267_lig589-1

> <s_i_glide_gridfile>
glide-grid_3el8

> <i_i_glide_lignum>
692

> <i_i_glide_rotatable_bonds>
3

> <r_i_docking_score>
-7.85227906083488

> <r_i_glide_ligand_efficiency>
-0.327178294201454

> <r_i_glide_ligand_efficiency_sa>
-0.943745507452156

> <r_i_glide_ligand_efficiency_ln>
-1.87941069686528

> <r_i_glide_gscore>
-7.85227906083488

> <r_i_glide_lipo>
-2.78058230911097

> <r_i_glide_hbond>
-0.42469095087022

> <r_i_glide_metal>
0

> <r_i_glide_rewards>
-2.35229997239183

> <r_i_glide_evdw>
-38.2035179138184

> <r_i_glide_ecoul>
-5.04359531402588

> <r_i_glide_erotb>
0.372009364332939

> <r_i_glide_esite>
0

> <r_i_glide_emodel>
-60.8678683620589

> <r_i_glide_energy>
-43.2471132278442

> <r_i_glide_einternal>
5.23504590988159

> <i_i_glide_confnum>
6

> <i_i_glide_posenum>
369

> <r_i_glide_eff_state_penalty>
0

> <s_user_duplicate_titles>
CHEMBL267_lig589,290729

> <i_f3d_flags>
0

> <s_m_subgroup_title>
dock_pv

> <s_m_subgroupid>
dock_pv

> <b_m_subgroup_collapsed>
1

$$$$
CHEMBL267_lig3120
                    3D
 Schrodinger Suite 2021-1.
 51 54  0  0  1  0            999 V2000
    1.8313    6.7937    9.3951 N   0  0  0  0  0  0
    2.7598    7.7684    9.3879 C   0  0  0  0  0  0
    3.0281    8.6369    8.3818 N   0  0  0  0  0  0
    1.1119    6.5961    8.2682 C   0  0  0  0  0  0
    1.3357    7.3958    7.1335 C   0  0  0  0  0  0
    2.3184    8.3992    7.2741 C   0  0  0  0  0  0
    2.4373    8.9974    6.0317 N   0  0  0  0  0  0
    1.5557    8.4627    5.1540 N   0  0  0  0  0  0
    0.8815    7.5293    5.7858 C   0  0  0  0  0  0
    0.1980    5.5447    8.2470 N   0  0  0  0  0  0
   -0.1770    4.8562    9.4781 C   0  0  0  0  0  0
    3.3886   10.0175    5.5744 C   0  0  0  0  0  0
    4.5397    9.4485    4.6823 C   0  0  1  0  0  0
    4.9447   10.4985    3.6206 C   0  0  0  0  0  0
    5.7343    8.8393    5.4668 C   0  0  0  0  0  0
    7.0611    9.2223    5.2093 C   0  0  0  0  0  0
    8.1220    8.6370    5.9001 C   0  0  0  0  0  0
    7.8706    7.7144    6.9073 C   0  0  0  0  0  0
    6.5671    7.3279    7.1880 C   0  0  0  0  0  0
    5.5171    7.8526    6.4384 C   0  0  0  0  0  0
    3.7980    7.8377   10.7929 S   0  0  0  0  0  0
    3.1224    6.7157   12.0420 C   0  0  0  0  0  0
   -0.8793    3.5576    9.1491 C   0  0  0  0  0  0
   -2.2426    3.4082    9.4031 C   0  0  0  0  0  0
   -2.8655    2.1812    9.1880 C   0  0  0  0  0  0
   -2.1282    1.1026    8.6962 C   0  0  0  0  0  0
   -0.7752    1.2615    8.3880 C   0  0  0  0  0  0
   -0.1505    2.4854    8.6321 C   0  0  0  0  0  0
    1.1677    2.6370    8.3880 F   0  0  0  0  0  0
    0.1215    6.9518    5.2779 H   0  0  0  0  0  0
   -0.5237    5.5875    7.5374 H   0  0  0  0  0  0
    0.6975    4.6343   10.0927 H   0  0  0  0  0  0
   -0.8233    5.5036   10.0714 H   0  0  0  0  0  0
    3.7980   10.5375    6.4382 H   0  0  0  0  0  0
    2.8034   10.7604    5.0294 H   0  0  0  0  0  0
    4.1202    8.6370    4.0943 H   0  0  0  0  0  0
    5.6553   10.0900    2.9010 H   0  0  0  0  0  0
    4.0813   10.8316    3.0429 H   0  0  0  0  0  0
    5.3913   11.3823    4.0780 H   0  0  0  0  0  0
    7.3000    9.9628    4.4624 H   0  0  0  0  0  0
    9.1393    8.9226    5.6742 H   0  0  0  0  0  0
    8.6940    7.2864    7.4590 H   0  0  0  0  0  0
    6.3706    6.5856    7.9484 H   0  0  0  0  0  0
    4.5349    7.4563    6.6131 H   0  0  0  0  0  0
    3.7985    6.6369   12.8937 H   0  0  0  0  0  0
    2.1435    7.0370   12.3944 H   0  0  0  0  0  0
    2.9979    5.7414   11.5872 H   0  0  0  0  0  0
   -2.8192    4.2370    9.7757 H   0  0  0  0  0  0
   -3.9217    2.0679    9.3848 H   0  0  0  0  0  0
   -2.6177    0.1574    8.5139 H   0  0  0  0  0  0
   -0.2039    0.4340    7.9939 H   0  0  0  0  0  0
  1  2  2  0  0  0
  1  4  1  0  0  0
  2 21  1  0  0  0
  2  3  1  0  0  0
  3  6  2  0  0  0
  4  5  2  0  0  0
  4 10  1  0  0  0
  5  9  1  0  0  0
  5  6  1  0  0  0
  6  7  1  0  0  0
  7  8  1  0  0  0
  7 12  1  0  0  0
  8  9  2  0  0  0
  9 30  1  0  0  0
 10 11  1  0  0  0
 10 31  1  0  0  0
 11 23  1  0  0  0
 11 32  1  0  0  0
 11 33  1  0  0  0
 12 13  1  0  0  0
 12 34  1  0  0  0
 12 35  1  0  0  0
 13 14  1  0  0  0
 13 15  1  0  0  0
 13 36  1  0  0  0
 14 37  1  0  0  0
 14 38  1  0  0  0
 14 39  1  0  0  0
 15 16  2  0  0  0
 15 20  1  0  0  0
 16 17  1  0  0  0
 16 40  1  0  0  0
 17 18  2  0  0  0
 17 41  1  0  0  0
 18 19  1  0  0  0
 18 42  1  0  0  0
 19 20  2  0  0  0
 19 43  1  0  0  0
 20 44  1  0  0  0
 21 22  1  0  0  0
 22 45  1  0  0  0
 22 46  1  0  0  0
 22 47  1  0  0  0
 23 24  2  0  0  0
 23 28  1  0  0  0
 24 25  1  0  0  0
 24 48  1  0  0  0
 25 26  2  0  0  0
 25 49  1  0  0  0
 26 27  1  0  0  0
 26 50  1  0  0  0
 27 28  2  0  0  0
 27 51  1  0  0  0
 28 29  1  0  0  0
M  END
> <s_m_entry_id>
31941

> <s_m_entry_name>
dock_pv.204

> <s_m_Source_Path>
/home/csk/Desktop/cluster/DUD-E-result/src

> <s_m_Source_File>
dock_pv.maegz

> <i_m_Source_File_Index>
204

> <chembl_id>
CHEMBL1836675

> <chembl_pref_name>
None

> <i_lp_mmshare_version>
53161

> <r_lp_tautomer_probability>
1

> <s_lp_Force_Field>
OPLS_2005

> <r_lp_Energy>
9.562635

> <b_lp_Chiralities_Consistent>
1

> <s_lp_Variant>
CHEMBL267_lig3120-2

> <s_i_glide_gridfile>
glide-grid_3el8

> <i_i_glide_lignum>
3606

> <i_i_glide_rotatable_bonds>
7

> <r_i_docking_score>
-7.84839973759093

> <r_i_glide_ligand_efficiency>
-0.270634473710032

> <r_i_glide_ligand_efficiency_sa>
-0.831474846256691

> <r_i_glide_ligand_efficiency_ln>
-1.79708452166274

> <r_i_glide_gscore>
-7.84839973759093

> <r_i_glide_lipo>
-4.02154996777906

> <r_i_glide_hbond>
-0.307173836687158

> <r_i_glide_metal>
0

> <r_i_glide_rewards>
-1.63238158612457

> <r_i_glide_evdw>
-39.1629219055176

> <r_i_glide_ecoul>
-4.10733366012573

> <r_i_glide_erotb>
0.710785133736464

> <r_i_glide_esite>
-0.0238333364418633

> <r_i_glide_emodel>
-56.3428763712251

> <r_i_glide_energy>
-43.2702555656433

> <r_i_glide_einternal>
11.7735300064087

> <i_i_glide_confnum>
5

> <i_i_glide_posenum>
100

> <r_i_glide_eff_state_penalty>
0

> <s_user_duplicate_titles>
CHEMBL267_lig3120

> <i_f3d_flags>
0

> <s_m_subgroup_title>
dock_pv

> <s_m_subgroupid>
dock_pv

> <b_m_subgroup_collapsed>
1

$$$$
CHEMBL267_lig1941
                    3D
 Schrodinger Suite 2021-1.
 41 45  0  0  1  0            999 V2000
    7.7915    6.7631    7.5878 N   0  0  0  0  0  0
    8.3839    7.6965    6.8068 C   0  0  0  0  0  0
    7.7901    8.6534    6.0544 N   0  0  0  0  0  0
    6.4408    6.8080    7.6648 C   0  0  0  0  0  0
    5.7022    7.8082    7.0005 C   0  0  0  0  0  0
    6.4605    8.6878    6.1996 C   0  0  0  0  0  0
    5.5564    9.5585    5.6221 N   0  0  0  0  0  0
    4.2927    9.2425    5.9829 N   0  0  0  0  0  0
    4.3441    8.2371    6.8280 C   0  0  0  0  0  0
    3.1055    7.7041    7.4630 C   0  0  0  0  0  0
    3.1322    7.3066    8.8069 C   0  0  0  0  0  0
    0.7687    7.0329    7.2372 C   0  0  0  0  0  0
    1.9364    7.5703    6.6993 C   0  0  0  0  0  0
    5.8328    5.7893    8.3881 N   0  0  0  0  0  0
    0.8239    6.6155    8.5698 C   0  0  0  0  0  0
    1.9797    6.7448    9.3743 C   0  0  0  0  0  0
    1.6041    6.2370   10.6554 C   0  0  0  0  0  0
    0.2822    5.8348   10.5306 C   0  0  0  0  0  0
   -0.2010    6.0595    9.2754 O   0  0  0  0  0  0
    5.8117   10.6573    4.6856 C   0  0  0  0  0  0
    5.3708   10.3283    3.2512 C   0  0  0  0  0  0
    5.1568   11.7005    2.6110 C   0  0  0  0  0  0
    4.5335   12.5414    3.7277 C   0  0  0  0  0  0
    5.1009   11.9856    5.0456 C   0  0  0  0  0  0
    9.4575    7.6835    6.7882 H   0  0  0  0  0  0
    4.0178    7.4411    9.4088 H   0  0  0  0  0  0
   -0.1316    6.9369    6.6483 H   0  0  0  0  0  0
    1.9352    7.8831    5.6643 H   0  0  0  0  0  0
    4.8254    5.7480    8.4398 H   0  0  0  0  0  0
    6.4146    5.0783    8.8096 H   0  0  0  0  0  0
    2.2063    6.1796   11.5511 H   0  0  0  0  0  0
   -0.4287    5.4009   11.2212 H   0  0  0  0  0  0
    6.8904   10.8346    4.6927 H   0  0  0  0  0  0
    6.1066    9.7277    2.7172 H   0  0  0  0  0  0
    4.4217    9.7888    3.2440 H   0  0  0  0  0  0
    6.1143   12.1284    2.3061 H   0  0  0  0  0  0
    4.5255   11.6535    1.7224 H   0  0  0  0  0  0
    4.7452   13.6051    3.6037 H   0  0  0  0  0  0
    3.4489   12.4250    3.7129 H   0  0  0  0  0  0
    4.2885   11.8568    5.7629 H   0  0  0  0  0  0
    5.8022   12.6926    5.4897 H   0  0  0  0  0  0
  1  2  2  0  0  0
  1  4  1  0  0  0
  2  3  1  0  0  0
  2 25  1  0  0  0
  3  6  2  0  0  0
  4 14  1  0  0  0
  4  5  2  0  0  0
  5  9  1  0  0  0
  5  6  1  0  0  0
  6  7  1  0  0  0
  7  8  1  0  0  0
  7 20  1  0  0  0
  8  9  2  0  0  0
  9 10  1  0  0  0
 10 13  1  0  0  0
 10 11  2  0  0  0
 11 16  1  0  0  0
 11 26  1  0  0  0
 12 15  1  0  0  0
 12 13  2  0  0  0
 12 27  1  0  0  0
 13 28  1  0  0  0
 14 29  1  0  0  0
 14 30  1  0  0  0
 15 16  2  0  0  0
 15 19  1  0  0  0
 16 17  1  0  0  0
 17 18  2  0  0  0
 17 31  1  0  0  0
 18 19  1  0  0  0
 18 32  1  0  0  0
 20 21  1  0  0  0
 20 24  1  0  0  0
 20 33  1  0  0  0
 21 22  1  0  0  0
 21 34  1  0  0  0
 21 35  1  0  0  0
 22 23  1  0  0  0
 22 36  1  0  0  0
 22 37  1  0  0  0
 23 24  1  0  0  0
 23 38  1  0  0  0
 23 39  1  0  0  0
 24 40  1  0  0  0
 24 41  1  0  0  0
M  END
> <s_m_entry_id>
31942

> <s_m_entry_name>
dock_pv.205

> <s_m_Source_Path>
/home/csk/Desktop/cluster/DUD-E-result/src

> <s_m_Source_File>
dock_pv.maegz

> <i_m_Source_File_Index>
205

> <chembl_id>
CHEMBL1241491

> <chembl_pref_name>
None

> <i_lp_mmshare_version>
53161

> <r_lp_tautomer_probability>
1

> <s_lp_Force_Field>
OPLS_2005

> <r_lp_Energy>
29.88333

> <b_lp_Chiralities_Consistent>
1

> <s_lp_Variant>
CHEMBL267_lig1941-1

> <s_i_glide_gridfile>
glide-grid_3el8

> <i_i_glide_lignum>
2222

> <i_i_glide_rotatable_bonds>
2

> <r_i_docking_score>
-7.84818286015389

> <r_i_glide_ligand_efficiency>
-0.327007619173079

> <r_i_glide_ligand_efficiency_sa>
-0.943253195480007

> <r_i_glide_ligand_efficiency_ln>
-1.87843028807992

> <r_i_glide_gscore>
-7.84818286015389

> <r_i_glide_lipo>
-2.21617120519721

> <r_i_glide_hbond>
-0.19232660246143

> <r_i_glide_metal>
0

> <r_i_glide_rewards>
-3.25868167350662

> <r_i_glide_evdw>
-38.6182174682617

> <r_i_glide_ecoul>
-3.37467908859253

> <r_i_glide_erotb>
0.256109357713324

> <r_i_glide_esite>
0

> <r_i_glide_emodel>
-61.3785206220263

> <r_i_glide_energy>
-41.9928965568542

> <r_i_glide_einternal>
0.714988946914673

> <i_i_glide_confnum>
26

> <i_i_glide_posenum>
187

> <r_i_glide_eff_state_penalty>
0

> <s_user_duplicate_titles>
CHEMBL267_lig1941

> <i_f3d_flags>
0

> <s_m_subgroup_title>
dock_pv

> <s_m_subgroupid>
dock_pv

> <b_m_subgroup_collapsed>
1

$$$$
CHEMBL267_lig481
                    3D
 Schrodinger Suite 2021-1.
 30 32  0  0  1  0            999 V2000
    3.1312    6.9330    8.7061 C   0  0  0  0  0  0
    3.0139    8.0428    7.8510 C   0  0  0  0  0  0
    4.0223    8.5102    7.0839 N   0  0  0  0  0  0
    1.9975    6.4103    9.5242 C   0  0  0  0  0  0
    5.2334    7.8994    7.1653 C   0  0  0  0  0  0
    4.3709    6.2914    8.7727 C   0  0  0  0  0  0
    5.4501    6.7670    7.9974 C   0  0  0  0  0  0
    6.3118    8.4063    6.4068 C   0  0  0  0  0  0
    7.7734    6.6650    7.2517 N   0  0  0  0  0  0
    7.5418    7.7603    6.4908 C   0  0  0  0  0  0
    0.8468    5.8849    8.9041 C   0  0  0  0  0  0
    2.0549    6.4220   10.9321 C   0  0  0  0  0  0
    6.7394    6.1907    7.9880 C   0  0  0  0  0  0
    1.8243    8.7541    7.7365 N   0  0  0  0  0  0
    8.5979    8.2392    5.7352 N   0  0  0  0  0  0
    0.6767    5.8366    7.1820 Cl  0  0  0  0  0  0
    3.4260    7.0373   11.7930 Cl  0  0  0  0  0  0
   -0.1368    5.4147   11.0575 C   0  0  0  0  0  0
    0.9869    5.9390   11.6850 C   0  0  0  0  0  0
   -0.2019    5.3849    9.6701 C   0  0  0  0  0  0
    4.5124    5.4365    9.4160 H   0  0  0  0  0  0
    6.1656    9.2709    5.7769 H   0  0  0  0  0  0
    6.9415    5.3209    8.5986 H   0  0  0  0  0  0
    0.9979    8.3280    8.1194 H   0  0  0  0  0  0
    1.7707    9.4389    6.9986 H   0  0  0  0  0  0
    8.4407    9.0147    5.1116 H   0  0  0  0  0  0
    9.3881    7.6125    5.5892 H   0  0  0  0  0  0
   -0.9666    5.0442   11.6411 H   0  0  0  0  0  0
    1.0286    5.9644   12.7650 H   0  0  0  0  0  0
   -1.0872    4.9925    9.1885 H   0  0  0  0  0  0
  1  2  1  0  0  0
  1  4  1  0  0  0
  1  6  2  0  0  0
  2  3  2  0  0  0
  2 14  1  0  0  0
  3  5  1  0  0  0
  4 11  2  0  0  0
  4 12  1  0  0  0
  5  7  1  0  0  0
  5  8  2  0  0  0
  6  7  1  0  0  0
  6 21  1  0  0  0
  7 13  2  0  0  0
  8 10  1  0  0  0
  8 22  1  0  0  0
  9 13  1  0  0  0
  9 10  2  0  0  0
 10 15  1  0  0  0
 11 16  1  0  0  0
 11 20  1  0  0  0
 12 17  1  0  0  0
 12 19  2  0  0  0
 13 23  1  0  0  0
 14 24  1  0  0  0
 14 25  1  0  0  0
 15 26  1  0  0  0
 15 27  1  0  0  0
 18 19  1  0  0  0
 18 20  2  0  0  0
 18 28  1  0  0  0
 19 29  1  0  0  0
 20 30  1  0  0  0
M  END
> <s_m_entry_id>
31943

> <s_m_entry_name>
dock_pv.206

> <s_m_Source_Path>
/home/csk/Desktop/cluster/DUD-E-result/src

> <s_m_Source_File>
dock_pv.maegz

> <i_m_Source_File_Index>
206

> <chembl_id>
CHEMBL132089

> <chembl_pref_name>
None

> <i_lp_mmshare_version>
53161

> <r_lp_tautomer_probability>
1

> <s_lp_Force_Field>
OPLS_2005

> <r_lp_Energy>
7.156726

> <b_lp_Chiralities_Consistent>
1

> <s_lp_Variant>
CHEMBL267_lig481-1

> <s_i_glide_gridfile>
glide-grid_3el8

> <i_i_glide_lignum>
573

> <i_i_glide_rotatable_bonds>
1

> <r_i_docking_score>
-7.84770041233382

> <r_i_glide_ligand_efficiency>
-0.392385020616691

> <r_i_glide_ligand_efficiency_sa>
-1.06509681138632

> <r_i_glide_ligand_efficiency_ln>
-1.96402057872454

> <r_i_glide_gscore>
-7.84770041233382

> <r_i_glide_lipo>
-2.74533050223624

> <r_i_glide_hbond>
-0.503839849625223

> <r_i_glide_metal>
0

> <r_i_glide_rewards>
-2.33187882443559

> <r_i_glide_evdw>
-31.2224731445312

> <r_i_glide_ecoul>
-5.62824773788452

> <r_i_glide_erotb>
0.138709581872462

> <r_i_glide_esite>
0

> <r_i_glide_emodel>
-53.6793453804918

> <r_i_glide_energy>
-36.8507208824158

> <r_i_glide_einternal>
0.132601231336594

> <i_i_glide_confnum>
4

> <i_i_glide_posenum>
392

> <r_i_glide_eff_state_penalty>
0

> <s_user_duplicate_titles>
CHEMBL267_lig481,222113

> <i_f3d_flags>
0

> <s_m_subgroup_title>
dock_pv

> <s_m_subgroupid>
dock_pv

> <b_m_subgroup_collapsed>
1

$$$$
CHEMBL267_lig3536
                    3D
 Schrodinger Suite 2021-1.
 43 46  0  0  1  0            999 V2000
    8.5942    8.6358    5.7185 N   0  0  0  0  0  0
    4.2822   10.2011    5.3228 N   0  0  0  0  0  0
    8.0281    6.7924    7.1891 N   0  0  0  0  0  0
    1.9498   10.5481    5.0898 N   0  0  0  0  0  0
    3.4069   12.3210    4.5968 N   0  0  0  0  0  0
    2.0596    8.6554    2.7874 N   0  0  0  0  0  0
    6.6004    9.7020    5.5946 C   0  0  0  0  0  0
    6.4724    8.5632    6.4788 C   0  0  0  0  0  0
    5.5427   10.6717    5.2003 C   0  0  0  0  0  0
    7.7386    7.9104    6.5131 C   0  0  0  0  0  0
    7.9257    9.7106    5.1871 C   0  0  0  0  0  0
    3.2593   11.0336    5.0054 C   0  0  0  0  0  0
    5.4441    7.9876    7.2505 C   0  0  0  0  0  0
    5.7961   11.9726    4.7549 C   0  0  0  0  0  0
    1.6633    9.1147    5.2398 C   0  0  2  0  0  0
    4.6844   12.7714    4.4681 C   0  0  0  0  0  0
    5.7236    6.8343    7.9869 C   0  0  0  0  0  0
    6.9980    6.2717    7.9095 C   0  0  0  0  0  0
    1.1430    8.5122    3.9057 C   0  0  2  0  0  0
    0.7024    8.9236    6.4263 C   0  0  0  0  0  0
    0.7638    7.0328    4.1014 C   0  0  0  0  0  0
    0.3327    7.4414    6.5922 C   0  0  0  0  0  0
   -0.2016    6.8321    5.2795 C   0  0  0  0  0  0
    9.5619    8.4193    5.5189 H   0  0  0  0  0  0
    1.1977   11.1678    4.8338 H   0  0  0  0  0  0
    1.5969    8.3375    1.9389 H   0  0  0  0  0  0
    2.2742    9.6335    2.6522 H   0  0  0  0  0  0
    8.4488   10.3864    4.5261 H   0  0  0  0  0  0
    4.4575    8.4245    7.2800 H   0  0  0  0  0  0
    6.7984   12.3480    4.6370 H   0  0  0  0  0  0
    2.5718    8.5654    5.4928 H   0  0  0  0  0  0
    4.8124   13.7906    4.1340 H   0  0  0  0  0  0
    4.9592    6.3663    8.5904 H   0  0  0  0  0  0
    7.2207    5.3658    8.4583 H   0  0  0  0  0  0
    0.2295    9.0548    3.6493 H   0  0  0  0  0  0
    1.1647    9.2888    7.3433 H   0  0  0  0  0  0
   -0.2018    9.5134    6.2805 H   0  0  0  0  0  0
    0.3089    6.6380    3.1919 H   0  0  0  0  0  0
    1.6596    6.4411    4.2903 H   0  0  0  0  0  0
   -0.4101    7.3371    7.3836 H   0  0  0  0  0  0
    1.2091    6.8783    6.9216 H   0  0  0  0  0  0
   -1.1676    7.2827    5.0408 H   0  0  0  0  0  0
   -0.3963    5.7693    5.4207 H   0  0  0  0  0  0
  1 10  1  0  0  0
  1 11  1  0  0  0
  1 24  1  0  0  0
  2  9  2  0  0  0
  2 12  1  0  0  0
  3 10  2  0  0  0
  3 18  1  0  0  0
  4 12  1  0  0  0
  4 15  1  0  0  0
  4 25  1  0  0  0
  5 12  2  0  0  0
  5 16  1  0  0  0
  6 19  1  0  0  0
  6 26  1  0  0  0
  6 27  1  0  0  0
  7  8  1  0  0  0
  7  9  1  0  0  0
  7 11  2  0  0  0
  8 10  1  0  0  0
  8 13  2  0  0  0
  9 14  1  0  0  0
 11 28  1  0  0  0
 13 17  1  0  0  0
 13 29  1  0  0  0
 14 16  2  0  0  0
 14 30  1  0  0  0
 15 19  1  0  0  0
 15 20  1  0  0  0
 15 31  1  0  0  0
 16 32  1  0  0  0
 17 18  2  0  0  0
 17 33  1  0  0  0
 18 34  1  0  0  0
 19 21  1  0  0  0
 19 35  1  0  0  0
 20 22  1  0  0  0
 20 36  1  0  0  0
 20 37  1  0  0  0
 21 23  1  0  0  0
 21 38  1  0  0  0
 21 39  1  0  0  0
 22 23  1  0  0  0
 22 40  1  0  0  0
 22 41  1  0  0  0
 23 42  1  0  0  0
 23 43  1  0  0  0
M  END
> <s_m_entry_id>
31944

> <s_m_entry_name>
dock_pv.207

> <s_m_Source_Path>
/home/csk/Desktop/cluster/DUD-E-result/src

> <s_m_Source_File>
dock_pv.maegz

> <i_m_Source_File_Index>
207

> <chembl_id>
CHEMBL1995813

> <chembl_pref_name>
None

> <i_lp_mmshare_version>
53161

> <r_lp_tautomer_probability>
0.999998420164496

> <s_lp_Force_Field>
OPLS_2005

> <r_lp_Energy>
10.857652

> <b_lp_Chiralities_Consistent>
1

> <s_lp_Variant>
CHEMBL267_lig3536-1

> <s_i_glide_gridfile>
glide-grid_3el8

> <i_i_glide_lignum>
4253

> <i_i_glide_rotatable_bonds>
3

> <r_i_docking_score>
-7.84063538069381

> <r_i_glide_ligand_efficiency>
-0.340897190464948

> <r_i_glide_ligand_efficiency_sa>
-0.969466262474185

> <r_i_glide_ligand_efficiency_ln>
-1.89593673000271

> <r_i_glide_gscore>
-7.84063538069381

> <r_i_glide_lipo>
-2.78412137142473

> <r_i_glide_hbond>
-0.636610006694001

> <r_i_glide_metal>
0

> <r_i_glide_rewards>
-2.19801180654148

> <r_i_glide_evdw>
-34.3563423156738

> <r_i_glide_ecoul>
-6.08408737182617

> <r_i_glide_erotb>
0.408538025524016

> <r_i_glide_esite>
0

> <r_i_glide_emodel>
-57.9886304616733

> <r_i_glide_energy>
-40.4404296875

> <r_i_glide_einternal>
2.20627164840698

> <i_i_glide_confnum>
2

> <i_i_glide_posenum>
376

> <r_i_glide_eff_state_penalty>
0

> <s_user_duplicate_titles>
CHEMBL267_lig3536

> <i_f3d_flags>
0

> <s_m_subgroup_title>
dock_pv

> <s_m_subgroupid>
dock_pv

> <b_m_subgroup_collapsed>
1

$$$$
CHEMBL267_lig108
                    3D
 Schrodinger Suite 2021-1.
 56 59  0  0  1  0            999 V2000
    4.5738    7.7225    7.1720 C   0  0  0  0  0  0
    5.0058    8.6705    6.1869 C   0  0  0  0  0  0
    3.8310    9.1553    5.5048 C   0  0  0  0  0  0
    3.1838    7.6208    7.1153 N   0  0  0  0  0  0
    2.7742    8.4903    6.1163 C   0  0  0  0  0  0
   -3.0025   -1.7214    6.6231 P   0  0  0  0  0  0
   -1.6153    0.4700    8.3880 P   0  0  2  0  0  0
   -1.8020   -0.2981    6.7020 C   0  0  0  0  0  0
    5.3977    7.0432    7.9857 N   0  0  0  0  0  0
    6.4017    8.8881    6.1399 C   0  0  0  0  0  0
    3.7386   10.1053    4.3456 C   0  0  0  0  0  0
    7.2569    8.1922    6.9218 N   0  0  0  0  0  0
    2.3231    6.7160    7.8109 C   0  0  0  0  0  0
    6.7106    7.3052    7.7815 C   0  0  0  0  0  0
   -3.0020   -2.5630    5.3704 O   0  0  0  0  0  0
   -2.8958    0.5649    9.1880 O   0  0  0  0  0  0
    4.6641   10.0942    3.2892 C   0  0  0  0  0  0
   -0.7676    1.9868    8.1719 O   0  0  0  0  0  0
   -2.6020   -2.5630    8.0562 O   0  0  0  0  0  0
   -4.4939   -0.9630    6.9229 O   0  0  0  0  0  0
   -0.5372   -0.6777    9.0716 O   0  0  0  0  0  0
    1.0197    7.1029    8.1439 C   0  0  0  0  0  0
    2.7606    5.4370    8.1910 C   0  0  0  0  0  0
    6.9852    9.8384    5.3118 N   0  0  0  0  0  0
    4.5905   11.0371    2.2576 C   0  0  0  0  0  0
    1.8831    4.5345    8.7914 C   0  0  0  0  0  0
    0.1664    6.2065    8.7880 C   0  0  0  0  0  0
    0.5776    4.9057    9.0754 C   0  0  0  0  0  0
    2.7150   11.0598    4.3275 C   0  0  0  0  0  0
    5.5199   11.0370    1.2455 O   0  0  0  0  0  0
   -1.3325    3.1621    8.7711 C   0  0  0  0  0  0
    2.6270   11.9905    3.2906 C   0  0  0  0  0  0
   -0.3724    3.9050    9.7329 C   0  0  0  0  0  0
    3.5675   11.9831    2.2601 C   0  0  0  0  0  0
    1.7246    8.5366    5.8648 H   0  0  0  0  0  0
   -0.8278   -0.6785    6.3960 H   0  0  0  0  0  0
   -2.0613    0.4259    5.9344 H   0  0  0  0  0  0
    7.4029    6.7416    8.3860 H   0  0  0  0  0  0
    5.4399    9.3442    3.2575 H   0  0  0  0  0  0
   -1.9643   -2.2159    8.7129 H   0  0  0  0  0  0
   -4.5768    0.0176    6.7880 H   0  0  0  0  0  0
    0.3619   -0.4664    9.4069 H   0  0  0  0  0  0
    0.6577    8.0893    7.8974 H   0  0  0  0  0  0
    3.7652    5.0995    7.9880 H   0  0  0  0  0  0
    6.3972   10.4224    4.7347 H   0  0  0  0  0  0
    7.9877    9.9480    5.3356 H   0  0  0  0  0  0
    2.1980    3.5338    9.0402 H   0  0  0  0  0  0
   -0.8456    6.4998    9.0241 H   0  0  0  0  0  0
    1.9895   11.0918    5.1270 H   0  0  0  0  0  0
    5.3980   11.7321    0.5808 H   0  0  0  0  0  0
   -1.6671    3.8357    7.9880 H   0  0  0  0  0  0
   -2.2288    2.9111    9.3388 H   0  0  0  0  0  0
    1.8341   12.7237    3.2895 H   0  0  0  0  0  0
   -0.9688    4.4671   10.4545 H   0  0  0  0  0  0
    0.1980    3.1947   10.3316 H   0  0  0  0  0  0
    3.4975   12.7112    1.4647 H   0  0  0  0  0  0
  1  2  1  0  0  0
  1  4  1  0  0  0
  1  9  2  0  0  0
  2  3  1  0  0  0
  2 10  2  0  0  0
  3 11  1  0  0  0
  3  5  2  0  0  0
  4  5  1  0  0  0
  4 13  1  0  0  0
  5 35  1  0  0  0
  6  8  1  0  0  0
  6 15  2  0  0  0
  6 19  1  0  0  0
  6 20  1  0  0  0
  7 18  1  0  0  0
  7  8  1  0  0  0
  7 16  2  0  0  0
  7 21  1  0  0  0
  8 36  1  0  0  0
  8 37  1  0  0  0
  9 14  1  0  0  0
 10 24  1  0  0  0
 10 12  1  0  0  0
 11 17  2  0  0  0
 11 29  1  0  0  0
 12 14  2  0  0  0
 13 22  2  0  0  0
 13 23  1  0  0  0
 14 38  1  0  0  0
 17 25  1  0  0  0
 17 39  1  0  0  0
 18 31  1  0  0  0
 19 40  1  0  0  0
 20 41  1  0  0  0
 21 42  1  0  0  0
 22 27  1  0  0  0
 22 43  1  0  0  0
 23 26  2  0  0  0
 23 44  1  0  0  0
 24 45  1  0  0  0
 24 46  1  0  0  0
 25 30  1  0  0  0
 25 34  2  0  0  0
 26 28  1  0  0  0
 26 47  1  0  0  0
 27 28  2  0  0  0
 27 48  1  0  0  0
 28 33  1  0  0  0
 29 32  2  0  0  0
 29 49  1  0  0  0
 30 50  1  0  0  0
 31 33  1  0  0  0
 31 51  1  0  0  0
 31 52  1  0  0  0
 32 34  1  0  0  0
 32 53  1  0  0  0
 33 54  1  0  0  0
 33 55  1  0  0  0
 34 56  1  0  0  0
M  END
> <s_m_entry_id>
31946

> <s_m_entry_name>
dock_pv.209

> <s_m_Source_Path>
/home/csk/Desktop/cluster/DUD-E-result/src

> <s_m_Source_File>
dock_pv.maegz

> <i_m_Source_File_Index>
209

> <chembl_id>
CHEMBL104215

> <chembl_pref_name>
None

> <i_lp_mmshare_version>
53161

> <r_lp_tautomer_probability>
0.999999999997365

> <s_lp_Force_Field>
OPLS_2005

> <r_lp_Energy>
7.284651

> <b_lp_Chiralities_Consistent>
1

> <s_lp_Variant>
CHEMBL267_lig108-1

> <s_i_glide_gridfile>
glide-grid_3el8

> <i_i_glide_lignum>
152

> <i_i_glide_rotatable_bonds>
12

> <r_i_docking_score>
-7.82925284946943

> <r_i_glide_ligand_efficiency>
-0.230272142631454

> <r_i_glide_ligand_efficiency_sa>
-0.74599234989743

> <r_i_glide_ligand_efficiency_ln>
-1.72970155755177

> <r_i_glide_gscore>
-7.82925284946943

> <r_i_glide_lipo>
-2.21335685502997

> <r_i_glide_hbond>
-0.360812902920127

> <r_i_glide_metal>
0

> <r_i_glide_rewards>
-0.942590091026305

> <r_i_glide_evdw>
-46.6294479370117

> <r_i_glide_ecoul>
-17.4542999267578

> <r_i_glide_erotb>
0.642990736186583

> <r_i_glide_esite>
-0.00586635081536008

> <r_i_glide_emodel>
-86.3356189779379

> <r_i_glide_energy>
-64.0837478637695

> <r_i_glide_einternal>
13.1219301223755

> <i_i_glide_confnum>
6

> <i_i_glide_posenum>
48

> <r_i_glide_eff_state_penalty>
0

> <s_user_duplicate_titles>
CHEMBL267_lig108

> <i_f3d_flags>
0

> <s_m_subgroup_title>
dock_pv

> <s_m_subgroupid>
dock_pv

> <b_m_subgroup_collapsed>
1

$$$$
CHEMBL267_lig1811
                    3D
 Schrodinger Suite 2021-1.
 42 45  0  0  1  0            999 V2000
    7.8254    6.8868    7.4928 N   0  0  0  0  0  0
    8.3446    7.8371    6.6774 C   0  0  0  0  0  0
    7.6748    8.7756    5.9610 N   0  0  0  0  0  0
    6.4790    6.8761    7.6333 C   0  0  0  0  0  0
    5.6663    7.8345    6.9927 C   0  0  0  0  0  0
    6.3511    8.7413    6.1530 C   0  0  0  0  0  0
    5.3799    9.5473    5.5866 N   0  0  0  0  0  0
    4.1491    9.1772    6.0080 N   0  0  0  0  0  0
    4.2811    8.1976    6.8759 C   0  0  0  0  0  0
    3.0943    7.6214    7.5799 C   0  0  0  0  0  0
    3.1829    7.2174    8.9186 C   0  0  0  0  0  0
    2.0879    6.6388    9.5637 C   0  0  0  0  0  0
    0.8879    6.4618    8.8681 C   0  0  0  0  0  0
    0.7885    6.8639    7.5364 C   0  0  0  0  0  0
    1.8860    7.4383    6.8953 C   0  0  0  0  0  0
    5.9532    5.8332    8.3879 N   0  0  0  0  0  0
   -0.1846    5.9030    9.4754 F   0  0  0  0  0  0
    2.1988    6.2376   10.8710 O   0  0  0  0  0  0
    5.5399   10.6579    4.6316 C   0  0  1  0  0  0
    4.9431   10.3490    3.2527 C   0  0  0  0  0  0
    3.5086   10.8830    3.3215 C   0  0  0  0  0  0
    3.5437   12.0867    4.2878 C   0  0  2  0  0  0
    4.8554   11.9584    5.0949 C   0  0  0  0  0  0
    2.2968   12.1729    5.1859 C   0  0  0  0  0  0
    9.4190    7.8368    6.5618 H   0  0  0  0  0  0
    4.0990    7.3739    9.4685 H   0  0  0  0  0  0
   -0.1390    6.7173    7.0001 H   0  0  0  0  0  0
    1.8002    7.7314    5.8584 H   0  0  0  0  0  0
    4.9532    5.7215    8.4578 H   0  0  0  0  0  0
    6.5875    5.1557    8.7884 H   0  0  0  0  0  0
    3.1026    6.0858   11.1652 H   0  0  0  0  0  0
    6.6240   10.7732    4.5858 H   0  0  0  0  0  0
    5.5007   10.8874    2.4844 H   0  0  0  0  0  0
    4.9871    9.2894    2.9923 H   0  0  0  0  0  0
    3.1486   11.1686    2.3316 H   0  0  0  0  0  0
    2.8367   10.1045    3.6869 H   0  0  0  0  0  0
    3.5874   13.0021    3.6950 H   0  0  0  0  0  0
    4.7027   11.9806    6.1757 H   0  0  0  0  0  0
    5.5028   12.8083    4.8733 H   0  0  0  0  0  0
    2.1886   11.2831    5.8071 H   0  0  0  0  0  0
    2.3472   13.0350    5.8511 H   0  0  0  0  0  0
    1.3896   12.2718    4.5890 H   0  0  0  0  0  0
  1  2  2  0  0  0
  1  4  1  0  0  0
  2  3  1  0  0  0
  2 25  1  0  0  0
  3  6  2  0  0  0
  4  5  2  0  0  0
  4 16  1  0  0  0
  5  9  1  0  0  0
  5  6  1  0  0  0
  6  7  1  0  0  0
  7  8  1  0  0  0
  7 19  1  0  0  0
  8  9  2  0  0  0
  9 10  1  0  0  0
 10 15  1  0  0  0
 10 11  2  0  0  0
 11 12  1  0  0  0
 11 26  1  0  0  0
 12 13  2  0  0  0
 12 18  1  0  0  0
 13 14  1  0  0  0
 13 17  1  0  0  0
 14 15  2  0  0  0
 14 27  1  0  0  0
 15 28  1  0  0  0
 16 29  1  0  0  0
 16 30  1  0  0  0
 18 31  1  0  0  0
 19 20  1  0  0  0
 19 23  1  0  0  0
 19 32  1  0  0  0
 20 21  1  0  0  0
 20 33  1  0  0  0
 20 34  1  0  0  0
 21 22  1  0  0  0
 21 35  1  0  0  0
 21 36  1  0  0  0
 22 23  1  0  0  0
 22 24  1  0  0  0
 22 37  1  0  0  0
 23 38  1  0  0  0
 23 39  1  0  0  0
 24 40  1  0  0  0
 24 41  1  0  0  0
 24 42  1  0  0  0
M  END
> <s_m_entry_id>
31947

> <s_m_entry_name>
dock_pv.210

> <s_m_Source_Path>
/home/csk/Desktop/cluster/DUD-E-result/src

> <s_m_Source_File>
dock_pv.maegz

> <i_m_Source_File_Index>
210

> <chembl_id>
CHEMBL1242656

> <chembl_pref_name>
None

> <i_lp_mmshare_version>
53161

> <r_lp_tautomer_probability>
0.999999999997365

> <s_lp_Force_Field>
OPLS_2005

> <r_lp_Energy>
30.720797

> <b_lp_Chiralities_Consistent>
1

> <s_lp_Variant>
CHEMBL267_lig1811-2

> <s_i_glide_gridfile>
glide-grid_3el8

> <i_i_glide_lignum>
2075

> <i_i_glide_rotatable_bonds>
3

> <r_i_docking_score>
-7.8272981064116

> <r_i_glide_ligand_efficiency>
-0.326137421100483

> <r_i_glide_ligand_efficiency_sa>
-0.940743109890099

> <r_i_glide_ligand_efficiency_ln>
-1.87343160817048

> <r_i_glide_gscore>
-7.8272981064116

> <r_i_glide_lipo>
-2.10224845396984

> <r_i_glide_hbond>
-0.185875085087066

> <r_i_glide_metal>
0

> <r_i_glide_rewards>
-3.10328861790804

> <r_i_glide_evdw>
-37.0351028442383

> <r_i_glide_ecoul>
-5.12073755264282

> <r_i_glide_erotb>
0.245179254816529

> <r_i_glide_esite>
-0.0611994291548462

> <r_i_glide_emodel>
-60.7070952079644

> <r_i_glide_energy>
-42.1558403968811

> <r_i_glide_einternal>
0.842785477638245

> <i_i_glide_confnum>
17

> <i_i_glide_posenum>
349

> <r_i_glide_eff_state_penalty>
0

> <s_user_duplicate_titles>
CHEMBL267_lig1811

> <i_f3d_flags>
0

> <s_m_subgroup_title>
dock_pv

> <s_m_subgroupid>
dock_pv

> <b_m_subgroup_collapsed>
1

$$$$
CHEMBL267_lig1917
                    3D
 Schrodinger Suite 2021-1.
 43 47  0  0  1  0            999 V2000
    7.7994    6.9032    7.5848 N   0  0  0  0  0  0
    8.3762    7.8359    6.7880 C   0  0  0  0  0  0
    7.7667    8.7488    5.9881 N   0  0  0  0  0  0
    6.4475    6.8981    7.6257 C   0  0  0  0  0  0
    5.6927    7.8370    6.8964 C   0  0  0  0  0  0
    6.4320    8.7197    6.0823 C   0  0  0  0  0  0
    5.4997    9.5075    5.4280 N   0  0  0  0  0  0
    4.2408    9.1718    5.8042 N   0  0  0  0  0  0
    4.3265    8.2030    6.6837 C   0  0  0  0  0  0
    3.1337    7.6125    7.3343 C   0  0  0  0  0  0
    3.1431    7.4512    8.7212 C   0  0  0  0  0  0
    1.0199    6.4483    7.2166 C   0  0  0  0  0  0
    2.0551    7.1345    6.5849 C   0  0  0  0  0  0
    5.8558    5.8967    8.3878 N   0  0  0  0  0  0
    1.0583    6.2503    8.5940 C   0  0  0  0  0  0
    2.1097    6.7675    9.3665 C   0  0  0  0  0  0
    2.1148    6.5835   10.8473 C   0  0  0  0  0  0
    0.9628    5.8395   11.3319 C   0  0  0  0  0  0
    0.0220    5.3617   10.4968 C   0  0  0  0  0  0
    0.0245    5.5326    9.1534 O   0  0  0  0  0  0
    3.0004    7.0365   11.5691 O   0  0  0  0  0  0
    5.7262   10.6314    4.5034 C   0  0  0  0  0  0
    4.8594   10.5687    3.2339 C   0  0  0  0  0  0
    3.6370   11.4645    3.5053 C   0  0  0  0  0  0
    3.9237   12.2436    4.8021 C   0  0  0  0  0  0
    5.3973   11.9891    5.1400 C   0  0  0  0  0  0
    9.4519    7.8384    6.7865 H   0  0  0  0  0  0
    3.9762    7.8409    9.2939 H   0  0  0  0  0  0
    0.1986    6.0510    6.6412 H   0  0  0  0  0  0
    2.0438    7.2545    5.5103 H   0  0  0  0  0  0
    4.8491    5.8349    8.4372 H   0  0  0  0  0  0
    6.4489    5.2347    8.8679 H   0  0  0  0  0  0
    0.8568    5.6662   12.3884 H   0  0  0  0  0  0
   -0.8432    4.7992   10.8232 H   0  0  0  0  0  0
    6.7873   10.5332    4.2693 H   0  0  0  0  0  0
    5.4249   10.9716    2.3914 H   0  0  0  0  0  0
    4.5820    9.5490    2.9574 H   0  0  0  0  0  0
    3.4626   12.1438    2.6683 H   0  0  0  0  0  0
    2.7361   10.8583    3.6184 H   0  0  0  0  0  0
    3.7122   13.3096    4.6966 H   0  0  0  0  0  0
    3.2901   11.8700    5.6090 H   0  0  0  0  0  0
    5.5929   12.0174    6.2133 H   0  0  0  0  0  0
    6.0178   12.7627    4.6851 H   0  0  0  0  0  0
  1  2  2  0  0  0
  1  4  1  0  0  0
  2  3  1  0  0  0
  2 27  1  0  0  0
  3  6  2  0  0  0
  4 14  1  0  0  0
  4  5  2  0  0  0
  5  9  1  0  0  0
  5  6  1  0  0  0
  6  7  1  0  0  0
  7  8  1  0  0  0
  7 22  1  0  0  0
  8  9  2  0  0  0
  9 10  1  0  0  0
 10 13  1  0  0  0
 10 11  2  0  0  0
 11 16  1  0  0  0
 11 28  1  0  0  0
 12 13  2  0  0  0
 12 15  1  0  0  0
 12 29  1  0  0  0
 13 30  1  0  0  0
 14 31  1  0  0  0
 14 32  1  0  0  0
 15 16  2  0  0  0
 15 20  1  0  0  0
 16 17  1  0  0  0
 17 18  1  0  0  0
 17 21  2  0  0  0
 18 19  2  0  0  0
 18 33  1  0  0  0
 19 20  1  0  0  0
 19 34  1  0  0  0
 22 23  1  0  0  0
 22 26  1  0  0  0
 22 35  1  0  0  0
 23 24  1  0  0  0
 23 36  1  0  0  0
 23 37  1  0  0  0
 24 25  1  0  0  0
 24 38  1  0  0  0
 24 39  1  0  0  0
 25 26  1  0  0  0
 25 40  1  0  0  0
 25 41  1  0  0  0
 26 42  1  0  0  0
 26 43  1  0  0  0
M  END
> <s_m_entry_id>
31948

> <s_m_entry_name>
dock_pv.211

> <s_m_Source_Path>
/home/csk/Desktop/cluster/DUD-E-result/src

> <s_m_Source_File>
dock_pv.maegz

> <i_m_Source_File_Index>
211

> <chembl_id>
CHEMBL1242119

> <chembl_pref_name>
None

> <i_lp_mmshare_version>
53161

> <r_lp_tautomer_probability>
1

> <s_lp_Force_Field>
OPLS_2005

> <r_lp_Energy>
30.755691

> <b_lp_Chiralities_Consistent>
1

> <s_lp_Variant>
CHEMBL267_lig1917-1

> <s_i_glide_gridfile>
glide-grid_3el8

> <i_i_glide_lignum>
2193

> <i_i_glide_rotatable_bonds>
2

> <r_i_docking_score>
-7.82061233248261

> <r_i_glide_ligand_efficiency>
-0.300792782018562

> <r_i_glide_ligand_efficiency_sa>
-0.891097433167545

> <r_i_glide_ligand_efficiency_ln>
-1.83664514476143

> <r_i_glide_gscore>
-7.82061233248261

> <r_i_glide_lipo>
-2.64989011159177

> <r_i_glide_hbond>
-0.0884833185392048

> <r_i_glide_metal>
0

> <r_i_glide_rewards>
-2.92134739134023

> <r_i_glide_evdw>
-43.328987121582

> <r_i_glide_ecoul>
-2.0650041103363

> <r_i_glide_erotb>
0.315308461618141

> <r_i_glide_esite>
0

> <r_i_glide_emodel>
-65.923432048856

> <r_i_glide_energy>
-45.3939912319183

> <r_i_glide_einternal>
1.06147742271423

> <i_i_glide_confnum>
31

> <i_i_glide_posenum>
167

> <r_i_glide_eff_state_penalty>
0

> <s_user_duplicate_titles>
CHEMBL267_lig1917

> <i_f3d_flags>
0

> <s_m_subgroup_title>
dock_pv

> <s_m_subgroupid>
dock_pv

> <b_m_subgroup_collapsed>
1

$$$$
CHEMBL267_lig2132
                    3D
 Schrodinger Suite 2021-1.
 39 42  0  0  1  0            999 V2000
    5.8980    8.3349    6.4132 C   0  0  0  0  0  0
    3.9164    7.7730    7.4598 C   0  0  0  0  0  0
    5.3203    7.4478    7.3765 C   0  0  0  0  0  0
    4.8791    9.0993    5.8554 N   0  0  0  0  0  0
    3.7112    8.7527    6.5026 C   0  0  0  0  0  0
    7.1952    8.3649    6.0747 N   0  0  0  0  0  0
    6.2171    6.5083    7.9385 C   0  0  0  0  0  0
    2.8772    7.1813    8.3543 C   0  0  0  0  0  0
    7.5290    6.4969    7.5883 N   0  0  0  0  0  0
    7.9474    7.4386    6.7113 C   0  0  0  0  0  0
    4.9805   10.0761    4.8353 C   0  0  0  0  0  0
    1.6624    6.6491    7.8768 C   0  0  0  0  0  0
    5.7965    5.4863    8.7876 N   0  0  0  0  0  0
    3.1389    7.1622    9.7296 C   0  0  0  0  0  0
    6.0693   10.9570    4.7985 C   0  0  0  0  0  0
    4.0256   10.1036    3.8103 C   0  0  0  0  0  0
    1.3338    6.5943    6.3896 C   0  0  0  0  0  0
    0.7360    6.1205    8.7823 C   0  0  0  0  0  0
    2.2078    6.6373   10.6237 C   0  0  0  0  0  0
    1.0059    6.1147   10.1499 C   0  0  0  0  0  0
    4.1542   11.0143    2.7645 C   0  0  0  0  0  0
    6.1927   11.8673    3.7520 C   0  0  0  0  0  0
    5.2370   11.8903    2.7386 C   0  0  0  0  0  0
    2.7955    9.2601    6.2366 H   0  0  0  0  0  0
    8.9986    7.4314    6.4611 H   0  0  0  0  0  0
    4.8268    5.4349    9.0691 H   0  0  0  0  0  0
    6.4802    4.8153    9.1167 H   0  0  0  0  0  0
    4.0664    7.5627   10.1135 H   0  0  0  0  0  0
    6.8224   10.9435    5.5733 H   0  0  0  0  0  0
    3.1943    9.4132    3.8054 H   0  0  0  0  0  0
    1.0504    7.5797    6.0221 H   0  0  0  0  0  0
    2.1980    6.2531    5.8193 H   0  0  0  0  0  0
    0.5219    5.8976    6.1758 H   0  0  0  0  0  0
   -0.1955    5.7057    8.4213 H   0  0  0  0  0  0
    2.4247    6.6261   11.6825 H   0  0  0  0  0  0
    0.2833    5.7032   10.8405 H   0  0  0  0  0  0
    3.4234   11.0354    1.9689 H   0  0  0  0  0  0
    7.0302   12.5494    3.7212 H   0  0  0  0  0  0
    5.3401   12.5905    1.9208 H   0  0  0  0  0  0
  1  3  2  0  0  0
  1  4  1  0  0  0
  1  6  1  0  0  0
  2  3  1  0  0  0
  2  8  1  0  0  0
  2  5  2  0  0  0
  3  7  1  0  0  0
  4  5  1  0  0  0
  4 11  1  0  0  0
  5 24  1  0  0  0
  6 10  2  0  0  0
  7 13  1  0  0  0
  7  9  2  0  0  0
  8 12  2  0  0  0
  8 14  1  0  0  0
  9 10  1  0  0  0
 10 25  1  0  0  0
 11 15  1  0  0  0
 11 16  2  0  0  0
 12 17  1  0  0  0
 12 18  1  0  0  0
 13 26  1  0  0  0
 13 27  1  0  0  0
 14 19  2  0  0  0
 14 28  1  0  0  0
 15 22  2  0  0  0
 15 29  1  0  0  0
 16 21  1  0  0  0
 16 30  1  0  0  0
 17 31  1  0  0  0
 17 32  1  0  0  0
 17 33  1  0  0  0
 18 20  2  0  0  0
 18 34  1  0  0  0
 19 20  1  0  0  0
 19 35  1  0  0  0
 20 36  1  0  0  0
 21 23  2  0  0  0
 21 37  1  0  0  0
 22 23  1  0  0  0
 22 38  1  0  0  0
 23 39  1  0  0  0
M  END
> <s_m_entry_id>
31949

> <s_m_entry_name>
dock_pv.212

> <s_m_Source_Path>
/home/csk/Desktop/cluster/DUD-E-result/src

> <s_m_Source_File>
dock_pv.maegz

> <i_m_Source_File_Index>
212

> <chembl_id>
CHEMBL174634

> <chembl_pref_name>
None

> <i_lp_mmshare_version>
53161

> <r_lp_tautomer_probability>
1

> <s_lp_Force_Field>
OPLS_2005

> <r_lp_Energy>
17.318702

> <b_lp_Chiralities_Consistent>
1

> <s_lp_Variant>
CHEMBL267_lig2132-1

> <s_i_glide_gridfile>
glide-grid_3el8

> <i_i_glide_lignum>
2417

> <i_i_glide_rotatable_bonds>
2

> <r_i_docking_score>
-7.8174089141921

> <r_i_glide_ligand_efficiency>
-0.339887344095309

> <r_i_glide_ligand_efficiency_sa>
-0.966594393731845

> <r_i_glide_ligand_efficiency_ln>
-1.89032035979664

> <r_i_glide_gscore>
-7.8174089141921

> <r_i_glide_lipo>
-2.5133180464753

> <r_i_glide_hbond>
-0.444367589475055

> <r_i_glide_metal>
0

> <r_i_glide_rewards>
-2.69296013847493

> <r_i_glide_evdw>
-34.8529777526855

> <r_i_glide_ecoul>
-5.54398822784424

> <r_i_glide_erotb>
0.40748398204409

> <r_i_glide_esite>
0

> <r_i_glide_emodel>
-58.482518757896

> <r_i_glide_energy>
-40.3969659805298

> <r_i_glide_einternal>
0.291002064943314

> <i_i_glide_confnum>
8

> <i_i_glide_posenum>
103

> <r_i_glide_eff_state_penalty>
0

> <s_user_duplicate_titles>
CHEMBL267_lig2132

> <i_f3d_flags>
0

> <s_m_subgroup_title>
dock_pv

> <s_m_subgroupid>
dock_pv

> <b_m_subgroup_collapsed>
1

$$$$
CHEMBL267_lig3901
                    3D
 Schrodinger Suite 2021-1.
 51 54  0  0  1  0            999 V2000
    2.4683    7.5018    7.2905 N   0  0  0  0  0  0
    2.7118    8.3156    6.2324 C   0  0  0  0  0  0
    3.9228    8.7154    5.7838 N   0  0  0  0  0  0
    3.5366    7.0363    7.9888 C   0  0  0  0  0  0
    4.8384    7.3945    7.6095 C   0  0  0  0  0  0
    4.9476    8.2373    6.4882 C   0  0  0  0  0  0
    6.3046    8.3999    6.2652 N   0  0  0  0  0  0
    7.0318    7.7362    7.1923 N   0  0  0  0  0  0
    6.1865    7.1287    7.9877 C   0  0  0  0  0  0
    3.3226    6.1618    9.0597 N   0  0  0  0  0  0
    2.1032    5.6402    9.5147 C   0  0  0  0  0  0
    1.3444    4.8063    8.6855 C   0  0  0  0  0  0
    0.1270    4.2894    9.1308 C   0  0  0  0  0  0
   -0.3549    4.6371   10.3883 C   0  0  0  0  0  0
    0.3849    5.4816   11.2134 C   0  0  0  0  0  0
    1.6212    5.9692   10.7890 C   0  0  0  0  0  0
   -0.5995    3.4367    8.3446 O   0  0  0  0  0  0
    6.9913    9.0573    5.1539 C   0  0  0  0  0  0
    6.8487   10.6006    5.1618 C   0  0  2  0  0  0
    5.4845   11.1122    4.7033 C   0  0  0  0  0  0
    5.0284   10.8331    3.4084 C   0  0  0  0  0  0
    3.7645   11.2553    3.0057 C   0  0  0  0  0  0
    2.9561   11.9551    3.8982 C   0  0  0  0  0  0
    3.4051   12.2459    5.1851 C   0  0  0  0  0  0
    4.6754   11.8370    5.5835 C   0  0  0  0  0  0
    8.1498   11.2951    4.1535 Cl  0  0  0  0  0  0
    1.6476    8.7943    5.4680 N   0  0  0  0  0  0
    0.4463    7.9829    5.3041 C   0  0  0  0  0  0
    0.5522    7.0262    4.1092 C   0  0  0  0  0  0
   -0.6024    6.2347    3.9880 O   0  0  0  0  0  0
    2.5547    6.9355   11.8796 Cl  0  0  0  0  0  0
    6.5306    6.4904    8.7873 H   0  0  0  0  0  0
    4.1273    5.9410    9.6292 H   0  0  0  0  0  0
    1.7074    4.5495    7.7032 H   0  0  0  0  0  0
   -1.3046    4.2550   10.7340 H   0  0  0  0  0  0
    0.0046    5.7402   12.1907 H   0  0  0  0  0  0
   -1.4263    3.1805    8.7625 H   0  0  0  0  0  0
    6.5978    8.6290    4.2306 H   0  0  0  0  0  0
    8.0490    8.7848    5.1976 H   0  0  0  0  0  0
    7.0431   10.9684    6.1709 H   0  0  0  0  0  0
    5.6483   10.2828    2.7168 H   0  0  0  0  0  0
    3.4121   11.0405    2.0058 H   0  0  0  0  0  0
    1.9737   12.2781    3.5865 H   0  0  0  0  0  0
    2.7695   12.7856    5.8705 H   0  0  0  0  0  0
    5.0165   12.0630    6.5825 H   0  0  0  0  0  0
    1.9247    9.3619    4.6817 H   0  0  0  0  0  0
    0.2137    7.4117    6.2049 H   0  0  0  0  0  0
   -0.4136    8.6371    5.1879 H   0  0  0  0  0  0
    0.7818    7.5719    3.1920 H   0  0  0  0  0  0
    1.4426    6.4036    4.2165 H   0  0  0  0  0  0
   -1.2110    6.6447    3.3626 H   0  0  0  0  0  0
  1  2  2  0  0  0
  1  4  1  0  0  0
  2  3  1  0  0  0
  2 27  1  0  0  0
  3  6  2  0  0  0
  4  5  2  0  0  0
  4 10  1  0  0  0
  5  6  1  0  0  0
  5  9  1  0  0  0
  6  7  1  0  0  0
  7  8  1  0  0  0
  7 18  1  0  0  0
  8  9  2  0  0  0
  9 32  1  0  0  0
 10 11  1  0  0  0
 10 33  1  0  0  0
 11 12  2  0  0  0
 11 16  1  0  0  0
 12 13  1  0  0  0
 12 34  1  0  0  0
 13 14  2  0  0  0
 13 17  1  0  0  0
 14 15  1  0  0  0
 14 35  1  0  0  0
 15 16  2  0  0  0
 15 36  1  0  0  0
 16 31  1  0  0  0
 17 37  1  0  0  0
 18 19  1  0  0  0
 18 38  1  0  0  0
 18 39  1  0  0  0
 19 20  1  0  0  0
 19 26  1  0  0  0
 19 40  1  0  0  0
 20 21  2  0  0  0
 20 25  1  0  0  0
 21 22  1  0  0  0
 21 41  1  0  0  0
 22 23  2  0  0  0
 22 42  1  0  0  0
 23 24  1  0  0  0
 23 43  1  0  0  0
 24 25  2  0  0  0
 24 44  1  0  0  0
 25 45  1  0  0  0
 27 28  1  0  0  0
 27 46  1  0  0  0
 28 29  1  0  0  0
 28 47  1  0  0  0
 28 48  1  0  0  0
 29 30  1  0  0  0
 29 49  1  0  0  0
 29 50  1  0  0  0
 30 51  1  0  0  0
M  END
> <s_m_entry_id>
31950

> <s_m_entry_name>
dock_pv.213

> <s_m_Source_Path>
/home/csk/Desktop/cluster/DUD-E-result/src

> <s_m_Source_File>
dock_pv.maegz

> <i_m_Source_File_Index>
213

> <chembl_id>
CHEMBL4283564

> <chembl_pref_name>
None

> <i_lp_mmshare_version>
53161

> <r_lp_tautomer_probability>
0.99999558864179

> <s_lp_Force_Field>
OPLS_2005

> <r_lp_Energy>
19.54786

> <b_lp_Chiralities_Consistent>
1

> <s_lp_Variant>
CHEMBL267_lig3901-1

> <s_i_glide_gridfile>
glide-grid_3el8

> <i_i_glide_lignum>
4825

> <i_i_glide_rotatable_bonds>
10

> <r_i_docking_score>
-7.81726013725763

> <r_i_glide_ligand_efficiency>
-0.25216968184702

> <r_i_glide_ligand_efficiency_sa>
-0.792160958767166

> <r_i_glide_ligand_efficiency_ln>
-1.7630317312035

> <r_i_glide_gscore>
-7.81726013725763

> <r_i_glide_lipo>
-3.87959211394827

> <r_i_glide_hbond>
-0.54959504191615

> <r_i_glide_metal>
0

> <r_i_glide_rewards>
-1.00890228760437

> <r_i_glide_evdw>
-48.2473945617676

> <r_i_glide_ecoul>
-4.86466312408447

> <r_i_glide_erotb>
0.762898502912207

> <r_i_glide_esite>
0

> <r_i_glide_emodel>
-72.746621680206

> <r_i_glide_energy>
-53.1120576858521

> <r_i_glide_einternal>
10.3065404891968

> <i_i_glide_confnum>
30

> <i_i_glide_posenum>
165

> <r_i_glide_eff_state_penalty>
0

> <s_user_duplicate_titles>
CHEMBL267_lig3901

> <i_f3d_flags>
0

> <s_m_subgroup_title>
dock_pv

> <s_m_subgroupid>
dock_pv

> <b_m_subgroup_collapsed>
1

$$$$
CHEMBL267_lig703
                    3D
 Schrodinger Suite 2021-1.
 51 53  0  0  1  0            999 V2000
    3.1459    7.8186    7.8930 C   0  0  0  0  0  0
    4.1541    8.2886    7.1045 N   0  0  0  0  0  0
    6.3502    8.2857    6.4034 N   0  0  0  0  0  0
    5.3826    7.7361    7.1880 C   0  0  0  0  0  0
    3.3294    6.7637    8.8082 C   0  0  0  0  0  0
    1.8672    8.4126    7.8305 N   0  0  0  0  0  0
    1.3518    9.3538    7.0087 C   0  0  0  0  0  0
    5.6326    6.6335    8.0425 C   0  0  0  0  0  0
    2.2568    6.2839    9.7356 C   0  0  0  0  0  0
    7.5682    7.7041    6.4783 C   0  0  0  0  0  0
    4.5889    6.1647    8.8671 C   0  0  0  0  0  0
    1.1723    5.4871    9.3107 C   0  0  0  0  0  0
    7.9183    6.6371    7.2275 N   0  0  0  0  0  0
    2.1632    9.8369    6.0432 N   0  0  0  0  0  0
    6.9360    6.1027    7.9880 C   0  0  0  0  0  0
    0.1978    9.7300    7.1873 O   0  0  0  0  0  0
    0.1772    5.1000   10.2339 C   0  0  0  0  0  0
    1.8880   10.6813    4.8779 C   0  0  0  0  0  0
    8.5581    8.2398    5.6847 N   0  0  0  0  0  0
    2.3420    6.6378   11.0855 C   0  0  0  0  0  0
    1.0956    5.0370    7.8568 C   0  0  0  0  0  0
    1.3431    6.2817   11.9863 C   0  0  0  0  0  0
    0.2542    5.5336   11.5569 C   0  0  0  0  0  0
   -0.9866    4.1921    9.8516 C   0  0  0  0  0  0
    1.0805    9.8861    3.8312 C   0  0  0  0  0  0
    3.2505   11.0531    4.2567 C   0  0  0  0  0  0
    1.1706   11.9954    5.2648 C   0  0  0  0  0  0
    1.2266    8.0391    8.5126 H   0  0  0  0  0  0
    4.7741    5.3627    9.5656 H   0  0  0  0  0  0
    3.1173    9.5067    6.0944 H   0  0  0  0  0  0
    7.1968    5.2476    8.5954 H   0  0  0  0  0  0
    8.2858    8.9726    5.0508 H   0  0  0  0  0  0
    9.3626    7.6445    5.4939 H   0  0  0  0  0  0
    3.1806    7.2194   11.4382 H   0  0  0  0  0  0
    0.1203    4.6371    7.5882 H   0  0  0  0  0  0
    1.2672    5.8666    7.1737 H   0  0  0  0  0  0
    1.8628    4.2887    7.6614 H   0  0  0  0  0  0
    1.4120    6.5930   13.0184 H   0  0  0  0  0  0
   -0.5195    5.2750   12.2657 H   0  0  0  0  0  0
   -0.6229    3.3029    9.3361 H   0  0  0  0  0  0
   -1.5417    3.8408   10.7224 H   0  0  0  0  0  0
   -1.6816    4.7056    9.1879 H   0  0  0  0  0  0
    0.1979    9.4349    4.2759 H   0  0  0  0  0  0
    0.7539   10.5148    3.0019 H   0  0  0  0  0  0
    1.6639    9.0667    3.4077 H   0  0  0  0  0  0
    3.8751   11.6114    4.9566 H   0  0  0  0  0  0
    3.8139   10.1665    3.9591 H   0  0  0  0  0  0
    3.1301   11.6707    3.3652 H   0  0  0  0  0  0
    1.7531   12.5690    5.9871 H   0  0  0  0  0  0
    1.0099   12.6335    4.3945 H   0  0  0  0  0  0
    0.1964   11.8150    5.7133 H   0  0  0  0  0  0
  1  2  2  0  0  0
  1  5  1  0  0  0
  1  6  1  0  0  0
  2  4  1  0  0  0
  3  4  2  0  0  0
  3 10  1  0  0  0
  4  8  1  0  0  0
  5  9  1  0  0  0
  5 11  2  0  0  0
  6  7  1  0  0  0
  6 28  1  0  0  0
  7 14  1  0  0  0
  7 16  2  0  0  0
  8 11  1  0  0  0
  8 15  2  0  0  0
  9 12  1  0  0  0
  9 20  2  0  0  0
 10 19  1  0  0  0
 10 13  2  0  0  0
 11 29  1  0  0  0
 12 17  2  0  0  0
 12 21  1  0  0  0
 13 15  1  0  0  0
 14 18  1  0  0  0
 14 30  1  0  0  0
 15 31  1  0  0  0
 17 24  1  0  0  0
 17 23  1  0  0  0
 18 25  1  0  0  0
 18 26  1  0  0  0
 18 27  1  0  0  0
 19 32  1  0  0  0
 19 33  1  0  0  0
 20 22  1  0  0  0
 20 34  1  0  0  0
 21 35  1  0  0  0
 21 36  1  0  0  0
 21 37  1  0  0  0
 22 23  2  0  0  0
 22 38  1  0  0  0
 23 39  1  0  0  0
 24 40  1  0  0  0
 24 41  1  0  0  0
 24 42  1  0  0  0
 25 43  1  0  0  0
 25 44  1  0  0  0
 25 45  1  0  0  0
 26 46  1  0  0  0
 26 47  1  0  0  0
 26 48  1  0  0  0
 27 49  1  0  0  0
 27 50  1  0  0  0
 27 51  1  0  0  0
M  END
> <s_m_entry_id>
31951

> <s_m_entry_name>
dock_pv.214

> <s_m_Source_Path>
/home/csk/Desktop/cluster/DUD-E-result/src

> <s_m_Source_File>
dock_pv.maegz

> <i_m_Source_File_Index>
214

> <chembl_id>
CHEMBL82431

> <chembl_pref_name>
None

> <i_lp_mmshare_version>
53161

> <r_lp_tautomer_probability>
1

> <s_lp_Force_Field>
OPLS_2005

> <r_lp_Energy>
20.287835

> <b_lp_Chiralities_Consistent>
1

> <s_lp_Variant>
CHEMBL267_lig703-1

> <s_i_glide_gridfile>
glide-grid_3el8

> <i_i_glide_lignum>
822

> <i_i_glide_rotatable_bonds>
5

> <r_i_docking_score>
-7.81276882840612

> <r_i_glide_ligand_efficiency>
-0.289361808459486

> <r_i_glide_ligand_efficiency_sa>
-0.868085424424769

> <r_i_glide_ligand_efficiency_ln>
-1.81868377969226

> <r_i_glide_gscore>
-7.81276882840612

> <r_i_glide_lipo>
-2.47686569843159

> <r_i_glide_hbond>
-0.603913271542453

> <r_i_glide_metal>
0

> <r_i_glide_rewards>
-2.14290335206616

> <r_i_glide_evdw>
-37.7271766662598

> <r_i_glide_ecoul>
-7.38674545288086

> <r_i_glide_erotb>
0.405284144879203

> <r_i_glide_esite>
0

> <r_i_glide_emodel>
-62.1319671360229

> <r_i_glide_energy>
-45.1139221191406

> <r_i_glide_einternal>
2.1016526222229

> <i_i_glide_confnum>
8

> <i_i_glide_posenum>
225

> <r_i_glide_eff_state_penalty>
0

> <s_user_duplicate_titles>
CHEMBL267_lig703

> <i_f3d_flags>
0

> <s_m_subgroup_title>
dock_pv

> <s_m_subgroupid>
dock_pv

> <b_m_subgroup_collapsed>
1

$$$$
CHEMBL267_lig52
                    3D
 Schrodinger Suite 2021-1.
 71 74  0  0  1  0            999 V2000
    1.9161    9.2697    3.3681 C   0  0  0  0  0  0
    2.2266   10.5432    2.5918 C   0  0  0  0  0  0
    2.8614   11.6351    3.0761 C   0  0  0  0  0  0
    2.4199    9.3264    4.8296 C   0  0  0  0  0  0
    3.6399   10.2675    5.1002 C   0  0  2  0  0  0
    3.3047   11.7214    4.5558 C   0  0  1  0  0  0
    4.5051   12.6743    4.8388 C   0  0  0  0  0  0
    5.8683   12.1149    4.4308 C   0  0  0  0  0  0
    6.1551   10.7635    5.1279 C   0  0  1  0  0  0
    5.0805    9.6795    4.7329 C   0  0  1  0  0  0
    3.0806   12.8458    2.1759 C   0  0  0  0  0  0
    3.6731   10.4357    6.1764 H   0  0  0  0  0  0
    2.0936   12.3454    5.3103 C   0  0  0  0  0  0
    5.3714    8.3428    5.5201 C   0  0  0  0  0  0
    7.6226   10.3313    4.8677 C   0  0  0  0  0  0
    5.4960    8.3343    7.0909 C   0  0  2  0  0  0
    6.7278    7.5086    7.5180 C   0  0  0  0  0  0
    6.4622    6.0475    7.9879 C   0  0  0  0  0  0
    5.1203    5.7360    8.4483 C   0  0  0  0  0  0
    4.0536    6.5668    8.3878 C   0  0  0  0  0  0
    4.1468    7.9100    7.7695 C   0  0  0  0  0  0
    3.1579    8.6405    7.7674 O   0  0  0  0  0  0
    7.3981    5.2611    7.9893 O   0  0  0  0  0  0
    2.8002    6.1970    8.8404 N   0  0  0  0  0  0
    2.2545    4.8536    8.9389 C   0  0  0  0  0  0
    0.7977    4.8399    9.4518 C   0  0  0  0  0  0
    0.0118    3.5668    9.1392 C   0  0  0  0  0  0
   -1.3835    3.6087    9.1732 C   0  0  0  0  0  0
   -2.1255    2.4940    8.7876 C   0  0  0  0  0  0
   -1.4743    1.3264    8.3878 C   0  0  0  0  0  0
   -0.0873    1.2615    8.3884 C   0  0  0  0  0  0
    0.6520    2.3746    8.7854 C   0  0  0  0  0  0
   -2.2019    0.2385    7.9877 O   0  0  0  0  0  0
    7.8939    7.9098    7.5145 O   0  0  0  0  0  0
    5.2056    9.4111    3.2005 C   0  0  0  0  0  0
    2.3749    8.4345    2.8401 H   0  0  0  0  0  0
    0.8467    9.0532    3.3438 H   0  0  0  0  0  0
    1.9205   10.5613    1.5551 H   0  0  0  0  0  0
    2.5852    8.3153    5.1933 H   0  0  0  0  0  0
    1.5917    9.6664    5.4481 H   0  0  0  0  0  0
    4.5564   12.8720    5.9107 H   0  0  0  0  0  0
    4.3552   13.6533    4.3842 H   0  0  0  0  0  0
    6.6002   12.8519    4.7463 H   0  0  0  0  0  0
    5.9906   12.0624    3.3502 H   0  0  0  0  0  0
    6.0507   10.9699    6.1928 H   0  0  0  0  0  0
    2.6475   13.7425    2.6185 H   0  0  0  0  0  0
    4.1459   13.0152    2.0131 H   0  0  0  0  0  0
    2.6220   12.7147    1.1954 H   0  0  0  0  0  0
    2.2467   12.3469    6.3876 H   0  0  0  0  0  0
    1.9368   13.3850    5.0186 H   0  0  0  0  0  0
    1.1573   11.8225    5.1200 H   0  0  0  0  0  0
    6.2600    7.8972    5.0690 H   0  0  0  0  0  0
    4.6110    7.6260    5.2442 H   0  0  0  0  0  0
    7.8336   10.2378    3.8084 H   0  0  0  0  0  0
    8.3425   11.0510    5.2359 H   0  0  0  0  0  0
    7.8796    9.3887    5.3445 H   0  0  0  0  0  0
    4.9792    4.7660    8.8977 H   0  0  0  0  0  0
    2.0764    6.9013    8.7806 H   0  0  0  0  0  0
    2.8842    4.2645    9.6077 H   0  0  0  0  0  0
    2.3158    4.4057    7.9450 H   0  0  0  0  0  0
    0.2560    5.6619    8.9768 H   0  0  0  0  0  0
    0.7710    5.0321   10.5256 H   0  0  0  0  0  0
   -1.8956    4.5171    9.4562 H   0  0  0  0  0  0
   -3.2051    2.5404    8.7914 H   0  0  0  0  0  0
    0.4107    0.3462    8.1038 H   0  0  0  0  0  0
    1.7258    2.3074    8.7879 H   0  0  0  0  0  0
   -2.9870    0.5487    7.5026 H   0  0  0  0  0  0
    5.7944    9.3189    7.4366 H   0  0  0  0  0  0
    5.0334   10.2804    2.5734 H   0  0  0  0  0  0
    6.1966    9.0386    2.9429 H   0  0  0  0  0  0
    4.5224    8.6374    2.8675 H   0  0  0  0  0  0
  1  2  1  0  0  0
  1  4  1  0  0  0
  1 36  1  0  0  0
  1 37  1  0  0  0
  2  3  2  0  0  0
  2 38  1  0  0  0
  3  6  1  0  0  0
  3 11  1  0  0  0
  4  5  1  0  0  0
  4 39  1  0  0  0
  4 40  1  0  0  0
  5  6  1  0  0  0
  5 10  1  0  0  0
  5 12  1  0  0  0
  6  7  1  0  0  0
  6 13  1  0  0  0
  7  8  1  0  0  0
  7 41  1  0  0  0
  7 42  1  0  0  0
  8  9  1  0  0  0
  8 43  1  0  0  0
  8 44  1  0  0  0
  9 10  1  0  0  0
  9 15  1  0  0  0
  9 45  1  0  0  0
 10 14  1  0  0  0
 10 35  1  0  0  0
 11 46  1  0  0  0
 11 47  1  0  0  0
 11 48  1  0  0  0
 13 49  1  0  0  0
 13 50  1  0  0  0
 13 51  1  0  0  0
 14 52  1  0  0  0
 14 53  1  0  0  0
 14 16  1  0  0  0
 15 54  1  0  0  0
 15 55  1  0  0  0
 15 56  1  0  0  0
 16 17  1  0  0  0
 16 21  1  0  0  0
 16 68  1  0  0  0
 17 18  1  0  0  0
 17 34  2  0  0  0
 18 19  1  0  0  0
 18 23  2  0  0  0
 19 20  2  0  0  0
 19 57  1  0  0  0
 20 24  1  0  0  0
 20 21  1  0  0  0
 21 22  2  0  0  0
 24 25  1  0  0  0
 24 58  1  0  0  0
 25 26  1  0  0  0
 25 59  1  0  0  0
 25 60  1  0  0  0
 26 27  1  0  0  0
 26 61  1  0  0  0
 26 62  1  0  0  0
 27 28  2  0  0  0
 27 32  1  0  0  0
 28 29  1  0  0  0
 28 63  1  0  0  0
 29 30  2  0  0  0
 29 64  1  0  0  0
 30 31  1  0  0  0
 30 33  1  0  0  0
 31 32  2  0  0  0
 31 65  1  0  0  0
 32 66  1  0  0  0
 33 67  1  0  0  0
 35 69  1  0  0  0
 35 70  1  0  0  0
 35 71  1  0  0  0
M  END
> <s_m_entry_id>
31952

> <s_m_entry_name>
dock_pv.215

> <s_m_Source_Path>
/home/csk/Desktop/cluster/DUD-E-result/src

> <s_m_Source_File>
dock_pv.maegz

> <i_m_Source_File_Index>
215

> <chembl_id>
CHEMBL3109398

> <chembl_pref_name>
None

> <i_lp_mmshare_version>
53161

> <r_lp_tautomer_probability>
0.818181818179662

> <s_lp_Force_Field>
OPLS_2005

> <r_lp_Energy>
57.809179

> <b_lp_Chiralities_Consistent>
1

> <s_lp_Variant>
CHEMBL267_lig52-2

> <s_i_glide_gridfile>
glide-grid_3el8

> <i_i_glide_lignum>
77

> <i_i_glide_rotatable_bonds>
7

> <r_i_docking_score>
-7.81184595247551

> <r_i_glide_ligand_efficiency>
-0.229760175072809

> <r_i_glide_ligand_efficiency_sa>
-0.744333773754523

> <r_i_glide_ligand_efficiency_ln>
-1.72585588575889

> <r_i_glide_gscore>
-7.81184595247551

> <r_i_glide_lipo>
-3.9365150135051

> <r_i_glide_hbond>
-0.308365166093879

> <r_i_glide_metal>
0

> <r_i_glide_rewards>
-1.22604581398981

> <r_i_glide_evdw>
-40.2593193054199

> <r_i_glide_ecoul>
-5.93693065643311

> <r_i_glide_erotb>
0.562585604849248

> <r_i_glide_esite>
0

> <r_i_glide_emodel>
-61.9068970136385

> <r_i_glide_energy>
-46.196249961853

> <r_i_glide_einternal>
5.94098806381226

> <i_i_glide_confnum>
26

> <i_i_glide_posenum>
300

> <r_i_glide_eff_state_penalty>
0

> <s_user_duplicate_titles>
CHEMBL267_lig52

> <i_f3d_flags>
0

> <s_m_subgroup_title>
dock_pv

> <s_m_subgroupid>
dock_pv

> <b_m_subgroup_collapsed>
1

$$$$
CHEMBL267_lig3885
                    3D
 Schrodinger Suite 2021-1.
 46 49  0  0  1  0            999 V2000
    1.6095    7.3994    6.1210 C   0  0  0  0  0  0
    0.9391    6.8660    7.1752 N   0  0  0  0  0  0
    1.6575    6.8129    8.3035 C   0  0  0  0  0  0
    3.0159    7.2475    8.4374 C   0  0  0  0  0  0
    3.6172    7.7509    7.2526 C   0  0  0  0  0  0
    2.8790    7.8515    6.1164 N   0  0  0  0  0  0
    1.2263    6.3434    9.5378 N   0  0  0  0  0  0
    3.3628    7.0382    9.8184 C   0  0  0  0  0  0
    2.2620    6.4806   10.4334 C   0  0  0  0  0  0
    4.9617    8.1148    7.1244 N   0  0  0  0  0  0
    6.0251    7.8453    8.1073 C   0  0  0  0  0  0
    7.3107    7.2781    7.4586 C   0  0  0  0  0  0
    7.7976    8.0879    6.2536 C   0  0  0  0  0  0
    6.6447    8.3609    5.2906 C   0  0  0  0  0  0
    5.4647    8.9929    6.0452 C   0  0  0  0  0  0
    0.7976    7.5048    4.5568 S   0  0  0  0  0  0
   -0.8529    6.8262    4.7891 C   0  0  0  0  0  0
   -0.0751    5.7516    9.8560 C   0  0  0  0  0  0
   -0.2732    4.3030    9.4117 C   0  0  0  0  0  0
    0.8075    3.4355    9.2387 C   0  0  0  0  0  0
    0.5832    2.1416    8.7881 C   0  0  0  0  0  0
   -0.7009    1.7214    8.4496 C   0  0  0  0  0  0
   -1.7857    2.5640    8.6687 C   0  0  0  0  0  0
   -1.5722    3.8367    9.1879 C   0  0  0  0  0  0
   -0.8985    0.4650    7.9907 F   0  0  0  0  0  0
    4.2883    7.2497   10.3305 H   0  0  0  0  0  0
    2.1319    6.1556   11.4565 H   0  0  0  0  0  0
    6.2241    8.7266    8.7178 H   0  0  0  0  0  0
    5.6892    7.0538    8.7743 H   0  0  0  0  0  0
    8.1067    7.2597    8.2007 H   0  0  0  0  0  0
    7.1513    6.2339    7.1890 H   0  0  0  0  0  0
    8.5988    7.5653    5.7382 H   0  0  0  0  0  0
    8.2062    9.0357    6.5950 H   0  0  0  0  0  0
    6.3324    7.4423    4.7884 H   0  0  0  0  0  0
    6.9732    9.0364    4.5009 H   0  0  0  0  0  0
    4.6925    9.2723    5.3295 H   0  0  0  0  0  0
    5.7883    9.9302    6.5011 H   0  0  0  0  0  0
   -1.3997    6.7899    3.8514 H   0  0  0  0  0  0
   -0.7714    5.8184    5.1853 H   0  0  0  0  0  0
   -1.4019    7.4367    5.5049 H   0  0  0  0  0  0
   -0.8268    6.3692    9.3660 H   0  0  0  0  0  0
   -0.2502    5.8257   10.9306 H   0  0  0  0  0  0
    1.8148    3.7425    9.4819 H   0  0  0  0  0  0
    1.3980    1.4434    8.7886 H   0  0  0  0  0  0
   -2.7869    2.2282    8.4387 H   0  0  0  0  0  0
   -2.4196    4.4929    9.3304 H   0  0  0  0  0  0
  1  2  1  0  0  0
  1  6  2  0  0  0
  1 16  1  0  0  0
  2  3  2  0  0  0
  3  4  1  0  0  0
  3  7  1  0  0  0
  4  5  2  0  0  0
  4  8  1  0  0  0
  5  6  1  0  0  0
  5 10  1  0  0  0
  7  9  1  0  0  0
  7 18  1  0  0  0
  8  9  2  0  0  0
  8 26  1  0  0  0
  9 27  1  0  0  0
 10 11  1  0  0  0
 10 15  1  0  0  0
 11 12  1  0  0  0
 11 28  1  0  0  0
 11 29  1  0  0  0
 12 13  1  0  0  0
 12 30  1  0  0  0
 12 31  1  0  0  0
 13 14  1  0  0  0
 13 32  1  0  0  0
 13 33  1  0  0  0
 14 15  1  0  0  0
 14 34  1  0  0  0
 14 35  1  0  0  0
 15 36  1  0  0  0
 15 37  1  0  0  0
 16 17  1  0  0  0
 17 38  1  0  0  0
 17 39  1  0  0  0
 17 40  1  0  0  0
 18 19  1  0  0  0
 18 41  1  0  0  0
 18 42  1  0  0  0
 19 20  1  0  0  0
 19 24  2  0  0  0
 20 21  2  0  0  0
 20 43  1  0  0  0
 21 22  1  0  0  0
 21 44  1  0  0  0
 22 23  2  0  0  0
 22 25  1  0  0  0
 23 24  1  0  0  0
 23 45  1  0  0  0
 24 46  1  0  0  0
M  END
> <s_m_entry_id>
31953

> <s_m_entry_name>
dock_pv.216

> <s_m_Source_Path>
/home/csk/Desktop/cluster/DUD-E-result/src

> <s_m_Source_File>
dock_pv.maegz

> <i_m_Source_File_Index>
216

> <chembl_id>
CHEMBL4073713

> <chembl_pref_name>
None

> <i_lp_mmshare_version>
53161

> <r_lp_tautomer_probability>
1

> <s_lp_Force_Field>
OPLS_2005

> <r_lp_Energy>
17.852903

> <b_lp_Chiralities_Consistent>
1

> <s_lp_Variant>
CHEMBL267_lig3885-1

> <s_i_glide_gridfile>
glide-grid_3el8

> <i_i_glide_lignum>
4798

> <i_i_glide_rotatable_bonds>
4

> <r_i_docking_score>
-7.80815667701139

> <r_i_glide_ligand_efficiency>
-0.312326267080456

> <r_i_glide_ligand_efficiency_sa>
-0.913247544073184

> <r_i_glide_ligand_efficiency_ln>
-1.85076712402535

> <r_i_glide_gscore>
-7.80815667701139

> <r_i_glide_lipo>
-3.74502101541464

> <r_i_glide_hbond>
0

> <r_i_glide_metal>
0

> <r_i_glide_rewards>
-2.2554619400167

> <r_i_glide_evdw>
-39.0796241760254

> <r_i_glide_ecoul>
-2.03609585762024

> <r_i_glide_erotb>
0.451721865864255

> <r_i_glide_esite>
0

> <r_i_glide_emodel>
-58.2672736122173

> <r_i_glide_energy>
-41.1157200336456

> <r_i_glide_einternal>
1.28919839859009

> <i_i_glide_confnum>
26

> <i_i_glide_posenum>
282

> <r_i_glide_eff_state_penalty>
0

> <s_user_duplicate_titles>
CHEMBL267_lig3885

> <i_f3d_flags>
0

> <s_m_subgroup_title>
dock_pv

> <s_m_subgroupid>
dock_pv

> <b_m_subgroup_collapsed>
1

$$$$
CHEMBL267_lig1354
                    3D
 Schrodinger Suite 2021-1.
 52 54  0  0  1  0            999 V2000
   -3.3039   -0.7980    8.4093 N   0  0  0  0  0  0
   -2.1767    0.0147    8.4321 C   0  0  0  0  0  0
   -0.9917   -0.5458    8.0981 N   0  0  0  0  0  0
    0.0853    0.2444    8.1103 C   0  0  0  0  0  0
    0.1903    1.5596    8.3880 N   0  0  0  0  0  0
   -1.0144    2.0913    8.7107 C   0  0  0  0  0  0
   -1.3489    3.3734    9.0610 N   0  0  0  0  0  0
   -2.6696    3.3482    9.2937 C   0  0  0  0  0  0
   -3.2132    2.1696    9.1882 N   0  0  0  0  0  0
   -2.2034    1.3844    8.7880 C   0  0  0  0  0  0
   -0.4641    4.5911    9.2209 C   0  0  2  0  0  0
    0.3902    4.7972    8.1463 O   0  0  0  0  0  0
    1.4192    5.6562    8.6010 C   0  0  2  0  0  0
    2.5637    5.6858    7.5880 C   0  0  0  0  0  0
    2.1980    6.4432    6.4483 O   0  0  0  0  0  0
    2.2115    8.0714    6.4635 P   0  0  2  0  0  0
    3.7646    8.4331    6.7435 O   0  0  0  0  0  0
    1.2202    8.7261    7.3614 O   0  0  0  0  0  0
    2.0467    8.4013    4.8999 O   0  0  0  0  0  0
    0.9452    8.0181    3.6806 P   0  0  1  0  0  0
    1.7980    7.3502    2.3880 O   0  0  0  0  0  0
   -0.2020    7.1517    4.1323 O   0  0  0  0  0  0
    0.4870    9.4863    2.9990 O   0  0  0  0  0  0
    1.2833   10.8442    2.3992 P   0  0  1  0  0  0
    0.1980   12.1422    2.5863 O   0  0  0  0  0  0
    2.5958   11.1066    3.0957 O   0  0  0  0  0  0
    1.4563   10.6848    0.7211 O   0  0  0  0  0  0
    1.9153   11.6495   -0.4849 P   0  0  0  0  0  0
    3.3980   12.0822   -0.0120 O   0  0  0  0  0  0
    2.1980   10.6370   -1.7138 O   0  0  0  0  0  0
    0.9902   12.7767   -0.7708 O   0  0  0  0  0  0
    1.7607    5.0007    9.9260 C   0  0  1  0  0  0
    2.5980    5.8370   10.7117 O   0  0  0  0  0  0
    0.3762    4.6647   10.5076 C   0  0  1  0  0  0
   -0.1574    5.6482   11.3856 O   0  0  0  0  0  0
   -4.1545   -0.2984    8.1830 H   0  0  0  0  0  0
   -3.1500   -1.7083    8.0071 H   0  0  0  0  0  0
    0.9980   -0.2614    7.8466 H   0  0  0  0  0  0
   -3.1812    4.2481    9.5778 H   0  0  0  0  0  0
   -1.1566    5.4370    9.1922 H   0  0  0  0  0  0
    1.0297    6.6601    8.7800 H   0  0  0  0  0  0
    2.7833    4.6641    7.2733 H   0  0  0  0  0  0
    3.4707    6.0982    8.0336 H   0  0  0  0  0  0
    4.3830    8.0792    6.0785 H   0  0  0  0  0  0
    1.3430    7.4023    1.5060 H   0  0  0  0  0  0
    0.3691   13.0096    2.1761 H   0  0  0  0  0  0
    4.0467   12.3250   -0.7185 H   0  0  0  0  0  0
    2.9909   10.0582   -1.6120 H   0  0  0  0  0  0
    2.2826    4.0644    9.7127 H   0  0  0  0  0  0
    3.2429    5.2883   11.1848 H   0  0  0  0  0  0
    0.3864    3.6833   10.9800 H   0  0  0  0  0  0
   -1.0708    5.4365   11.6028 H   0  0  0  0  0  0
  1  2  1  0  0  0
  1 36  1  0  0  0
  1 37  1  0  0  0
  2  3  2  0  0  0
  2 10  1  0  0  0
  3  4  1  0  0  0
  4  5  2  0  0  0
  4 38  1  0  0  0
  5  6  1  0  0  0
  6  7  1  0  0  0
  6 10  2  0  0  0
  7  8  1  0  0  0
  7 11  1  0  0  0
  8  9  2  0  0  0
  8 39  1  0  0  0
  9 10  1  0  0  0
 11 12  1  0  0  0
 11 34  1  0  0  0
 11 40  1  0  0  0
 12 13  1  0  0  0
 13 14  1  0  0  0
 13 32  1  0  0  0
 13 41  1  0  0  0
 14 15  1  0  0  0
 14 42  1  0  0  0
 14 43  1  0  0  0
 15 16  1  0  0  0
 16 17  1  0  0  0
 16 18  2  0  0  0
 16 19  1  0  0  0
 17 44  1  0  0  0
 19 20  1  0  0  0
 20 21  1  0  0  0
 20 22  2  0  0  0
 20 23  1  0  0  0
 21 45  1  0  0  0
 23 24  1  0  0  0
 24 25  1  0  0  0
 24 26  2  0  0  0
 24 27  1  0  0  0
 25 46  1  0  0  0
 27 28  1  0  0  0
 28 29  1  0  0  0
 28 30  1  0  0  0
 28 31  2  0  0  0
 29 47  1  0  0  0
 30 48  1  0  0  0
 32 33  1  0  0  0
 32 34  1  0  0  0
 32 49  1  0  0  0
 33 50  1  0  0  0
 34 35  1  0  0  0
 34 51  1  0  0  0
 35 52  1  0  0  0
M  END
> <s_m_entry_id>
31954

> <s_m_entry_name>
dock_pv.217

> <s_m_Source_Path>
/home/csk/Desktop/cluster/DUD-E-result/src

> <s_m_Source_File>
dock_pv.maegz

> <i_m_Source_File_Index>
217

> <chembl_id>
CHEMBL490984

> <chembl_pref_name>
None

> <i_lp_mmshare_version>
53161

> <r_lp_tautomer_probability>
0.999997216410988

> <s_lp_Force_Field>
OPLS_2005

> <r_lp_Energy>
25.318987

> <b_lp_Chiralities_Consistent>
1

> <s_lp_Variant>
CHEMBL267_lig1354-5

> <s_i_glide_gridfile>
glide-grid_3el8

> <i_i_glide_lignum>
1512

> <i_i_glide_rotatable_bonds>
17

> <r_i_docking_score>
-7.80183720359788

> <r_i_glide_ligand_efficiency>
-0.222909634388511

> <r_i_glide_ligand_efficiency_sa>
-0.729152194400584

> <r_i_glide_ligand_efficiency_ln>
-1.71267641863726

> <r_i_glide_gscore>
-7.80183720359788

> <r_i_glide_lipo>
-0.661224346977967

> <r_i_glide_hbond>
0

> <r_i_glide_metal>
0

> <r_i_glide_rewards>
-1.5872524719737

> <r_i_glide_evdw>
-39.0666770935059

> <r_i_glide_ecoul>
-30.7824039459229

> <r_i_glide_erotb>
0.501373397443756

> <r_i_glide_esite>
-0.10139992741468

> <r_i_glide_emodel>
-90.0339370502879

> <r_i_glide_energy>
-69.8490810394287

> <r_i_glide_einternal>
19.6559753417969

> <i_i_glide_confnum>
21

> <i_i_glide_posenum>
39

> <r_i_glide_eff_state_penalty>
0

> <s_user_duplicate_titles>
CHEMBL267_lig1354

> <i_f3d_flags>
0

> <s_m_subgroup_title>
dock_pv

> <s_m_subgroupid>
dock_pv

> <b_m_subgroup_collapsed>
1

$$$$
CHEMBL267_lig1811
                    3D
 Schrodinger Suite 2021-1.
 42 45  0  0  1  0            999 V2000
    7.4855    7.2093    7.1881 N   0  0  0  0  0  0
    7.7069    8.1527    6.2381 C   0  0  0  0  0  0
    6.7847    8.9294    5.6089 N   0  0  0  0  0  0
    6.2013    7.0370    7.5851 C   0  0  0  0  0  0
    5.1620    7.8347    7.0710 C   0  0  0  0  0  0
    5.5310    8.7342    6.0456 C   0  0  0  0  0  0
    4.3409    9.2948    5.5961 N   0  0  0  0  0  0
    3.2970    8.8628    6.3445 N   0  0  0  0  0  0
    3.7479    8.0110    7.2349 C   0  0  0  0  0  0
    2.8535    7.3977    8.2597 C   0  0  0  0  0  0
    3.3098    7.3055    9.5776 C   0  0  0  0  0  0
    2.5281    6.7139   10.5656 C   0  0  0  0  0  0
    1.2700    6.1990   10.2410 C   0  0  0  0  0  0
    0.8029    6.2853    8.9287 C   0  0  0  0  0  0
    1.5898    6.8844    7.9407 C   0  0  0  0  0  0
    5.9364    5.9363    8.3881 N   0  0  0  0  0  0
    0.4983    5.6168   11.1884 F   0  0  0  0  0  0
    3.0207    6.6370   11.8407 O   0  0  0  0  0  0
    4.0833   10.2879    4.5358 C   0  0  1  0  0  0
    4.3559   11.7240    4.9954 C   0  0  0  0  0  0
    5.7980   11.9970    4.5657 C   0  0  0  0  0  0
    6.0358   11.1648    3.2875 C   0  0  1  0  0  0
    4.9280   10.0879    3.2633 C   0  0  0  0  0  0
    6.0835   12.0179    2.0074 C   0  0  0  0  0  0
    8.7335    8.2778    5.9239 H   0  0  0  0  0  0
    4.2717    7.7132    9.8446 H   0  0  0  0  0  0
   -0.1695    5.8808    8.6854 H   0  0  0  0  0  0
    1.2225    6.9374    6.9255 H   0  0  0  0  0  0
    4.9831    5.7346    8.6515 H   0  0  0  0  0  0
    6.6979    5.3389    8.6770 H   0  0  0  0  0  0
    3.7168    5.9706   11.9143 H   0  0  0  0  0  0
    3.0229   10.1379    4.3164 H   0  0  0  0  0  0
    3.6808   12.4074    4.4773 H   0  0  0  0  0  0
    4.1986   11.8731    6.0651 H   0  0  0  0  0  0
    5.9695   13.0645    4.4151 H   0  0  0  0  0  0
    6.4857   11.6774    5.3493 H   0  0  0  0  0  0
    7.0017   10.6636    3.3771 H   0  0  0  0  0  0
    5.3317    9.0767    3.1850 H   0  0  0  0  0  0
    4.2885   10.2139    2.3883 H   0  0  0  0  0  0
    5.1495   12.5589    1.8493 H   0  0  0  0  0  0
    6.8868   12.7540    2.0534 H   0  0  0  0  0  0
    6.2591   11.4009    1.1253 H   0  0  0  0  0  0
  1  2  2  0  0  0
  1  4  1  0  0  0
  2  3  1  0  0  0
  2 25  1  0  0  0
  3  6  2  0  0  0
  4  5  2  0  0  0
  4 16  1  0  0  0
  5  9  1  0  0  0
  5  6  1  0  0  0
  6  7  1  0  0  0
  7  8  1  0  0  0
  7 19  1  0  0  0
  8  9  2  0  0  0
  9 10  1  0  0  0
 10 15  1  0  0  0
 10 11  2  0  0  0
 11 12  1  0  0  0
 11 26  1  0  0  0
 12 13  2  0  0  0
 12 18  1  0  0  0
 13 14  1  0  0  0
 13 17  1  0  0  0
 14 15  2  0  0  0
 14 27  1  0  0  0
 15 28  1  0  0  0
 16 29  1  0  0  0
 16 30  1  0  0  0
 18 31  1  0  0  0
 19 20  1  0  0  0
 19 23  1  0  0  0
 19 32  1  0  0  0
 20 21  1  0  0  0
 20 33  1  0  0  0
 20 34  1  0  0  0
 21 22  1  0  0  0
 21 35  1  0  0  0
 21 36  1  0  0  0
 22 23  1  0  0  0
 22 24  1  0  0  0
 22 37  1  0  0  0
 23 38  1  0  0  0
 23 39  1  0  0  0
 24 40  1  0  0  0
 24 41  1  0  0  0
 24 42  1  0  0  0
M  END
> <s_m_entry_id>
31955

> <s_m_entry_name>
dock_pv.218

> <s_m_Source_Path>
/home/csk/Desktop/cluster/DUD-E-result/src

> <s_m_Source_File>
dock_pv.maegz

> <i_m_Source_File_Index>
218

> <chembl_id>
CHEMBL1242656

> <chembl_pref_name>
None

> <i_lp_mmshare_version>
53161

> <r_lp_tautomer_probability>
0.999999999997365

> <s_lp_Force_Field>
OPLS_2005

> <r_lp_Energy>
30.711329

> <b_lp_Chiralities_Consistent>
1

> <s_lp_Variant>
CHEMBL267_lig1811-4

> <s_i_glide_gridfile>
glide-grid_3el8

> <i_i_glide_lignum>
2077

> <i_i_glide_rotatable_bonds>
3

> <r_i_docking_score>
-7.80169873957545

> <r_i_glide_ligand_efficiency>
-0.325070780815644

> <r_i_glide_ligand_efficiency_sa>
-0.937666386908394

> <r_i_glide_ligand_efficiency_ln>
-1.86730450500819

> <r_i_glide_gscore>
-7.80169873957545

> <r_i_glide_lipo>
-2.17306297493409

> <r_i_glide_hbond>
-0.32

> <r_i_glide_metal>
0

> <r_i_glide_rewards>
-2.70081450759302

> <r_i_glide_evdw>
-39.488151550293

> <r_i_glide_ecoul>
-6.55779838562012

> <r_i_glide_erotb>
0.350256078309327

> <r_i_glide_esite>
0

> <r_i_glide_emodel>
-61.9031868812508

> <r_i_glide_energy>
-46.0459499359131

> <r_i_glide_einternal>
7.05145597457886

> <i_i_glide_confnum>
24

> <i_i_glide_posenum>
387

> <r_i_glide_eff_state_penalty>
0

> <s_user_duplicate_titles>
CHEMBL267_lig1811

> <i_f3d_flags>
0

> <s_m_subgroup_title>
dock_pv

> <s_m_subgroupid>
dock_pv

> <b_m_subgroup_collapsed>
1

$$$$
CHEMBL267_lig2072
                    3D
 Schrodinger Suite 2021-1.
 49 53  0  0  1  0            999 V2000
    7.9217    7.2675    7.3312 N   0  0  0  0  0  0
    8.3575    8.1579    6.3999 C   0  0  0  0  0  0
    7.6093    8.9470    5.5884 N   0  0  0  0  0  0
    6.5799    7.1710    7.5048 C   0  0  0  0  0  0
    5.6953    7.9879    6.7737 C   0  0  0  0  0  0
    6.2952    8.8310    5.8112 C   0  0  0  0  0  0
    5.2500    9.4480    5.1478 N   0  0  0  0  0  0
    4.0605    9.0775    5.6615 N   0  0  0  0  0  0
    4.2870    8.2349    6.6412 C   0  0  0  0  0  0
    6.1197    6.1747    8.3600 N   0  0  0  0  0  0
    5.2696   10.3358    3.9883 C   0  0  0  0  0  0
    6.0202   11.6703    4.2717 C   0  0  0  0  0  0
    3.1723    7.6419    7.4274 C   0  0  0  0  0  0
    3.3038    7.5019    8.8078 C   0  0  0  0  0  0
    1.0004    6.5678    7.5102 C   0  0  0  0  0  0
    2.0207    7.1785    6.7880 C   0  0  0  0  0  0
    1.1094    6.4181    8.9129 C   0  0  0  0  0  0
    2.2796    6.9002    9.5730 C   0  0  0  0  0  0
    2.3808    6.7769   10.9782 C   0  0  0  0  0  0
    1.3282    6.2370   11.7106 C   0  0  0  0  0  0
    0.1982    5.7446   11.0664 C   0  0  0  0  0  0
    0.0859    5.8159    9.6800 C   0  0  0  0  0  0
    7.3906   11.7597    3.5680 C   0  0  0  0  0  0
    7.2543   11.8240    2.0287 C   0  0  0  0  0  0
    6.3539   12.8927    1.5879 N   0  0  2  0  0  0
    5.0655   12.9648    2.2834 C   0  0  0  0  0  0
    5.2283   12.9133    3.8192 C   0  0  0  0  0  0
    9.4276    8.2333    6.2697 H   0  0  0  0  0  0
    5.1257    6.0409    8.4753 H   0  0  0  0  0  0
    6.7848    5.5709    8.8197 H   0  0  0  0  0  0
    4.2394   10.5249    3.6798 H   0  0  0  0  0  0
    5.7202    9.7750    3.1692 H   0  0  0  0  0  0
    6.1925   11.7884    5.3440 H   0  0  0  0  0  0
    4.1847    7.8728    9.3129 H   0  0  0  0  0  0
    0.1202    6.2040    7.0003 H   0  0  0  0  0  0
    1.9208    7.2784    5.7170 H   0  0  0  0  0  0
    3.2653    7.1331   11.4849 H   0  0  0  0  0  0
    1.3961    6.1786   12.7873 H   0  0  0  0  0  0
   -0.6093    5.3181   11.6459 H   0  0  0  0  0  0
   -0.8040    5.4445    9.1885 H   0  0  0  0  0  0
    7.9899   10.8846    3.8118 H   0  0  0  0  0  0
    7.9716   12.6136    3.9233 H   0  0  0  0  0  0
    6.8945   10.8774    1.6273 H   0  0  0  0  0  0
    8.2331   12.0018    1.5816 H   0  0  0  0  0  0
    6.1999   12.8442    0.5785 H   0  0  0  0  0  0
    4.4299   12.1521    1.9275 H   0  0  0  0  0  0
    4.5772   13.8958    1.9926 H   0  0  0  0  0  0
    5.6901   13.8369    4.1720 H   0  0  0  0  0  0
    4.2320   12.8933    4.2649 H   0  0  0  0  0  0
  1  2  2  0  0  0
  1  4  1  0  0  0
  2  3  1  0  0  0
  2 28  1  0  0  0
  3  6  2  0  0  0
  4  5  2  0  0  0
  4 10  1  0  0  0
  5  9  1  0  0  0
  5  6  1  0  0  0
  6  7  1  0  0  0
  7  8  1  0  0  0
  7 11  1  0  0  0
  8  9  2  0  0  0
  9 13  1  0  0  0
 10 29  1  0  0  0
 10 30  1  0  0  0
 11 12  1  0  0  0
 11 31  1  0  0  0
 11 32  1  0  0  0
 12 23  1  0  0  0
 12 27  1  0  0  0
 12 33  1  0  0  0
 13 14  2  0  0  0
 13 16  1  0  0  0
 14 18  1  0  0  0
 14 34  1  0  0  0
 15 17  1  0  0  0
 15 16  2  0  0  0
 15 35  1  0  0  0
 16 36  1  0  0  0
 17 18  1  0  0  0
 17 22  2  0  0  0
 18 19  2  0  0  0
 19 20  1  0  0  0
 19 37  1  0  0  0
 20 21  2  0  0  0
 20 38  1  0  0  0
 21 22  1  0  0  0
 21 39  1  0  0  0
 22 40  1  0  0  0
 23 24  1  0  0  0
 23 41  1  0  0  0
 23 42  1  0  0  0
 24 25  1  0  0  0
 24 43  1  0  0  0
 24 44  1  0  0  0
 25 26  1  0  0  0
 25 45  1  0  0  0
 26 27  1  0  0  0
 26 46  1  0  0  0
 26 47  1  0  0  0
 27 48  1  0  0  0
 27 49  1  0  0  0
M  END
> <s_m_entry_id>
31956

> <s_m_entry_name>
dock_pv.219

> <s_m_Source_Path>
/home/csk/Desktop/cluster/DUD-E-result/src

> <s_m_Source_File>
dock_pv.maegz

> <i_m_Source_File_Index>
219

> <chembl_id>
CHEMBL2069958

> <chembl_pref_name>
None

> <i_lp_mmshare_version>
53161

> <r_lp_tautomer_probability>
1

> <s_lp_Force_Field>
OPLS_2005

> <r_lp_Energy>
23.392656

> <b_lp_Chiralities_Consistent>
1

> <s_lp_Variant>
CHEMBL267_lig2072-1

> <s_i_glide_gridfile>
glide-grid_3el8

> <i_i_glide_lignum>
2356

> <i_i_glide_rotatable_bonds>
3

> <r_i_docking_score>
-7.79083648475489

> <r_i_glide_ligand_efficiency>
-0.288549499435366

> <r_i_glide_ligand_efficiency_sa>
-0.865648497355087

> <r_i_glide_ligand_efficiency_ln>
-1.8135782916732

> <r_i_glide_gscore>
-7.79083648475489

> <r_i_glide_lipo>
-2.61328604527521

> <r_i_glide_hbond>
-0.16

> <r_i_glide_metal>
0

> <r_i_glide_rewards>
-2.73230812067165

> <r_i_glide_evdw>
-38.8563652038574

> <r_i_glide_ecoul>
-5.26476097106934

> <r_i_glide_erotb>
0.447290087045233

> <r_i_glide_esite>
0

> <r_i_glide_emodel>
-62.7845763060745

> <r_i_glide_energy>
-44.1211261749268

> <r_i_glide_einternal>
4.58308410644531

> <i_i_glide_confnum>
30

> <i_i_glide_posenum>
262

> <r_i_glide_eff_state_penalty>
0

> <s_user_duplicate_titles>
CHEMBL267_lig2072,CHEMBL267_lig3776

> <i_f3d_flags>
0

> <s_m_subgroup_title>
dock_pv

> <s_m_subgroupid>
dock_pv

> <b_m_subgroup_collapsed>
1

$$$$
CHEMBL267_lig1052
                    3D
 Schrodinger Suite 2021-1.
 45 48  0  0  1  0            999 V2000
    1.3459    6.6128    7.3374 C   0  0  0  0  0  0
    2.2857    7.5995    7.6614 C   0  0  0  0  0  0
    2.5448    8.6160    6.7392 C   0  0  0  0  0  0
    1.9468    8.6363    5.4686 C   0  0  0  0  0  0
    1.0155    7.6237    5.1577 C   0  0  0  0  0  0
    0.7160    6.6340    6.0940 C   0  0  0  0  0  0
    2.3340    9.7397    4.5009 C   0  0  0  0  0  0
    2.9741   10.7190    4.8937 O   0  0  0  0  0  0
    1.9808    9.5865    3.2133 N   0  0  0  0  0  0
    2.9378    7.6254    8.9061 N   0  0  0  0  0  0
    3.9511    6.5910    9.1319 C   0  0  0  0  0  0
    5.2739    6.7318    8.3877 C   0  0  0  0  0  0
    5.7964    8.1478    7.5010 S   0  0  0  0  0  0
    7.2632    7.3492    7.0360 C   0  0  0  0  0  0
    7.3980    6.1731    7.5879 N   0  0  0  0  0  0
    6.3260    5.8193    8.2777 C   0  0  0  0  0  0
    8.1979    7.8804    6.1657 N   0  0  0  0  0  0
    8.1851    9.0422    5.3699 C   0  0  0  0  0  0
    7.0233    9.7234    5.1635 N   0  0  0  0  0  0
    7.0393   10.8370    4.3912 C   0  0  0  0  0  0
    8.2047   11.3275    3.8020 C   0  0  0  0  0  0
    9.3976   10.6367    4.0101 C   0  0  0  0  0  0
    9.3906    9.4737    4.7881 C   0  0  0  0  0  0
    1.0304    5.6360    8.2214 F   0  0  0  0  0  0
    2.3933   10.4833    2.1394 C   0  0  0  0  0  0
    0.3814    7.5723    3.9615 F   0  0  0  0  0  0
    1.4388   10.7347    0.9979 C   0  0  0  0  0  0
    1.7087   11.8250    2.0096 C   0  0  0  0  0  0
    3.2449    9.3917    7.0148 H   0  0  0  0  0  0
   -0.0110    5.8716    5.8524 H   0  0  0  0  0  0
    1.5844    8.6988    2.9360 H   0  0  0  0  0  0
    2.2898    7.6849    9.6785 H   0  0  0  0  0  0
    4.1907    6.6499   10.1939 H   0  0  0  0  0  0
    3.5174    5.5996    8.9921 H   0  0  0  0  0  0
    6.3231    4.8437    8.7418 H   0  0  0  0  0  0
    9.1029    7.4309    6.1094 H   0  0  0  0  0  0
    6.0912   11.3391    4.2537 H   0  0  0  0  0  0
    8.1836   12.2267    3.2012 H   0  0  0  0  0  0
   10.3200   10.9893    3.5692 H   0  0  0  0  0  0
   10.3106    8.9285    4.9480 H   0  0  0  0  0  0
    3.4660   10.4612    1.9392 H   0  0  0  0  0  0
    0.4695   10.2342    1.0041 H   0  0  0  0  0  0
    1.8556   10.8213   -0.0070 H   0  0  0  0  0  0
    2.3129   12.6862    1.7207 H   0  0  0  0  0  0
    0.9382   12.0872    2.7347 H   0  0  0  0  0  0
  1 24  1  0  0  0
  1  6  2  0  0  0
  1  2  1  0  0  0
  2 10  1  0  0  0
  2  3  2  0  0  0
  3  4  1  0  0  0
  3 29  1  0  0  0
  4  7  1  0  0  0
  4  5  2  0  0  0
  5  6  1  0  0  0
  5 26  1  0  0  0
  6 30  1  0  0  0
  7  8  2  0  0  0
  7  9  1  0  0  0
  9 25  1  0  0  0
  9 31  1  0  0  0
 10 11  1  0  0  0
 10 32  1  0  0  0
 11 12  1  0  0  0
 11 33  1  0  0  0
 11 34  1  0  0  0
 12 13  1  0  0  0
 12 16  2  0  0  0
 13 14  1  0  0  0
 14 15  2  0  0  0
 14 17  1  0  0  0
 15 16  1  0  0  0
 16 35  1  0  0  0
 17 18  1  0  0  0
 17 36  1  0  0  0
 18 19  2  0  0  0
 18 23  1  0  0  0
 19 20  1  0  0  0
 20 21  2  0  0  0
 20 37  1  0  0  0
 21 22  1  0  0  0
 21 38  1  0  0  0
 22 23  2  0  0  0
 22 39  1  0  0  0
 23 40  1  0  0  0
 25 27  1  0  0  0
 25 28  1  0  0  0
 25 41  1  0  0  0
 27 28  1  0  0  0
 27 42  1  0  0  0
 27 43  1  0  0  0
 28 44  1  0  0  0
 28 45  1  0  0  0
M  END
> <s_m_entry_id>
31958

> <s_m_entry_name>
dock_pv.221

> <s_m_Source_Path>
/home/csk/Desktop/cluster/DUD-E-result/src

> <s_m_Source_File>
dock_pv.maegz

> <i_m_Source_File_Index>
221

> <chembl_id>
CHEMBL377734

> <chembl_pref_name>
None

> <i_lp_mmshare_version>
53161

> <r_lp_tautomer_probability>
0.999999772200052

> <s_lp_Force_Field>
OPLS_2005

> <r_lp_Energy>
26.533599

> <b_lp_Chiralities_Consistent>
1

> <s_lp_Variant>
CHEMBL267_lig1052-1

> <s_i_glide_gridfile>
glide-grid_3el8

> <i_i_glide_lignum>
1194

> <i_i_glide_rotatable_bonds>
8

> <r_i_docking_score>
-7.79065790005498

> <r_i_glide_ligand_efficiency>
-0.278237782144821

> <r_i_glide_ligand_efficiency_sa>
-0.844893779881652

> <r_i_glide_ligand_efficiency_ln>
-1.79831258698817

> <r_i_glide_gscore>
-7.79065790005498

> <r_i_glide_lipo>
-3.15957528960224

> <r_i_glide_hbond>
-0.442589161964598

> <r_i_glide_metal>
0

> <r_i_glide_rewards>
-2.21681898121609

> <r_i_glide_evdw>
-37.6412467956543

> <r_i_glide_ecoul>
-5.14137887954712

> <r_i_glide_erotb>
0.681594704442733

> <r_i_glide_esite>
0

> <r_i_glide_emodel>
-59.1263160152972

> <r_i_glide_energy>
-42.7826256752014

> <r_i_glide_einternal>
7.74805212020874

> <i_i_glide_confnum>
15

> <i_i_glide_posenum>
31

> <r_i_glide_eff_state_penalty>
0

> <s_user_duplicate_titles>
CHEMBL267_lig1052

> <i_f3d_flags>
0

> <s_m_subgroup_title>
dock_pv

> <s_m_subgroupid>
dock_pv

> <b_m_subgroup_collapsed>
1

$$$$
CHEMBL267_lig1760
                    3D
 Schrodinger Suite 2021-1.
 43 46  0  0  1  0            999 V2000
    0.6042    6.3351    7.8467 N   0  0  0  0  0  0
    1.4766    7.2227    7.2911 C   0  0  0  0  0  0
    2.5436    7.7802    7.9351 N   0  0  0  0  0  0
    0.7467    5.9816    9.1455 C   0  0  0  0  0  0
    1.8119    6.5276    9.8598 C   0  0  0  0  0  0
    2.7033    7.4197    9.2125 C   0  0  0  0  0  0
    3.6988    7.8287   10.0615 N   0  0  0  0  0  0
    3.4388    7.1995   11.1827 C   0  0  0  0  0  0
    2.3011    6.4274   11.1411 N   0  0  0  0  0  0
   -0.2072    5.1226    9.6957 N   0  0  0  0  0  0
   -0.5083    3.8380    9.2240 C   0  0  0  0  0  0
    0.5111    2.9560    8.8722 C   0  0  0  0  0  0
    0.1980    1.6518    8.5047 C   0  0  0  0  0  0
   -1.1264    1.2151    8.4039 C   0  0  0  0  0  0
   -2.1465    2.1080    8.7873 C   0  0  0  0  0  0
   -1.8364    3.4112    9.1881 C   0  0  0  0  0  0
    1.3013    7.5263    5.9368 N   0  0  0  0  0  0
    1.7925    8.7966    5.3525 C   0  0  0  0  0  0
    1.8450    8.8425    3.8006 C   0  0  0  0  0  0
    0.5981    8.4041    3.1888 N   0  0  0  0  0  0
    0.3054    7.0616    3.6647 C   0  0  0  0  0  0
    0.1250    7.0370    5.1897 C   0  0  0  0  0  0
   -1.3881   -0.2293    8.0176 C   0  0  0  0  0  0
   -0.5102   -1.0847    8.0829 O   0  0  0  0  0  0
   -2.6021   -0.5630    7.5890 N   0  0  0  0  0  0
    1.9656    5.8688   11.9137 H   0  0  0  0  0  0
    4.0233    7.2432   12.0923 H   0  0  0  0  0  0
   -1.0692    5.6113    9.9149 H   0  0  0  0  0  0
    1.5459    3.2542    8.9539 H   0  0  0  0  0  0
    0.9980    0.9416    8.3881 H   0  0  0  0  0  0
   -3.1835    1.8023    8.7887 H   0  0  0  0  0  0
   -2.6306    4.0838    9.4793 H   0  0  0  0  0  0
    1.1237    9.5950    5.6769 H   0  0  0  0  0  0
    2.7900    9.0255    5.7281 H   0  0  0  0  0  0
    2.6677    8.2373    3.4222 H   0  0  0  0  0  0
    2.0567    9.8560    3.4582 H   0  0  0  0  0  0
    0.6603    8.3802    2.1722 H   0  0  0  0  0  0
    1.0869    6.3678    3.3485 H   0  0  0  0  0  0
   -0.6084    6.7160    3.1882 H   0  0  0  0  0  0
   -0.1210    6.0143    5.4781 H   0  0  0  0  0  0
   -0.7331    7.6608    5.4447 H   0  0  0  0  0  0
   -2.7905   -1.5214    7.3471 H   0  0  0  0  0  0
   -3.2420    0.1718    7.2812 H   0  0  0  0  0  0
  1  2  2  0  0  0
  1  4  1  0  0  0
  2 17  1  0  0  0
  2  3  1  0  0  0
  3  6  2  0  0  0
  4 10  1  0  0  0
  4  5  2  0  0  0
  5  9  1  0  0  0
  5  6  1  0  0  0
  6  7  1  0  0  0
  7  8  2  0  0  0
  8  9  1  0  0  0
  8 27  1  0  0  0
  9 26  1  0  0  0
 10 11  1  0  0  0
 10 28  1  0  0  0
 11 12  2  0  0  0
 11 16  1  0  0  0
 12 13  1  0  0  0
 12 29  1  0  0  0
 13 14  2  0  0  0
 13 30  1  0  0  0
 14 15  1  0  0  0
 14 23  1  0  0  0
 15 16  2  0  0  0
 15 31  1  0  0  0
 16 32  1  0  0  0
 17 18  1  0  0  0
 17 22  1  0  0  0
 18 19  1  0  0  0
 18 33  1  0  0  0
 18 34  1  0  0  0
 19 20  1  0  0  0
 19 35  1  0  0  0
 19 36  1  0  0  0
 20 21  1  0  0  0
 20 37  1  0  0  0
 21 22  1  0  0  0
 21 38  1  0  0  0
 21 39  1  0  0  0
 22 40  1  0  0  0
 22 41  1  0  0  0
 23 24  2  0  0  0
 23 25  1  0  0  0
 25 42  1  0  0  0
 25 43  1  0  0  0
M  END
> <s_m_entry_id>
31959

> <s_m_entry_name>
dock_pv.222

> <s_m_Source_Path>
/home/csk/Desktop/cluster/DUD-E-result/src

> <s_m_Source_File>
dock_pv.maegz

> <i_m_Source_File_Index>
222

> <chembl_id>
CHEMBL1173310

> <chembl_pref_name>
None

> <i_lp_mmshare_version>
53161

> <r_lp_tautomer_probability>
0.0419191988452545

> <s_lp_Force_Field>
OPLS_2005

> <r_lp_Energy>
36.058848

> <b_lp_Chiralities_Consistent>
1

> <s_lp_Variant>
CHEMBL267_lig1760-2

> <s_i_glide_gridfile>
glide-grid_3el8

> <i_i_glide_lignum>
1999

> <i_i_glide_rotatable_bonds>
4

> <r_i_docking_score>
-7.7772607682386

> <r_i_glide_ligand_efficiency>
-0.311090430729544

> <r_i_glide_ligand_efficiency_sa>
-0.909633936665468

> <r_i_glide_ligand_efficiency_ln>
-1.84344386777053

> <r_i_glide_gscore>
-7.7772607682386

> <r_i_glide_lipo>
-2.16621948805933

> <r_i_glide_hbond>
-0.538144318631304

> <r_i_glide_metal>
0

> <r_i_glide_rewards>
-2.15457615229991

> <r_i_glide_evdw>
-42.6138877868652

> <r_i_glide_ecoul>
-8.04757976531982

> <r_i_glide_erotb>
0.495520027375572

> <r_i_glide_esite>
-0.0760094824823951

> <r_i_glide_emodel>
-65.82947417548

> <r_i_glide_energy>
-50.6614675521851

> <r_i_glide_einternal>
13.2809267044067

> <i_i_glide_confnum>
7

> <i_i_glide_posenum>
194

> <r_i_glide_eff_state_penalty>
0

> <s_user_duplicate_titles>
CHEMBL267_lig1760

> <i_f3d_flags>
0

> <s_m_subgroup_title>
dock_pv

> <s_m_subgroupid>
dock_pv

> <b_m_subgroup_collapsed>
1

$$$$
CHEMBL267_lig3357
                    3D
 Schrodinger Suite 2021-1.
 32 34  0  0  1  0            999 V2000
    6.5930   10.8144    4.5026 I   0  0  0  0  0  0
    2.6304    6.8821    7.9967 O   0  0  0  0  0  0
    1.4993    8.5872    5.0449 O   0  0  0  0  0  0
   -0.2020    7.4370    6.9650 O   0  0  0  0  0  0
    0.1980    6.2881    9.5880 O   0  0  0  0  0  0
    4.0629    8.3412    6.8285 N   0  0  0  0  0  0
    4.3211    9.3738    5.9880 N   0  0  0  0  0  0
    5.4149    6.6370    7.9880 N   0  0  0  0  0  0
    7.7589    6.6558    7.3211 N   0  0  0  0  0  0
    8.5980    8.2372    5.8176 N   0  0  0  0  0  0
    2.6885    7.9597    7.0961 C   0  0  1  0  0  0
    5.2414    7.6991    7.1880 C   0  0  0  0  0  0
    6.2657    8.3313    6.4522 C   0  0  0  0  0  0
    1.9422    7.4939    5.8389 C   0  0  1  0  0  0
    5.6099    9.3992    5.7735 C   0  0  0  0  0  0
    0.8677    6.6431    6.4961 C   0  0  1  0  0  0
    1.6552    5.9213    7.6005 C   0  0  2  0  0  0
    7.5376    7.7539    6.5586 C   0  0  0  0  0  0
    6.6858    6.1612    7.9880 C   0  0  0  0  0  0
    0.8755    5.3274    8.8012 C   0  0  0  0  0  0
    0.9339    8.2538    4.3430 H   0  0  0  0  0  0
   -0.9306    6.8370    7.1880 H   0  0  0  0  0  0
   -0.4366    5.8370   10.1556 H   0  0  0  0  0  0
    8.4470    9.0124    5.1920 H   0  0  0  0  0  0
    9.4455    7.6776    5.7697 H   0  0  0  0  0  0
    2.2034    8.8352    7.5337 H   0  0  0  0  0  0
    2.5980    6.8431    5.2607 H   0  0  0  0  0  0
    0.4710    5.9248    5.7765 H   0  0  0  0  0  0
    2.2006    5.0911    7.1485 H   0  0  0  0  0  0
    6.8524    5.2735    8.5762 H   0  0  0  0  0  0
    1.5668    4.7970    9.4580 H   0  0  0  0  0  0
    0.1510    4.5934    8.4457 H   0  0  0  0  0  0
  1 15  1  0  0  0
  2 11  1  0  0  0
  2 17  1  0  0  0
  3 14  1  0  0  0
  3 21  1  0  0  0
  4 16  1  0  0  0
  4 22  1  0  0  0
  5 20  1  0  0  0
  5 23  1  0  0  0
  6  7  1  0  0  0
  6 11  1  0  0  0
  6 12  1  0  0  0
  7 15  2  0  0  0
  8 12  1  0  0  0
  8 19  2  0  0  0
  9 18  2  0  0  0
  9 19  1  0  0  0
 10 18  1  0  0  0
 10 24  1  0  0  0
 10 25  1  0  0  0
 11 14  1  0  0  0
 11 26  1  0  0  0
 12 13  2  0  0  0
 13 15  1  0  0  0
 13 18  1  0  0  0
 14 16  1  0  0  0
 14 27  1  0  0  0
 16 17  1  0  0  0
 16 28  1  0  0  0
 17 20  1  0  0  0
 17 29  1  0  0  0
 19 30  1  0  0  0
 20 31  1  0  0  0
 20 32  1  0  0  0
M  END
> <s_m_entry_id>
31960

> <s_m_entry_name>
dock_pv.223

> <s_m_Source_Path>
/home/csk/Desktop/cluster/DUD-E-result/src

> <s_m_Source_File>
dock_pv.maegz

> <i_m_Source_File_Index>
223

> <chembl_id>
CHEMBL2001288

> <chembl_pref_name>
None

> <i_lp_mmshare_version>
53161

> <r_lp_tautomer_probability>
1

> <s_lp_Force_Field>
OPLS_2005

> <r_lp_Energy>
35.58765

> <b_lp_Chiralities_Consistent>
1

> <s_lp_Variant>
CHEMBL267_lig3357-8

> <s_i_glide_gridfile>
glide-grid_3el8

> <i_i_glide_lignum>
3981

> <i_i_glide_rotatable_bonds>
5

> <r_i_docking_score>
-7.76811912257637

> <r_i_glide_ligand_efficiency>
-0.388405956128818

> <r_i_glide_ligand_efficiency_sa>
-1.05429596865366

> <r_i_glide_ligand_efficiency_ln>
-1.94410400666485

> <r_i_glide_gscore>
-7.76811912257637

> <r_i_glide_lipo>
-1.72543829749821

> <r_i_glide_hbond>
-0.463268246252339

> <r_i_glide_metal>
0

> <r_i_glide_rewards>
-2.65531844724847

> <r_i_glide_evdw>
-26.7292652130127

> <r_i_glide_ecoul>
-11.7636833190918

> <r_i_glide_erotb>
0.176921626937053

> <r_i_glide_esite>
0

> <r_i_glide_emodel>
-54.7270867255353

> <r_i_glide_energy>
-38.4929485321045

> <r_i_glide_einternal>
3.96451759338379

> <i_i_glide_confnum>
9

> <i_i_glide_posenum>
366

> <r_i_glide_eff_state_penalty>
0

> <s_user_duplicate_titles>
CHEMBL267_lig3357

> <i_f3d_flags>
0

> <s_m_subgroup_title>
dock_pv

> <s_m_subgroupid>
dock_pv

> <b_m_subgroup_collapsed>
1

$$$$
CHEMBL267_lig1920
                    3D
 Schrodinger Suite 2021-1.
 31 34  0  0  1  0            999 V2000
    7.7374    6.8913    7.5857 N   0  0  0  0  0  0
    8.2932    7.8367    6.7881 C   0  0  0  0  0  0
    7.6568    8.7650    6.0253 N   0  0  0  0  0  0
    6.3846    6.8811    7.6616 C   0  0  0  0  0  0
    5.6050    7.8372    6.9830 C   0  0  0  0  0  0
    6.3262    8.7359    6.1680 C   0  0  0  0  0  0
    5.3772    9.5367    5.5637 N   0  0  0  0  0  0
    4.1289    9.1874    5.9394 N   0  0  0  0  0  0
    4.2272    8.2010    6.8036 C   0  0  0  0  0  0
    3.0202    7.6039    7.4427 C   0  0  0  0  0  0
    3.0178    7.2826    8.8066 C   0  0  0  0  0  0
    0.7595    6.7107    7.1564 N   0  0  0  0  0  0
    1.8842    7.3055    6.6792 C   0  0  0  0  0  0
    5.8140    5.8431    8.3880 N   0  0  0  0  0  0
    5.5687   10.6050    4.5963 C   0  0  0  0  0  0
    0.7956    6.4075    8.4571 C   0  0  0  0  0  0
    1.8774    6.6657    9.3454 C   0  0  0  0  0  0
    1.4727    6.2000   10.6393 C   0  0  0  0  0  0
    0.2009    5.6729   10.4968 C   0  0  0  0  0  0
   -0.2019    5.8003    9.1883 N   0  0  0  0  0  0
    9.3721    7.8392    6.7485 H   0  0  0  0  0  0
    3.8670    7.5093    9.4348 H   0  0  0  0  0  0
    1.8680    7.5334    5.6226 H   0  0  0  0  0  0
    4.8088    5.7611    8.4333 H   0  0  0  0  0  0
    6.4207    5.1603    8.8202 H   0  0  0  0  0  0
    6.3245   11.2970    4.9693 H   0  0  0  0  0  0
    5.9071   10.1749    3.6537 H   0  0  0  0  0  0
    4.6375   11.1490    4.4295 H   0  0  0  0  0  0
    2.0366    6.2367   11.5607 H   0  0  0  0  0  0
   -0.4676    5.2250   11.2202 H   0  0  0  0  0  0
   -1.1133    5.5025    8.8576 H   0  0  0  0  0  0
  1  4  1  0  0  0
  1  2  2  0  0  0
  2  3  1  0  0  0
  2 21  1  0  0  0
  3  6  2  0  0  0
  4 14  1  0  0  0
  4  5  2  0  0  0
  5  6  1  0  0  0
  5  9  1  0  0  0
  6  7  1  0  0  0
  7 15  1  0  0  0
  7  8  1  0  0  0
  8  9  2  0  0  0
  9 10  1  0  0  0
 10 11  2  0  0  0
 10 13  1  0  0  0
 11 17  1  0  0  0
 11 22  1  0  0  0
 12 16  1  0  0  0
 12 13  2  0  0  0
 13 23  1  0  0  0
 14 24  1  0  0  0
 14 25  1  0  0  0
 15 26  1  0  0  0
 15 27  1  0  0  0
 15 28  1  0  0  0
 16 17  2  0  0  0
 16 20  1  0  0  0
 17 18  1  0  0  0
 18 19  2  0  0  0
 18 29  1  0  0  0
 19 20  1  0  0  0
 19 30  1  0  0  0
 20 31  1  0  0  0
M  END
> <s_m_entry_id>
31961

> <s_m_entry_name>
dock_pv.224

> <s_m_Source_Path>
/home/csk/Desktop/cluster/DUD-E-result/src

> <s_m_Source_File>
dock_pv.maegz

> <i_m_Source_File_Index>
224

> <chembl_id>
CHEMBL1240565

> <chembl_pref_name>
None

> <i_lp_mmshare_version>
53161

> <r_lp_tautomer_probability>
0.999998432528457

> <s_lp_Force_Field>
OPLS_2005

> <r_lp_Energy>
9.306603

> <b_lp_Chiralities_Consistent>
1

> <s_lp_Variant>
CHEMBL267_lig1920-1

> <s_i_glide_gridfile>
glide-grid_3el8

> <i_i_glide_lignum>
2196

> <i_i_glide_rotatable_bonds>
1

> <r_i_docking_score>
-7.74947601758465

> <r_i_glide_ligand_efficiency>
-0.387473800879232

> <r_i_glide_ligand_efficiency_sa>
-1.05176571002531

> <r_i_glide_ligand_efficiency_ln>
-1.93943825237618

> <r_i_glide_gscore>
-7.74947601758465

> <r_i_glide_lipo>
-1.58224180351894

> <r_i_glide_hbond>
-0.296977809658557

> <r_i_glide_metal>
0

> <r_i_glide_rewards>
-3.57488489876345

> <r_i_glide_evdw>
-33.4712905883789

> <r_i_glide_ecoul>
-5.43342876434326

> <r_i_glide_erotb>
0.252845077533639

> <r_i_glide_esite>
-0.0596377391069043

> <r_i_glide_emodel>
-57.2221149983933

> <r_i_glide_energy>
-38.9047193527222

> <r_i_glide_einternal>
0.660184025764465

> <i_i_glide_confnum>
3

> <i_i_glide_posenum>
115

> <r_i_glide_eff_state_penalty>
0

> <s_user_duplicate_titles>
CHEMBL267_lig1920

> <i_f3d_flags>
0

> <s_m_subgroup_title>
dock_pv

> <s_m_subgroupid>
dock_pv

> <b_m_subgroup_collapsed>
1

$$$$
CHEMBL267_lig3896
                    3D
 Schrodinger Suite 2021-1.
 49 52  0  0  1  0            999 V2000
    2.2064    7.0209    7.9693 N   0  0  0  0  0  0
    2.5062    8.1408    7.2756 C   0  0  0  0  0  0
    3.7456    8.6369    7.0366 N   0  0  0  0  0  0
    3.2306    6.2773    8.4608 C   0  0  0  0  0  0
    4.5570    6.6382    8.1904 C   0  0  0  0  0  0
    4.7341    7.8441    7.4771 C   0  0  0  0  0  0
    6.1048    8.0032    7.3366 N   0  0  0  0  0  0
    6.7653    6.9400    7.8506 N   0  0  0  0  0  0
    5.8760    6.1367    8.3877 C   0  0  0  0  0  0
    2.9227    5.1255    9.1879 N   0  0  0  0  0  0
    1.6213    4.7461    9.5308 C   0  0  0  0  0  0
    1.0117    3.7335    8.7874 C   0  0  0  0  0  0
   -0.3253    3.4163    8.9958 C   0  0  0  0  0  0
   -1.0395    4.0738    9.9876 C   0  0  0  0  0  0
   -0.4183    5.0370   10.7807 C   0  0  0  0  0  0
    0.9041    5.4037   10.5438 C   0  0  0  0  0  0
   -0.9341    2.4622    8.2288 O   0  0  0  0  0  0
    6.8714    9.1072    6.7420 C   0  0  0  0  0  0
    6.9354    9.0879    5.1899 C   0  0  2  0  0  0
    7.7935   10.2369    4.6244 C   0  0  0  0  0  0
    9.1887   10.1074    4.6447 C   0  0  0  0  0  0
    9.9909   11.0366    3.9875 C   0  0  0  0  0  0
    9.4065   12.1277    3.3521 C   0  0  0  0  0  0
    8.0247   12.2930    3.3592 C   0  0  0  0  0  0
    7.2193   11.3482    3.9880 C   0  0  0  0  0  0
    5.5556    8.9779    4.5042 C   0  0  0  0  0  0
    1.6217    6.6368   11.5253 Cl  0  0  0  0  0  0
    1.1464    9.0015    6.5517 S   0  0  0  0  0  0
   -0.2240    7.8072    6.5108 C   0  0  0  0  0  0
    6.1775    5.2188    8.8746 H   0  0  0  0  0  0
    3.6727    4.7192    9.7337 H   0  0  0  0  0  0
    1.5587    3.2270    8.0058 H   0  0  0  0  0  0
   -2.0778    3.8344   10.1633 H   0  0  0  0  0  0
   -0.9990    5.5243   11.5526 H   0  0  0  0  0  0
   -1.8591    2.3211    8.4504 H   0  0  0  0  0  0
    7.8836    9.0369    7.1389 H   0  0  0  0  0  0
    6.4576   10.0491    7.1020 H   0  0  0  0  0  0
    7.4566    8.1678    4.9147 H   0  0  0  0  0  0
    9.6505    9.2528    5.1196 H   0  0  0  0  0  0
   11.0642   10.9159    3.9801 H   0  0  0  0  0  0
   10.0304   12.8533    2.8511 H   0  0  0  0  0  0
    7.5780   13.1448    2.8664 H   0  0  0  0  0  0
    6.1492   11.4843    3.9535 H   0  0  0  0  0  0
    5.6434    8.9697    3.4173 H   0  0  0  0  0  0
    5.0560    8.0556    4.7878 H   0  0  0  0  0  0
    4.8948    9.7994    4.7835 H   0  0  0  0  0  0
   -1.1086    8.2378    6.0489 H   0  0  0  0  0  0
    0.0636    6.9324    5.9278 H   0  0  0  0  0  0
   -0.4825    7.4665    7.5134 H   0  0  0  0  0  0
  1  2  2  0  0  0
  1  4  1  0  0  0
  2  3  1  0  0  0
  2 28  1  0  0  0
  3  6  2  0  0  0
  4  5  2  0  0  0
  4 10  1  0  0  0
  5  6  1  0  0  0
  5  9  1  0  0  0
  6  7  1  0  0  0
  7  8  1  0  0  0
  7 18  1  0  0  0
  8  9  2  0  0  0
  9 30  1  0  0  0
 10 11  1  0  0  0
 10 31  1  0  0  0
 11 12  2  0  0  0
 11 16  1  0  0  0
 12 13  1  0  0  0
 12 32  1  0  0  0
 13 14  2  0  0  0
 13 17  1  0  0  0
 14 15  1  0  0  0
 14 33  1  0  0  0
 15 16  2  0  0  0
 15 34  1  0  0  0
 16 27  1  0  0  0
 17 35  1  0  0  0
 18 19  1  0  0  0
 18 36  1  0  0  0
 18 37  1  0  0  0
 19 20  1  0  0  0
 19 26  1  0  0  0
 19 38  1  0  0  0
 20 21  2  0  0  0
 20 25  1  0  0  0
 21 22  1  0  0  0
 21 39  1  0  0  0
 22 23  2  0  0  0
 22 40  1  0  0  0
 23 24  1  0  0  0
 23 41  1  0  0  0
 24 25  2  0  0  0
 24 42  1  0  0  0
 25 43  1  0  0  0
 26 44  1  0  0  0
 26 45  1  0  0  0
 26 46  1  0  0  0
 28 29  1  0  0  0
 29 47  1  0  0  0
 29 48  1  0  0  0
 29 49  1  0  0  0
M  END
> <s_m_entry_id>
31962

> <s_m_entry_name>
dock_pv.225

> <s_m_Source_Path>
/home/csk/Desktop/cluster/DUD-E-result/src

> <s_m_Source_File>
dock_pv.maegz

> <i_m_Source_File_Index>
225

> <chembl_id>
CHEMBL4278410

> <chembl_pref_name>
None

> <i_lp_mmshare_version>
53161

> <r_lp_tautomer_probability>
1

> <s_lp_Force_Field>
OPLS_2005

> <r_lp_Energy>
13.5825

> <b_lp_Chiralities_Consistent>
1

> <s_lp_Variant>
CHEMBL267_lig3896-1

> <s_i_glide_gridfile>
glide-grid_3el8

> <i_i_glide_lignum>
4815

> <i_i_glide_rotatable_bonds>
7

> <r_i_docking_score>
-7.74269743393773

> <r_i_glide_ligand_efficiency>
-0.266989566687508

> <r_i_glide_ligand_efficiency_sa>
-0.8202765370959

> <r_i_glide_ligand_efficiency_ln>
-1.77288137450531

> <r_i_glide_gscore>
-7.74269743393773

> <r_i_glide_lipo>
-3.67869676687569

> <r_i_glide_hbond>
-0.390968294590032

> <r_i_glide_metal>
0

> <r_i_glide_rewards>
-1.35048140870388

> <r_i_glide_evdw>
-39.9653282165527

> <r_i_glide_ecoul>
-5.80749893188477

> <r_i_glide_erotb>
0.546840286842222

> <r_i_glide_esite>
0

> <r_i_glide_emodel>
-62.2828143833243

> <r_i_glide_energy>
-45.7728271484375

> <r_i_glide_einternal>
6.70372819900513

> <i_i_glide_confnum>
8

> <i_i_glide_posenum>
68

> <r_i_glide_eff_state_penalty>
0

> <s_user_duplicate_titles>
CHEMBL267_lig3896

> <i_f3d_flags>
0

> <s_m_subgroup_title>
dock_pv

> <s_m_subgroupid>
dock_pv

> <b_m_subgroup_collapsed>
1

$$$$
CHEMBL267_lig2582
                    3D
 Schrodinger Suite 2021-1.
 39 42  0  0  1  0            999 V2000
    6.4360    8.8113    5.6838 C   0  0  0  0  0  0
    6.1518    7.8371    6.7853 C   0  0  0  0  0  0
    4.8018    7.7583    7.3628 C   0  0  0  0  0  0
    7.0647    7.1813    7.2977 O   0  0  0  0  0  0
    3.7005    8.6199    7.1874 C   0  0  0  0  0  0
    2.6432    8.2543    7.8642 N   0  0  0  0  0  0
    3.0233    7.1523    8.5204 N   0  0  0  0  0  0
    4.3285    6.7959    8.2507 C   0  0  0  0  0  0
    2.1054    6.5531    9.3949 C   0  0  0  0  0  0
    0.9986    5.8831    8.8594 C   0  0  0  0  0  0
    0.0607    5.3038    9.7104 C   0  0  0  0  0  0
    0.1977    5.4454   11.0908 C   0  0  0  0  0  0
    1.2850    6.1375   11.6238 C   0  0  0  0  0  0
    2.2695    6.6550   10.7851 C   0  0  0  0  0  0
    4.9216    5.6857    8.7880 N   0  0  0  0  0  0
    3.6462    7.4370   11.4939 Cl  0  0  0  0  0  0
   -1.0014    4.6092    9.1961 O   0  0  0  0  0  0
    5.4772    9.1564    4.7223 C   0  0  0  0  0  0
    8.0181   10.3427    4.6517 C   0  0  0  0  0  0
    7.7165    9.3578    5.5879 C   0  0  0  0  0  0
    7.0414   10.7546    3.7183 C   0  0  0  0  0  0
    5.7556   10.1361    3.7425 C   0  0  0  0  0  0
    4.8060   10.5343    2.7700 C   0  0  0  0  0  0
    5.1586   11.5003    1.8306 C   0  0  0  0  0  0
    6.4349   12.0544    1.8803 C   0  0  0  0  0  0
    7.3693   11.7029    2.7971 N   0  0  0  0  0  0
    3.6696    9.5218    6.5944 H   0  0  0  0  0  0
    0.8762    5.7959    7.7889 H   0  0  0  0  0  0
   -0.5544    5.0370   11.7482 H   0  0  0  0  0  0
    1.3803    6.2392   12.6951 H   0  0  0  0  0  0
    5.8839    5.4633    8.5731 H   0  0  0  0  0  0
    4.4765    5.1381    9.5150 H   0  0  0  0  0  0
   -1.4483    5.0595    8.4640 H   0  0  0  0  0  0
    4.5066    8.6839    4.7036 H   0  0  0  0  0  0
    9.0057   10.7812    4.6183 H   0  0  0  0  0  0
    8.4908    9.0370    6.2725 H   0  0  0  0  0  0
    3.8227   10.0862    2.7575 H   0  0  0  0  0  0
    4.4600   11.8185    1.0691 H   0  0  0  0  0  0
    6.7289   12.7996    1.1540 H   0  0  0  0  0  0
  1  2  1  0  0  0
  1 18  2  0  0  0
  1 20  1  0  0  0
  2  3  1  0  0  0
  2  4  2  0  0  0
  3  5  1  0  0  0
  3  8  2  0  0  0
  5  6  2  0  0  0
  5 27  1  0  0  0
  6  7  1  0  0  0
  7  8  1  0  0  0
  7  9  1  0  0  0
  8 15  1  0  0  0
  9 10  2  0  0  0
  9 14  1  0  0  0
 10 11  1  0  0  0
 10 28  1  0  0  0
 11 12  2  0  0  0
 11 17  1  0  0  0
 12 13  1  0  0  0
 12 29  1  0  0  0
 13 14  2  0  0  0
 13 30  1  0  0  0
 14 16  1  0  0  0
 15 31  1  0  0  0
 15 32  1  0  0  0
 17 33  1  0  0  0
 18 22  1  0  0  0
 18 34  1  0  0  0
 19 21  1  0  0  0
 19 20  2  0  0  0
 19 35  1  0  0  0
 20 36  1  0  0  0
 21 22  1  0  0  0
 21 26  2  0  0  0
 22 23  2  0  0  0
 23 24  1  0  0  0
 23 37  1  0  0  0
 24 25  2  0  0  0
 24 38  1  0  0  0
 25 26  1  0  0  0
 25 39  1  0  0  0
M  END
> <s_m_entry_id>
31963

> <s_m_entry_name>
dock_pv.226

> <s_m_Source_Path>
/home/csk/Desktop/cluster/DUD-E-result/src

> <s_m_Source_File>
dock_pv.maegz

> <i_m_Source_File_Index>
226

> <chembl_id>
CHEMBL3947281

> <chembl_pref_name>
None

> <i_lp_mmshare_version>
53161

> <r_lp_tautomer_probability>
1

> <s_lp_Force_Field>
OPLS_2005

> <r_lp_Energy>
30.656947

> <b_lp_Chiralities_Consistent>
1

> <s_lp_Variant>
CHEMBL267_lig2582-1

> <s_i_glide_gridfile>
glide-grid_3el8

> <i_i_glide_lignum>
2894

> <i_i_glide_rotatable_bonds>
4

> <r_i_docking_score>
-7.74040756379624

> <r_i_glide_ligand_efficiency>
-0.297707983222932

> <r_i_glide_ligand_efficiency_sa>
-0.881958728873589

> <r_i_glide_ligand_efficiency_ln>
-1.81780931800875

> <r_i_glide_gscore>
-7.74040756379624

> <r_i_glide_lipo>
-3.07257527673355

> <r_i_glide_hbond>
-0.5359608385216

> <r_i_glide_metal>
0

> <r_i_glide_rewards>
-1.49514550077214

> <r_i_glide_evdw>
-36.6580772399902

> <r_i_glide_ecoul>
-8.22142124176025

> <r_i_glide_erotb>
0.433509526992898

> <r_i_glide_esite>
-0.00411842649830149

> <r_i_glide_emodel>
-64.315054006854

> <r_i_glide_energy>
-44.8794984817505

> <r_i_glide_einternal>
3.0580883026123

> <i_i_glide_confnum>
6

> <i_i_glide_posenum>
198

> <r_i_glide_eff_state_penalty>
0

> <s_user_duplicate_titles>
CHEMBL267_lig2582

> <i_f3d_flags>
0

> <s_m_subgroup_title>
dock_pv

> <s_m_subgroupid>
dock_pv

> <b_m_subgroup_collapsed>
1

$$$$
CHEMBL267_lig1936
                    3D
 Schrodinger Suite 2021-1.
 38 41  0  0  1  0            999 V2000
    7.7738    6.8003    7.5868 N   0  0  0  0  0  0
    8.3999    7.7011    6.7925 C   0  0  0  0  0  0
    7.8423    8.6443    5.9974 N   0  0  0  0  0  0
    6.4210    6.8625    7.6256 C   0  0  0  0  0  0
    5.7121    7.8371    6.8926 C   0  0  0  0  0  0
    6.5109    8.6876    6.0942 C   0  0  0  0  0  0
    5.6424    9.5468    5.4524 N   0  0  0  0  0  0
    4.3644    9.2684    5.7840 N   0  0  0  0  0  0
    4.3643    8.2692    6.6381 C   0  0  0  0  0  0
    3.0838    7.7647    7.2097 C   0  0  0  0  0  0
    1.8368    6.8603    9.0952 C   0  0  0  0  0  0
    3.0029    7.3915    8.5546 C   0  0  0  0  0  0
    5.7894    5.8869    8.3879 N   0  0  0  0  0  0
    5.9480   10.6161    4.4953 C   0  0  0  0  0  0
    0.6862    6.6836    8.3293 C   0  0  0  0  0  0
    5.4034   11.9702    4.9962 C   0  0  0  0  0  0
    5.4141   10.2391    3.1001 C   0  0  0  0  0  0
    0.7492    7.0768    6.9871 C   0  0  0  0  0  0
    1.9341    7.6158    6.4024 C   0  0  0  0  0  0
    1.6220    7.8707    5.0200 C   0  0  0  0  0  0
    0.3214    7.4750    4.8011 C   0  0  0  0  0  0
   -0.2019    7.0369    5.9886 N   0  0  0  0  0  0
    9.4745    7.6658    6.7881 H   0  0  0  0  0  0
    1.8270    6.5730   10.1376 H   0  0  0  0  0  0
    3.8572    7.5248    9.2030 H   0  0  0  0  0  0
    4.7806    5.8540    8.4202 H   0  0  0  0  0  0
    6.3578    5.1967    8.8583 H   0  0  0  0  0  0
    7.0350   10.6960    4.4325 H   0  0  0  0  0  0
   -0.2023    6.2470    8.7626 H   0  0  0  0  0  0
    5.6928   12.7813    4.3275 H   0  0  0  0  0  0
    4.3146   11.9707    5.0597 H   0  0  0  0  0  0
    5.7929   12.2107    5.9863 H   0  0  0  0  0  0
    5.7159   10.9715    2.3505 H   0  0  0  0  0  0
    5.7957    9.2665    2.7885 H   0  0  0  0  0  0
    4.3246   10.1849    3.0866 H   0  0  0  0  0  0
    2.2748    8.2780    4.2635 H   0  0  0  0  0  0
   -0.2813    7.4708    3.9019 H   0  0  0  0  0  0
   -1.1487    6.6856    6.0903 H   0  0  0  0  0  0
  1  2  2  0  0  0
  1  4  1  0  0  0
  2  3  1  0  0  0
  2 23  1  0  0  0
  3  6  2  0  0  0
  4 13  1  0  0  0
  4  5  2  0  0  0
  5  6  1  0  0  0
  5  9  1  0  0  0
  6  7  1  0  0  0
  7 14  1  0  0  0
  7  8  1  0  0  0
  8  9  2  0  0  0
  9 10  1  0  0  0
 10 12  1  0  0  0
 10 19  2  0  0  0
 11 15  1  0  0  0
 11 12  2  0  0  0
 11 24  1  0  0  0
 12 25  1  0  0  0
 13 26  1  0  0  0
 13 27  1  0  0  0
 14 16  1  0  0  0
 14 17  1  0  0  0
 14 28  1  0  0  0
 15 18  2  0  0  0
 15 29  1  0  0  0
 16 30  1  0  0  0
 16 31  1  0  0  0
 16 32  1  0  0  0
 17 33  1  0  0  0
 17 34  1  0  0  0
 17 35  1  0  0  0
 18 19  1  0  0  0
 18 22  1  0  0  0
 19 20  1  0  0  0
 20 21  2  0  0  0
 20 36  1  0  0  0
 21 22  1  0  0  0
 21 37  1  0  0  0
 22 38  1  0  0  0
M  END
> <s_m_entry_id>
31964

> <s_m_entry_name>
dock_pv.227

> <s_m_Source_Path>
/home/csk/Desktop/cluster/DUD-E-result/src

> <s_m_Source_File>
dock_pv.maegz

> <i_m_Source_File_Index>
227

> <chembl_id>
CHEMBL1242757

> <chembl_pref_name>
None

> <i_lp_mmshare_version>
53161

> <r_lp_tautomer_probability>
1

> <s_lp_Force_Field>
OPLS_2005

> <r_lp_Energy>
21.445422

> <b_lp_Chiralities_Consistent>
1

> <s_lp_Variant>
CHEMBL267_lig1936-1

> <s_i_glide_gridfile>
glide-grid_3el8

> <i_i_glide_lignum>
2217

> <i_i_glide_rotatable_bonds>
2

> <r_i_docking_score>
-7.7387650134939

> <r_i_glide_ligand_efficiency>
-0.351762046067904

> <r_i_glide_ligand_efficiency_sa>
-0.985651087098517

> <r_i_glide_ligand_efficiency_ln>
-1.89163644761036

> <r_i_glide_gscore>
-7.7387650134939

> <r_i_glide_lipo>
-2.22333711781364

> <r_i_glide_hbond>
-0.417745857271654

> <r_i_glide_metal>
0

> <r_i_glide_rewards>
-2.64015155667328

> <r_i_glide_evdw>
-33.2816505432129

> <r_i_glide_ecoul>
-6.71371221542358

> <r_i_glide_erotb>
0.213608877738853

> <r_i_glide_esite>
0

> <r_i_glide_emodel>
-56.3368770128024

> <r_i_glide_energy>
-39.9953627586365

> <r_i_glide_einternal>
3.08366560935974

> <i_i_glide_confnum>
2

> <i_i_glide_posenum>
87

> <r_i_glide_eff_state_penalty>
0

> <s_user_duplicate_titles>
CHEMBL267_lig1936

> <i_f3d_flags>
0

> <s_m_subgroup_title>
dock_pv

> <s_m_subgroupid>
dock_pv

> <b_m_subgroup_collapsed>
1

$$$$
CHEMBL267_lig2871 
                    3D
 Schrodinger Suite 2021-1.
 52 55  0  0  1  0            999 V2000
    1.6625    5.9567    9.2220 C   0  0  0  0  0  0
    2.8298    6.3874    9.8465 C   0  0  0  0  0  0
    3.8160    7.0383    9.1108 C   0  0  0  0  0  0
    3.6509    7.2665    7.7427 C   0  0  0  0  0  0
    2.4325    6.9196    7.1433 C   0  0  0  0  0  0
    1.4473    6.2589    7.8733 C   0  0  0  0  0  0
    0.7383    5.2690    9.9754 O   0  0  0  0  0  0
    0.1268    4.1545    9.4473 C   0  0  0  0  0  0
    0.8581    3.0229    9.0892 C   0  0  0  0  0  0
    0.1980    1.9006    8.5831 C   0  0  0  0  0  0
   -1.1824    1.9258    8.3953 C   0  0  0  0  0  0
   -1.9160    3.0388    8.7880 C   0  0  0  0  0  0
   -1.2547    4.1450    9.3150 C   0  0  0  0  0  0
    4.7637    7.8547    6.9138 C   0  0  0  0  0  0
    6.1684    7.5899    6.8855 C   0  0  0  0  0  0
    6.6857    8.5062    5.9747 C   0  0  0  0  0  0
    5.5934    9.1216    5.4100 N   0  0  0  0  0  0
    4.4499    8.7432    5.9957 N   0  0  0  0  0  0
    6.9720    6.6117    7.5883 C   0  0  0  0  0  0
    6.3188    5.6366    8.2199 N   0  0  0  0  0  0
    8.1985    6.6370    7.5781 O   0  0  0  0  0  0
    7.9712    8.7594    5.5729 N   0  0  0  0  0  0
    5.5811   10.1440    4.3421 C   0  0  2  0  0  0
    5.6619   11.5491    4.9600 C   0  0  0  0  0  0
    4.2994   12.0054    5.4987 C   0  0  0  0  0  0
    3.1752   11.8533    4.4499 C   0  0  0  0  0  0
    3.1408   10.4814    3.9267 N   0  0  2  0  0  0
    4.4050   10.0250    3.3326 C   0  0  0  0  0  0
    2.0070   10.1068    3.3055 C   0  0  0  0  0  0
    1.0053    9.8372    2.7917 N   0  0  0  0  0  0
    2.9885    6.1793   10.8950 H   0  0  0  0  0  0
    4.7280    7.3416    9.5970 H   0  0  0  0  0  0
    2.2689    7.1080    6.0906 H   0  0  0  0  0  0
    0.5279    5.9581    7.3881 H   0  0  0  0  0  0
    1.9251    3.0238    9.2368 H   0  0  0  0  0  0
    0.7315    0.9873    8.3844 H   0  0  0  0  0  0
   -1.6929    1.0603    7.9969 H   0  0  0  0  0  0
   -2.9900    3.0499    8.6668 H   0  0  0  0  0  0
   -1.8017    5.0299    9.5882 H   0  0  0  0  0  0
    6.8395    4.9061    8.6917 H   0  0  0  0  0  0
    5.3095    5.6219    8.2273 H   0  0  0  0  0  0
    8.7040    8.0911    5.7836 H   0  0  0  0  0  0
    8.2713    9.6628    5.2365 H   0  0  0  0  0  0
    6.5031    9.9832    3.7813 H   0  0  0  0  0  0
    6.0304   12.2482    4.2091 H   0  0  0  0  0  0
    6.4310   11.5839    5.7315 H   0  0  0  0  0  0
    4.3658   13.0367    5.8295 H   0  0  0  0  0  0
    4.0401   11.4313    6.3880 H   0  0  0  0  0  0
    3.3765   12.4951    3.5909 H   0  0  0  0  0  0
    2.2074   12.1225    4.8752 H   0  0  0  0  0  0
    4.3027    8.9893    3.0023 H   0  0  0  0  0  0
    4.6102   10.6208    2.4414 H   0  0  0  0  0  0
  1  2  2  0  0  0
  1  6  1  0  0  0
  1  7  1  0  0  0
  2  3  1  0  0  0
  2 31  1  0  0  0
  3  4  2  0  0  0
  3 32  1  0  0  0
  4  5  1  0  0  0
  4 14  1  0  0  0
  5  6  2  0  0  0
  5 33  1  0  0  0
  6 34  1  0  0  0
  7  8  1  0  0  0
  8  9  2  0  0  0
  8 13  1  0  0  0
  9 10  1  0  0  0
  9 35  1  0  0  0
 10 11  2  0  0  0
 10 36  1  0  0  0
 11 12  1  0  0  0
 11 37  1  0  0  0
 12 13  2  0  0  0
 12 38  1  0  0  0
 13 39  1  0  0  0
 14 15  1  0  0  0
 14 18  2  0  0  0
 15 16  2  0  0  0
 15 19  1  0  0  0
 16 17  1  0  0  0
 16 22  1  0  0  0
 17 18  1  0  0  0
 17 23  1  0  0  0
 19 20  1  0  0  0
 19 21  2  0  0  0
 20 40  1  0  0  0
 20 41  1  0  0  0
 22 42  1  0  0  0
 22 43  1  0  0  0
 23 24  1  0  0  0
 23 28  1  0  0  0
 23 44  1  0  0  0
 24 25  1  0  0  0
 24 45  1  0  0  0
 24 46  1  0  0  0
 25 26  1  0  0  0
 25 47  1  0  0  0
 25 48  1  0  0  0
 26 27  1  0  0  0
 26 49  1  0  0  0
 26 50  1  0  0  0
 27 28  1  0  0  0
 27 29  1  0  0  0
 28 51  1  0  0  0
 28 52  1  0  0  0
 29 30  3  0  0  0
M  END
> <s_m_entry_id>
31965

> <s_m_entry_name>
dock_pv.228

> <s_m_Source_Path>
/home/csk/Desktop/cluster/DUD-E-result/src

> <s_m_Source_File>
dock_pv.maegz

> <i_m_Source_File_Index>
228

> <chembl_id>
CHEMBL4436118

> <chembl_pref_name>
None

> <i_lp_mmshare_version>
53161

> <r_lp_tautomer_probability>
1

> <s_lp_Force_Field>
OPLS_2005

> <r_lp_Energy>
37.594302

> <b_lp_Chiralities_Consistent>
1

> <s_lp_Variant>
CHEMBL267_lig2871 -1

> <s_i_glide_gridfile>
glide-grid_3el8

> <i_i_glide_lignum>
3250

> <i_i_glide_rotatable_bonds>
5

> <r_i_docking_score>
-7.73860475654507

> <r_i_glide_ligand_efficiency>
-0.257953491884836

> <r_i_glide_ligand_efficiency_sa>
-0.801521474100155

> <r_i_glide_ligand_efficiency_ln>
-1.75829531953927

> <r_i_glide_gscore>
-7.73860475654507

> <r_i_glide_lipo>
-3.54662937983404

> <r_i_glide_hbond>
-0.532114261157525

> <r_i_glide_metal>
0

> <r_i_glide_rewards>
-1.27497954655362

> <r_i_glide_evdw>
-42.1444473266602

> <r_i_glide_ecoul>
-5.08202314376831

> <r_i_glide_erotb>
0.484644268898379

> <r_i_glide_esite>
0

> <r_i_glide_emodel>
-66.1234227246311

> <r_i_glide_energy>
-47.2264704704285

> <r_i_glide_einternal>
2.73469161987305

> <i_i_glide_confnum>
13

> <i_i_glide_posenum>
166

> <r_i_glide_eff_state_penalty>
0

> <s_user_duplicate_titles>
CHEMBL267_lig2871 

> <i_f3d_flags>
0

> <s_m_subgroup_title>
dock_pv

> <s_m_subgroupid>
dock_pv

> <b_m_subgroup_collapsed>
1

$$$$
CHEMBL267_lig3882
                    3D
 Schrodinger Suite 2021-1.
 49 52  0  0  1  0            999 V2000
    2.6944    7.7240    9.6672 C   0  0  0  0  0  0
    2.8981    8.6120    8.6685 N   0  0  0  0  0  0
    2.0541    8.4700    7.6439 C   0  0  0  0  0  0
    0.9619    7.5586    7.6032 C   0  0  0  0  0  0
    0.8498    6.7047    8.7184 C   0  0  0  0  0  0
    1.7399    6.7754    9.7335 N   0  0  0  0  0  0
    2.1176    9.1212    6.4237 N   0  0  0  0  0  0
    0.2770    7.7867    6.3641 C   0  0  0  0  0  0
    1.0285    8.7208    5.6740 C   0  0  0  0  0  0
   -0.1690    5.7546    8.7878 N   0  0  0  0  0  0
    3.7981    7.8365   11.0148 S   0  0  0  0  0  0
    3.3143    6.6484   12.2924 C   0  0  0  0  0  0
    3.2077    9.9773    5.9386 C   0  0  0  0  0  0
    4.2151    9.1589    5.0808 C   0  0  2  0  0  0
    5.5063    8.7177    5.7961 C   0  0  0  0  0  0
    5.4194    7.8355    6.8759 C   0  0  0  0  0  0
    6.5581    7.3909    7.5393 C   0  0  0  0  0  0
    7.8114    7.7910    7.0915 C   0  0  0  0  0  0
    7.9243    8.6359    5.9930 C   0  0  0  0  0  0
    6.7779    9.1205    5.3635 C   0  0  0  0  0  0
    4.4847    9.9908    3.5159 Cl  0  0  0  0  0  0
   -0.2502    4.7538    9.8369 C   0  0  0  0  0  0
   -0.6993    3.4400    9.2339 C   0  0  0  0  0  0
    0.2449    2.5086    8.7882 C   0  0  0  0  0  0
   -0.1772    1.2422    8.3884 C   0  0  0  0  0  0
   -1.5325    0.9338    8.3878 C   0  0  0  0  0  0
   -2.4706    1.8803    8.7886 C   0  0  0  0  0  0
   -2.0618    3.1434    9.1894 C   0  0  0  0  0  0
   -0.6090    7.2911    5.9877 H   0  0  0  0  0  0
    0.8923    9.1164    4.6763 H   0  0  0  0  0  0
   -0.9258    5.7936    8.1078 H   0  0  0  0  0  0
    4.1965    6.2444   12.7899 H   0  0  0  0  0  0
    2.6713    7.1057   13.0418 H   0  0  0  0  0  0
    2.7660    5.8371   11.8300 H   0  0  0  0  0  0
    3.7088   10.4521    6.7818 H   0  0  0  0  0  0
    2.7509   10.7810    5.3586 H   0  0  0  0  0  0
    3.7181    8.2388    4.7869 H   0  0  0  0  0  0
    4.4685    7.4397    7.1824 H   0  0  0  0  0  0
    6.4652    6.7131    8.3746 H   0  0  0  0  0  0
    8.6999    7.4357    7.5919 H   0  0  0  0  0  0
    8.9017    8.9334    5.6406 H   0  0  0  0  0  0
    6.8977    9.7915    4.5261 H   0  0  0  0  0  0
    0.6981    4.6030   10.3547 H   0  0  0  0  0  0
   -0.9709    5.0750   10.5906 H   0  0  0  0  0  0
    1.2991    2.7412    8.8156 H   0  0  0  0  0  0
    0.5335    0.4918    8.0805 H   0  0  0  0  0  0
   -1.8640   -0.0442    8.0714 H   0  0  0  0  0  0
   -3.5227    1.6317    8.7886 H   0  0  0  0  0  0
   -2.7945    3.8677    9.5163 H   0  0  0  0  0  0
  1  2  1  0  0  0
  1  6  2  0  0  0
  1 11  1  0  0  0
  2  3  2  0  0  0
  3  4  1  0  0  0
  3  7  1  0  0  0
  4  5  2  0  0  0
  4  8  1  0  0  0
  5  6  1  0  0  0
  5 10  1  0  0  0
  7  9  1  0  0  0
  7 13  1  0  0  0
  8  9  2  0  0  0
  8 29  1  0  0  0
  9 30  1  0  0  0
 10 22  1  0  0  0
 10 31  1  0  0  0
 11 12  1  0  0  0
 12 32  1  0  0  0
 12 33  1  0  0  0
 12 34  1  0  0  0
 13 14  1  0  0  0
 13 35  1  0  0  0
 13 36  1  0  0  0
 14 15  1  0  0  0
 14 21  1  0  0  0
 14 37  1  0  0  0
 15 16  1  0  0  0
 15 20  2  0  0  0
 16 17  2  0  0  0
 16 38  1  0  0  0
 17 18  1  0  0  0
 17 39  1  0  0  0
 18 19  2  0  0  0
 18 40  1  0  0  0
 19 20  1  0  0  0
 19 41  1  0  0  0
 20 42  1  0  0  0
 22 23  1  0  0  0
 22 43  1  0  0  0
 22 44  1  0  0  0
 23 24  1  0  0  0
 23 28  2  0  0  0
 24 25  2  0  0  0
 24 45  1  0  0  0
 25 26  1  0  0  0
 25 46  1  0  0  0
 26 27  2  0  0  0
 26 47  1  0  0  0
 27 28  1  0  0  0
 27 48  1  0  0  0
 28 49  1  0  0  0
M  END
> <s_m_entry_id>
31966

> <s_m_entry_name>
dock_pv.229

> <s_m_Source_Path>
/home/csk/Desktop/cluster/DUD-E-result/src

> <s_m_Source_File>
dock_pv.maegz

> <i_m_Source_File_Index>
229

> <chembl_id>
CHEMBL4096164

> <chembl_pref_name>
None

> <i_lp_mmshare_version>
53161

> <r_lp_tautomer_probability>
1

> <s_lp_Force_Field>
OPLS_2005

> <r_lp_Energy>
12.747919

> <b_lp_Chiralities_Consistent>
1

> <s_lp_Variant>
CHEMBL267_lig3882-1

> <s_i_glide_gridfile>
glide-grid_3el8

> <i_i_glide_lignum>
4794

> <i_i_glide_rotatable_bonds>
7

> <r_i_docking_score>
-7.73708515974046

> <r_i_glide_ligand_efficiency>
-0.276324469990731

> <r_i_glide_ligand_efficiency_sa>
-0.839083837301241

> <r_i_glide_ligand_efficiency_ln>
-1.78594642555957

> <r_i_glide_gscore>
-7.73708515974046

> <r_i_glide_lipo>
-3.98379928695989

> <r_i_glide_hbond>
-0.32

> <r_i_glide_metal>
0

> <r_i_glide_rewards>
-1.2826673662242

> <r_i_glide_evdw>
-38.8475608825684

> <r_i_glide_ecoul>
-5.67643451690674

> <r_i_glide_erotb>
0.70627937432862

> <r_i_glide_esite>
-0.0630546592205624

> <r_i_glide_emodel>
-54.1101689797689

> <r_i_glide_energy>
-44.5239953994751

> <r_i_glide_einternal>
14.9310350418091

> <i_i_glide_confnum>
34

> <i_i_glide_posenum>
391

> <r_i_glide_eff_state_penalty>
0

> <s_user_duplicate_titles>
CHEMBL267_lig3882

> <i_f3d_flags>
0

> <s_m_subgroup_title>
dock_pv

> <s_m_subgroupid>
dock_pv

> <b_m_subgroup_collapsed>
1

$$$$
CHEMBL267_lig139
                    3D
 Schrodinger Suite 2021-1.
 46 49  0  0  1  0            999 V2000
    0.0448    4.4393    8.8290 N   0  0  0  0  0  0
    0.5113    5.1733    9.9002 C   0  0  0  0  0  0
    0.4398    5.0370    7.6894 N   0  0  0  0  0  0
    1.2360    6.0417    7.9640 C   0  0  0  0  0  0
    1.4356    6.1116    9.3755 C   0  0  0  0  0  0
   -1.0463   -0.6843    7.8387 P   0  0  2  0  0  0
   -0.8549    3.3480    8.8148 C   0  0  0  0  0  0
    1.7365    6.9574    6.8991 C   0  0  0  0  0  0
   -0.4707    2.0653    8.3880 C   0  0  0  0  0  0
   -1.4019    1.0087    8.3989 C   0  0  0  0  0  0
   -2.0331   -1.0284    6.3363 C   0  0  0  0  0  0
    0.1980    5.0370   11.1883 N   0  0  0  0  0  0
    2.1626    6.8464   10.3292 C   0  0  0  0  0  0
    3.0497    7.4370    6.9100 C   0  0  0  0  0  0
    1.9458    6.6613   11.6491 N   0  0  0  0  0  0
   -3.3418   -1.7767    6.5542 C   0  0  0  0  0  0
    0.9342    5.8370   11.9940 C   0  0  0  0  0  0
    0.8497    7.4246    5.9199 C   0  0  0  0  0  0
   -1.0632   -1.7374    8.8881 O   0  0  0  0  0  0
   -2.1510    3.5480    9.2887 C   0  0  0  0  0  0
    1.2633    8.3734    4.9848 C   0  0  0  0  0  0
   -3.4352   -2.9889    6.3880 O   0  0  0  0  0  0
    0.4171   -0.4834    7.1880 O   0  0  0  0  0  0
    3.0752    7.8370    9.9913 N   0  0  0  0  0  0
    3.4637    8.3912    5.9813 C   0  0  0  0  0  0
   -4.3758   -0.9630    6.9117 O   0  0  0  0  0  0
   -2.6657    1.2239    8.9412 C   0  0  0  0  0  0
   -3.0480    2.4902    9.3726 C   0  0  0  0  0  0
    4.7536    8.8491    5.9881 O   0  0  0  0  0  0
    2.5673    8.8668    5.0252 C   0  0  0  0  0  0
    0.5348    1.8933    8.0312 H   0  0  0  0  0  0
   -1.4129   -1.6450    5.6970 H   0  0  0  0  0  0
   -2.2020   -0.1267    5.7604 H   0  0  0  0  0  0
    3.7579    7.0450    7.6237 H   0  0  0  0  0  0
    0.7235    5.7876   13.0469 H   0  0  0  0  0  0
   -0.1718    7.0694    5.8973 H   0  0  0  0  0  0
   -2.4637    4.5352    9.5880 H   0  0  0  0  0  0
    0.5710    8.7311    4.2361 H   0  0  0  0  0  0
    0.5397   -0.5630    6.2031 H   0  0  0  0  0  0
    3.2091    8.0834    9.0237 H   0  0  0  0  0  0
    3.5418    8.3263   10.7396 H   0  0  0  0  0  0
   -4.2020   -0.0062    6.7880 H   0  0  0  0  0  0
   -3.3794    0.4156    9.0019 H   0  0  0  0  0  0
   -4.0456    2.6487    9.7542 H   0  0  0  0  0  0
    5.3152    8.3994    6.6223 H   0  0  0  0  0  0
    2.8884    9.6018    4.3017 H   0  0  0  0  0  0
  1  2  1  0  0  0
  1  3  1  0  0  0
  1  7  1  0  0  0
  2  5  1  0  0  0
  2 12  2  0  0  0
  3  4  2  0  0  0
  4  8  1  0  0  0
  4  5  1  0  0  0
  5 13  2  0  0  0
  6 10  1  0  0  0
  6 11  1  0  0  0
  6 19  2  0  0  0
  6 23  1  0  0  0
  7  9  1  0  0  0
  7 20  2  0  0  0
  8 14  2  0  0  0
  8 18  1  0  0  0
  9 10  2  0  0  0
  9 31  1  0  0  0
 10 27  1  0  0  0
 11 16  1  0  0  0
 11 32  1  0  0  0
 11 33  1  0  0  0
 12 17  1  0  0  0
 13 24  1  0  0  0
 13 15  1  0  0  0
 14 25  1  0  0  0
 14 34  1  0  0  0
 15 17  2  0  0  0
 16 22  2  0  0  0
 16 26  1  0  0  0
 17 35  1  0  0  0
 18 21  2  0  0  0
 18 36  1  0  0  0
 20 28  1  0  0  0
 20 37  1  0  0  0
 21 30  1  0  0  0
 21 38  1  0  0  0
 23 39  1  0  0  0
 24 40  1  0  0  0
 24 41  1  0  0  0
 25 29  1  0  0  0
 25 30  2  0  0  0
 26 42  1  0  0  0
 27 28  2  0  0  0
 27 43  1  0  0  0
 28 44  1  0  0  0
 29 45  1  0  0  0
 30 46  1  0  0  0
M  END
> <s_m_entry_id>
31967

> <s_m_entry_name>
dock_pv.230

> <s_m_Source_Path>
/home/csk/Desktop/cluster/DUD-E-result/src

> <s_m_Source_File>
dock_pv.maegz

> <i_m_Source_File_Index>
230

> <chembl_id>
CHEMBL3706663

> <chembl_pref_name>
None

> <i_lp_mmshare_version>
53161

> <r_lp_tautomer_probability>
0.999999999997365

> <s_lp_Force_Field>
OPLS_2005

> <r_lp_Energy>
13.14558

> <b_lp_Chiralities_Consistent>
1

> <s_lp_Variant>
CHEMBL267_lig139-2

> <s_i_glide_gridfile>
glide-grid_3el8

> <i_i_glide_lignum>
189

> <i_i_glide_rotatable_bonds>
8

> <r_i_docking_score>
-7.73520075049415

> <r_i_glide_ligand_efficiency>
-0.257840025016472

> <r_i_glide_ligand_efficiency_sa>
-0.801168906158826

> <r_i_glide_ligand_efficiency_ln>
-1.75752189227489

> <r_i_glide_gscore>
-7.73520075049415

> <r_i_glide_lipo>
-2.68621140887103

> <r_i_glide_hbond>
0

> <r_i_glide_metal>
0

> <r_i_glide_rewards>
-1.41375765703087

> <r_i_glide_evdw>
-32.2475662231445

> <r_i_glide_ecoul>
-17.0300159454346

> <r_i_glide_erotb>
0.548238297426081

> <r_i_glide_esite>
-0.0165892790459193

> <r_i_glide_emodel>
-63.6097830070088

> <r_i_glide_energy>
-49.2775821685791

> <r_i_glide_einternal>
8.64347267150879

> <i_i_glide_confnum>
54

> <i_i_glide_posenum>
124

> <r_i_glide_eff_state_penalty>
0

> <s_user_duplicate_titles>
CHEMBL267_lig139

> <i_f3d_flags>
0

> <s_m_subgroup_title>
dock_pv

> <s_m_subgroupid>
dock_pv

> <b_m_subgroup_collapsed>
1

$$$$
CHEMBL267_lig1800
                    3D
 Schrodinger Suite 2021-1.
 29 31  0  0  1  0            999 V2000
    7.8849    6.7734    7.5877 N   0  0  0  0  0  0
    8.3885    7.7779    6.8295 C   0  0  0  0  0  0
    7.7078    8.7158    6.1242 N   0  0  0  0  0  0
    6.5376    6.7128    7.6976 C   0  0  0  0  0  0
    5.7139    7.6811    7.0889 C   0  0  0  0  0  0
    6.3850    8.6372    6.2964 C   0  0  0  0  0  0
    5.4002    9.4312    5.7442 N   0  0  0  0  0  0
    4.1736    9.0331    6.1386 N   0  0  0  0  0  0
    4.3251    8.0161    6.9595 C   0  0  0  0  0  0
    3.1597    7.3418    7.5875 C   0  0  0  0  0  0
    3.1937    6.9508    8.9295 C   0  0  0  0  0  0
    2.1366    6.2263    9.4793 C   0  0  0  0  0  0
    1.0459    5.8665    8.6821 C   0  0  0  0  0  0
    1.0112    6.2597    7.3444 C   0  0  0  0  0  0
    2.0534    7.0056    6.8029 C   0  0  0  0  0  0
    6.0213    5.6218    8.3880 N   0  0  0  0  0  0
   -0.3741    4.8036    9.3832 Br  0  0  0  0  0  0
    2.1996    5.8370   10.7881 O   0  0  0  0  0  0
    5.5400   10.5561    4.8335 C   0  0  0  0  0  0
    9.4616    7.8373    6.7875 H   0  0  0  0  0  0
    4.0429    7.2104    9.5452 H   0  0  0  0  0  0
    0.1980    5.9634    6.7054 H   0  0  0  0  0  0
    2.0219    7.2787    5.7576 H   0  0  0  0  0  0
    5.0216    5.5020    8.4528 H   0  0  0  0  0  0
    6.6591    4.9392    8.7782 H   0  0  0  0  0  0
    3.0963    5.7608   11.1325 H   0  0  0  0  0  0
    6.1931   11.3032    5.2856 H   0  0  0  0  0  0
    5.9830   10.2068    3.9003 H   0  0  0  0  0  0
    4.5697   11.0093    4.6226 H   0  0  0  0  0  0
  1  4  1  0  0  0
  1  2  2  0  0  0
  2  3  1  0  0  0
  2 20  1  0  0  0
  3  6  2  0  0  0
  4  5  2  0  0  0
  4 16  1  0  0  0
  5  9  1  0  0  0
  5  6  1  0  0  0
  6  7  1  0  0  0
  7  8  1  0  0  0
  7 19  1  0  0  0
  8  9  2  0  0  0
  9 10  1  0  0  0
 10 11  2  0  0  0
 10 15  1  0  0  0
 11 12  1  0  0  0
 11 21  1  0  0  0
 12 13  2  0  0  0
 12 18  1  0  0  0
 13 14  1  0  0  0
 13 17  1  0  0  0
 14 15  2  0  0  0
 14 22  1  0  0  0
 15 23  1  0  0  0
 16 24  1  0  0  0
 16 25  1  0  0  0
 18 26  1  0  0  0
 19 27  1  0  0  0
 19 28  1  0  0  0
 19 29  1  0  0  0
M  END
> <s_m_entry_id>
31968

> <s_m_entry_name>
dock_pv.231

> <s_m_Source_Path>
/home/csk/Desktop/cluster/DUD-E-result/src

> <s_m_Source_File>
dock_pv.maegz

> <i_m_Source_File_Index>
231

> <chembl_id>
CHEMBL1241299

> <chembl_pref_name>
None

> <i_lp_mmshare_version>
53161

> <r_lp_tautomer_probability>
0.999999999997365

> <s_lp_Force_Field>
OPLS_2005

> <r_lp_Energy>
6.0806

> <b_lp_Chiralities_Consistent>
1

> <s_lp_Variant>
CHEMBL267_lig1800-1

> <s_i_glide_gridfile>
glide-grid_3el8

> <i_i_glide_lignum>
2063

> <i_i_glide_rotatable_bonds>
2

> <r_i_docking_score>
-7.7325142127598

> <r_i_glide_ligand_efficiency>
-0.406974432250516

> <r_i_glide_ligand_efficiency_sa>
-1.0859712449391

> <r_i_glide_ligand_efficiency_ln>
-1.9603584321119

> <r_i_glide_gscore>
-7.7325142127598

> <r_i_glide_lipo>
-1.72109956416148

> <r_i_glide_hbond>
-0.551430490005936

> <r_i_glide_metal>
0

> <r_i_glide_rewards>
-3.2085749890334

> <r_i_glide_evdw>
-29.7804088592529

> <r_i_glide_ecoul>
-5.93260860443115

> <r_i_glide_erotb>
0.127502564068337

> <r_i_glide_esite>
0

> <r_i_glide_emodel>
-51.5707989958225

> <r_i_glide_energy>
-35.7130174636841

> <r_i_glide_einternal>
1.22185027599335

> <i_i_glide_confnum>
4

> <i_i_glide_posenum>
343

> <r_i_glide_eff_state_penalty>
0

> <s_user_duplicate_titles>
CHEMBL267_lig1800

> <i_f3d_flags>
0

> <s_m_subgroup_title>
dock_pv

> <s_m_subgroupid>
dock_pv

> <b_m_subgroup_collapsed>
1

$$$$
CHEMBL267_lig1950
                    3D
 Schrodinger Suite 2021-1.
 34 37  0  0  1  0            999 V2000
    3.0047    8.8586    5.9840 N   0  0  0  0  0  0
    1.9804    6.6664    7.8885 C   0  0  0  0  0  0
    1.0040    6.7255    7.0540 N   0  0  0  0  0  0
    3.4202    7.0370    7.6365 C   0  0  0  0  0  0
    3.8697    8.0891    6.7789 C   0  0  0  0  0  0
    5.2437    8.3258    6.6573 C   0  0  0  0  0  0
    6.1851    7.4889    7.2396 C   0  0  0  0  0  0
    5.7558    6.4047    7.9880 C   0  0  0  0  0  0
    4.4021    6.2370    8.2596 C   0  0  0  0  0  0
    1.9612    8.2772    5.3257 C   0  0  0  0  0  0
    1.1012    7.2895    5.8250 C   0  0  0  0  0  0
    0.2094    7.0189    4.8034 C   0  0  0  0  0  0
    0.5980    7.8369    3.7770 N   0  0  0  0  0  0
    1.6340    8.6229    4.0983 N   0  0  0  0  0  0
    1.6258    6.2165    9.2608 C   0  0  0  0  0  0
    2.1977    6.8848   10.3596 C   0  0  0  0  0  0
    1.7393    6.6370   11.6506 C   0  0  0  0  0  0
    0.6488    5.8021   11.8396 C   0  0  0  0  0  0
    0.1639    5.0370   10.7997 C   0  0  0  0  0  0
    0.6900    5.1873    9.5296 C   0  0  0  0  0  0
    6.6698    5.4370    8.3880 N   0  0  0  0  0  0
    0.1366    4.0289    8.3880 Cl  0  0  0  0  0  0
    3.4800    9.5398    5.4124 H   0  0  0  0  0  0
    5.5958    9.1275    6.0246 H   0  0  0  0  0  0
    7.2358    7.6453    7.0434 H   0  0  0  0  0  0
    4.1119    5.3887    8.8655 H   0  0  0  0  0  0
   -0.6352    6.3505    4.7202 H   0  0  0  0  0  0
    0.1538    7.8793    2.8672 H   0  0  0  0  0  0
    2.9640    7.6354   10.2262 H   0  0  0  0  0  0
    2.1748    7.1368   12.5010 H   0  0  0  0  0  0
    0.1980    5.6752   12.7912 H   0  0  0  0  0  0
   -0.6180    4.3138   10.9835 H   0  0  0  0  0  0
    6.3689    4.6669    8.9712 H   0  0  0  0  0  0
    7.6490    5.6656    8.3577 H   0  0  0  0  0  0
  1 10  1  0  0  0
  1  5  1  0  0  0
  1 23  1  0  0  0
  2  4  1  0  0  0
  2  3  2  0  0  0
  2 15  1  0  0  0
  3 11  1  0  0  0
  4  5  2  0  0  0
  4  9  1  0  0  0
  5  6  1  0  0  0
  6  7  2  0  0  0
  6 24  1  0  0  0
  7  8  1  0  0  0
  7 25  1  0  0  0
  8  9  2  0  0  0
  8 21  1  0  0  0
  9 26  1  0  0  0
 10 14  2  0  0  0
 10 11  1  0  0  0
 11 12  2  0  0  0
 12 13  1  0  0  0
 12 27  1  0  0  0
 13 14  1  0  0  0
 13 28  1  0  0  0
 15 16  2  0  0  0
 15 20  1  0  0  0
 16 17  1  0  0  0
 16 29  1  0  0  0
 17 18  2  0  0  0
 17 30  1  0  0  0
 18 19  1  0  0  0
 18 31  1  0  0  0
 19 20  2  0  0  0
 19 32  1  0  0  0
 20 22  1  0  0  0
 21 33  1  0  0  0
 21 34  1  0  0  0
M  END
> <s_m_entry_id>
31969

> <s_m_entry_name>
dock_pv.232

> <s_m_Source_Path>
/home/csk/Desktop/cluster/DUD-E-result/src

> <s_m_Source_File>
dock_pv.maegz

> <i_m_Source_File_Index>
232

> <chembl_id>
CHEMBL1257911

> <chembl_pref_name>
None

> <i_lp_mmshare_version>
53161

> <r_lp_tautomer_probability>
1

> <s_lp_Force_Field>
OPLS_2005

> <r_lp_Energy>
35.942191

> <b_lp_Chiralities_Consistent>
1

> <s_lp_Variant>
CHEMBL267_lig1950-1

> <s_i_glide_gridfile>
glide-grid_3el8

> <i_i_glide_lignum>
2231

> <i_i_glide_rotatable_bonds>
1

> <r_i_docking_score>
-7.73032329452553

> <r_i_glide_ligand_efficiency>
-0.351378331569342

> <r_i_glide_ligand_efficiency_sa>
-0.984575903982911

> <r_i_glide_ligand_efficiency_ln>
-1.88957298357531

> <r_i_glide_gscore>
-7.73032329452553

> <r_i_glide_lipo>
-3.29492228210424

> <r_i_glide_hbond>
-0.188996052355569

> <r_i_glide_metal>
0

> <r_i_glide_rewards>
-2.41419984347058

> <r_i_glide_evdw>
-32.6538276672363

> <r_i_glide_ecoul>
-2.61697125434875

> <r_i_glide_erotb>
0.193031954918996

> <r_i_glide_esite>
0

> <r_i_glide_emodel>
-52.3306239308805

> <r_i_glide_energy>
-35.2707989215851

> <r_i_glide_einternal>
0.836097896099091

> <i_i_glide_confnum>
2

> <i_i_glide_posenum>
170

> <r_i_glide_eff_state_penalty>
0

> <s_user_duplicate_titles>
CHEMBL267_lig1950

> <i_f3d_flags>
0

> <s_m_subgroup_title>
dock_pv

> <s_m_subgroupid>
dock_pv

> <b_m_subgroup_collapsed>
1

$$$$
CHEMBL267_lig461
                    3D
 Schrodinger Suite 2021-1.
 51 54  0  0  1  0            999 V2000
    6.1585    8.5281    6.3966 C   0  0  0  0  0  0
    5.1504    9.3113    5.8592 N   0  0  0  0  0  0
    5.5559    7.5482    7.2386 C   0  0  0  0  0  0
    4.1371    7.8370    7.2875 C   0  0  0  0  0  0
    3.9529    8.8763    6.3882 C   0  0  0  0  0  0
    5.3174   10.4339    4.9271 C   0  0  1  0  0  0
    7.4713    8.6377    6.1525 N   0  0  0  0  0  0
    6.4573    6.5894    7.7548 C   0  0  0  0  0  0
    7.7946    6.6801    7.5561 N   0  0  0  0  0  0
    4.5937   12.6157    4.4169 N   0  0  2  0  0  0
    3.0675    7.2042    8.1202 C   0  0  0  0  0  0
    3.6072   12.2991    2.1424 C   0  0  0  0  0  0
    4.4828   10.3582    3.6372 C   0  0  0  0  0  0
    2.6126   11.5371    1.2592 C   0  0  0  0  0  0
    3.8072   11.7387    3.5664 C   0  0  1  0  0  0
    8.2238    7.7082    6.7883 C   0  0  0  0  0  0
    4.9658   11.7889    5.5517 C   0  0  0  0  0  0
    1.8977   10.6328    1.6949 O   0  0  0  0  0  0
    1.7853    7.0005    7.5954 C   0  0  0  0  0  0
    3.3409    6.8130    9.4341 C   0  0  0  0  0  0
    6.0185    5.4393    8.4005 N   0  0  0  0  0  0
    1.0720    6.0421    9.6896 C   0  0  0  0  0  0
    0.7867    6.4226    8.3803 C   0  0  0  0  0  0
    2.3451    6.2359   10.2169 C   0  0  0  0  0  0
    2.6401   11.9836   -0.0125 O   0  0  0  0  0  0
    0.1004    5.4806   10.4740 O   0  0  0  0  0  0
    1.7985   11.4373   -1.0213 C   0  0  0  0  0  0
    0.4315   12.1358   -1.0315 C   0  0  0  0  0  0
    3.0415    9.3866    6.1108 H   0  0  0  0  0  0
    6.3779   10.4503    4.6698 H   0  0  0  0  0  0
    4.0778   13.4438    4.6769 H   0  0  0  0  0  0
    4.5672   12.3398    1.6266 H   0  0  0  0  0  0
    3.2496   13.3263    2.2076 H   0  0  0  0  0  0
    3.7191    9.5845    3.7274 H   0  0  0  0  0  0
    5.0990   10.1452    2.7627 H   0  0  0  0  0  0
    2.8037   11.6390    3.9892 H   0  0  0  0  0  0
    9.2912    7.7777    6.6304 H   0  0  0  0  0  0
    4.1188   11.7055    6.2362 H   0  0  0  0  0  0
    5.7973   12.2072    6.1202 H   0  0  0  0  0  0
    1.5608    7.2866    6.5781 H   0  0  0  0  0  0
    4.3183    6.9722    9.8650 H   0  0  0  0  0  0
    5.0289    5.3070    8.5553 H   0  0  0  0  0  0
    6.6990    4.7687    8.7372 H   0  0  0  0  0  0
   -0.2012    6.2650    7.9706 H   0  0  0  0  0  0
    2.5646    5.9381   11.2321 H   0  0  0  0  0  0
   -0.7716    5.4457   10.0665 H   0  0  0  0  0  0
    1.6873   10.3573   -0.9041 H   0  0  0  0  0  0
    2.2911   11.5939   -1.9819 H   0  0  0  0  0  0
   -0.1839   11.7706   -1.8532 H   0  0  0  0  0  0
    0.5441   13.2132   -1.1550 H   0  0  0  0  0  0
   -0.1100   11.9568   -0.1022 H   0  0  0  0  0  0
  1  2  1  0  0  0
  1  3  2  0  0  0
  1  7  1  0  0  0
  2  5  1  0  0  0
  2  6  1  0  0  0
  3  4  1  0  0  0
  3  8  1  0  0  0
  4 11  1  0  0  0
  4  5  2  0  0  0
  5 29  1  0  0  0
  6 13  1  0  0  0
  6 17  1  0  0  0
  6 30  1  0  0  0
  7 16  2  0  0  0
  8 21  1  0  0  0
  8  9  2  0  0  0
  9 16  1  0  0  0
 10 17  1  0  0  0
 10 15  1  0  0  0
 10 31  1  0  0  0
 11 19  2  0  0  0
 11 20  1  0  0  0
 12 15  1  0  0  0
 12 14  1  0  0  0
 12 32  1  0  0  0
 12 33  1  0  0  0
 13 15  1  0  0  0
 13 34  1  0  0  0
 13 35  1  0  0  0
 14 18  2  0  0  0
 14 25  1  0  0  0
 15 36  1  0  0  0
 16 37  1  0  0  0
 17 38  1  0  0  0
 17 39  1  0  0  0
 19 23  1  0  0  0
 19 40  1  0  0  0
 20 24  2  0  0  0
 20 41  1  0  0  0
 21 42  1  0  0  0
 21 43  1  0  0  0
 22 24  1  0  0  0
 22 26  1  0  0  0
 22 23  2  0  0  0
 23 44  1  0  0  0
 24 45  1  0  0  0
 25 27  1  0  0  0
 26 46  1  0  0  0
 27 28  1  0  0  0
 27 47  1  0  0  0
 27 48  1  0  0  0
 28 49  1  0  0  0
 28 50  1  0  0  0
 28 51  1  0  0  0
M  END
> <s_m_entry_id>
31970

> <s_m_entry_name>
dock_pv.233

> <s_m_Source_Path>
/home/csk/Desktop/cluster/DUD-E-result/src

> <s_m_Source_File>
dock_pv.maegz

> <i_m_Source_File_Index>
233

> <chembl_id>
CHEMBL170726

> <chembl_pref_name>
None

> <i_lp_mmshare_version>
53161

> <r_lp_tautomer_probability>
0.999999999997365

> <s_lp_Force_Field>
OPLS_2005

> <r_lp_Energy>
29.370217

> <b_lp_Chiralities_Consistent>
1

> <s_lp_Variant>
CHEMBL267_lig461-1

> <s_i_glide_gridfile>
glide-grid_3el8

> <i_i_glide_lignum>
553

> <i_i_glide_rotatable_bonds>
7

> <r_i_docking_score>
-7.72650714844266

> <r_i_glide_ligand_efficiency>
-0.275946683872952

> <r_i_glide_ligand_efficiency_sa>
-0.837936656143541

> <r_i_glide_ligand_efficiency_ln>
-1.78350470996813

> <r_i_glide_gscore>
-7.72650714844266

> <r_i_glide_lipo>
-2.09050355715629

> <r_i_glide_hbond>
-0.475241092381039

> <r_i_glide_metal>
0

> <r_i_glide_rewards>
-2.76705473321388

> <r_i_glide_evdw>
-43.0083236694336

> <r_i_glide_ecoul>
-4.68161964416504

> <r_i_glide_erotb>
0.466970622487809

> <r_i_glide_esite>
-0.00801925808281691

> <r_i_glide_emodel>
-69.034627756174

> <r_i_glide_energy>
-47.6899433135986

> <r_i_glide_einternal>
2.12165474891663

> <i_i_glide_confnum>
11

> <i_i_glide_posenum>
93

> <r_i_glide_eff_state_penalty>
0

> <s_user_duplicate_titles>
CHEMBL267_lig461,282538

> <i_f3d_flags>
0

> <s_m_subgroup_title>
dock_pv

> <s_m_subgroupid>
dock_pv

> <b_m_subgroup_collapsed>
1

$$$$
CHEMBL267_lig2766
                    3D
 Schrodinger Suite 2021-1.
 38 41  0  0  1  0            999 V2000
    0.6483    7.9203    5.8541 N   0  0  0  0  0  0
    1.5608    8.4411    4.9965 C   0  0  0  0  0  0
    2.8875    8.6370    5.2186 N   0  0  0  0  0  0
    1.1015    7.5415    7.0727 C   0  0  0  0  0  0
    2.4526    7.6641    7.4291 C   0  0  0  0  0  0
    3.2824    8.2324    6.4335 C   0  0  0  0  0  0
    4.5478    8.2762    6.9845 N   0  0  0  0  0  0
    4.5380    7.8370    8.2590 N   0  0  0  0  0  0
    3.3462    7.3904    8.5260 C   0  0  0  0  0  0
    5.8002    8.7662    6.4138 C   0  0  0  0  0  0
    0.1662    7.0370    7.9530 N   0  0  0  0  0  0
    3.1505    6.8261    9.7623 O   0  0  0  0  0  0
    2.1102    5.9641    9.9818 C   0  0  0  0  0  0
    1.2260    6.2370   11.0237 C   0  0  0  0  0  0
    0.1023    5.4370   11.2154 C   0  0  0  0  0  0
   -0.1250    4.3431   10.3811 C   0  0  0  0  0  0
    0.7951    4.0202    9.3841 C   0  0  0  0  0  0
    1.9164    4.8268    9.1880 C   0  0  0  0  0  0
    0.5372    2.6370    8.3880 Cl  0  0  0  0  0  0
    6.8197    7.6199    6.2098 C   0  0  0  0  0  0
    8.2666    8.0517    6.2004 C   0  0  0  0  0  0
    8.5987    7.0370    7.1880 N   0  0  2  0  0  0
    7.1934    6.8395    7.4690 C   0  0  0  0  0  0
    1.1877    8.7357    4.0254 H   0  0  0  0  0  0
    5.5862    9.2582    5.4640 H   0  0  0  0  0  0
    6.1980    9.5324    7.0818 H   0  0  0  0  0  0
    0.4917    6.6314    8.8194 H   0  0  0  0  0  0
   -0.7520    6.7912    7.5880 H   0  0  0  0  0  0
    1.3980    7.0868   11.6655 H   0  0  0  0  0  0
   -0.6035    5.6739   11.9990 H   0  0  0  0  0  0
   -1.0094    3.7382   10.5189 H   0  0  0  0  0  0
    2.6156    4.5993    8.3981 H   0  0  0  0  0  0
    6.5701    7.0370    5.3266 H   0  0  0  0  0  0
    8.7736    7.9442    5.2421 H   0  0  0  0  0  0
    8.4108    9.0370    6.6081 H   0  0  0  0  0  0
    9.2052    7.3234    7.9436 H   0  0  0  0  0  0
    6.9181    7.3520    8.3880 H   0  0  0  0  0  0
    6.8816    5.7942    7.4920 H   0  0  0  0  0  0
  1  2  2  0  0  0
  1  4  1  0  0  0
  2  3  1  0  0  0
  2 24  1  0  0  0
  3  6  2  0  0  0
  4  5  2  0  0  0
  4 11  1  0  0  0
  5  6  1  0  0  0
  5  9  1  0  0  0
  6  7  1  0  0  0
  7  8  1  0  0  0
  7 10  1  0  0  0
  8  9  2  0  0  0
  9 12  1  0  0  0
 10 20  1  0  0  0
 10 25  1  0  0  0
 10 26  1  0  0  0
 11 27  1  0  0  0
 11 28  1  0  0  0
 12 13  1  0  0  0
 13 14  2  0  0  0
 13 18  1  0  0  0
 14 15  1  0  0  0
 14 29  1  0  0  0
 15 16  2  0  0  0
 15 30  1  0  0  0
 16 17  1  0  0  0
 16 31  1  0  0  0
 17 18  2  0  0  0
 17 19  1  0  0  0
 18 32  1  0  0  0
 20 21  1  0  0  0
 20 23  1  0  0  0
 20 33  1  0  0  0
 21 22  1  0  0  0
 21 34  1  0  0  0
 21 35  1  0  0  0
 22 23  1  0  0  0
 22 36  1  0  0  0
 23 37  1  0  0  0
 23 38  1  0  0  0
M  END
> <s_m_entry_id>
31971

> <s_m_entry_name>
dock_pv.234

> <s_m_Source_Path>
/home/csk/Desktop/cluster/DUD-E-result/src

> <s_m_Source_File>
dock_pv.maegz

> <i_m_Source_File_Index>
234

> <chembl_id>
CHEMBL4067196

> <chembl_pref_name>
None

> <i_lp_mmshare_version>
53161

> <r_lp_tautomer_probability>
1

> <s_lp_Force_Field>
OPLS_2005

> <r_lp_Energy>
19.548587

> <b_lp_Chiralities_Consistent>
1

> <s_lp_Variant>
CHEMBL267_lig2766-1

> <s_i_glide_gridfile>
glide-grid_3el8

> <i_i_glide_lignum>
3134

> <i_i_glide_rotatable_bonds>
4

> <r_i_docking_score>
-7.71629299552402

> <r_i_glide_ligand_efficiency>
-0.335490999805392

> <r_i_glide_ligand_efficiency_sa>
-0.95409177538676

> <r_i_glide_ligand_efficiency_ln>
-1.86586961379424

> <r_i_glide_gscore>
-7.71629299552402

> <r_i_glide_lipo>
-2.95183206908094

> <r_i_glide_hbond>
-0.608

> <r_i_glide_metal>
0

> <r_i_glide_rewards>
-2.44624015117211

> <r_i_glide_evdw>
-33.4600143432617

> <r_i_glide_ecoul>
-4.42701625823975

> <r_i_glide_erotb>
0.687780885623098

> <r_i_glide_esite>
-0.0609485049950175

> <r_i_glide_emodel>
-53.7642165568379

> <r_i_glide_energy>
-37.8870306015015

> <r_i_glide_einternal>
4.72523212432861

> <i_i_glide_confnum>
16

> <i_i_glide_posenum>
151

> <r_i_glide_eff_state_penalty>
0

> <s_user_duplicate_titles>
CHEMBL267_lig2766

> <i_f3d_flags>
0

> <s_m_subgroup_title>
dock_pv

> <s_m_subgroupid>
dock_pv

> <b_m_subgroup_collapsed>
1

$$$$
CHEMBL267_lig2052
                    3D
 Schrodinger Suite 2021-1.
 43 46  0  0  1  0            999 V2000
    7.8291    6.8068    7.4518 N   0  0  0  0  0  0
    8.1986    7.8357    6.6455 C   0  0  0  0  0  0
    7.3944    8.7271    6.0124 N   0  0  0  0  0  0
    6.5036    6.6668    7.6947 C   0  0  0  0  0  0
    5.5638    7.5765    7.1712 C   0  0  0  0  0  0
    6.0976    8.5555    6.3007 C   0  0  0  0  0  0
    5.0122    9.2367    5.7854 N   0  0  0  0  0  0
    3.8592    8.7839    6.3228 N   0  0  0  0  0  0
    4.1467    7.8373    7.1909 C   0  0  0  0  0  0
    6.1167    5.5263    8.3883 N   0  0  0  0  0  0
    4.9919   10.2822    4.7591 C   0  0  0  0  0  0
    4.6515   11.6922    5.3219 C   0  0  0  0  0  0
    5.0377   12.8153    4.3329 C   0  0  0  0  0  0
    4.1491   12.8178    3.0711 C   0  0  0  0  0  0
    2.7275   12.9181    3.4163 N   0  0  2  0  0  0
    2.2630   11.9293    4.3925 C   0  0  0  0  0  0
    3.1561   11.9022    5.6523 C   0  0  0  0  0  0
    3.0695    7.2154    8.0257 C   0  0  0  0  0  0
    3.3442    6.8272    9.3418 C   0  0  0  0  0  0
    2.3519    6.2457   10.1270 C   0  0  0  0  0  0
    1.0786    6.0521    9.5962 C   0  0  0  0  0  0
    0.7901    6.4312    8.2882 C   0  0  0  0  0  0
    1.7857    7.0093    7.5024 C   0  0  0  0  0  0
    9.2567    7.9239    6.4427 H   0  0  0  0  0  0
    5.1343    5.3612    8.5562 H   0  0  0  0  0  0
    6.8207    4.8793    8.7195 H   0  0  0  0  0  0
    4.2967    9.9765    3.9754 H   0  0  0  0  0  0
    5.9781   10.3005    4.2920 H   0  0  0  0  0  0
    5.2252   11.8624    6.2344 H   0  0  0  0  0  0
    6.0760   12.6898    4.0234 H   0  0  0  0  0  0
    4.9992   13.8038    4.7931 H   0  0  0  0  0  0
    4.3071   11.9121    2.4825 H   0  0  0  0  0  0
    4.4118   13.6633    2.4333 H   0  0  0  0  0  0
    2.1627   12.8836    2.5771 H   0  0  0  0  0  0
    2.2303   10.9457    3.9210 H   0  0  0  0  0  0
    1.2394   12.1816    4.6710 H   0  0  0  0  0  0
    2.9962   12.8120    6.2314 H   0  0  0  0  0  0
    2.7989   11.1026    6.2965 H   0  0  0  0  0  0
    4.3213    6.9917    9.7726 H   0  0  0  0  0  0
    2.5728    5.9475   11.1421 H   0  0  0  0  0  0
    0.3065    5.6007   10.2035 H   0  0  0  0  0  0
   -0.2016    6.2728    7.8867 H   0  0  0  0  0  0
    1.5590    7.2958    6.4858 H   0  0  0  0  0  0
  1  2  2  0  0  0
  1  4  1  0  0  0
  2  3  1  0  0  0
  2 24  1  0  0  0
  3  6  2  0  0  0
  4  5  2  0  0  0
  4 10  1  0  0  0
  5  9  1  0  0  0
  5  6  1  0  0  0
  6  7  1  0  0  0
  7 11  1  0  0  0
  7  8  1  0  0  0
  8  9  2  0  0  0
  9 18  1  0  0  0
 10 25  1  0  0  0
 10 26  1  0  0  0
 11 12  1  0  0  0
 11 27  1  0  0  0
 11 28  1  0  0  0
 12 13  1  0  0  0
 12 17  1  0  0  0
 12 29  1  0  0  0
 13 14  1  0  0  0
 13 30  1  0  0  0
 13 31  1  0  0  0
 14 15  1  0  0  0
 14 32  1  0  0  0
 14 33  1  0  0  0
 15 16  1  0  0  0
 15 34  1  0  0  0
 16 17  1  0  0  0
 16 35  1  0  0  0
 16 36  1  0  0  0
 17 37  1  0  0  0
 17 38  1  0  0  0
 18 19  2  0  0  0
 18 23  1  0  0  0
 19 20  1  0  0  0
 19 39  1  0  0  0
 20 21  2  0  0  0
 20 40  1  0  0  0
 21 22  1  0  0  0
 21 41  1  0  0  0
 22 23  2  0  0  0
 22 42  1  0  0  0
 23 43  1  0  0  0
M  END
> <s_m_entry_id>
31972

> <s_m_entry_name>
dock_pv.235

> <s_m_Source_Path>
/home/csk/Desktop/cluster/DUD-E-result/src

> <s_m_Source_File>
dock_pv.maegz

> <i_m_Source_File_Index>
235

> <chembl_id>
CHEMBL2069939

> <chembl_pref_name>
None

> <i_lp_mmshare_version>
53161

> <r_lp_tautomer_probability>
1

> <s_lp_Force_Field>
OPLS_2005

> <r_lp_Energy>
18.535301

> <b_lp_Chiralities_Consistent>
1

> <s_lp_Variant>
CHEMBL267_lig2052-1

> <s_i_glide_gridfile>
glide-grid_3el8

> <i_i_glide_lignum>
2336

> <i_i_glide_rotatable_bonds>
3

> <r_i_docking_score>
-7.71084393670206

> <r_i_glide_ligand_efficiency>
-0.335254084204437

> <r_i_glide_ligand_efficiency_sa>
-0.953418018932897

> <r_i_glide_ligand_efficiency_ln>
-1.86455198196175

> <r_i_glide_gscore>
-7.71084393670206

> <r_i_glide_lipo>
-1.98336248496385

> <r_i_glide_hbond>
-0.417669986153479

> <r_i_glide_metal>
0

> <r_i_glide_rewards>
-3.26408592318424

> <r_i_glide_evdw>
-32.4211730957031

> <r_i_glide_ecoul>
-5.55469942092896

> <r_i_glide_erotb>
0.408538025524016

> <r_i_glide_esite>
0

> <r_i_glide_emodel>
-54.698978924201

> <r_i_glide_energy>
-37.9758725166321

> <r_i_glide_einternal>
1.52435755729675

> <i_i_glide_confnum>
50

> <i_i_glide_posenum>
202

> <r_i_glide_eff_state_penalty>
0

> <s_user_duplicate_titles>
CHEMBL267_lig2052

> <i_f3d_flags>
0

> <s_m_subgroup_title>
dock_pv

> <s_m_subgroupid>
dock_pv

> <b_m_subgroup_collapsed>
1

$$$$
CHEMBL267_lig3213
                    3D
 Schrodinger Suite 2021-1.
 40 43  0  0  1  0            999 V2000
    1.5145    9.4796    3.8437 S   0  0  0  0  0  0
    8.5377    6.6383    7.5881 O   0  0  0  0  0  0
    1.4749   10.7615    4.5585 O   0  0  0  0  0  0
    2.7682    9.0371    3.2257 O   0  0  0  0  0  0
    6.0579    8.8608    6.1157 N   0  0  0  0  0  0
    0.9647    8.2089    4.9791 N   0  0  1  0  0  0
    6.3496    6.9351    7.9818 N   0  0  0  0  0  0
    4.8787    8.3924    6.7364 C   0  0  0  0  0  0
    7.3107    8.3168    6.3788 C   0  0  0  0  0  0
    5.0617    7.4103    7.7200 C   0  0  0  0  0  0
    7.4982    7.2337    7.3315 C   0  0  0  0  0  0
    2.4769    8.1917    6.9732 C   0  0  0  0  0  0
    3.5937    8.7982    6.3935 C   0  0  0  0  0  0
    1.1923    6.7666    4.6465 C   0  0  0  0  0  0
    1.0845    8.5247    6.4399 C   0  0  0  0  0  0
    6.2151    9.8659    5.1871 C   0  0  0  0  0  0
    3.9510    6.8620    8.3689 C   0  0  0  0  0  0
    8.2196    8.9664    5.5534 C   0  0  0  0  0  0
    2.6602    7.2417    7.9890 C   0  0  0  0  0  0
    0.0226    6.0621    3.9892 C   0  0  0  0  0  0
    1.2780    6.3062    3.1996 C   0  0  0  0  0  0
    7.5455    9.9604    4.8411 C   0  0  0  0  0  0
    0.1961    9.5856    2.5089 C   0  0  0  0  0  0
    6.4563    6.1986    8.6654 H   0  0  0  0  0  0
    3.4699    9.5507    5.6345 H   0  0  0  0  0  0
    1.7181    6.1863    5.4061 H   0  0  0  0  0  0
    0.9050    9.5853    6.6038 H   0  0  0  0  0  0
    0.3131    7.9783    6.9880 H   0  0  0  0  0  0
    5.3674   10.4368    4.8499 H   0  0  0  0  0  0
    4.0804    6.0905    9.1165 H   0  0  0  0  0  0
    9.2777    8.7501    5.4986 H   0  0  0  0  0  0
    1.8096    6.7648    8.4476 H   0  0  0  0  0  0
   -0.8805    6.6402    3.7553 H   0  0  0  0  0  0
   -0.2118    5.0370    4.2838 H   0  0  0  0  0  0
    1.9009    5.4449    2.9581 H   0  0  0  0  0  0
    1.2969    7.0322    2.3928 H   0  0  0  0  0  0
    7.9854   10.6497    4.1351 H   0  0  0  0  0  0
    0.6841    9.8659    1.5728 H   0  0  0  0  0  0
   -0.3061    8.6269    2.3944 H   0  0  0  0  0  0
   -0.5258   10.3503    2.7704 H   0  0  0  0  0  0
  1  3  2  0  0  0
  1  4  2  0  0  0
  1  6  1  0  0  0
  1 23  1  0  0  0
  2 11  2  0  0  0
  5  8  1  0  0  0
  5  9  1  0  0  0
  5 16  1  0  0  0
  6 14  1  0  0  0
  6 15  1  0  0  0
  7 10  1  0  0  0
  7 11  1  0  0  0
  7 24  1  0  0  0
  8 10  1  0  0  0
  8 13  2  0  0  0
  9 11  1  0  0  0
  9 18  2  0  0  0
 10 17  2  0  0  0
 12 13  1  0  0  0
 12 15  1  0  0  0
 12 19  2  0  0  0
 13 25  1  0  0  0
 14 20  1  0  0  0
 14 21  1  0  0  0
 14 26  1  0  0  0
 15 27  1  0  0  0
 15 28  1  0  0  0
 16 22  2  0  0  0
 16 29  1  0  0  0
 17 19  1  0  0  0
 17 30  1  0  0  0
 18 22  1  0  0  0
 18 31  1  0  0  0
 19 32  1  0  0  0
 20 21  1  0  0  0
 20 33  1  0  0  0
 20 34  1  0  0  0
 21 35  1  0  0  0
 21 36  1  0  0  0
 22 37  1  0  0  0
 23 38  1  0  0  0
 23 39  1  0  0  0
 23 40  1  0  0  0
M  END
> <s_m_entry_id>
31974

> <s_m_entry_name>
dock_pv.237

> <s_m_Source_Path>
/home/csk/Desktop/cluster/DUD-E-result/src

> <s_m_Source_File>
dock_pv.maegz

> <i_m_Source_File_Index>
237

> <chembl_id>
CHEMBL1978448

> <chembl_pref_name>
None

> <i_lp_mmshare_version>
53161

> <r_lp_tautomer_probability>
1

> <s_lp_Force_Field>
OPLS_2005

> <r_lp_Energy>
23.272327

> <b_lp_Chiralities_Consistent>
1

> <s_lp_Variant>
CHEMBL267_lig3213-1

> <s_i_glide_gridfile>
glide-grid_3el8

> <i_i_glide_lignum>
3756

> <i_i_glide_rotatable_bonds>
4

> <r_i_docking_score>
-7.70953185203888

> <r_i_glide_ligand_efficiency>
-0.335197037045169

> <r_i_glide_ligand_efficiency_sa>
-0.953255784400527

> <r_i_glide_ligand_efficiency_ln>
-1.86423470799287

> <r_i_glide_gscore>
-7.70953185203888

> <r_i_glide_lipo>
-2.83408929882863

> <r_i_glide_hbond>
-0.32

> <r_i_glide_metal>
0

> <r_i_glide_rewards>
-2.29958008448946

> <r_i_glide_evdw>
-32.4394721984863

> <r_i_glide_ecoul>
-7.653489112854

> <r_i_glide_erotb>
0.514134508131631

> <r_i_glide_esite>
0

> <r_i_glide_emodel>
-52.7876056935989

> <r_i_glide_energy>
-40.0929613113403

> <r_i_glide_einternal>
9.56576347351074

> <i_i_glide_confnum>
20

> <i_i_glide_posenum>
190

> <r_i_glide_eff_state_penalty>
0

> <s_user_duplicate_titles>
CHEMBL267_lig3213

> <i_f3d_flags>
0

> <s_m_subgroup_title>
dock_pv

> <s_m_subgroupid>
dock_pv

> <b_m_subgroup_collapsed>
1

$$$$
CHEMBL267_lig852
                    3D
 Schrodinger Suite 2021-1.
 36 39  0  0  1  0            999 V2000
    2.2147    7.1851    8.3537 C   0  0  0  0  0  0
    0.1981    6.4255    8.0116 N   0  0  0  0  0  0
    3.5351    7.6337    8.4346 C   0  0  0  0  0  0
    1.1832    7.1407    7.3841 C   0  0  0  0  0  0
    0.4085    6.0880    9.2940 N   0  0  0  0  0  0
    1.6559    6.5789    9.5223 C   0  0  0  0  0  0
    4.1984    7.5799    9.6127 N   0  0  0  0  0  0
    4.1554    8.0927    7.2681 N   0  0  0  0  0  0
    2.3023    6.5055   10.6894 N   0  0  0  0  0  0
    1.0754    7.7654    6.0404 C   0  0  0  0  0  0
    3.5506    7.0371   10.6740 C   0  0  0  0  0  0
    5.4972    8.2715    6.9160 C   0  0  0  0  0  0
    5.7880    9.2255    5.9396 C   0  0  0  0  0  0
    0.6380    7.0614    4.9141 C   0  0  0  0  0  0
    1.4666    9.1021    5.9235 C   0  0  0  0  0  0
    7.0962    9.4060    5.4979 C   0  0  0  0  0  0
    0.9834    9.0364    3.5744 C   0  0  0  0  0  0
    1.4189    9.7387    4.6912 C   0  0  0  0  0  0
    0.5978    7.7001    3.6738 C   0  0  0  0  0  0
    7.4488   10.6441    4.3505 Cl  0  0  0  0  0  0
    0.9302    9.6814    2.3721 O   0  0  0  0  0  0
    7.8363    7.6519    6.9836 C   0  0  0  0  0  0
    6.5300    7.4924    7.4498 C   0  0  0  0  0  0
    8.1177    8.5994    5.9977 C   0  0  0  0  0  0
   -0.7073    6.2344    7.5842 H   0  0  0  0  0  0
    3.5072    8.2159    6.5047 H   0  0  0  0  0  0
    4.1092    6.9639   11.5974 H   0  0  0  0  0  0
    5.0006    9.8387    5.5261 H   0  0  0  0  0  0
    0.3414    6.0258    4.9940 H   0  0  0  0  0  0
    1.8021    9.6560    6.7890 H   0  0  0  0  0  0
    1.7132   10.7734    4.5998 H   0  0  0  0  0  0
    0.2626    7.1668    2.7942 H   0  0  0  0  0  0
    0.6835    9.0827    1.6537 H   0  0  0  0  0  0
    8.6324    7.0412    7.3809 H   0  0  0  0  0  0
    6.3190    6.7417    8.1968 H   0  0  0  0  0  0
    9.1321    8.7222    5.6449 H   0  0  0  0  0  0
  1  3  1  0  0  0
  1  4  2  0  0  0
  1  6  1  0  0  0
  2  4  1  0  0  0
  2  5  1  0  0  0
  2 25  1  0  0  0
  3  7  2  0  0  0
  3  8  1  0  0  0
  4 10  1  0  0  0
  5  6  2  0  0  0
  6  9  1  0  0  0
  7 11  1  0  0  0
  8 12  1  0  0  0
  8 26  1  0  0  0
  9 11  2  0  0  0
 10 14  2  0  0  0
 10 15  1  0  0  0
 11 27  1  0  0  0
 12 13  2  0  0  0
 12 23  1  0  0  0
 13 16  1  0  0  0
 13 28  1  0  0  0
 14 19  1  0  0  0
 14 29  1  0  0  0
 15 18  2  0  0  0
 15 30  1  0  0  0
 16 20  1  0  0  0
 16 24  2  0  0  0
 17 18  1  0  0  0
 17 21  1  0  0  0
 17 19  2  0  0  0
 18 31  1  0  0  0
 19 32  1  0  0  0
 21 33  1  0  0  0
 22 23  2  0  0  0
 22 24  1  0  0  0
 22 34  1  0  0  0
 23 35  1  0  0  0
 24 36  1  0  0  0
M  END
> <s_m_entry_id>
31975

> <s_m_entry_name>
dock_pv.238

> <s_m_Source_Path>
/home/csk/Desktop/cluster/DUD-E-result/src

> <s_m_Source_File>
dock_pv.maegz

> <i_m_Source_File_Index>
238

> <chembl_id>
CHEMBL118130

> <chembl_pref_name>
None

> <i_lp_mmshare_version>
53161

> <r_lp_tautomer_probability>
0.999999999997365

> <s_lp_Force_Field>
OPLS_2005

> <r_lp_Energy>
26.920011

> <b_lp_Chiralities_Consistent>
1

> <s_lp_Variant>
CHEMBL267_lig852-1

> <s_i_glide_gridfile>
glide-grid_3el8

> <i_i_glide_lignum>
980

> <i_i_glide_rotatable_bonds>
4

> <r_i_docking_score>
-7.70909768965792

> <r_i_glide_ligand_efficiency>
-0.321212403735747

> <r_i_glide_ligand_efficiency_sa>
-0.926536901549053

> <r_i_glide_ligand_efficiency_ln>
-1.84514082457763

> <r_i_glide_gscore>
-7.70909768965792

> <r_i_glide_lipo>
-2.7436825790522

> <r_i_glide_hbond>
-0.608

> <r_i_glide_metal>
0

> <r_i_glide_rewards>
-1.40573522310601

> <r_i_glide_evdw>
-37.386157989502

> <r_i_glide_ecoul>
-10.2911205291748

> <r_i_glide_erotb>
0.497091932547187

> <r_i_glide_esite>
-0.0357958411955714

> <r_i_glide_emodel>
-65.0770848994708

> <r_i_glide_energy>
-47.6772785186768

> <r_i_glide_einternal>
3.18100571632385

> <i_i_glide_confnum>
17

> <i_i_glide_posenum>
166

> <r_i_glide_eff_state_penalty>
0

> <s_user_duplicate_titles>
CHEMBL267_lig852

> <i_f3d_flags>
0

> <s_m_subgroup_title>
dock_pv

> <s_m_subgroupid>
dock_pv

> <b_m_subgroup_collapsed>
1

$$$$
CHEMBL267_lig3625
                    3D
 Schrodinger Suite 2021-1.
 28 31  0  0  1  0            999 V2000
    7.1682    6.2323    7.7310 N   0  0  0  0  0  0
    0.4487    4.5073    8.7860 N   0  0  0  0  0  0
    8.1841    7.8369    6.2156 N   0  0  0  0  0  0
   -0.4278    4.5989    9.8000 N   0  0  0  0  0  0
    3.6293    6.4073    9.1017 C   0  0  0  0  0  0
    4.8566    6.7649    8.3531 C   0  0  0  0  0  0
    1.4922    5.2816    9.2121 C   0  0  0  0  0  0
    6.0545    8.2376    6.8586 C   0  0  0  0  0  0
    1.2681    5.8363   10.5079 C   0  0  0  0  0  0
    7.1565    7.3500    6.9984 C   0  0  0  0  0  0
    2.6823    5.5565    8.5226 C   0  0  0  0  0  0
    4.8821    7.9222    7.5651 C   0  0  0  0  0  0
    3.3995    6.9374   10.3755 C   0  0  0  0  0  0
    6.0024    5.9593    8.3878 C   0  0  0  0  0  0
    2.2475    6.6367   11.1040 C   0  0  0  0  0  0
    6.4731    9.2794    5.9666 C   0  0  0  0  0  0
   -0.0177    5.3601   10.8659 C   0  0  0  0  0  0
    7.7715    8.9893    5.5880 C   0  0  0  0  0  0
   -1.3285    4.1425    9.7523 H   0  0  0  0  0  0
    9.0976    7.4264    6.0589 H   0  0  0  0  0  0
    2.8540    5.1310    7.5471 H   0  0  0  0  0  0
    4.0105    8.5559    7.4988 H   0  0  0  0  0  0
    4.1449    7.5788   10.8229 H   0  0  0  0  0  0
    6.0075    5.0530    8.9775 H   0  0  0  0  0  0
    2.1060    7.0338   12.0974 H   0  0  0  0  0  0
    5.8991   10.1310    5.6301 H   0  0  0  0  0  0
   -0.6626    5.4904   11.7217 H   0  0  0  0  0  0
    8.4485    9.5094    4.9228 H   0  0  0  0  0  0
  1 10  2  0  0  0
  1 14  1  0  0  0
  2  4  1  0  0  0
  2  7  2  0  0  0
  3 10  1  0  0  0
  3 18  1  0  0  0
  3 20  1  0  0  0
  4 19  1  0  0  0
  4 17  1  0  0  0
  5 11  2  0  0  0
  5  6  1  0  0  0
  5 13  1  0  0  0
  6 12  1  0  0  0
  6 14  2  0  0  0
  7 11  1  0  0  0
  7  9  1  0  0  0
  8 10  1  0  0  0
  8 12  2  0  0  0
  8 16  1  0  0  0
  9 15  1  0  0  0
  9 17  2  0  0  0
 11 21  1  0  0  0
 12 22  1  0  0  0
 13 23  1  0  0  0
 13 15  2  0  0  0
 14 24  1  0  0  0
 15 25  1  0  0  0
 16 18  2  0  0  0
 16 26  1  0  0  0
 17 27  1  0  0  0
 18 28  1  0  0  0
M  END
> <s_m_entry_id>
31976

> <s_m_entry_name>
dock_pv.239

> <s_m_Source_Path>
/home/csk/Desktop/cluster/DUD-E-result/src

> <s_m_Source_File>
dock_pv.maegz

> <i_m_Source_File_Index>
239

> <chembl_id>
CHEMBL1976134

> <chembl_pref_name>
None

> <i_lp_mmshare_version>
53161

> <r_lp_tautomer_probability>
0.0196078130051597

> <s_lp_Force_Field>
OPLS_2005

> <r_lp_Energy>
26.236096

> <b_lp_Chiralities_Consistent>
1

> <s_lp_Variant>
CHEMBL267_lig3625-2

> <s_i_glide_gridfile>
glide-grid_3el8

> <i_i_glide_lignum>
4386

> <i_i_glide_rotatable_bonds>
1

> <r_i_docking_score>
-7.7086257809186

> <r_i_glide_ligand_efficiency>
-0.428256987828811

> <r_i_glide_ligand_efficiency_sa>
-1.12235081428084

> <r_i_glide_ligand_efficiency_ln>
-1.9814625081196

> <r_i_glide_gscore>
-7.7086257809186

> <r_i_glide_lipo>
-2.58823784602846

> <r_i_glide_hbond>
-0.32

> <r_i_glide_metal>
0

> <r_i_glide_rewards>
-3.06086485174844

> <r_i_glide_evdw>
-31.5232696533203

> <r_i_glide_ecoul>
-3.17501878738403

> <r_i_glide_erotb>
0.312893217631924

> <r_i_glide_esite>
0

> <r_i_glide_emodel>
-49.7051285115302

> <r_i_glide_energy>
-34.6982884407043

> <r_i_glide_einternal>
3.5860960483551

> <i_i_glide_confnum>
4

> <i_i_glide_posenum>
192

> <r_i_glide_eff_state_penalty>
0

> <s_user_duplicate_titles>
CHEMBL267_lig3625

> <i_f3d_flags>
0

> <s_m_subgroup_title>
dock_pv

> <s_m_subgroupid>
dock_pv

> <b_m_subgroup_collapsed>
1

$$$$
CHEMBL267_lig3379
                    3D
 Schrodinger Suite 2021-1.
 37 40  0  0  1  0            999 V2000
    7.3767    8.1185    6.4984 N   0  0  0  0  0  0
    7.8960    6.2370    7.5880 O   0  0  0  0  0  0
    0.5980    2.1891    8.7660 C   0  0  0  0  0  0
    1.6938    5.0370    8.8320 C   0  0  0  0  0  0
   -0.0362    1.0039    8.3880 C   0  0  0  0  0  0
    4.9451    6.2992    8.6105 C   0  0  0  0  0  0
    6.5258    9.3030    6.2387 C   0  0  0  0  0  0
    5.0462    8.8898    5.9949 C   0  0  0  0  0  0
    5.6598    7.1131    7.7144 C   0  0  0  0  0  0
    7.0566    7.0914    7.3266 C   0  0  0  0  0  0
    2.1026    6.6370   10.5823 C   0  0  0  0  0  0
    0.9980    6.1143   11.2568 C   0  0  0  0  0  0
    4.6994    7.8724    7.0603 C   0  0  0  0  0  0
    2.4407    6.1056    9.3364 C   0  0  0  0  0  0
    3.5963    6.6435    8.5784 C   0  0  0  0  0  0
    0.6157    4.5384    9.5791 C   0  0  0  0  0  0
   -0.1242    3.3154    9.1583 C   0  0  0  0  0  0
   -1.5217    3.2104    9.1777 C   0  0  0  0  0  0
   -2.1681    2.0391    8.7880 C   0  0  0  0  0  0
   -1.4249    0.9320    8.3880 C   0  0  0  0  0  0
   -2.2706    4.2370    9.5880 F   0  0  0  0  0  0
    3.4755    7.6290    7.6293 N   0  0  0  0  0  0
    0.2525    5.0901   10.7697 N   0  0  0  0  0  0
    8.2715    8.0492    6.0351 H   0  0  0  0  0  0
    1.6752    2.2370    8.7880 H   0  0  0  0  0  0
    1.9644    4.5841    7.8896 H   0  0  0  0  0  0
    0.5501    0.1423    8.1021 H   0  0  0  0  0  0
    5.3773    5.5296    9.2343 H   0  0  0  0  0  0
    6.9167    9.8488    5.3790 H   0  0  0  0  0  0
    6.5980    9.9759    7.0957 H   0  0  0  0  0  0
    4.9470    8.4495    5.0023 H   0  0  0  0  0  0
    4.3906    9.7609    6.0118 H   0  0  0  0  0  0
    2.6825    7.4370   11.0162 H   0  0  0  0  0  0
    0.6992    6.5055   12.2187 H   0  0  0  0  0  0
   -3.2477    1.9899    8.7920 H   0  0  0  0  0  0
   -1.9280    0.0256    8.0848 H   0  0  0  0  0  0
    2.6099    8.0751    7.3632 H   0  0  0  0  0  0
  1 10  1  0  0  0
  1  7  1  0  0  0
  1 24  1  0  0  0
  2 10  2  0  0  0
  3  5  2  0  0  0
  3 17  1  0  0  0
  3 25  1  0  0  0
  4 16  2  0  0  0
  4 14  1  0  0  0
  4 26  1  0  0  0
  5 20  1  0  0  0
  5 27  1  0  0  0
  6 15  2  0  0  0
  6  9  1  0  0  0
  6 28  1  0  0  0
  7  8  1  0  0  0
  7 29  1  0  0  0
  7 30  1  0  0  0
  8 13  1  0  0  0
  8 31  1  0  0  0
  8 32  1  0  0  0
  9 10  1  0  0  0
  9 13  2  0  0  0
 11 12  1  0  0  0
 11 14  2  0  0  0
 11 33  1  0  0  0
 12 23  2  0  0  0
 12 34  1  0  0  0
 13 22  1  0  0  0
 14 15  1  0  0  0
 15 22  1  0  0  0
 16 23  1  0  0  0
 16 17  1  0  0  0
 17 18  2  0  0  0
 18 19  1  0  0  0
 18 21  1  0  0  0
 19 20  2  0  0  0
 19 35  1  0  0  0
 20 36  1  0  0  0
 22 37  1  0  0  0
M  END
> <s_m_entry_id>
31977

> <s_m_entry_name>
dock_pv.240

> <s_m_Source_Path>
/home/csk/Desktop/cluster/DUD-E-result/src

> <s_m_Source_File>
dock_pv.maegz

> <i_m_Source_File_Index>
240

> <chembl_id>
CHEMBL226471

> <chembl_pref_name>
None

> <i_lp_mmshare_version>
53161

> <r_lp_tautomer_probability>
1

> <s_lp_Force_Field>
OPLS_2005

> <r_lp_Energy>
23.695039

> <b_lp_Chiralities_Consistent>
1

> <s_lp_Variant>
CHEMBL267_lig3379-1

> <s_i_glide_gridfile>
glide-grid_3el8

> <i_i_glide_lignum>
4019

> <i_i_glide_rotatable_bonds>
2

> <r_i_docking_score>
-7.70750080197386

> <r_i_glide_ligand_efficiency>
-0.335108730520603

> <r_i_glide_ligand_efficiency_sa>
-0.953004652391472

> <r_i_glide_ligand_efficiency_ln>
-1.86374358167061

> <r_i_glide_gscore>
-7.70750080197386

> <r_i_glide_lipo>
-3.37118045930144

> <r_i_glide_hbond>
-0.32

> <r_i_glide_metal>
0

> <r_i_glide_rewards>
-2.25495118413117

> <r_i_glide_evdw>
-34.121955871582

> <r_i_glide_ecoul>
-2.97807693481445

> <r_i_glide_erotb>
0.39144017526002

> <r_i_glide_esite>
0

> <r_i_glide_emodel>
-50.2772671248223

> <r_i_glide_energy>
-37.1000328063965

> <r_i_glide_einternal>
4.63715028762817

> <i_i_glide_confnum>
3

> <i_i_glide_posenum>
149

> <r_i_glide_eff_state_penalty>
0

> <s_user_duplicate_titles>
CHEMBL267_lig3379

> <i_f3d_flags>
0

> <s_m_subgroup_title>
dock_pv

> <s_m_subgroupid>
dock_pv

> <b_m_subgroup_collapsed>
1

$$$$
CHEMBL267_lig1871
                    3D
 Schrodinger Suite 2021-1.
 33 35  0  0  1  0            999 V2000
    1.7306    6.1722    9.7710 N   0  0  0  0  0  0
    0.5095    6.2371    9.1871 C   0  0  0  0  0  0
    0.1980    6.7941    7.9878 N   0  0  0  0  0  0
    2.7645    6.7214    9.0894 C   0  0  0  0  0  0
    2.5758    7.3158    7.8254 C   0  0  0  0  0  0
    1.2524    7.2903    7.3344 C   0  0  0  0  0  0
    1.2992    7.8339    6.0614 N   0  0  0  0  0  0
    2.5491    8.2535    5.7770 N   0  0  0  0  0  0
    3.3260    7.9641    6.7891 C   0  0  0  0  0  0
    4.0102    6.6372    9.6908 N   0  0  0  0  0  0
    0.2347    7.9003    5.0463 C   0  0  0  0  0  0
   -0.1134    6.4785    4.5618 C   0  0  0  0  0  0
    0.5978    8.8169    3.8496 C   0  0  0  0  0  0
    4.7327    8.2371    6.7076 C   0  0  0  0  0  0
    5.8373    7.5682    7.1888 C   0  0  0  0  0  0
    6.9649    8.2381    6.7243 C   0  0  0  0  0  0
    6.4970    9.3267    6.0072 C   0  0  0  0  0  0
    5.1398    9.3194    5.9881 O   0  0  0  0  0  0
    8.3273    7.8370    6.9464 C   0  0  0  0  0  0
    8.5980    6.8244    7.5878 O   0  0  0  0  0  0
   -0.3113    5.8000    9.7391 H   0  0  0  0  0  0
    4.8088    7.0560    9.2435 H   0  0  0  0  0  0
    4.0983    6.1062   10.5517 H   0  0  0  0  0  0
   -0.6312    8.3157    5.5593 H   0  0  0  0  0  0
   -0.9389    6.4981    3.8488 H   0  0  0  0  0  0
    0.7360    6.0023    4.0699 H   0  0  0  0  0  0
   -0.4206    5.8371    5.3871 H   0  0  0  0  0  0
   -0.2020    8.8555    3.1126 H   0  0  0  0  0  0
    0.7952    9.8388    4.1745 H   0  0  0  0  0  0
    1.4821    8.4579    3.3204 H   0  0  0  0  0  0
    5.8381    6.6491    7.7563 H   0  0  0  0  0  0
    6.9761   10.1272    5.4625 H   0  0  0  0  0  0
    9.0885    8.4795    6.5033 H   0  0  0  0  0  0
  1  4  1  0  0  0
  1  2  2  0  0  0
  2  3  1  0  0  0
  2 21  1  0  0  0
  3  6  2  0  0  0
  4 10  1  0  0  0
  4  5  2  0  0  0
  5  6  1  0  0  0
  5  9  1  0  0  0
  6  7  1  0  0  0
  7 11  1  0  0  0
  7  8  1  0  0  0
  8  9  2  0  0  0
  9 14  1  0  0  0
 10 22  1  0  0  0
 10 23  1  0  0  0
 11 12  1  0  0  0
 11 13  1  0  0  0
 11 24  1  0  0  0
 12 25  1  0  0  0
 12 26  1  0  0  0
 12 27  1  0  0  0
 13 28  1  0  0  0
 13 29  1  0  0  0
 13 30  1  0  0  0
 14 15  2  0  0  0
 14 18  1  0  0  0
 15 16  1  0  0  0
 15 31  1  0  0  0
 16 17  2  0  0  0
 16 19  1  0  0  0
 17 18  1  0  0  0
 17 32  1  0  0  0
 19 20  2  0  0  0
 19 33  1  0  0  0
M  END
> <s_m_entry_id>
31978

> <s_m_entry_name>
dock_pv.241

> <s_m_Source_Path>
/home/csk/Desktop/cluster/DUD-E-result/src

> <s_m_Source_File>
dock_pv.maegz

> <i_m_Source_File_Index>
241

> <chembl_id>
CHEMBL1241439

> <chembl_pref_name>
None

> <i_lp_mmshare_version>
53161

> <r_lp_tautomer_probability>
1

> <s_lp_Force_Field>
OPLS_2005

> <r_lp_Energy>
2.824952

> <b_lp_Chiralities_Consistent>
1

> <s_lp_Variant>
CHEMBL267_lig1871-1

> <s_i_glide_gridfile>
glide-grid_3el8

> <i_i_glide_lignum>
2139

> <i_i_glide_rotatable_bonds>
3

> <r_i_docking_score>
-7.70551065126443

> <r_i_glide_ligand_efficiency>
-0.385275532563221

> <r_i_glide_ligand_efficiency_sa>
-1.04579869178828

> <r_i_glide_ligand_efficiency_ln>
-1.92843517126106

> <r_i_glide_gscore>
-7.70551065126443

> <r_i_glide_lipo>
-1.94842551993224

> <r_i_glide_hbond>
-0.578031315055897

> <r_i_glide_metal>
0

> <r_i_glide_rewards>
-2.90694083169523

> <r_i_glide_evdw>
-31.5222816467285

> <r_i_glide_ecoul>
-6.23810195922852

> <r_i_glide_erotb>
0.243254934210815

> <r_i_glide_esite>
-0.00353854257116394

> <r_i_glide_emodel>
-53.5251930179261

> <r_i_glide_energy>
-37.760383605957

> <r_i_glide_einternal>
1.19192457199097

> <i_i_glide_confnum>
1

> <i_i_glide_posenum>
9

> <r_i_glide_eff_state_penalty>
0

> <s_user_duplicate_titles>
CHEMBL267_lig1871

> <i_f3d_flags>
0

> <s_m_subgroup_title>
dock_pv

> <s_m_subgroupid>
dock_pv

> <b_m_subgroup_collapsed>
1

$$$$
CHEMBL267_lig1512
                    3D
 Schrodinger Suite 2021-1.
 50 53  0  0  1  0            999 V2000
    7.4774    6.5499    7.5881 N   0  0  0  0  0  0
    7.8327    7.5079    6.6998 C   0  0  0  0  0  0
    7.0293    8.4221    6.1029 N   0  0  0  0  0  0
    6.1756    6.5125    7.9762 C   0  0  0  0  0  0
    5.2353    7.4361    7.4643 C   0  0  0  0  0  0
    5.7471    8.3455    6.4903 C   0  0  0  0  0  0
    4.6863    9.0848    5.9876 N   0  0  0  0  0  0
    3.5489    8.6806    6.6580 C   0  0  0  0  0  0
    3.8258    7.7016    7.5950 C   0  0  0  0  0  0
    2.8437    7.0583    8.5069 C   0  0  0  0  0  0
    3.1222    6.9355    9.8710 C   0  0  0  0  0  0
    2.1979    6.3296   10.7180 C   0  0  0  0  0  0
    1.0014    5.8408   10.1991 C   0  0  0  0  0  0
    0.7205    5.9571    8.8387 C   0  0  0  0  0  0
    1.6394    6.5714    7.9928 C   0  0  0  0  0  0
    4.7678   10.1477    4.9718 C   0  0  2  0  0  0
    5.7982    5.4454    8.7842 N   0  0  0  0  0  0
    4.9151   11.5439    5.5866 C   0  0  0  0  0  0
    4.1967   12.4254    4.6817 N   0  0  1  0  0  0
    3.0261   11.6915    4.2205 C   0  0  1  0  0  0
    3.5695   10.2680    4.0147 C   0  0  0  0  0  0
    1.8249   11.7458    5.2014 C   0  0  0  0  0  0
    1.2823   13.1314    5.5788 C   0  0  0  0  0  0
    0.1966   13.0282    6.3723 O   0  0  0  0  0  0
    1.7977   14.1811    5.1881 O   0  0  0  0  0  0
   -0.4939   14.1726    6.8680 C   0  0  0  0  0  0
   -0.2022   14.3534    8.3623 C   0  0  0  0  0  0
    8.8731    7.5278    6.4059 H   0  0  0  0  0  0
    2.6022    9.1458    6.4343 H   0  0  0  0  0  0
    4.0486    7.3116   10.2766 H   0  0  0  0  0  0
    2.4151    6.2403   11.7728 H   0  0  0  0  0  0
    0.2839    5.3653   10.8521 H   0  0  0  0  0  0
   -0.2049    5.5694    8.4395 H   0  0  0  0  0  0
    1.4243    6.6524    6.9370 H   0  0  0  0  0  0
    5.6559    9.8945    4.3917 H   0  0  0  0  0  0
    4.8351    5.3666    9.0827 H   0  0  0  0  0  0
    6.5029    4.7862    9.0870 H   0  0  0  0  0  0
    4.4309   11.6020    6.5625 H   0  0  0  0  0  0
    5.9562   11.8372    5.7114 H   0  0  0  0  0  0
    3.9228   13.3104    5.0896 H   0  0  0  0  0  0
    2.7512   12.1264    3.2562 H   0  0  0  0  0  0
    2.8078    9.5081    4.1864 H   0  0  0  0  0  0
    3.8637   10.1277    2.9717 H   0  0  0  0  0  0
    2.0992   11.2570    6.1331 H   0  0  0  0  0  0
    0.9994   11.1735    4.7786 H   0  0  0  0  0  0
   -1.5610   14.0020    6.7296 H   0  0  0  0  0  0
   -0.2549   15.0827    6.3163 H   0  0  0  0  0  0
   -0.8323   15.1321    8.7883 H   0  0  0  0  0  0
    0.8355   14.6370    8.5246 H   0  0  0  0  0  0
   -0.3914   13.4331    8.9163 H   0  0  0  0  0  0
  1  2  2  0  0  0
  1  4  1  0  0  0
  2  3  1  0  0  0
  2 28  1  0  0  0
  3  6  2  0  0  0
  4  5  2  0  0  0
  4 17  1  0  0  0
  5  9  1  0  0  0
  5  6  1  0  0  0
  6  7  1  0  0  0
  7 16  1  0  0  0
  7  8  1  0  0  0
  8  9  2  0  0  0
  8 29  1  0  0  0
  9 10  1  0  0  0
 10 15  1  0  0  0
 10 11  2  0  0  0
 11 12  1  0  0  0
 11 30  1  0  0  0
 12 13  2  0  0  0
 12 31  1  0  0  0
 13 14  1  0  0  0
 13 32  1  0  0  0
 14 15  2  0  0  0
 14 33  1  0  0  0
 15 34  1  0  0  0
 16 18  1  0  0  0
 16 21  1  0  0  0
 16 35  1  0  0  0
 17 36  1  0  0  0
 17 37  1  0  0  0
 18 19  1  0  0  0
 18 38  1  0  0  0
 18 39  1  0  0  0
 19 20  1  0  0  0
 19 40  1  0  0  0
 20 21  1  0  0  0
 20 22  1  0  0  0
 20 41  1  0  0  0
 21 42  1  0  0  0
 21 43  1  0  0  0
 22 23  1  0  0  0
 22 44  1  0  0  0
 22 45  1  0  0  0
 23 24  1  0  0  0
 23 25  2  0  0  0
 24 26  1  0  0  0
 26 27  1  0  0  0
 26 46  1  0  0  0
 26 47  1  0  0  0
 27 48  1  0  0  0
 27 49  1  0  0  0
 27 50  1  0  0  0
M  END
> <s_m_entry_id>
31979

> <s_m_entry_name>
dock_pv.242

> <s_m_Source_Path>
/home/csk/Desktop/cluster/DUD-E-result/src

> <s_m_Source_File>
dock_pv.maegz

> <i_m_Source_File_Index>
242

> <chembl_id>
CHEMBL475264

> <chembl_pref_name>
None

> <i_lp_mmshare_version>
53161

> <r_lp_tautomer_probability>
1

> <s_lp_Force_Field>
OPLS_2005

> <r_lp_Energy>
34.419538

> <b_lp_Chiralities_Consistent>
1

> <s_lp_Variant>
CHEMBL267_lig1512-1

> <s_i_glide_gridfile>
glide-grid_3el8

> <i_i_glide_lignum>
1693

> <i_i_glide_rotatable_bonds>
6

> <r_i_docking_score>
-7.70317695111073

> <r_i_glide_ligand_efficiency>
-0.285302850041138

> <r_i_glide_ligand_efficiency_sa>
-0.855908549183103

> <r_i_glide_ligand_efficiency_ln>
-1.7931725974212

> <r_i_glide_gscore>
-7.70317695111073

> <r_i_glide_lipo>
-2.2419720013042

> <r_i_glide_hbond>
-0.386758743901757

> <r_i_glide_metal>
0

> <r_i_glide_rewards>
-2.93689818919194

> <r_i_glide_evdw>
-44.19287109375

> <r_i_glide_ecoul>
-4.32099151611328

> <r_i_glide_erotb>
0.720244265391658

> <r_i_glide_esite>
0

> <r_i_glide_emodel>
-67.9196420128871

> <r_i_glide_energy>
-48.5138626098633

> <r_i_glide_einternal>
2.87272644042969

> <i_i_glide_confnum>
41

> <i_i_glide_posenum>
327

> <r_i_glide_eff_state_penalty>
0

> <s_user_duplicate_titles>
CHEMBL267_lig1512,459444

> <i_f3d_flags>
0

> <s_m_subgroup_title>
dock_pv

> <s_m_subgroupid>
dock_pv

> <b_m_subgroup_collapsed>
1

$$$$
CHEMBL267_lig474
                    3D
 Schrodinger Suite 2021-1.
 46 48  0  0  1  0            999 V2000
    2.9973    7.5674    8.1143 C   0  0  0  0  0  0
    1.6898    8.0923    7.9815 N   0  0  0  0  0  0
    4.0539    8.2367    7.5776 N   0  0  0  0  0  0
    1.1910    9.0375    7.1530 C   0  0  0  0  0  0
    3.1419    6.3228    8.7533 C   0  0  0  0  0  0
    5.2767    7.6605    7.5623 C   0  0  0  0  0  0
    4.4077    5.7298    8.7636 C   0  0  0  0  0  0
    5.4948    6.3795    8.1354 C   0  0  0  0  0  0
    6.3421    8.3199    6.9028 C   0  0  0  0  0  0
    7.7983    6.4475    7.3448 N   0  0  0  0  0  0
    7.5654    7.6642    6.8061 C   0  0  0  0  0  0
    2.0589    9.6347    6.3100 N   0  0  0  0  0  0
    6.7841    5.8292    7.9880 C   0  0  0  0  0  0
   -0.0075    9.3013    7.1881 O   0  0  0  0  0  0
    1.9903    5.6013    9.3519 C   0  0  0  0  0  0
    1.8299   10.5385    5.1790 C   0  0  0  0  0  0
    8.5979    8.2371    6.0806 N   0  0  0  0  0  0
    1.1171    9.7911    4.0324 C   0  0  0  0  0  0
    3.2144   10.9915    4.6732 C   0  0  0  0  0  0
    1.0413   11.8007    5.6016 C   0  0  0  0  0  0
    1.3272    6.1301   10.4637 C   0  0  0  0  0  0
    1.5313    4.4155    8.7731 C   0  0  0  0  0  0
    0.3973    3.7830    9.2718 C   0  0  0  0  0  0
    0.1980    5.4955   10.9718 C   0  0  0  0  0  0
   -0.2686    4.3348   10.3620 C   0  0  0  0  0  0
    1.0015    7.5971    8.5266 H   0  0  0  0  0  0
    4.5517    4.7475    9.1879 H   0  0  0  0  0  0
    6.1815    9.2863    6.4469 H   0  0  0  0  0  0
    3.0262    9.3794    6.4482 H   0  0  0  0  0  0
    6.9948    4.8481    8.3878 H   0  0  0  0  0  0
    8.4333    9.1043    5.5944 H   0  0  0  0  0  0
    9.3719    7.6348    5.8112 H   0  0  0  0  0  0
    0.1968    9.3206    4.3721 H   0  0  0  0  0  0
    0.8628   10.4589    3.2085 H   0  0  0  0  0  0
    1.7388    8.9921    3.6246 H   0  0  0  0  0  0
    3.7746   11.5209    5.4467 H   0  0  0  0  0  0
    3.8260   10.1448    4.3534 H   0  0  0  0  0  0
    3.1263   11.6651    3.8189 H   0  0  0  0  0  0
    1.5624   12.3556    6.3824 H   0  0  0  0  0  0
    0.8949   12.4798    4.7618 H   0  0  0  0  0  0
    0.0540   11.5568    5.9888 H   0  0  0  0  0  0
    1.6829    7.0366   10.9314 H   0  0  0  0  0  0
    2.0398    3.9983    7.9165 H   0  0  0  0  0  0
    0.0304    2.8750    8.8152 H   0  0  0  0  0  0
   -0.3289    5.9092   11.8212 H   0  0  0  0  0  0
   -1.1569    3.8543   10.7444 H   0  0  0  0  0  0
  1  2  1  0  0  0
  1  3  2  0  0  0
  1  5  1  0  0  0
  2  4  1  0  0  0
  2 26  1  0  0  0
  3  6  1  0  0  0
  4 12  1  0  0  0
  4 14  2  0  0  0
  5  7  2  0  0  0
  5 15  1  0  0  0
  6  9  2  0  0  0
  6  8  1  0  0  0
  7  8  1  0  0  0
  7 27  1  0  0  0
  8 13  2  0  0  0
  9 11  1  0  0  0
  9 28  1  0  0  0
 10 13  1  0  0  0
 10 11  2  0  0  0
 11 17  1  0  0  0
 12 16  1  0  0  0
 12 29  1  0  0  0
 13 30  1  0  0  0
 15 21  1  0  0  0
 15 22  2  0  0  0
 16 18  1  0  0  0
 16 19  1  0  0  0
 16 20  1  0  0  0
 17 31  1  0  0  0
 17 32  1  0  0  0
 18 33  1  0  0  0
 18 34  1  0  0  0
 18 35  1  0  0  0
 19 36  1  0  0  0
 19 37  1  0  0  0
 19 38  1  0  0  0
 20 39  1  0  0  0
 20 40  1  0  0  0
 20 41  1  0  0  0
 21 24  2  0  0  0
 21 42  1  0  0  0
 22 23  1  0  0  0
 22 43  1  0  0  0
 23 25  2  0  0  0
 23 44  1  0  0  0
 24 25  1  0  0  0
 24 45  1  0  0  0
 25 46  1  0  0  0
M  END
> <s_m_entry_id>
31980

> <s_m_entry_name>
dock_pv.243

> <s_m_Source_Path>
/home/csk/Desktop/cluster/DUD-E-result/src

> <s_m_Source_File>
dock_pv.maegz

> <i_m_Source_File_Index>
243

> <chembl_id>
CHEMBL133436

> <chembl_pref_name>
None

> <i_lp_mmshare_version>
53161

> <r_lp_tautomer_probability>
1

> <s_lp_Force_Field>
OPLS_2005

> <r_lp_Energy>
13.832304

> <b_lp_Chiralities_Consistent>
1

> <s_lp_Variant>
CHEMBL267_lig474-1

> <s_i_glide_gridfile>
glide-grid_3el8

> <i_i_glide_lignum>
566

> <i_i_glide_rotatable_bonds>
5

> <r_i_docking_score>
-7.70170407394373

> <r_i_glide_ligand_efficiency>
-0.308068162957749

> <r_i_glide_ligand_efficiency_sa>
-0.900796772100592

> <r_i_glide_ligand_efficiency_ln>
-1.82553466697123

> <r_i_glide_gscore>
-7.70170407394373

> <r_i_glide_lipo>
-3.27484099847031

> <r_i_glide_hbond>
-0.723191525291708

> <r_i_glide_metal>
0

> <r_i_glide_rewards>
-1.4380435322106

> <r_i_glide_evdw>
-36.6400337219238

> <r_i_glide_ecoul>
-6.02250242233276

> <r_i_glide_erotb>
0.469749031474991

> <r_i_glide_esite>
0

> <r_i_glide_emodel>
-58.5262694918003

> <r_i_glide_energy>
-42.6625361442566

> <r_i_glide_einternal>
2.19117879867554

> <i_i_glide_confnum>
14

> <i_i_glide_posenum>
388

> <r_i_glide_eff_state_penalty>
0

> <s_user_duplicate_titles>
CHEMBL267_lig474

> <i_f3d_flags>
0

> <s_m_subgroup_title>
dock_pv

> <s_m_subgroupid>
dock_pv

> <b_m_subgroup_collapsed>
1

$$$$
CHEMBL267_lig3901
                    3D
 Schrodinger Suite 2021-1.
 51 54  0  0  1  0            999 V2000
    4.1001    7.7375    7.7476 N   0  0  0  0  0  0
    4.4667    8.3134    6.5757 C   0  0  0  0  0  0
    3.6455    8.6370    5.5551 N   0  0  0  0  0  0
    2.8324    7.3037    7.8840 C   0  0  0  0  0  0
    1.8945    7.5622    6.8675 C   0  0  0  0  0  0
    2.3838    8.2443    5.7328 C   0  0  0  0  0  0
    1.3145    8.3704    4.8639 N   0  0  0  0  0  0
    0.1980    7.8339    5.4016 N   0  0  0  0  0  0
    0.5202    7.3460    6.5739 C   0  0  0  0  0  0
    2.5822    6.6058    9.0708 N   0  0  0  0  0  0
    1.5302    5.7540    9.4369 C   0  0  0  0  0  0
    0.9902    4.8505    8.5203 C   0  0  0  0  0  0
   -0.1157    4.0736    8.8574 C   0  0  0  0  0  0
   -0.7222    4.2370   10.0963 C   0  0  0  0  0  0
   -0.1535    5.0813   11.0421 C   0  0  0  0  0  0
    0.9981    5.7985   10.7316 C   0  0  0  0  0  0
   -0.6020    3.1404    7.9880 O   0  0  0  0  0  0
    1.2591    8.9548    3.5210 C   0  0  0  0  0  0
    1.3129   10.5031    3.5427 C   0  0  1  0  0  0
    2.6873   11.0876    3.8708 C   0  0  0  0  0  0
    2.9119   11.7022    5.1079 C   0  0  0  0  0  0
    4.1780   12.1889    5.4243 C   0  0  0  0  0  0
    5.2118   12.0857    4.4970 C   0  0  0  0  0  0
    4.9938   11.4902    3.2570 C   0  0  0  0  0  0
    3.7332   10.9867    2.9466 C   0  0  0  0  0  0
    0.6958   11.1301    1.9874 Cl  0  0  0  0  0  0
    5.8149    8.5636    6.3005 N   0  0  0  0  0  0
    6.9600    7.7964    6.8070 C   0  0  0  0  0  0
    6.7094    6.6958    7.8569 C   0  0  0  0  0  0
    7.7980    5.8370    7.9880 O   0  0  0  0  0  0
    1.7980    6.6370   12.0011 Cl  0  0  0  0  0  0
   -0.2024    6.8368    7.1882 H   0  0  0  0  0  0
    3.3292    6.6738    9.7462 H   0  0  0  0  0  0
    1.4508    4.7407    7.5563 H   0  0  0  0  0  0
   -1.6014    3.6662   10.3581 H   0  0  0  0  0  0
   -0.5909    5.1538   12.0267 H   0  0  0  0  0  0
   -1.3394    2.6499    8.3632 H   0  0  0  0  0  0
    0.3335    8.6230    3.0438 H   0  0  0  0  0  0
    2.0723    8.5359    2.9272 H   0  0  0  0  0  0
    0.5980   10.8622    4.2814 H   0  0  0  0  0  0
    2.1177   11.7771    5.8361 H   0  0  0  0  0  0
    4.3613   12.6370    6.3880 H   0  0  0  0  0  0
    6.1907   12.4723    4.7408 H   0  0  0  0  0  0
    5.7978   11.4191    2.5391 H   0  0  0  0  0  0
    3.5681   10.5193    1.9876 H   0  0  0  0  0  0
    5.9838    9.1505    5.4977 H   0  0  0  0  0  0
    7.4723    7.3555    5.9503 H   0  0  0  0  0  0
    7.6943    8.4962    7.2073 H   0  0  0  0  0  0
    6.3569    7.1270    8.7880 H   0  0  0  0  0  0
    5.8749    6.0528    7.5877 H   0  0  0  0  0  0
    7.5433    5.1238    8.5865 H   0  0  0  0  0  0
  1  2  2  0  0  0
  1  4  1  0  0  0
  2  3  1  0  0  0
  2 27  1  0  0  0
  3  6  2  0  0  0
  4  5  2  0  0  0
  4 10  1  0  0  0
  5  6  1  0  0  0
  5  9  1  0  0  0
  6  7  1  0  0  0
  7  8  1  0  0  0
  7 18  1  0  0  0
  8  9  2  0  0  0
  9 32  1  0  0  0
 10 11  1  0  0  0
 10 33  1  0  0  0
 11 12  2  0  0  0
 11 16  1  0  0  0
 12 13  1  0  0  0
 12 34  1  0  0  0
 13 14  2  0  0  0
 13 17  1  0  0  0
 14 15  1  0  0  0
 14 35  1  0  0  0
 15 16  2  0  0  0
 15 36  1  0  0  0
 16 31  1  0  0  0
 17 37  1  0  0  0
 18 19  1  0  0  0
 18 38  1  0  0  0
 18 39  1  0  0  0
 19 20  1  0  0  0
 19 26  1  0  0  0
 19 40  1  0  0  0
 20 21  2  0  0  0
 20 25  1  0  0  0
 21 22  1  0  0  0
 21 41  1  0  0  0
 22 23  2  0  0  0
 22 42  1  0  0  0
 23 24  1  0  0  0
 23 43  1  0  0  0
 24 25  2  0  0  0
 24 44  1  0  0  0
 25 45  1  0  0  0
 27 28  1  0  0  0
 27 46  1  0  0  0
 28 29  1  0  0  0
 28 47  1  0  0  0
 28 48  1  0  0  0
 29 30  1  0  0  0
 29 49  1  0  0  0
 29 50  1  0  0  0
 30 51  1  0  0  0
M  END
> <s_m_entry_id>
31981

> <s_m_entry_name>
dock_pv.244

> <s_m_Source_Path>
/home/csk/Desktop/cluster/DUD-E-result/src

> <s_m_Source_File>
dock_pv.maegz

> <i_m_Source_File_Index>
244

> <chembl_id>
CHEMBL4283564

> <chembl_pref_name>
None

> <i_lp_mmshare_version>
53161

> <r_lp_tautomer_probability>
0.99999558864179

> <s_lp_Force_Field>
OPLS_2005

> <r_lp_Energy>
18.258791

> <b_lp_Chiralities_Consistent>
1

> <s_lp_Variant>
CHEMBL267_lig3901-2

> <s_i_glide_gridfile>
glide-grid_3el8

> <i_i_glide_lignum>
4826

> <i_i_glide_rotatable_bonds>
10

> <r_i_docking_score>
-7.6988763992753

> <r_i_glide_ligand_efficiency>
-0.248350851589526

> <r_i_glide_ligand_efficiency_sa>
-0.780164559295237

> <r_i_glide_ligand_efficiency_ln>
-1.73633257026263

> <r_i_glide_gscore>
-7.6988763992753

> <r_i_glide_lipo>
-2.71683750534814

> <r_i_glide_hbond>
-0.735470156076098

> <r_i_glide_metal>
0

> <r_i_glide_rewards>
-1.78540980477388

> <r_i_glide_evdw>
-42.0804405212402

> <r_i_glide_ecoul>
-7.46690273284912

> <r_i_glide_erotb>
0.762898502912207

> <r_i_glide_esite>
0

> <r_i_glide_emodel>
-60.2253172222842

> <r_i_glide_energy>
-49.5473432540894

> <r_i_glide_einternal>
22.2033500671387

> <i_i_glide_confnum>
28

> <i_i_glide_posenum>
18

> <r_i_glide_eff_state_penalty>
0

> <s_user_duplicate_titles>
CHEMBL267_lig3901

> <i_f3d_flags>
0

> <s_m_subgroup_title>
dock_pv

> <s_m_subgroupid>
dock_pv

> <b_m_subgroup_collapsed>
1

$$$$
CHEMBL267_lig331
                    3D
 Schrodinger Suite 2021-1.
 34 36  0  0  1  0            999 V2000
    1.9954    6.6478    8.6540 C   0  0  0  0  0  0
    1.7042    7.8184    7.8258 C   0  0  0  0  0  0
    3.2775    6.2397    8.8287 C   0  0  0  0  0  0
    0.9333    5.8380    9.2176 C   0  0  0  0  0  0
    2.7872    8.4251    7.2149 O   0  0  0  0  0  0
    4.4017    6.9074    8.1656 C   0  0  0  0  0  0
    4.0943    7.9900    7.3370 C   0  0  0  0  0  0
    0.8377    4.6322    8.6247 N   0  0  0  0  0  0
    0.5859    8.3510    7.5883 N   0  0  0  0  0  0
    0.1988    6.2403   10.1153 O   0  0  0  0  0  0
    5.7178    6.4569    8.2575 C   0  0  0  0  0  0
    5.0910    8.6331    6.6026 C   0  0  0  0  0  0
   -0.1327    3.6320    8.7879 C   0  0  0  0  0  0
    6.7198    7.0998    7.5244 C   0  0  0  0  0  0
   -1.9786    1.5501    8.7845 C   0  0  0  0  0  0
    6.4105    8.1865    6.7030 C   0  0  0  0  0  0
   -1.4471    3.8563    9.2074 C   0  0  0  0  0  0
    0.2493    2.3606    8.3880 C   0  0  0  0  0  0
   -0.6650    1.3086    8.3896 C   0  0  0  0  0  0
   -2.3767    2.8226    9.1878 C   0  0  0  0  0  0
    8.0027    6.6372    7.5901 O   0  0  0  0  0  0
   -2.8934    0.5357    8.7910 O   0  0  0  0  0  0
    3.4911    5.3663    9.4349 H   0  0  0  0  0  0
    1.5836    4.3964    7.9895 H   0  0  0  0  0  0
    0.7201    9.1345    6.9655 H   0  0  0  0  0  0
    5.9539    5.6008    8.8736 H   0  0  0  0  0  0
    4.8417    9.4653    5.9610 H   0  0  0  0  0  0
    7.1905    8.6711    6.1342 H   0  0  0  0  0  0
   -1.7773    4.8420    9.4909 H   0  0  0  0  0  0
    1.2612    2.2377    8.0439 H   0  0  0  0  0  0
   -0.3630    0.3207    8.0743 H   0  0  0  0  0  0
   -3.3977    3.0087    9.4872 H   0  0  0  0  0  0
    8.0663    5.9702    8.2750 H   0  0  0  0  0  0
   -3.5709    0.7462    8.1273 H   0  0  0  0  0  0
  1  2  1  0  0  0
  1  3  2  0  0  0
  1  4  1  0  0  0
  2  5  1  0  0  0
  2  9  2  0  0  0
  3  6  1  0  0  0
  3 23  1  0  0  0
  4  8  1  0  0  0
  4 10  2  0  0  0
  5  7  1  0  0  0
  6  7  1  0  0  0
  6 11  2  0  0  0
  7 12  2  0  0  0
  8 13  1  0  0  0
  8 24  1  0  0  0
  9 25  1  0  0  0
 11 14  1  0  0  0
 11 26  1  0  0  0
 12 16  1  0  0  0
 12 27  1  0  0  0
 13 17  2  0  0  0
 13 18  1  0  0  0
 14 16  2  0  0  0
 14 21  1  0  0  0
 15 19  1  0  0  0
 15 22  1  0  0  0
 15 20  2  0  0  0
 16 28  1  0  0  0
 17 20  1  0  0  0
 17 29  1  0  0  0
 18 19  2  0  0  0
 18 30  1  0  0  0
 19 31  1  0  0  0
 20 32  1  0  0  0
 21 33  1  0  0  0
 22 34  1  0  0  0
M  END
> <s_m_entry_id>
31982

> <s_m_entry_name>
dock_pv.245

> <s_m_Source_Path>
/home/csk/Desktop/cluster/DUD-E-result/src

> <s_m_Source_File>
dock_pv.maegz

> <i_m_Source_File_Index>
245

> <chembl_id>
CHEMBL81561

> <chembl_pref_name>
None

> <i_lp_mmshare_version>
53161

> <r_lp_tautomer_probability>
0.999999999997365

> <s_lp_Force_Field>
OPLS_2005

> <r_lp_Energy>
36.754557

> <b_lp_Chiralities_Consistent>
1

> <s_lp_Variant>
CHEMBL267_lig331-1

> <s_i_glide_gridfile>
glide-grid_3el8

> <i_i_glide_lignum>
397

> <i_i_glide_rotatable_bonds>
5

> <r_i_docking_score>
-7.6980574894299

> <r_i_glide_ligand_efficiency>
-0.349911704064996

> <r_i_glide_ligand_efficiency_sa>
-0.980466356036545

> <r_i_glide_ligand_efficiency_ln>
-1.8816860438861

> <r_i_glide_gscore>
-7.6980574894299

> <r_i_glide_lipo>
-3.10400835861603

> <r_i_glide_hbond>
-0.546010209343811

> <r_i_glide_metal>
0

> <r_i_glide_rewards>
-2.22488883929467

> <r_i_glide_evdw>
-32.8596420288086

> <r_i_glide_ecoul>
-5.37459707260132

> <r_i_glide_erotb>
0.626021580155232

> <r_i_glide_esite>
0

> <r_i_glide_emodel>
-52.6738438718499

> <r_i_glide_energy>
-38.2342391014099

> <r_i_glide_einternal>
6.57474756240845

> <i_i_glide_confnum>
6

> <i_i_glide_posenum>
185

> <r_i_glide_eff_state_penalty>
0

> <s_user_duplicate_titles>
CHEMBL267_lig331

> <i_f3d_flags>
0

> <s_m_subgroup_title>
dock_pv

> <s_m_subgroupid>
dock_pv

> <b_m_subgroup_collapsed>
1

$$$$
CHEMBL267_lig47
                    3D
 Schrodinger Suite 2021-1.
 48 52  0  0  1  0            999 V2000
    0.1981    4.2822   10.3878 N   0  0  1  0  0  0
    0.0382    4.4954    8.9483 C   0  0  0  0  0  0
    1.2267    5.2657    8.3311 C   0  0  0  0  0  0
    1.4875    6.5603    9.1164 C   0  0  0  0  0  0
    1.6825    6.2714   10.6142 C   0  0  0  0  0  0
    0.4553    5.5050   11.1571 C   0  0  0  0  0  0
    2.5206    7.4176    8.5248 N   0  0  0  0  0  0
    3.8557    7.0901    8.2470 C   0  0  0  0  0  0
    4.4786    8.0076    7.4654 N   0  0  0  0  0  0
    5.8295    5.6926    8.3907 C   0  0  0  0  0  0
    4.4929    5.9374    8.7182 C   0  0  0  0  0  0
    6.5154    6.6450    7.6219 C   0  0  0  0  0  0
    5.7742    7.7567    7.1859 N   0  0  0  0  0  0
    6.6394    8.4922    6.3962 C   0  0  0  0  0  0
    7.8465    7.7900    6.4692 C   0  0  0  0  0  0
    7.7979    6.6905    7.1887 N   0  0  0  0  0  0
    6.3213    9.7070    5.6482 C   0  0  0  0  0  0
    7.1646   10.4196    4.7889 C   0  0  0  0  0  0
    6.5884   11.4660    4.2465 N   0  0  0  0  0  0
    5.3331   11.4883    4.7332 N   0  0  0  0  0  0
    5.1392   10.4260    5.5877 C   0  0  0  0  0  0
    4.4078   12.5042    4.3566 C   0  0  0  0  0  0
    3.0666   12.4273    4.7648 C   0  0  0  0  0  0
    2.1577   13.4125    4.3865 C   0  0  0  0  0  0
    2.5798   14.4793    3.5980 C   0  0  0  0  0  0
    3.9060   14.5725    3.1866 C   0  0  0  0  0  0
    4.8174   13.5906    3.5646 C   0  0  0  0  0  0
   -0.6079    3.7912   10.7550 H   0  0  0  0  0  0
   -0.8952    5.0365    8.7883 H   0  0  0  0  0  0
   -0.0673    3.5220    8.4675 H   0  0  0  0  0  0
    0.9878    5.5066    7.2947 H   0  0  0  0  0  0
    2.0961    4.6120    8.2798 H   0  0  0  0  0  0
    0.5795    7.1567    9.0164 H   0  0  0  0  0  0
    2.5873    5.7098   10.8351 H   0  0  0  0  0  0
    1.7973    7.2067   11.1616 H   0  0  0  0  0  0
   -0.4347    6.1366   11.1230 H   0  0  0  0  0  0
    0.6121    5.2350   12.2020 H   0  0  0  0  0  0
    2.1971    8.2485    8.0554 H   0  0  0  0  0  0
    6.3311    4.8053    8.7493 H   0  0  0  0  0  0
    3.9714    5.2159    9.3240 H   0  0  0  0  0  0
    8.7643    8.0739    5.9731 H   0  0  0  0  0  0
    8.1914   10.1714    4.5656 H   0  0  0  0  0  0
    4.1949   10.2641    6.0806 H   0  0  0  0  0  0
    2.7018   11.6091    5.3660 H   0  0  0  0  0  0
    1.1257   13.3453    4.6977 H   0  0  0  0  0  0
    1.8732   15.2397    3.2999 H   0  0  0  0  0  0
    4.2289   15.4024    2.5750 H   0  0  0  0  0  0
    5.8421   13.6897    3.2351 H   0  0  0  0  0  0
  1  2  1  0  0  0
  1  6  1  0  0  0
  1 28  1  0  0  0
  2  3  1  0  0  0
  2 29  1  0  0  0
  2 30  1  0  0  0
  3  4  1  0  0  0
  3 31  1  0  0  0
  3 32  1  0  0  0
  4  5  1  0  0  0
  4  7  1  0  0  0
  4 33  1  0  0  0
  5  6  1  0  0  0
  5 34  1  0  0  0
  5 35  1  0  0  0
  6 36  1  0  0  0
  6 37  1  0  0  0
  7  8  1  0  0  0
  7 38  1  0  0  0
  8  9  2  0  0  0
  8 11  1  0  0  0
  9 13  1  0  0  0
 10 12  1  0  0  0
 10 11  2  0  0  0
 10 39  1  0  0  0
 11 40  1  0  0  0
 12 13  1  0  0  0
 12 16  2  0  0  0
 13 14  1  0  0  0
 14 15  2  0  0  0
 14 17  1  0  0  0
 15 16  1  0  0  0
 15 41  1  0  0  0
 17 18  1  0  0  0
 17 21  2  0  0  0
 18 19  2  0  0  0
 18 42  1  0  0  0
 19 20  1  0  0  0
 20 21  1  0  0  0
 20 22  1  0  0  0
 21 43  1  0  0  0
 22 23  2  0  0  0
 22 27  1  0  0  0
 23 24  1  0  0  0
 23 44  1  0  0  0
 24 25  2  0  0  0
 24 45  1  0  0  0
 25 26  1  0  0  0
 25 46  1  0  0  0
 26 27  2  0  0  0
 26 47  1  0  0  0
 27 48  1  0  0  0
M  END
> <s_m_entry_id>
31983

> <s_m_entry_name>
dock_pv.246

> <s_m_Source_Path>
/home/csk/Desktop/cluster/DUD-E-result/src

> <s_m_Source_File>
dock_pv.maegz

> <i_m_Source_File_Index>
246

> <chembl_id>
CHEMBL2436454

> <chembl_pref_name>
None

> <i_lp_mmshare_version>
53161

> <r_lp_tautomer_probability>
0.99999999999948

> <s_lp_Force_Field>
OPLS_2005

> <r_lp_Energy>
24.913193

> <b_lp_Chiralities_Consistent>
1

> <s_lp_Variant>
CHEMBL267_lig47-1

> <s_i_glide_gridfile>
glide-grid_3el8

> <i_i_glide_lignum>
62

> <i_i_glide_rotatable_bonds>
4

> <r_i_docking_score>
-7.69712086077183

> <r_i_glide_ligand_efficiency>
-0.285078550398957

> <r_i_glide_ligand_efficiency_sa>
-0.855235650257298

> <r_i_glide_ligand_efficiency_ln>
-1.79176283943276

> <r_i_glide_gscore>
-7.69712086077183

> <r_i_glide_lipo>
-2.9415968602885

> <r_i_glide_hbond>
-0.196978840336717

> <r_i_glide_metal>
0

> <r_i_glide_rewards>
-2.49629418298019

> <r_i_glide_evdw>
-41.6454467773438

> <r_i_glide_ecoul>
-3.82297921180725

> <r_i_glide_erotb>
0.593468243471853

> <r_i_glide_esite>
0

> <r_i_glide_emodel>
-61.8756856783822

> <r_i_glide_energy>
-45.468425989151

> <r_i_glide_einternal>
9.21983242034912

> <i_i_glide_confnum>
8

> <i_i_glide_posenum>
334

> <r_i_glide_eff_state_penalty>
0

> <s_user_duplicate_titles>
CHEMBL267_lig47

> <i_f3d_flags>
0

> <s_m_subgroup_title>
dock_pv

> <s_m_subgroupid>
dock_pv

> <b_m_subgroup_collapsed>
1

$$$$
CHEMBL267_lig416
                    3D
 Schrodinger Suite 2021-1.
 38 41  0  0  1  0            999 V2000
    5.7981    8.3309    6.4845 C   0  0  0  0  0  0
    5.2695    7.4370    7.4647 C   0  0  0  0  0  0
    4.7481    9.0925    5.9879 N   0  0  0  0  0  0
    3.8642    7.7269    7.5977 C   0  0  0  0  0  0
    3.6026    8.7040    6.6520 C   0  0  0  0  0  0
    7.0792    8.3757    6.0927 N   0  0  0  0  0  0
    6.1930    6.4969    7.9777 C   0  0  0  0  0  0
    7.4920    6.5035    7.5881 N   0  0  0  0  0  0
    7.8634    7.4470    6.6907 C   0  0  0  0  0  0
    4.7988   10.1146    4.9299 C   0  0  1  0  0  0
    2.8685    7.0987    8.5059 C   0  0  0  0  0  0
    6.0216   10.5717    2.9242 N   0  0  2  0  0  0
    5.7980    5.4370    8.7880 N   0  0  0  0  0  0
    5.7956   11.2502    5.1886 C   0  0  0  0  0  0
    5.1978    9.5516    3.5580 C   0  0  0  0  0  0
    6.7854   11.1347    4.0271 C   0  0  0  0  0  0
    3.1397    6.9512    9.8686 C   0  0  0  0  0  0
    1.6570    6.6368    7.9824 C   0  0  0  0  0  0
    0.7240    6.0274    8.8169 C   0  0  0  0  0  0
    2.2002    6.3527   10.7056 C   0  0  0  0  0  0
    0.9982    5.8901   10.1759 C   0  0  0  0  0  0
    2.6630    9.1772    6.4078 H   0  0  0  0  0  0
    8.9021    7.4385    6.3905 H   0  0  0  0  0  0
    3.7872   10.5222    4.8891 H   0  0  0  0  0  0
    5.4263   11.2936    2.5381 H   0  0  0  0  0  0
    4.8366    5.3738    9.0946 H   0  0  0  0  0  0
    6.4948    4.7650    9.0887 H   0  0  0  0  0  0
    5.3077   12.2263    5.1749 H   0  0  0  0  0  0
    6.3012   11.1744    6.1527 H   0  0  0  0  0  0
    5.8079    8.6520    3.6633 H   0  0  0  0  0  0
    4.3333    9.2790    2.9505 H   0  0  0  0  0  0
    7.1784   12.1105    3.7354 H   0  0  0  0  0  0
    7.6341   10.4990    4.2872 H   0  0  0  0  0  0
    4.0750    7.3012   10.2830 H   0  0  0  0  0  0
    1.4463    6.7345    6.9279 H   0  0  0  0  0  0
   -0.2034    5.6566    8.4112 H   0  0  0  0  0  0
    2.4101    6.2395   11.7599 H   0  0  0  0  0  0
    0.2718    5.4169   10.8210 H   0  0  0  0  0  0
  1  2  2  0  0  0
  1  3  1  0  0  0
  1  6  1  0  0  0
  2  4  1  0  0  0
  2  7  1  0  0  0
  3  5  1  0  0  0
  3 10  1  0  0  0
  4 11  1  0  0  0
  4  5  2  0  0  0
  5 22  1  0  0  0
  6  9  2  0  0  0
  7 13  1  0  0  0
  7  8  2  0  0  0
  8  9  1  0  0  0
  9 23  1  0  0  0
 10 14  1  0  0  0
 10 15  1  0  0  0
 10 24  1  0  0  0
 11 17  2  0  0  0
 11 18  1  0  0  0
 12 15  1  0  0  0
 12 16  1  0  0  0
 12 25  1  0  0  0
 13 26  1  0  0  0
 13 27  1  0  0  0
 14 16  1  0  0  0
 14 28  1  0  0  0
 14 29  1  0  0  0
 15 30  1  0  0  0
 15 31  1  0  0  0
 16 32  1  0  0  0
 16 33  1  0  0  0
 17 20  1  0  0  0
 17 34  1  0  0  0
 18 19  2  0  0  0
 18 35  1  0  0  0
 19 21  1  0  0  0
 19 36  1  0  0  0
 20 21  2  0  0  0
 20 37  1  0  0  0
 21 38  1  0  0  0
M  END
> <s_m_entry_id>
31984

> <s_m_entry_name>
dock_pv.247

> <s_m_Source_Path>
/home/csk/Desktop/cluster/DUD-E-result/src

> <s_m_Source_File>
dock_pv.maegz

> <i_m_Source_File_Index>
247

> <chembl_id>
CHEMBL168829

> <chembl_pref_name>
None

> <i_lp_mmshare_version>
53161

> <r_lp_tautomer_probability>
1

> <s_lp_Force_Field>
OPLS_2005

> <r_lp_Energy>
34.906207

> <b_lp_Chiralities_Consistent>
1

> <s_lp_Variant>
CHEMBL267_lig416-2

> <s_i_glide_gridfile>
glide-grid_3el8

> <i_i_glide_lignum>
493

> <i_i_glide_rotatable_bonds>
2

> <r_i_docking_score>
-7.68167450127656

> <r_i_glide_ligand_efficiency>
-0.365794023870313

> <r_i_glide_ligand_efficiency_sa>
-1.00919797500736

> <r_i_glide_ligand_efficiency_ln>
-1.89927849815575

> <r_i_glide_gscore>
-7.68167450127656

> <r_i_glide_lipo>
-2.42482231997007

> <r_i_glide_hbond>
-0.41670993893278

> <r_i_glide_metal>
0

> <r_i_glide_rewards>
-2.61260073629338

> <r_i_glide_evdw>
-34.5477294921875

> <r_i_glide_ecoul>
-6.41715669631958

> <r_i_glide_erotb>
0.462418472976978

> <r_i_glide_esite>
0

> <r_i_glide_emodel>
-58.7344465155129

> <r_i_glide_energy>
-40.9648861885071

> <r_i_glide_einternal>
0.418634057044983

> <i_i_glide_confnum>
33

> <i_i_glide_posenum>
190

> <r_i_glide_eff_state_penalty>
0

> <s_user_duplicate_titles>
CHEMBL267_lig416,282213

> <i_f3d_flags>
0

> <s_m_subgroup_title>
dock_pv

> <s_m_subgroupid>
dock_pv

> <b_m_subgroup_collapsed>
1

$$$$
CHEMBL267_lig3071
                    3D
 Schrodinger Suite 2021-1.
 40 43  0  0  1  0            999 V2000
    0.1634    5.8372   10.7380 C   0  0  0  0  0  0
    1.2054    6.1464   11.6026 C   0  0  0  0  0  0
    2.4100    6.6365   11.1137 C   0  0  0  0  0  0
    0.2649    6.0841    9.3713 C   0  0  0  0  0  0
    1.4787    6.6084    8.8379 C   0  0  0  0  0  0
    2.5731    6.8536    9.7287 C   0  0  0  0  0  0
    3.7790    7.3032    9.2904 N   0  0  0  0  0  0
    3.8985    7.5533    7.9708 C   0  0  0  0  0  0
    2.9171    7.4246    7.0534 N   0  0  0  0  0  0
    1.7185    6.9394    7.4708 C   0  0  0  0  0  0
    5.1811    7.9273    7.5636 N   0  0  0  0  0  0
    5.6484    8.6475    6.4516 C   0  0  0  0  0  0
    7.0236    8.6548    6.2147 C   0  0  0  0  0  0
    7.5541    9.4318    5.1883 C   0  0  0  0  0  0
    6.7074   10.2008    4.3936 C   0  0  0  0  0  0
    5.3328   10.1857    4.6066 C   0  0  0  0  0  0
    4.8055    9.4145    5.6372 C   0  0  0  0  0  0
    0.7191    6.7740    6.4896 N   0  0  0  0  0  0
    0.7107    7.3900    5.2609 C   0  0  0  0  0  0
    1.1329    8.6885    4.9419 C   0  0  0  0  0  0
    0.9969    8.8374    3.5794 C   0  0  0  0  0  0
    0.4447    7.6487    3.1899 N   0  0  0  0  0  0
    0.2460    6.7815    4.1940 N   0  0  0  0  0  0
    1.3106    9.9586    2.6205 C   0  0  0  0  0  0
   -0.7587    5.4402   11.1385 H   0  0  0  0  0  0
    1.0842    5.9757   12.6627 H   0  0  0  0  0  0
    3.2338    6.8327   11.7865 H   0  0  0  0  0  0
   -0.5997    5.8887    8.7445 H   0  0  0  0  0  0
    5.8521    7.8202    8.3069 H   0  0  0  0  0  0
    7.6891    8.0716    6.8340 H   0  0  0  0  0  0
    8.6206    9.4417    5.0158 H   0  0  0  0  0  0
    7.1214   10.8123    3.6036 H   0  0  0  0  0  0
    4.6792   10.7811    3.9857 H   0  0  0  0  0  0
    3.7449    9.4491    5.8149 H   0  0  0  0  0  0
   -0.0957    6.2613    6.7969 H   0  0  0  0  0  0
    1.5217    9.4189    5.6318 H   0  0  0  0  0  0
    0.1974    7.4370    2.2260 H   0  0  0  0  0  0
    1.8416   10.7755    3.1100 H   0  0  0  0  0  0
    0.4038   10.3759    2.1813 H   0  0  0  0  0  0
    1.9361    9.6173    1.7947 H   0  0  0  0  0  0
  1  2  2  0  0  0
  1  4  1  0  0  0
  1 25  1  0  0  0
  2  3  1  0  0  0
  2 26  1  0  0  0
  3  6  2  0  0  0
  3 27  1  0  0  0
  4  5  2  0  0  0
  4 28  1  0  0  0
  5  6  1  0  0  0
  5 10  1  0  0  0
  6  7  1  0  0  0
  7  8  2  0  0  0
  8  9  1  0  0  0
  8 11  1  0  0  0
  9 10  2  0  0  0
 10 18  1  0  0  0
 11 12  1  0  0  0
 11 29  1  0  0  0
 12 13  2  0  0  0
 12 17  1  0  0  0
 13 14  1  0  0  0
 13 30  1  0  0  0
 14 15  2  0  0  0
 14 31  1  0  0  0
 15 16  1  0  0  0
 15 32  1  0  0  0
 16 17  2  0  0  0
 16 33  1  0  0  0
 17 34  1  0  0  0
 18 19  1  0  0  0
 18 35  1  0  0  0
 19 20  1  0  0  0
 19 23  2  0  0  0
 20 21  2  0  0  0
 20 36  1  0  0  0
 21 22  1  0  0  0
 21 24  1  0  0  0
 22 23  1  0  0  0
 22 37  1  0  0  0
 24 38  1  0  0  0
 24 39  1  0  0  0
 24 40  1  0  0  0
M  END
> <s_m_entry_id>
31985

> <s_m_entry_name>
dock_pv.248

> <s_m_Source_Path>
/home/csk/Desktop/cluster/DUD-E-result/src

> <s_m_Source_File>
dock_pv.maegz

> <i_m_Source_File_Index>
248

> <chembl_id>
CHEMBL552038

> <chembl_pref_name>
None

> <i_lp_mmshare_version>
53161

> <r_lp_tautomer_probability>
0.842599999161192

> <s_lp_Force_Field>
OPLS_2005

> <r_lp_Energy>
11.363389

> <b_lp_Chiralities_Consistent>
1

> <s_lp_Variant>
CHEMBL267_lig3071-1

> <s_i_glide_gridfile>
glide-grid_3el8

> <i_i_glide_lignum>
3530

> <i_i_glide_rotatable_bonds>
4

> <r_i_docking_score>
-7.68083568826946

> <r_i_glide_ligand_efficiency>
-0.320034820344561

> <r_i_glide_ligand_efficiency_sa>
-0.923140163272773

> <r_i_glide_ligand_efficiency_ln>
-1.83837643078663

> <r_i_glide_gscore>
-7.68083568826946

> <r_i_glide_lipo>
-2.60663665955149

> <r_i_glide_hbond>
-0.497238449374037

> <r_i_glide_metal>
0

> <r_i_glide_rewards>
-2.40132235610582

> <r_i_glide_evdw>
-38.298641204834

> <r_i_glide_ecoul>
-6.2603645324707

> <r_i_glide_erotb>
0.744005070778477

> <r_i_glide_esite>
-0.0656565539042879

> <r_i_glide_emodel>
-61.5955039175607

> <r_i_glide_energy>
-44.5590057373047

> <r_i_glide_einternal>
4.23747110366821

> <i_i_glide_confnum>
3

> <i_i_glide_posenum>
144

> <r_i_glide_eff_state_penalty>
0

> <s_user_duplicate_titles>
CHEMBL267_lig3071,561509

> <i_f3d_flags>
0

> <s_m_subgroup_title>
dock_pv

> <s_m_subgroupid>
dock_pv

> <b_m_subgroup_collapsed>
1

$$$$
CHEMBL267_lig1883
                    3D
 Schrodinger Suite 2021-1.
 44 47  0  0  1  0            999 V2000
    0.9153    8.8493    5.4240 N   0  0  0  0  0  0
    0.1670    8.5026    6.4962 C   0  0  0  0  0  0
    0.5980    8.0348    7.6908 N   0  0  0  0  0  0
    2.2550    8.7135    5.5437 C   0  0  0  0  0  0
    2.8391    8.2311    6.7369 C   0  0  0  0  0  0
    1.9208    7.8757    7.7551 C   0  0  0  0  0  0
    2.6656    7.3182    8.7771 N   0  0  0  0  0  0
    3.9806    7.3947    8.4933 N   0  0  0  0  0  0
    4.1297    7.9634    7.3154 C   0  0  0  0  0  0
    5.4972    8.2622    6.7882 C   0  0  0  0  0  0
    6.5948    7.4949    7.1961 C   0  0  0  0  0  0
    7.8703    7.7668    6.7122 C   0  0  0  0  0  0
    8.0639    8.7917    5.7797 C   0  0  0  0  0  0
    6.9819    9.5721    5.3813 C   0  0  0  0  0  0
    5.7139    9.3204    5.8981 C   0  0  0  0  0  0
    2.9831    9.0370    4.4077 N   0  0  0  0  0  0
    9.6388    9.1970    5.1880 Cl  0  0  0  0  0  0
    8.9220    7.0370    7.1880 O   0  0  0  0  0  0
    2.2529    6.7300   10.0588 C   0  0  0  0  0  0
    1.3247    5.4897    9.9492 C   0  0  1  0  0  0
   -0.2020    5.7040    9.8199 C   0  0  0  0  0  0
   -0.9591    4.3576    9.7963 C   0  0  0  0  0  0
   -0.3429    3.3521    8.8048 C   0  0  0  0  0  0
    1.0759    3.1613    9.0965 N   0  0  1  0  0  0
    1.7980    4.4232    8.9316 C   0  0  0  0  0  0
   -0.9035    8.5821    6.3880 H   0  0  0  0  0  0
    6.4637    6.6884    7.9035 H   0  0  0  0  0  0
    7.1319   10.3988    4.7018 H   0  0  0  0  0  0
    4.9139    9.9923    5.6344 H   0  0  0  0  0  0
    3.9759    8.8635    4.3856 H   0  0  0  0  0  0
    2.4744    9.3282    3.5859 H   0  0  0  0  0  0
    9.6814    7.1332    6.5978 H   0  0  0  0  0  0
    1.7980    7.5023   10.6680 H   0  0  0  0  0  0
    3.1518    6.4383   10.6089 H   0  0  0  0  0  0
    1.3926    5.0370   10.9334 H   0  0  0  0  0  0
   -0.4574    6.2370    8.9127 H   0  0  0  0  0  0
   -0.5700    6.3233   10.6385 H   0  0  0  0  0  0
   -1.9961    4.5332    9.5105 H   0  0  0  0  0  0
   -1.0143    3.9125   10.7880 H   0  0  0  0  0  0
   -0.4627    3.7048    7.7799 H   0  0  0  0  0  0
   -0.8502    2.3889    8.8759 H   0  0  0  0  0  0
    1.1481    2.8694   10.0612 H   0  0  0  0  0  0
    2.8595    4.2370    9.0945 H   0  0  0  0  0  0
    1.7285    4.7948    7.9077 H   0  0  0  0  0  0
  1  2  2  0  0  0
  1  4  1  0  0  0
  2  3  1  0  0  0
  2 26  1  0  0  0
  3  6  2  0  0  0
  4  5  2  0  0  0
  4 16  1  0  0  0
  5  9  1  0  0  0
  5  6  1  0  0  0
  6  7  1  0  0  0
  7  8  1  0  0  0
  7 19  1  0  0  0
  8  9  2  0  0  0
  9 10  1  0  0  0
 10 15  1  0  0  0
 10 11  2  0  0  0
 11 12  1  0  0  0
 11 27  1  0  0  0
 12 13  2  0  0  0
 12 18  1  0  0  0
 13 14  1  0  0  0
 13 17  1  0  0  0
 14 15  2  0  0  0
 14 28  1  0  0  0
 15 29  1  0  0  0
 16 30  1  0  0  0
 16 31  1  0  0  0
 18 32  1  0  0  0
 19 20  1  0  0  0
 19 33  1  0  0  0
 19 34  1  0  0  0
 20 21  1  0  0  0
 20 25  1  0  0  0
 20 35  1  0  0  0
 21 22  1  0  0  0
 21 36  1  0  0  0
 21 37  1  0  0  0
 22 23  1  0  0  0
 22 38  1  0  0  0
 22 39  1  0  0  0
 23 24  1  0  0  0
 23 40  1  0  0  0
 23 41  1  0  0  0
 24 25  1  0  0  0
 24 42  1  0  0  0
 25 43  1  0  0  0
 25 44  1  0  0  0
M  END
> <s_m_entry_id>
31986

> <s_m_entry_name>
dock_pv.249

> <s_m_Source_Path>
/home/csk/Desktop/cluster/DUD-E-result/src

> <s_m_Source_File>
dock_pv.maegz

> <i_m_Source_File_Index>
249

> <chembl_id>
CHEMBL1241858

> <chembl_pref_name>
None

> <i_lp_mmshare_version>
53161

> <r_lp_tautomer_probability>
0.999999999997365

> <s_lp_Force_Field>
OPLS_2005

> <r_lp_Energy>
18.231719

> <b_lp_Chiralities_Consistent>
1

> <s_lp_Variant>
CHEMBL267_lig1883-2

> <s_i_glide_gridfile>
glide-grid_3el8

> <i_i_glide_lignum>
2154

> <i_i_glide_rotatable_bonds>
4

> <r_i_docking_score>
-7.67854677799315

> <r_i_glide_ligand_efficiency>
-0.307141871119726

> <r_i_glide_ligand_efficiency_sa>
-0.898088278338357

> <r_i_glide_ligand_efficiency_ln>
-1.82004569386278

> <r_i_glide_gscore>
-7.67854677799315

> <r_i_glide_lipo>
-2.9169318766541

> <r_i_glide_hbond>
-0.630585902603223

> <r_i_glide_metal>
0

> <r_i_glide_rewards>
-1.88967989235544

> <r_i_glide_evdw>
-35.5524482727051

> <r_i_glide_ecoul>
-5.93833351135254

> <r_i_glide_erotb>
0.44643418525167

> <r_i_glide_esite>
-0.0194108512939201

> <r_i_glide_emodel>
-58.821410086579

> <r_i_glide_energy>
-41.4907817840576

> <r_i_glide_einternal>
3.39955377578735

> <i_i_glide_confnum>
25

> <i_i_glide_posenum>
122

> <r_i_glide_eff_state_penalty>
0

> <s_user_duplicate_titles>
CHEMBL267_lig1883

> <i_f3d_flags>
0

> <s_m_subgroup_title>
dock_pv

> <s_m_subgroupid>
dock_pv

> <b_m_subgroup_collapsed>
1

$$$$
CHEMBL267_lig3396
                    3D
 Schrodinger Suite 2021-1.
 49 52  0  0  1  0            999 V2000
    5.4112    9.6926    5.3517 N   0  0  0  0  0  0
    3.9350    7.7682   10.9087 N   0  0  0  0  0  0
    0.1552    8.2371    7.1484 N   0  0  0  0  0  0
   -0.5120    2.4973    7.9897 N   0  0  0  0  0  0
    3.9890    8.4195    6.6246 C   0  0  0  0  0  0
    5.3571    7.9704    6.8116 C   0  0  0  0  0  0
    6.2177    8.7922    6.0146 C   0  0  0  0  0  0
    2.6854    7.8801    7.2678 C   0  0  1  0  0  0
    4.1087    9.4667    5.7183 C   0  0  0  0  0  0
    2.7498    7.5963    8.7890 C   0  0  0  0  0  0
    5.9543    6.9655    7.5926 C   0  0  0  0  0  0
    7.6096    8.6246    5.9917 C   0  0  0  0  0  0
    1.7435    6.8699    9.4454 C   0  0  0  0  0  0
    1.4734    8.7747    6.8553 C   0  0  0  0  0  0
    3.8000    8.0500    9.5926 C   0  0  0  0  0  0
    7.3372    6.8025    7.5805 C   0  0  0  0  0  0
    1.8150    6.6360   10.8283 C   0  0  0  0  0  0
    8.1434    7.6162    6.7927 C   0  0  0  0  0  0
    5.8594   10.7258    4.4310 C   0  0  0  0  0  0
    2.9682    7.0370   11.4978 C   0  0  0  0  0  0
    0.6924    6.1117   11.6170 C   0  0  0  0  0  0
   -0.2195    5.1759   11.3001 C   0  0  0  0  0  0
   -0.2906    4.2882   10.1296 C   0  0  0  0  0  0
   -1.5418    3.8371    9.6969 C   0  0  0  0  0  0
    0.8516    3.8360    9.4603 C   0  0  0  0  0  0
   -1.6128    2.9320    8.6450 C   0  0  0  0  0  0
    0.6957    2.9626    8.3899 C   0  0  0  0  0  0
   -0.5285    8.7619    6.6185 H   0  0  0  0  0  0
    0.0849    7.2901    6.7948 H   0  0  0  0  0  0
    2.5193    6.9007    6.8166 H   0  0  0  0  0  0
    3.3410   10.0962    5.2906 H   0  0  0  0  0  0
    5.3474    6.3099    8.2008 H   0  0  0  0  0  0
    8.2520    9.2443    5.3838 H   0  0  0  0  0  0
    0.8728    6.5391    8.8998 H   0  0  0  0  0  0
    1.5592    9.7617    7.3104 H   0  0  0  0  0  0
    1.4891    8.9286    5.7760 H   0  0  0  0  0  0
    4.6049    8.6368    9.1874 H   0  0  0  0  0  0
    7.7844    6.0177    8.1747 H   0  0  0  0  0  0
    9.2129    7.4557    6.7889 H   0  0  0  0  0  0
    6.5330   11.4060    4.9551 H   0  0  0  0  0  0
    6.3921   10.2604    3.6001 H   0  0  0  0  0  0
    5.0099   11.2879    4.0392 H   0  0  0  0  0  0
    3.0879    6.8719   12.5592 H   0  0  0  0  0  0
    0.5595    6.5931   12.5762 H   0  0  0  0  0  0
   -1.0051    5.0370   12.0272 H   0  0  0  0  0  0
   -2.4478    4.1636   10.1799 H   0  0  0  0  0  0
    1.8409    4.1454    9.7622 H   0  0  0  0  0  0
   -2.5654    2.5518    8.3019 H   0  0  0  0  0  0
    1.5575    2.6369    7.8314 H   0  0  0  0  0  0
  1  7  1  0  0  0
  1  9  1  0  0  0
  1 19  1  0  0  0
  2 15  1  0  0  0
  2 20  2  0  0  0
  3 14  1  0  0  0
  3 28  1  0  0  0
  3 29  1  0  0  0
  4 26  2  0  0  0
  4 27  1  0  0  0
  5  6  1  0  0  0
  5  8  1  0  0  0
  5  9  2  0  0  0
  6  7  1  0  0  0
  6 11  2  0  0  0
  7 12  2  0  0  0
  8 10  1  0  0  0
  8 14  1  0  0  0
  8 30  1  0  0  0
  9 31  1  0  0  0
 10 13  1  0  0  0
 10 15  2  0  0  0
 11 16  1  0  0  0
 11 32  1  0  0  0
 12 18  1  0  0  0
 12 33  1  0  0  0
 13 17  2  0  0  0
 13 34  1  0  0  0
 14 35  1  0  0  0
 14 36  1  0  0  0
 15 37  1  0  0  0
 16 18  2  0  0  0
 16 38  1  0  0  0
 17 20  1  0  0  0
 17 21  1  0  0  0
 18 39  1  0  0  0
 19 40  1  0  0  0
 19 41  1  0  0  0
 19 42  1  0  0  0
 20 43  1  0  0  0
 21 22  2  3  0  0
 21 44  1  0  0  0
 22 23  1  0  0  0
 22 45  1  0  0  0
 23 24  2  0  0  0
 23 25  1  0  0  0
 24 26  1  0  0  0
 24 46  1  0  0  0
 25 27  2  0  0  0
 25 47  1  0  0  0
 26 48  1  0  0  0
 27 49  1  0  0  0
M  END
> <s_m_entry_id>
31987

> <s_m_entry_name>
dock_pv.250

> <s_m_Source_Path>
/home/csk/Desktop/cluster/DUD-E-result/src

> <s_m_Source_File>
dock_pv.maegz

> <i_m_Source_File_Index>
250

> <chembl_id>
CHEMBL1979357

> <chembl_pref_name>
None

> <i_lp_mmshare_version>
53161

> <r_lp_tautomer_probability>
1

> <s_lp_Force_Field>
OPLS_2005

> <r_lp_Energy>
20.313146

> <b_lp_Chiralities_Consistent>
1

> <s_lp_Variant>
CHEMBL267_lig3396-4

> <s_i_glide_gridfile>
glide-grid_3el8

> <i_i_glide_lignum>
4049

> <i_i_glide_rotatable_bonds>
5

> <r_i_docking_score>
-7.66982234740524

> <r_i_glide_ligand_efficiency>
-0.284067494348342

> <r_i_glide_ligand_efficiency_sa>
-0.852202482108787

> <r_i_glide_ligand_efficiency_ln>
-1.78540819557218

> <r_i_glide_gscore>
-7.66982234740524

> <r_i_glide_lipo>
-4.29125502647795

> <r_i_glide_hbond>
-0.241799858186571

> <r_i_glide_metal>
0

> <r_i_glide_rewards>
-1.37238206771051

> <r_i_glide_evdw>
-37.4321937561035

> <r_i_glide_ecoul>
-3.34118127822876

> <r_i_glide_erotb>
0.608401484509282

> <r_i_glide_esite>
0

> <r_i_glide_emodel>
-53.2053342317519

> <r_i_glide_energy>
-40.7733750343323

> <r_i_glide_einternal>
9.91536712646484

> <i_i_glide_confnum>
12

> <i_i_glide_posenum>
112

> <r_i_glide_eff_state_penalty>
0

> <s_user_duplicate_titles>
CHEMBL267_lig3396,CHEMBL267_lig3396

> <i_f3d_flags>
0

> <s_m_subgroup_title>
dock_pv

> <s_m_subgroupid>
dock_pv

> <b_m_subgroup_collapsed>
1

$$$$
CHEMBL267_lig1798
                    3D
 Schrodinger Suite 2021-1.
 35 37  0  0  1  0            999 V2000
    7.8342    6.7573    7.5880 N   0  0  0  0  0  0
    8.4743    7.6633    6.8069 C   0  0  0  0  0  0
    7.9249    8.6370    6.0394 N   0  0  0  0  0  0
    6.4839    6.8386    7.6388 C   0  0  0  0  0  0
    5.7873    7.8369    6.9286 C   0  0  0  0  0  0
    6.5922    8.6927    6.1395 C   0  0  0  0  0  0
    5.7251    9.5680    5.5126 N   0  0  0  0  0  0
    4.4454    9.2901    5.8423 N   0  0  0  0  0  0
    4.4429    8.2869    6.6933 C   0  0  0  0  0  0
    3.1576    7.7690    7.2420 C   0  0  0  0  0  0
    2.0540    7.6558    6.3896 C   0  0  0  0  0  0
    0.8531    7.1255    6.8488 C   0  0  0  0  0  0
    0.7395    6.6908    8.1700 C   0  0  0  0  0  0
    1.8309    6.8100    9.0336 C   0  0  0  0  0  0
    3.0337    7.3466    8.5710 C   0  0  0  0  0  0
    5.8393    5.8587    8.3880 N   0  0  0  0  0  0
   -0.2020    7.0366    5.9877 O   0  0  0  0  0  0
    1.6798    6.2381   10.8427 Br  0  0  0  0  0  0
    6.0267   10.6523    4.5690 C   0  0  0  0  0  0
    5.4499   11.9928    5.0740 C   0  0  0  0  0  0
    5.5095   10.2912    3.1609 C   0  0  0  0  0  0
    9.5525    7.5905    6.7880 H   0  0  0  0  0  0
    2.1267    7.9685    5.3582 H   0  0  0  0  0  0
   -0.1858    6.2619    8.5295 H   0  0  0  0  0  0
    3.8620    7.4498    9.2560 H   0  0  0  0  0  0
    4.8312    5.8312    8.4225 H   0  0  0  0  0  0
    6.4002    5.1523    8.8442 H   0  0  0  0  0  0
   -0.9614    6.5893    6.3868 H   0  0  0  0  0  0
    7.1138   10.7498    4.5194 H   0  0  0  0  0  0
    5.7496   12.8182    4.4261 H   0  0  0  0  0  0
    4.3590   11.9777    5.1001 H   0  0  0  0  0  0
    5.7976   12.2240    6.0811 H   0  0  0  0  0  0
    5.7907   11.0527    2.4316 H   0  0  0  0  0  0
    5.9194    9.3399    2.8185 H   0  0  0  0  0  0
    4.4211   10.2063    3.1415 H   0  0  0  0  0  0
  1  2  2  0  0  0
  1  4  1  0  0  0
  2  3  1  0  0  0
  2 22  1  0  0  0
  3  6  2  0  0  0
  4  5  2  0  0  0
  4 16  1  0  0  0
  5  6  1  0  0  0
  5  9  1  0  0  0
  6  7  1  0  0  0
  7  8  1  0  0  0
  7 19  1  0  0  0
  8  9  2  0  0  0
  9 10  1  0  0  0
 10 11  2  0  0  0
 10 15  1  0  0  0
 11 12  1  0  0  0
 11 23  1  0  0  0
 12 13  2  0  0  0
 12 17  1  0  0  0
 13 14  1  0  0  0
 13 24  1  0  0  0
 14 15  2  0  0  0
 14 18  1  0  0  0
 15 25  1  0  0  0
 16 26  1  0  0  0
 16 27  1  0  0  0
 17 28  1  0  0  0
 19 20  1  0  0  0
 19 21  1  0  0  0
 19 29  1  0  0  0
 20 30  1  0  0  0
 20 31  1  0  0  0
 20 32  1  0  0  0
 21 33  1  0  0  0
 21 34  1  0  0  0
 21 35  1  0  0  0
M  END
> <s_m_entry_id>
31988

> <s_m_entry_name>
dock_pv.251

> <s_m_Source_Path>
/home/csk/Desktop/cluster/DUD-E-result/src

> <s_m_Source_File>
dock_pv.maegz

> <i_m_Source_File_Index>
251

> <chembl_id>
CHEMBL1242285

> <chembl_pref_name>
None

> <i_lp_mmshare_version>
53161

> <r_lp_tautomer_probability>
0.999999999997365

> <s_lp_Force_Field>
OPLS_2005

> <r_lp_Energy>
10.798325

> <b_lp_Chiralities_Consistent>
1

> <s_lp_Variant>
CHEMBL267_lig1798-1

> <s_i_glide_gridfile>
glide-grid_3el8

> <i_i_glide_lignum>
2061

> <i_i_glide_rotatable_bonds>
3

> <r_i_docking_score>
-7.66772851874542

> <r_i_glide_ligand_efficiency>
-0.365129929464068

> <r_i_glide_ligand_efficiency_sa>
-1.00736578889643

> <r_i_glide_ligand_efficiency_ln>
-1.89583038215543

> <r_i_glide_gscore>
-7.66772851874542

> <r_i_glide_lipo>
-2.10410906288725

> <r_i_glide_hbond>
-0.49397558132965

> <r_i_glide_metal>
0

> <r_i_glide_rewards>
-2.46710762159373

> <r_i_glide_evdw>
-32.9605484008789

> <r_i_glide_ecoul>
-7.40998792648315

> <r_i_glide_erotb>
0.156989356081629

> <r_i_glide_esite>
0

> <r_i_glide_emodel>
-58.5507864178129

> <r_i_glide_energy>
-40.3705363273621

> <r_i_glide_einternal>
0.454263269901276

> <i_i_glide_confnum>
4

> <i_i_glide_posenum>
166

> <r_i_glide_eff_state_penalty>
0

> <s_user_duplicate_titles>
CHEMBL267_lig1798

> <i_f3d_flags>
0

> <s_m_subgroup_title>
dock_pv

> <s_m_subgroupid>
dock_pv

> <b_m_subgroup_collapsed>
1

$$$$
CHEMBL267_lig3769
                    3D
 Schrodinger Suite 2021-1.
 48 51  0  0  1  0            999 V2000
    0.3699    6.2551    9.4380 O   0  0  0  0  0  0
    1.0885    4.1255    9.0004 N   0  0  0  0  0  0
   -2.3083    1.6664    8.7880 N   0  0  0  0  0  0
    3.2842    6.9384    8.4304 C   0  0  0  0  0  0
    2.7558    5.8329    9.3679 C   0  0  1  0  0  0
    3.0407    7.2138    9.9100 C   0  0  0  0  0  0
    4.7688    6.9401    7.9972 C   0  0  0  0  0  0
    2.3271    7.5196    7.3776 C   0  0  0  0  0  0
    1.2700    5.4257    9.2939 C   0  0  0  0  0  0
    5.2631    7.9618    7.1712 C   0  0  0  0  0  0
    1.8757    6.7269    6.3139 C   0  0  0  0  0  0
    5.6563    5.9233    8.3880 C   0  0  0  0  0  0
    1.8661    8.8325    7.4921 C   0  0  0  0  0  0
    6.6020    7.9910    6.7720 C   0  0  0  0  0  0
    1.0115    7.2513    5.3509 C   0  0  0  0  0  0
    6.9920    5.9412    7.9880 C   0  0  0  0  0  0
    1.0106    9.3665    6.5296 C   0  0  0  0  0  0
   -0.0964    3.3861    8.8931 C   0  0  0  0  0  0
    7.4685    6.9796    7.1880 C   0  0  0  0  0  0
    0.5980    8.5798    5.4549 C   0  0  0  0  0  0
    0.0369    2.0784    8.4281 C   0  0  0  0  0  0
   -1.3700    3.8370    9.2648 C   0  0  0  0  0  0
    7.0998    9.1126    5.8794 C   0  0  0  0  0  0
    0.5407    6.3895    4.1931 C   0  0  0  0  0  0
   -1.0836    1.2503    8.3880 C   0  0  0  0  0  0
   -2.4461    2.9543    9.1880 C   0  0  0  0  0  0
    1.9253    3.5944    8.8217 H   0  0  0  0  0  0
    3.3980    5.0369    9.7342 H   0  0  0  0  0  0
    3.8921    7.3225   10.5833 H   0  0  0  0  0  0
    2.2150    7.8574   10.2133 H   0  0  0  0  0  0
    4.6081    8.7531    6.8383 H   0  0  0  0  0  0
    2.1980    5.6993    6.2364 H   0  0  0  0  0  0
    5.3410    5.1011    9.0079 H   0  0  0  0  0  0
    2.1888    9.4370    8.3247 H   0  0  0  0  0  0
    7.6510    5.1468    8.3061 H   0  0  0  0  0  0
    0.6717   10.3886    6.6112 H   0  0  0  0  0  0
    8.5044    6.9915    6.8797 H   0  0  0  0  0  0
   -0.0571    8.9987    4.7064 H   0  0  0  0  0  0
    0.9980    1.7004    8.1450 H   0  0  0  0  0  0
   -1.5424    4.8409    9.6143 H   0  0  0  0  0  0
    8.1432    8.9787    5.5905 H   0  0  0  0  0  0
    6.9980   10.0719    6.3877 H   0  0  0  0  0  0
    6.5005    9.1599    4.9696 H   0  0  0  0  0  0
    0.1107    6.9907    3.3899 H   0  0  0  0  0  0
    1.3791    5.8371    3.7676 H   0  0  0  0  0  0
   -0.2020    5.6667    4.5329 H   0  0  0  0  0  0
   -1.0089    0.2252    8.0564 H   0  0  0  0  0  0
   -3.4405    3.2685    9.4670 H   0  0  0  0  0  0
  1  9  2  0  0  0
  2  9  1  0  0  0
  2 18  1  0  0  0
  2 27  1  0  0  0
  3 25  2  0  0  0
  3 26  1  0  0  0
  4  5  1  0  0  0
  4  6  1  0  0  0
  4  7  1  0  0  0
  4  8  1  0  0  0
  5  6  1  0  0  0
  5  9  1  0  0  0
  5 28  1  0  0  0
  6 29  1  0  0  0
  6 30  1  0  0  0
  7 10  2  0  0  0
  7 12  1  0  0  0
  8 11  1  0  0  0
  8 13  2  0  0  0
 10 14  1  0  0  0
 10 31  1  0  0  0
 11 15  2  0  0  0
 11 32  1  0  0  0
 12 16  2  0  0  0
 12 33  1  0  0  0
 13 17  1  0  0  0
 13 34  1  0  0  0
 14 19  2  0  0  0
 14 23  1  0  0  0
 15 20  1  0  0  0
 15 24  1  0  0  0
 16 19  1  0  0  0
 16 35  1  0  0  0
 17 20  2  0  0  0
 17 36  1  0  0  0
 18 21  2  0  0  0
 18 22  1  0  0  0
 19 37  1  0  0  0
 20 38  1  0  0  0
 21 25  1  0  0  0
 21 39  1  0  0  0
 22 26  2  0  0  0
 22 40  1  0  0  0
 23 41  1  0  0  0
 23 42  1  0  0  0
 23 43  1  0  0  0
 24 44  1  0  0  0
 24 45  1  0  0  0
 24 46  1  0  0  0
 25 47  1  0  0  0
 26 48  1  0  0  0
M  END
> <s_m_entry_id>
31989

> <s_m_entry_name>
dock_pv.252

> <s_m_Source_Path>
/home/csk/Desktop/cluster/DUD-E-result/src

> <s_m_Source_File>
dock_pv.maegz

> <i_m_Source_File_Index>
252

> <chembl_id>
CHEMBL1999496

> <chembl_pref_name>
None

> <i_lp_mmshare_version>
53161

> <r_lp_tautomer_probability>
1

> <s_lp_Force_Field>
OPLS_2005

> <r_lp_Energy>
25.359228

> <b_lp_Chiralities_Consistent>
1

> <s_lp_Variant>
CHEMBL267_lig3769-2

> <s_i_glide_gridfile>
glide-grid_3el8

> <i_i_glide_lignum>
4606

> <i_i_glide_rotatable_bonds>
5

> <r_i_docking_score>
-7.65401364837759

> <r_i_glide_ligand_efficiency>
-0.294385140322215

> <r_i_glide_ligand_efficiency_sa>
-0.872114819854969

> <r_i_glide_ligand_efficiency_ln>
-1.79751999045424

> <r_i_glide_gscore>
-7.65401364837759

> <r_i_glide_lipo>
-4.75620407518101

> <r_i_glide_hbond>
0

> <r_i_glide_metal>
0

> <r_i_glide_rewards>
-1.49274980206036

> <r_i_glide_evdw>
-41.6316719055176

> <r_i_glide_ecoul>
-0.880233824253082

> <r_i_glide_erotb>
0.808558897777628

> <r_i_glide_esite>
0

> <r_i_glide_emodel>
-58.4327294648188

> <r_i_glide_energy>
-42.5119057297707

> <r_i_glide_einternal>
3.27201342582703

> <i_i_glide_confnum>
11

> <i_i_glide_posenum>
398

> <r_i_glide_eff_state_penalty>
0

> <s_user_duplicate_titles>
CHEMBL267_lig3769

> <i_f3d_flags>
0

> <s_m_subgroup_title>
dock_pv

> <s_m_subgroupid>
dock_pv

> <b_m_subgroup_collapsed>
1

$$$$
CHEMBL267_lig433
                    3D
 Schrodinger Suite 2021-1.
 39 42  0  0  1  0            999 V2000
    5.8292    8.3356    6.4968 C   0  0  0  0  0  0
    5.2910    7.4370    7.4665 C   0  0  0  0  0  0
    4.7879    9.1035    5.9877 N   0  0  0  0  0  0
    3.8957    7.7583    7.6176 C   0  0  0  0  0  0
    3.6467    8.7483    6.6838 C   0  0  0  0  0  0
    7.1168    8.3828    6.1239 N   0  0  0  0  0  0
    6.2041    6.4867    7.9737 C   0  0  0  0  0  0
    7.5051    6.4833    7.5880 N   0  0  0  0  0  0
    2.9033    7.1735    8.5580 C   0  0  0  0  0  0
    7.8916    7.4403    6.7129 C   0  0  0  0  0  0
    4.9037   10.1641    4.9640 C   0  0  2  0  0  0
    5.3070   10.5554    2.6338 N   0  0  1  0  0  0
    3.2161    7.0281    9.9122 C   0  0  0  0  0  0
    1.6578    6.7565    8.0806 C   0  0  0  0  0  0
    5.7981    5.4370    8.7880 N   0  0  0  0  0  0
    1.0403    6.0702   10.3066 C   0  0  0  0  0  0
    3.5997   10.6578    4.3072 C   0  0  0  0  0  0
    0.7284    6.1992    8.9548 C   0  0  0  0  0  0
    2.2804    6.4824   10.7869 C   0  0  0  0  0  0
    5.7717    9.7648    3.7600 C   0  0  0  0  0  0
    0.1214    5.5462   11.1752 O   0  0  0  0  0  0
    3.8644   10.5668    2.8026 C   0  0  0  0  0  0
    2.7148    9.2583    6.4959 H   0  0  0  0  0  0
    8.9343    7.4368    6.4268 H   0  0  0  0  0  0
    5.3931   10.9786    5.5015 H   0  0  0  0  0  0
    5.6531   11.5029    2.7155 H   0  0  0  0  0  0
    4.1773    7.3442   10.2917 H   0  0  0  0  0  0
    1.4159    6.8490    7.0314 H   0  0  0  0  0  0
    4.8354    5.3832    9.0911 H   0  0  0  0  0  0
    6.4869    4.7556    9.0848 H   0  0  0  0  0  0
    2.7250   10.0497    4.5309 H   0  0  0  0  0  0
    3.3729   11.6832    4.6018 H   0  0  0  0  0  0
   -0.2220    5.8607    8.5749 H   0  0  0  0  0  0
    2.5195    6.3740   11.8348 H   0  0  0  0  0  0
    6.8363    9.9085    3.9504 H   0  0  0  0  0  0
    5.6334    8.7077    3.5234 H   0  0  0  0  0  0
   -0.7538    5.4372   10.7890 H   0  0  0  0  0  0
    3.4115    9.6646    2.3880 H   0  0  0  0  0  0
    3.4431   11.4202    2.2688 H   0  0  0  0  0  0
  1  2  2  0  0  0
  1  3  1  0  0  0
  1  6  1  0  0  0
  2  4  1  0  0  0
  2  7  1  0  0  0
  3  5  1  0  0  0
  3 11  1  0  0  0
  4  9  1  0  0  0
  4  5  2  0  0  0
  5 23  1  0  0  0
  6 10  2  0  0  0
  7 15  1  0  0  0
  7  8  2  0  0  0
  8 10  1  0  0  0
  9 13  2  0  0  0
  9 14  1  0  0  0
 10 24  1  0  0  0
 11 17  1  0  0  0
 11 20  1  0  0  0
 11 25  1  0  0  0
 12 20  1  0  0  0
 12 22  1  0  0  0
 12 26  1  0  0  0
 13 19  1  0  0  0
 13 27  1  0  0  0
 14 18  2  0  0  0
 14 28  1  0  0  0
 15 29  1  0  0  0
 15 30  1  0  0  0
 16 18  1  0  0  0
 16 21  1  0  0  0
 16 19  2  0  0  0
 17 22  1  0  0  0
 17 31  1  0  0  0
 17 32  1  0  0  0
 18 33  1  0  0  0
 19 34  1  0  0  0
 20 35  1  0  0  0
 20 36  1  0  0  0
 21 37  1  0  0  0
 22 38  1  0  0  0
 22 39  1  0  0  0
M  END
> <s_m_entry_id>
31990

> <s_m_entry_name>
dock_pv.253

> <s_m_Source_Path>
/home/csk/Desktop/cluster/DUD-E-result/src

> <s_m_Source_File>
dock_pv.maegz

> <i_m_Source_File_Index>
253

> <chembl_id>
CHEMBL354033

> <chembl_pref_name>
None

> <i_lp_mmshare_version>
53161

> <r_lp_tautomer_probability>
0.999999999997365

> <s_lp_Force_Field>
OPLS_2005

> <r_lp_Energy>
33.628658

> <b_lp_Chiralities_Consistent>
1

> <s_lp_Variant>
CHEMBL267_lig433-1

> <s_i_glide_gridfile>
glide-grid_3el8

> <i_i_glide_lignum>
515

> <i_i_glide_rotatable_bonds>
3

> <r_i_docking_score>
-7.64961907154424

> <r_i_glide_ligand_efficiency>
-0.347709957797465

> <r_i_glide_ligand_efficiency_sa>
-0.974296976405158

> <r_i_glide_ligand_efficiency_ln>
-1.86984592772062

> <r_i_glide_gscore>
-7.64961907154424

> <r_i_glide_lipo>
-2.15937917045085

> <r_i_glide_hbond>
-0.434216938529738

> <r_i_glide_metal>
0

> <r_i_glide_rewards>
-2.6096810872933

> <r_i_glide_evdw>
-35.2951545715332

> <r_i_glide_ecoul>
-7.34167814254761

> <r_i_glide_erotb>
0.41966757468845

> <r_i_glide_esite>
0

> <r_i_glide_emodel>
-60.4884891814309

> <r_i_glide_energy>
-42.6368327140808

> <r_i_glide_einternal>
3.84522700309753

> <i_i_glide_confnum>
33

> <i_i_glide_posenum>
389

> <r_i_glide_eff_state_penalty>
0

> <s_user_duplicate_titles>
CHEMBL267_lig433

> <i_f3d_flags>
0

> <s_m_subgroup_title>
dock_pv

> <s_m_subgroupid>
dock_pv

> <b_m_subgroup_collapsed>
1

$$$$
CHEMBL267_lig3536
                    3D
 Schrodinger Suite 2021-1.
 43 46  0  0  1  0            999 V2000
    8.6589    8.6366    5.7435 N   0  0  0  0  0  0
    4.3783   10.2258    5.3666 N   0  0  0  0  0  0
    8.0485    6.7880    7.1904 N   0  0  0  0  0  0
    2.0485   10.5371    5.2180 N   0  0  0  0  0  0
    3.4711   12.2694    4.4946 N   0  0  0  0  0  0
    0.5981    9.0350    3.1874 N   0  0  0  0  0  0
    6.6779    9.7142    5.5833 C   0  0  0  0  0  0
    6.5314    8.5882    6.4855 C   0  0  0  0  0  0
    5.6312   10.6746    5.1537 C   0  0  0  0  0  0
    7.7834    7.9156    6.5228 C   0  0  0  0  0  0
    8.0022    9.7055    5.1878 C   0  0  0  0  0  0
    3.3457   11.0253    5.0216 C   0  0  0  0  0  0
    5.4918    8.0330    7.2638 C   0  0  0  0  0  0
    5.8665   11.9295    4.5819 C   0  0  0  0  0  0
    1.8019    9.1004    5.4053 C   0  0  2  0  0  0
    4.7427   12.7043    4.2751 C   0  0  0  0  0  0
    5.7439    6.8666    7.9856 C   0  0  0  0  0  0
    7.0021    6.2739    7.8873 C   0  0  0  0  0  0
    1.5817    8.3843    4.0364 C   0  0  1  0  0  0
    0.6481    8.9231    6.4019 C   0  0  0  0  0  0
    1.2257    6.9008    4.2958 C   0  0  0  0  0  0
    0.2733    7.4419    6.5832 C   0  0  0  0  0  0
    0.0161    6.7425    5.2325 C   0  0  0  0  0  0
    9.6267    8.4135    5.5550 H   0  0  0  0  0  0
    1.2879   11.0928    4.8564 H   0  0  0  0  0  0
    0.9334    9.9556    2.9441 H   0  0  0  0  0  0
    0.5074    8.5290    2.3108 H   0  0  0  0  0  0
    8.5351   10.3711    4.5248 H   0  0  0  0  0  0
    4.5122    8.4855    7.2931 H   0  0  0  0  0  0
    6.8624   12.2872    4.3875 H   0  0  0  0  0  0
    2.6699    8.6267    5.8683 H   0  0  0  0  0  0
    4.8544   13.6886    3.8423 H   0  0  0  0  0  0
    4.9652    6.4027    8.5749 H   0  0  0  0  0  0
    7.1923    5.3382    8.3886 H   0  0  0  0  0  0
    2.5377    8.4140    3.5104 H   0  0  0  0  0  0
    0.9110    9.3597    7.3673 H   0  0  0  0  0  0
   -0.2039    9.4800    6.0379 H   0  0  0  0  0  0
    1.0257    6.3964    3.3487 H   0  0  0  0  0  0
    2.0838    6.3825    4.7256 H   0  0  0  0  0  0
   -0.6016    7.3722    7.2254 H   0  0  0  0  0  0
    1.0762    6.9253    7.1104 H   0  0  0  0  0  0
   -0.8757    7.1605    4.7630 H   0  0  0  0  0  0
   -0.2010    5.6863    5.3957 H   0  0  0  0  0  0
  1 10  1  0  0  0
  1 11  1  0  0  0
  1 24  1  0  0  0
  2  9  2  0  0  0
  2 12  1  0  0  0
  3 10  2  0  0  0
  3 18  1  0  0  0
  4 12  1  0  0  0
  4 15  1  0  0  0
  4 25  1  0  0  0
  5 12  2  0  0  0
  5 16  1  0  0  0
  6 19  1  0  0  0
  6 26  1  0  0  0
  6 27  1  0  0  0
  7  8  1  0  0  0
  7  9  1  0  0  0
  7 11  2  0  0  0
  8 10  1  0  0  0
  8 13  2  0  0  0
  9 14  1  0  0  0
 11 28  1  0  0  0
 13 17  1  0  0  0
 13 29  1  0  0  0
 14 16  2  0  0  0
 14 30  1  0  0  0
 15 19  1  0  0  0
 15 20  1  0  0  0
 15 31  1  0  0  0
 16 32  1  0  0  0
 17 18  2  0  0  0
 17 33  1  0  0  0
 18 34  1  0  0  0
 19 21  1  0  0  0
 19 35  1  0  0  0
 20 22  1  0  0  0
 20 36  1  0  0  0
 20 37  1  0  0  0
 21 23  1  0  0  0
 21 38  1  0  0  0
 21 39  1  0  0  0
 22 23  1  0  0  0
 22 40  1  0  0  0
 22 41  1  0  0  0
 23 42  1  0  0  0
 23 43  1  0  0  0
M  END
> <s_m_entry_id>
31991

> <s_m_entry_name>
dock_pv.254

> <s_m_Source_Path>
/home/csk/Desktop/cluster/DUD-E-result/src

> <s_m_Source_File>
dock_pv.maegz

> <i_m_Source_File_Index>
254

> <chembl_id>
CHEMBL1995813

> <chembl_pref_name>
None

> <i_lp_mmshare_version>
53161

> <r_lp_tautomer_probability>
0.999998420164496

> <s_lp_Force_Field>
OPLS_2005

> <r_lp_Energy>
14.973411

> <b_lp_Chiralities_Consistent>
1

> <s_lp_Variant>
CHEMBL267_lig3536-3

> <s_i_glide_gridfile>
glide-grid_3el8

> <i_i_glide_lignum>
4255

> <i_i_glide_rotatable_bonds>
3

> <r_i_docking_score>
-7.64616746278705

> <r_i_glide_ligand_efficiency>
-0.332442063599437

> <r_i_glide_ligand_efficiency_sa>
-0.945421006396032

> <r_i_glide_ligand_efficiency_ln>
-1.84891262411526

> <r_i_glide_gscore>
-7.64616746278705

> <r_i_glide_lipo>
-2.68215928977774

> <r_i_glide_hbond>
-0.650293188037823

> <r_i_glide_metal>
0

> <r_i_glide_rewards>
-2.14780397198995

> <r_i_glide_evdw>
-34.056640625

> <r_i_glide_ecoul>
-5.81078004837036

> <r_i_glide_erotb>
0.408538025524016

> <r_i_glide_esite>
0

> <r_i_glide_emodel>
-57.0219502912156

> <r_i_glide_energy>
-39.8674206733704

> <r_i_glide_einternal>
2.42835807800293

> <i_i_glide_confnum>
16

> <i_i_glide_posenum>
184

> <r_i_glide_eff_state_penalty>
0

> <s_user_duplicate_titles>
CHEMBL267_lig3536

> <i_f3d_flags>
0

> <s_m_subgroup_title>
dock_pv

> <s_m_subgroupid>
dock_pv

> <b_m_subgroup_collapsed>
1

$$$$
CHEMBL267_lig1353
                    3D
 Schrodinger Suite 2021-1.
 37 39  0  0  1  0            999 V2000
    2.7711    8.4609    6.8552 C   0  0  1  0  0  0
    7.8407    7.1109    7.1087 N   0  0  0  0  0  0
    6.7621    6.6417    7.7433 C   0  0  0  0  0  0
    5.4889    7.0511    7.6658 N   0  0  0  0  0  0
    5.3365    8.0694    6.7848 C   0  0  0  0  0  0
    6.3572    8.6665    6.0658 C   0  0  0  0  0  0
    7.6625    8.1536    6.2565 C   0  0  0  0  0  0
    8.7785    8.6372    5.5879 N   0  0  0  0  0  0
    5.8881    9.6492    5.2793 N   0  0  0  0  0  0
    4.5970    9.6507    5.5035 C   0  0  0  0  0  0
    4.1973    8.7285    6.4031 N   0  0  0  0  0  0
    1.9562    7.4796    6.0136 C   0  0  2  0  0  0
    1.4318    8.1200    4.8589 O   0  0  0  0  0  0
    0.9486    7.0127    7.0640 C   0  0  2  0  0  0
   -0.2019    7.8372    7.1876 O   0  0  0  0  0  0
    1.7643    6.9864    8.3646 C   0  0  2  0  0  0
    2.6793    8.0699    8.1990 O   0  0  0  0  0  0
    2.5629    5.6864    8.6236 C   0  0  0  0  0  0
    1.8311    4.5110    8.3224 O   0  0  0  0  0  0
    0.2410    4.8592   10.4133 O   0  0  0  0  0  0
   -0.6028    3.8371    8.1636 O   0  0  0  0  0  0
    0.5874    4.0114    9.2429 P   0  0  0  0  0  0
    0.9978    2.4858    9.5880 O   0  0  0  0  0  0
    2.2730    9.4321    6.7963 H   0  0  0  0  0  0
    6.9386    5.8057    8.4041 H   0  0  0  0  0  0
    8.6299    9.3132    4.8544 H   0  0  0  0  0  0
    9.5953    8.0373    5.5891 H   0  0  0  0  0  0
    3.8754   10.3019    5.0291 H   0  0  0  0  0  0
    2.5980    6.6455    5.7313 H   0  0  0  0  0  0
    0.9863    7.4707    4.3074 H   0  0  0  0  0  0
    0.5940    6.0146    6.8023 H   0  0  0  0  0  0
   -0.9429    7.3665    6.7844 H   0  0  0  0  0  0
    1.1222    7.1682    9.2262 H   0  0  0  0  0  0
    2.9399    5.6574    9.6485 H   0  0  0  0  0  0
    3.4416    5.6515    7.9883 H   0  0  0  0  0  0
   -1.3220    4.4995    8.2550 H   0  0  0  0  0  0
    0.4569    2.0666   10.2871 H   0  0  0  0  0  0
  1 11  1  0  0  0
  1 12  1  0  0  0
  1 17  1  0  0  0
  1 24  1  0  0  0
  2  3  1  0  0  0
  2  7  2  0  0  0
  3  4  2  0  0  0
  3 25  1  0  0  0
  4  5  1  0  0  0
  5  6  2  0  0  0
  5 11  1  0  0  0
  6  7  1  0  0  0
  6  9  1  0  0  0
  7  8  1  0  0  0
  8 26  1  0  0  0
  8 27  1  0  0  0
  9 10  2  0  0  0
 10 11  1  0  0  0
 10 28  1  0  0  0
 12 13  1  0  0  0
 12 14  1  0  0  0
 12 29  1  0  0  0
 13 30  1  0  0  0
 14 15  1  0  0  0
 14 16  1  0  0  0
 14 31  1  0  0  0
 15 32  1  0  0  0
 16 17  1  0  0  0
 16 18  1  0  0  0
 16 33  1  0  0  0
 18 19  1  0  0  0
 18 34  1  0  0  0
 18 35  1  0  0  0
 19 22  1  0  0  0
 20 22  2  0  0  0
 21 22  1  0  0  0
 21 36  1  0  0  0
 22 23  1  0  0  0
 23 37  1  0  0  0
M  END
> <s_m_entry_id>
31992

> <s_m_entry_name>
dock_pv.255

> <s_m_Source_Path>
/home/csk/Desktop/cluster/DUD-E-result/src

> <s_m_Source_File>
dock_pv.maegz

> <i_m_Source_File_Index>
255

> <chembl_id>
CHEMBL752

> <chembl_pref_name>
ADENOSINE PHOSPHATE

> <i_lp_mmshare_version>
53161

> <r_lp_tautomer_probability>
0.999997216410988

> <s_lp_Force_Field>
OPLS_2005

> <r_lp_Energy>
24.299571

> <b_lp_Chiralities_Consistent>
1

> <s_lp_Variant>
CHEMBL267_lig1353-1

> <s_i_glide_gridfile>
glide-grid_3el8

> <i_i_glide_lignum>
1507

> <i_i_glide_rotatable_bonds>
8

> <r_i_docking_score>
-7.64460939489786

> <r_i_glide_ligand_efficiency>
-0.332374321517298

> <r_i_glide_ligand_efficiency_sa>
-0.945228356925693

> <r_i_glide_ligand_efficiency_ln>
-1.84853586917188

> <r_i_glide_gscore>
-7.64460939489786

> <r_i_glide_lipo>
-1.18594305397344

> <r_i_glide_hbond>
-0.252637491772229

> <r_i_glide_metal>
0

> <r_i_glide_rewards>
-2.88812828684354

> <r_i_glide_evdw>
-35.019947052002

> <r_i_glide_ecoul>
-14.6158638000488

> <r_i_glide_erotb>
0.631098888062349

> <r_i_glide_esite>
-0.00562252776357495

> <r_i_glide_emodel>
-69.5118734374727

> <r_i_glide_energy>
-49.6358108520508

> <r_i_glide_einternal>
5.29341840744019

> <i_i_glide_confnum>
129

> <i_i_glide_posenum>
340

> <r_i_glide_eff_state_penalty>
0

> <s_user_duplicate_titles>
CHEMBL267_lig1353

> <i_f3d_flags>
0

> <s_m_subgroup_title>
dock_pv

> <s_m_subgroupid>
dock_pv

> <b_m_subgroup_collapsed>
1

$$$$
CHEMBL267_lig1809
                    3D
 Schrodinger Suite 2021-1.
 35 38  0  0  1  0            999 V2000
    1.3714    9.2020    4.6471 N   0  0  0  0  0  0
    2.5596    9.6092    4.1335 C   0  0  0  0  0  0
    3.7966    9.4368    4.6678 N   0  0  0  0  0  0
    1.4054    8.5308    5.8241 C   0  0  0  0  0  0
    2.6247    8.2611    6.4785 C   0  0  0  0  0  0
    3.7770    8.7594    5.8250 C   0  0  0  0  0  0
    4.8455    8.4240    6.6316 N   0  0  0  0  0  0
    4.4359    7.7755    7.7381 N   0  0  0  0  0  0
    3.1270    7.6392    7.6774 C   0  0  0  0  0  0
    2.3831    6.9609    8.7839 C   0  0  0  0  0  0
    1.2510    6.1707    8.5426 C   0  0  0  0  0  0
    0.5198    5.6305    9.6035 C   0  0  0  0  0  0
    0.9216    5.8842   10.9208 C   0  0  0  0  0  0
    2.0698    6.6344   11.1677 C   0  0  0  0  0  0
    2.7948    7.1694   10.1065 C   0  0  0  0  0  0
    0.1739    8.1603    6.3469 N   0  0  0  0  0  0
    0.1973    5.4370   11.9716 F   0  0  0  0  0  0
   -0.6019    4.8809    9.3468 O   0  0  0  0  0  0
    6.2474    8.7861    6.4708 C   0  0  0  0  0  0
    7.3758    8.0118    7.1472 C   0  0  0  0  0  0
    8.1981    8.2365    5.9581 N   0  0  2  0  0  0
    6.9661    8.3987    5.1911 C   0  0  0  0  0  0
    2.5153   10.1361    3.1916 H   0  0  0  0  0  0
    0.9494    5.9497    7.5298 H   0  0  0  0  0  0
    2.3899    6.8052   12.1848 H   0  0  0  0  0  0
    3.6705    7.7648   10.3205 H   0  0  0  0  0  0
    0.1360    7.6055    7.1866 H   0  0  0  0  0  0
   -0.6537    8.3684    5.8040 H   0  0  0  0  0  0
   -1.1297    5.1703    8.5918 H   0  0  0  0  0  0
    6.3023    9.8584    6.6695 H   0  0  0  0  0  0
    7.8330    8.4705    8.0250 H   0  0  0  0  0  0
    7.1468    6.9544    7.3106 H   0  0  0  0  0  0
    8.8486    7.5093    5.6655 H   0  0  0  0  0  0
    6.6087    7.4535    4.7761 H   0  0  0  0  0  0
    7.0603    9.1756    4.4307 H   0  0  0  0  0  0
  1  2  2  0  0  0
  1  4  1  0  0  0
  2  3  1  0  0  0
  2 23  1  0  0  0
  3  6  2  0  0  0
  4  5  2  0  0  0
  4 16  1  0  0  0
  5  9  1  0  0  0
  5  6  1  0  0  0
  6  7  1  0  0  0
  7  8  1  0  0  0
  7 19  1  0  0  0
  8  9  2  0  0  0
  9 10  1  0  0  0
 10 11  2  0  0  0
 10 15  1  0  0  0
 11 12  1  0  0  0
 11 24  1  0  0  0
 12 13  2  0  0  0
 12 18  1  0  0  0
 13 14  1  0  0  0
 13 17  1  0  0  0
 14 15  2  0  0  0
 14 25  1  0  0  0
 15 26  1  0  0  0
 16 27  1  0  0  0
 16 28  1  0  0  0
 18 29  1  0  0  0
 19 20  1  0  0  0
 19 22  1  0  0  0
 19 30  1  0  0  0
 20 21  1  0  0  0
 20 31  1  0  0  0
 20 32  1  0  0  0
 21 22  1  0  0  0
 21 33  1  0  0  0
 22 34  1  0  0  0
 22 35  1  0  0  0
M  END
> <s_m_entry_id>
31993

> <s_m_entry_name>
dock_pv.256

> <s_m_Source_Path>
/home/csk/Desktop/cluster/DUD-E-result/src

> <s_m_Source_File>
dock_pv.maegz

> <i_m_Source_File_Index>
256

> <chembl_id>
CHEMBL1242567

> <chembl_pref_name>
None

> <i_lp_mmshare_version>
53161

> <r_lp_tautomer_probability>
0.999999999997365

> <s_lp_Force_Field>
OPLS_2005

> <r_lp_Energy>
19.49451

> <b_lp_Chiralities_Consistent>
1

> <s_lp_Variant>
CHEMBL267_lig1809-1

> <s_i_glide_gridfile>
glide-grid_3el8

> <i_i_glide_lignum>
2072

> <i_i_glide_rotatable_bonds>
3

> <r_i_docking_score>
-7.64099688334779

> <r_i_glide_ligand_efficiency>
-0.347318040152172

> <r_i_glide_ligand_efficiency_sa>
-0.973198807749801

> <r_i_glide_ligand_efficiency_ln>
-1.86773835042346

> <r_i_glide_gscore>
-7.64099688334779

> <r_i_glide_lipo>
-2.45178771207772

> <r_i_glide_hbond>
-0.608

> <r_i_glide_metal>
0

> <r_i_glide_rewards>
-2.344650343397

> <r_i_glide_evdw>
-36.3318977355957

> <r_i_glide_ecoul>
-5.51736640930176

> <r_i_glide_erotb>
0.407641020301982

> <r_i_glide_esite>
0

> <r_i_glide_emodel>
-58.2112122407082

> <r_i_glide_energy>
-41.8492641448975

> <r_i_glide_einternal>
2.10044145584106

> <i_i_glide_confnum>
12

> <i_i_glide_posenum>
349

> <r_i_glide_eff_state_penalty>
0

> <s_user_duplicate_titles>
CHEMBL267_lig1809

> <i_f3d_flags>
0

> <s_m_subgroup_title>
dock_pv

> <s_m_subgroupid>
dock_pv

> <b_m_subgroup_collapsed>
1

$$$$
CHEMBL267_lig2916
                    3D
 Schrodinger Suite 2021-1.
 51 54  0  0  1  0            999 V2000
    1.8672    6.7900    9.3076 N   0  0  0  0  0  0
    2.8023    7.7586    9.3328 C   0  0  0  0  0  0
    3.0666    8.6370    8.3411 N   0  0  0  0  0  0
    1.1276    6.6152    8.1931 C   0  0  0  0  0  0
    1.3405    7.4492    7.0795 C   0  0  0  0  0  0
    2.3306    8.4443    7.2403 C   0  0  0  0  0  0
    2.3983    9.1272    6.0385 N   0  0  0  0  0  0
    1.5010    8.6300    5.1557 N   0  0  0  0  0  0
    0.8668    7.6401    5.7449 C   0  0  0  0  0  0
    3.2209   10.2949    5.6915 C   0  0  0  0  0  0
    4.4758   10.0489    4.8000 C   0  0  1  0  0  0
    5.6727    9.2849    5.3966 C   0  0  0  0  0  0
    6.9690    9.7114    5.0828 C   0  0  0  0  0  0
    8.0795    9.0370    5.5881 C   0  0  0  0  0  0
    7.9057    7.9656    6.4566 C   0  0  0  0  0  0
    6.6274    7.5344    6.7878 C   0  0  0  0  0  0
    5.5214    8.1666    6.2234 C   0  0  0  0  0  0
    0.1980    5.5706    8.1907 N   0  0  0  0  0  0
    4.0269    9.4369    3.1882 Cl  0  0  0  0  0  0
    3.7949    7.8369   10.7881 S   0  0  0  0  0  0
    3.1498    6.4913   11.8456 C   0  0  0  0  0  0
   -0.0948    4.8263    9.4168 C   0  0  0  0  0  0
   -0.5799    3.4374    9.0766 C   0  0  0  0  0  0
   -1.9433    3.1513    9.1199 C   0  0  0  0  0  0
   -2.3811    1.8756    8.7880 C   0  0  0  0  0  0
   -1.4690    0.9003    8.3881 C   0  0  0  0  0  0
   -0.1055    1.1736    8.3880 C   0  0  0  0  0  0
    0.3421    2.4501    8.7195 C   0  0  0  0  0  0
    1.8079    6.6550   12.5650 C   0  0  0  0  0  0
    0.1002    7.0835    5.2241 H   0  0  0  0  0  0
    3.5366   10.7740    6.6151 H   0  0  0  0  0  0
    2.5660   11.0151    5.1981 H   0  0  0  0  0  0
    4.8509   11.0525    4.5917 H   0  0  0  0  0  0
    7.1232   10.5555    4.4264 H   0  0  0  0  0  0
    9.0764    9.3578    5.3223 H   0  0  0  0  0  0
    8.7706    7.4568    6.8568 H   0  0  0  0  0  0
    6.4908    6.6832    7.4391 H   0  0  0  0  0  0
    4.5578    7.7417    6.4208 H   0  0  0  0  0  0
   -0.5468    5.6095    7.5047 H   0  0  0  0  0  0
    2.9980    5.6260   11.1987 H   0  0  0  0  0  0
    3.9243    6.2370   12.5692 H   0  0  0  0  0  0
    0.7803    4.7207   10.0599 H   0  0  0  0  0  0
   -0.8455    5.3623   10.0000 H   0  0  0  0  0  0
   -2.6586    3.9136    9.3963 H   0  0  0  0  0  0
   -3.4380    1.6514    8.7949 H   0  0  0  0  0  0
   -1.8250   -0.0801    8.1085 H   0  0  0  0  0  0
    0.5978    0.3996    8.1173 H   0  0  0  0  0  0
    1.3993    2.6707    8.7000 H   0  0  0  0  0  0
    1.2765    5.7103   12.6607 H   0  0  0  0  0  0
    1.9570    7.0370   13.5713 H   0  0  0  0  0  0
    1.1448    7.3176   12.0157 H   0  0  0  0  0  0
  1  2  1  0  0  0
  1  4  2  0  0  0
  2 20  1  0  0  0
  2  3  2  0  0  0
  3  6  1  0  0  0
  4  5  1  0  0  0
  4 18  1  0  0  0
  5  9  1  0  0  0
  5  6  2  0  0  0
  6  7  1  0  0  0
  7  8  1  0  0  0
  7 10  1  0  0  0
  8  9  2  0  0  0
  9 30  1  0  0  0
 10 11  1  0  0  0
 10 31  1  0  0  0
 10 32  1  0  0  0
 11 19  1  0  0  0
 11 12  1  0  0  0
 11 33  1  0  0  0
 12 17  1  0  0  0
 12 13  2  0  0  0
 13 14  1  0  0  0
 13 34  1  0  0  0
 14 15  2  0  0  0
 14 35  1  0  0  0
 15 16  1  0  0  0
 15 36  1  0  0  0
 16 17  2  0  0  0
 16 37  1  0  0  0
 17 38  1  0  0  0
 18 22  1  0  0  0
 18 39  1  0  0  0
 20 21  1  0  0  0
 21 29  1  0  0  0
 21 40  1  0  0  0
 21 41  1  0  0  0
 22 23  1  0  0  0
 22 42  1  0  0  0
 22 43  1  0  0  0
 23 24  2  0  0  0
 23 28  1  0  0  0
 24 25  1  0  0  0
 24 44  1  0  0  0
 25 26  2  0  0  0
 25 45  1  0  0  0
 26 27  1  0  0  0
 26 46  1  0  0  0
 27 28  2  0  0  0
 27 47  1  0  0  0
 28 48  1  0  0  0
 29 49  1  0  0  0
 29 50  1  0  0  0
 29 51  1  0  0  0
M  END
> <s_m_entry_id>
31994

> <s_m_entry_name>
dock_pv.257

> <s_m_Source_Path>
/home/csk/Desktop/cluster/DUD-E-result/src

> <s_m_Source_File>
dock_pv.maegz

> <i_m_Source_File_Index>
257

> <chembl_id>
CHEMBL85452

> <chembl_pref_name>
None

> <i_lp_mmshare_version>
53161

> <r_lp_tautomer_probability>
1

> <s_lp_Force_Field>
OPLS_2005

> <r_lp_Energy>
11.332835

> <b_lp_Chiralities_Consistent>
1

> <s_lp_Variant>
CHEMBL267_lig2916-2

> <s_i_glide_gridfile>
glide-grid_3el8

> <i_i_glide_lignum>
3308

> <i_i_glide_rotatable_bonds>
8

> <r_i_docking_score>
-7.63130414787067

> <r_i_glide_ligand_efficiency>
-0.263148418892092

> <r_i_glide_ligand_efficiency_sa>
-0.808475314107343

> <r_i_glide_ligand_efficiency_ln>
-1.74737513668597

> <r_i_glide_gscore>
-7.63130414787067

> <r_i_glide_lipo>
-4.20547912825456

> <r_i_glide_hbond>
-0.313605763055893

> <r_i_glide_metal>
0

> <r_i_glide_rewards>
-1.21523580898786

> <r_i_glide_evdw>
-38.6002349853516

> <r_i_glide_ecoul>
-4.75645923614502

> <r_i_glide_erotb>
0.772034809135976

> <r_i_glide_esite>
-0.0255376220189979

> <r_i_glide_emodel>
-52.9241972232753

> <r_i_glide_energy>
-43.3566942214966

> <r_i_glide_einternal>
9.10323905944824

> <i_i_glide_confnum>
7

> <i_i_glide_posenum>
113

> <r_i_glide_eff_state_penalty>
0

> <s_user_duplicate_titles>
CHEMBL267_lig2916

> <i_f3d_flags>
0

> <s_m_subgroup_title>
dock_pv

> <s_m_subgroupid>
dock_pv

> <b_m_subgroup_collapsed>
1

$$$$
CHEMBL267_lig3768
                    3D
 Schrodinger Suite 2021-1.
 25 27  0  0  1  0            999 V2000
    5.1459   10.8278    4.2274 I   0  0  0  0  0  0
    1.3233    6.2370   11.8421 Cl  0  0  0  0  0  0
    8.3701    6.6370    7.5880 O   0  0  0  0  0  0
    6.3481    7.6694    7.1248 N   0  0  0  0  0  0
    4.2639    8.4260    6.7273 N   0  0  0  0  0  0
    8.2746    8.2902    5.9730 N   0  0  0  0  0  0
    5.5291    8.5285    6.4064 C   0  0  0  0  0  0
    4.2141    7.5097    7.6852 C   0  0  0  0  0  0
    5.4864    7.0370    7.9880 C   0  0  0  0  0  0
    7.7621    7.4806    6.9362 C   0  0  0  0  0  0
    6.1906    9.3774    5.4107 C   0  0  0  0  0  0
    2.9196    7.0628    8.2594 C   0  0  0  0  0  0
    7.5219    9.2008    5.2770 C   0  0  0  0  0  0
    2.7723    6.8315    9.6318 C   0  0  0  0  0  0
    1.8307    6.8536    7.4071 C   0  0  0  0  0  0
    1.5403    6.4175   10.1431 C   0  0  0  0  0  0
    0.6154    6.4100    7.9164 C   0  0  0  0  0  0
    0.4651    6.1919    9.2843 C   0  0  0  0  0  0
    9.2530    8.1409    5.7650 H   0  0  0  0  0  0
    5.8367    6.2821    8.6785 H   0  0  0  0  0  0
    8.1260    9.7644    4.5801 H   0  0  0  0  0  0
    3.6030    6.9919   10.3043 H   0  0  0  0  0  0
    1.9291    7.0150    6.3429 H   0  0  0  0  0  0
   -0.2020    6.2371    7.2384 H   0  0  0  0  0  0
   -0.4873    5.8594    9.6759 H   0  0  0  0  0  0
  1 11  1  0  0  0
  2 16  1  0  0  0
  3 10  2  0  0  0
  4  7  1  0  0  0
  4  9  1  0  0  0
  4 10  1  0  0  0
  5  7  2  0  0  0
  5  8  1  0  0  0
  6 10  1  0  0  0
  6 13  1  0  0  0
  6 19  1  0  0  0
  7 11  1  0  0  0
  8  9  2  0  0  0
  8 12  1  0  0  0
  9 20  1  0  0  0
 11 13  2  0  0  0
 12 14  2  0  0  0
 12 15  1  0  0  0
 13 21  1  0  0  0
 14 16  1  0  0  0
 14 22  1  0  0  0
 15 17  2  0  0  0
 15 23  1  0  0  0
 16 18  2  0  0  0
 17 18  1  0  0  0
 17 24  1  0  0  0
 18 25  1  0  0  0
M  END
> <s_m_entry_id>
31995

> <s_m_entry_name>
dock_pv.258

> <s_m_Source_Path>
/home/csk/Desktop/cluster/DUD-E-result/src

> <s_m_Source_File>
dock_pv.maegz

> <i_m_Source_File_Index>
258

> <chembl_id>
CHEMBL1982610

> <chembl_pref_name>
None

> <i_lp_mmshare_version>
53161

> <r_lp_tautomer_probability>
1

> <s_lp_Force_Field>
OPLS_2005

> <r_lp_Energy>
16.927222

> <b_lp_Chiralities_Consistent>
1

> <s_lp_Variant>
CHEMBL267_lig3768-1

> <s_i_glide_gridfile>
glide-grid_3el8

> <i_i_glide_lignum>
4604

> <i_i_glide_rotatable_bonds>
1

> <r_i_docking_score>
-7.63074394353677

> <r_i_glide_ligand_efficiency>
-0.423930219085376

> <r_i_glide_ligand_efficiency_sa>
-1.11101147234268

> <r_i_glide_ligand_efficiency_ln>
-1.9614433834116

> <r_i_glide_gscore>
-7.63074394353677

> <r_i_glide_lipo>
-1.99998330509915

> <r_i_glide_hbond>
-0.440402065056205

> <r_i_glide_metal>
0

> <r_i_glide_rewards>
-2.80853725318581

> <r_i_glide_evdw>
-30.2247066497803

> <r_i_glide_ecoul>
-6.45644426345825

> <r_i_glide_erotb>
0.0978806518121444

> <r_i_glide_esite>
0

> <r_i_glide_emodel>
-52.773172408925

> <r_i_glide_energy>
-36.6811509132385

> <r_i_glide_einternal>
2.71459436416626

> <i_i_glide_confnum>
2

> <i_i_glide_posenum>
325

> <r_i_glide_eff_state_penalty>
0

> <s_user_duplicate_titles>
CHEMBL267_lig3768

> <i_f3d_flags>
0

> <s_m_subgroup_title>
dock_pv

> <s_m_subgroupid>
dock_pv

> <b_m_subgroup_collapsed>
1

$$$$
CHEMBL267_lig55
                    3D
 Schrodinger Suite 2021-1.
 40 43  0  0  1  0            999 V2000
    2.4858    8.7416    6.9049 N   0  0  0  0  0  0
    3.5965    8.0788    7.2455 C   0  0  0  0  0  0
    4.8704    8.3708    6.6980 C   0  0  0  0  0  0
    4.9787    9.3589    5.7996 N   0  0  0  0  0  0
    3.8723   10.0615    5.4267 C   0  0  0  0  0  0
    3.9771   11.1107    4.4820 C   0  0  0  0  0  0
    2.8367   11.8190    4.1075 C   0  0  0  0  0  0
    1.5938   11.5064    4.6538 C   0  0  0  0  0  0
    1.4617   10.4788    5.5880 C   0  0  0  0  0  0
    2.5999    9.7421    5.9878 C   0  0  0  0  0  0
    3.7436    7.0385    8.1446 N   0  0  0  0  0  0
    5.8426    7.4759    7.2729 C   0  0  0  0  0  0
    5.0787    6.6369    8.1031 C   0  0  0  0  0  0
    7.2743    7.3678    7.0518 C   0  0  0  0  0  0
    7.9783    6.5171    7.5880 O   0  0  0  0  0  0
    7.7902    8.2366    6.1847 N   0  0  0  0  0  0
    2.6914    6.4686    8.9114 C   0  0  0  0  0  0
    2.5803    6.6986   10.2970 C   0  0  0  0  0  0
    1.4849    6.1806   10.9933 C   0  0  0  0  0  0
    0.5477    5.3798   10.3458 C   0  0  0  0  0  0
    0.6992    5.0855    8.9943 C   0  0  0  0  0  0
    1.7540    5.6465    8.2709 C   0  0  0  0  0  0
    5.4626    5.5127    8.7880 N   0  0  0  0  0  0
    3.6222    7.4815   11.0772 C   0  0  0  0  0  0
   -0.1864    4.2371    8.3878 O   0  0  0  0  0  0
    4.9391   11.3536    4.0533 H   0  0  0  0  0  0
    2.9160   12.6149    3.3812 H   0  0  0  0  0  0
    0.7223   12.0676    4.3465 H   0  0  0  0  0  0
    0.4950   10.2378    6.0052 H   0  0  0  0  0  0
    7.2065    8.9416    5.7609 H   0  0  0  0  0  0
    8.7666    8.1588    5.9398 H   0  0  0  0  0  0
    1.3700    6.3656   12.0514 H   0  0  0  0  0  0
   -0.2806    4.9676   10.9057 H   0  0  0  0  0  0
    1.8434    5.4343    7.2154 H   0  0  0  0  0  0
    6.4196    5.1827    8.7535 H   0  0  0  0  0  0
    4.8375    5.0383    9.4301 H   0  0  0  0  0  0
    3.6651    8.5194   10.7494 H   0  0  0  0  0  0
    3.4438    7.4401   12.1532 H   0  0  0  0  0  0
    4.5979    7.0354   10.9204 H   0  0  0  0  0  0
   -0.9608    4.0678    8.9313 H   0  0  0  0  0  0
  1  2  2  0  0  0
  1 10  1  0  0  0
  2  3  1  0  0  0
  2 11  1  0  0  0
  3  4  2  0  0  0
  3 12  1  0  0  0
  4  5  1  0  0  0
  5  6  2  0  0  0
  5 10  1  0  0  0
  6  7  1  0  0  0
  6 26  1  0  0  0
  7  8  2  0  0  0
  7 27  1  0  0  0
  8  9  1  0  0  0
  8 28  1  0  0  0
  9 10  2  0  0  0
  9 29  1  0  0  0
 11 13  1  0  0  0
 11 17  1  0  0  0
 12 13  2  0  0  0
 12 14  1  0  0  0
 13 23  1  0  0  0
 14 15  2  0  0  0
 14 16  1  0  0  0
 16 30  1  0  0  0
 16 31  1  0  0  0
 17 18  1  0  0  0
 17 22  2  0  0  0
 18 19  2  0  0  0
 18 24  1  0  0  0
 19 20  1  0  0  0
 19 32  1  0  0  0
 20 21  2  0  0  0
 20 33  1  0  0  0
 21 22  1  0  0  0
 21 25  1  0  0  0
 22 34  1  0  0  0
 23 35  1  0  0  0
 23 36  1  0  0  0
 24 37  1  0  0  0
 24 38  1  0  0  0
 24 39  1  0  0  0
 25 40  1  0  0  0
M  END
> <s_m_entry_id>
31996

> <s_m_entry_name>
dock_pv.259

> <s_m_Source_Path>
/home/csk/Desktop/cluster/DUD-E-result/src

> <s_m_Source_File>
dock_pv.maegz

> <i_m_Source_File_Index>
259

> <chembl_id>
CHEMBL3321809

> <chembl_pref_name>
None

> <i_lp_mmshare_version>
53161

> <r_lp_tautomer_probability>
1

> <s_lp_Force_Field>
OPLS_2005

> <r_lp_Energy>
34.577904

> <b_lp_Chiralities_Consistent>
1

> <s_lp_Variant>
CHEMBL267_lig55-1

> <s_i_glide_gridfile>
glide-grid_3el8

> <i_i_glide_lignum>
84

> <i_i_glide_rotatable_bonds>
3

> <r_i_docking_score>
-7.62416832120293

> <r_i_glide_ligand_efficiency>
-0.304966732848117

> <r_i_glide_ligand_efficiency_sa>
-0.891728135455932

> <r_i_glide_ligand_efficiency_ln>
-1.80715637001265

> <r_i_glide_gscore>
-7.62416832120293

> <r_i_glide_lipo>
-2.319518158979

> <r_i_glide_hbond>
-0.56065106192488

> <r_i_glide_metal>
0

> <r_i_glide_rewards>
-2.04548652482586

> <r_i_glide_evdw>
-38.5770492553711

> <r_i_glide_ecoul>
-6.26177263259888

> <r_i_glide_erotb>
0.169605782185196

> <r_i_glide_esite>
0

> <r_i_glide_emodel>
-64.5745314032058

> <r_i_glide_energy>
-44.83882188797

> <r_i_glide_einternal>
1.28071808815002

> <i_i_glide_confnum>
1

> <i_i_glide_posenum>
38

> <r_i_glide_eff_state_penalty>
0

> <s_user_duplicate_titles>
CHEMBL267_lig55

> <i_f3d_flags>
0

> <s_m_subgroup_title>
dock_pv

> <s_m_subgroupid>
dock_pv

> <b_m_subgroup_collapsed>
1

$$$$
CHEMBL267_lig1532
                    3D
 Schrodinger Suite 2021-1.
 43 46  0  0  1  0            999 V2000
    7.5568    6.6344    7.5868 N   0  0  0  0  0  0
    7.9719    7.5766    6.7048 C   0  0  0  0  0  0
    7.2146    8.4938    6.0527 N   0  0  0  0  0  0
    6.2350    6.6133    7.8884 C   0  0  0  0  0  0
    5.3363    7.5369    7.3151 C   0  0  0  0  0  0
    5.9140    8.4399    6.3754 C   0  0  0  0  0  0
    4.8978    9.2288    5.8552 N   0  0  0  0  0  0
    3.7116    8.8074    6.4254 C   0  0  0  0  0  0
    3.9306    7.8388    7.3902 C   0  0  0  0  0  0
    2.9192    7.2604    8.3149 C   0  0  0  0  0  0
    3.2058    7.2101    9.6805 C   0  0  0  0  0  0
    2.2762    6.6918   10.5941 C   0  0  0  0  0  0
    1.0547    6.2177   10.1109 C   0  0  0  0  0  0
    0.7594    6.2598    8.7477 C   0  0  0  0  0  0
    1.6900    6.7865    7.8507 C   0  0  0  0  0  0
    5.7978    5.5685    8.6998 N   0  0  0  0  0  0
    5.0544   10.2930    4.8451 C   0  0  0  0  0  0
    4.8846    9.7741    3.4118 C   0  0  0  0  0  0
    3.3982    9.9775    3.0841 C   0  0  0  0  0  0
    2.8938   11.1104    3.9958 C   0  0  0  0  0  0
    4.0379   11.4422    4.9698 C   0  0  0  0  0  0
    2.4770    6.6367   11.9591 O   0  0  0  0  0  0
    3.7319    7.0381   12.5088 C   0  0  0  0  0  0
    9.0267    7.5836    6.4686 H   0  0  0  0  0  0
    2.7849    9.2841    6.1447 H   0  0  0  0  0  0
    4.1522    7.6002   10.0228 H   0  0  0  0  0  0
    0.3248    5.8179   10.8009 H   0  0  0  0  0  0
   -0.1883    5.8820    8.3886 H   0  0  0  0  0  0
    1.4579    6.8165    6.7961 H   0  0  0  0  0  0
    4.8183    5.4900    8.9358 H   0  0  0  0  0  0
    6.4791    4.8991    9.0383 H   0  0  0  0  0  0
    6.0687   10.6478    5.0385 H   0  0  0  0  0  0
    5.4931   10.3731    2.7313 H   0  0  0  0  0  0
    5.2091    8.7400    3.2833 H   0  0  0  0  0  0
    3.2520   10.2281    2.0322 H   0  0  0  0  0  0
    2.8409    9.0600    3.2790 H   0  0  0  0  0  0
    2.6180   11.9903    3.4121 H   0  0  0  0  0  0
    1.9970   10.7994    4.5337 H   0  0  0  0  0  0
    3.6950   11.6037    5.9923 H   0  0  0  0  0  0
    4.5144   12.3755    4.6647 H   0  0  0  0  0  0
    3.7986    6.6888   13.5381 H   0  0  0  0  0  0
    4.5956    6.6368   11.9794 H   0  0  0  0  0  0
    3.8234    8.1225   12.5170 H   0  0  0  0  0  0
  1  2  2  0  0  0
  1  4  1  0  0  0
  2  3  1  0  0  0
  2 24  1  0  0  0
  3  6  2  0  0  0
  4  5  2  0  0  0
  4 16  1  0  0  0
  5  9  1  0  0  0
  5  6  1  0  0  0
  6  7  1  0  0  0
  7 17  1  0  0  0
  7  8  1  0  0  0
  8  9  2  0  0  0
  8 25  1  0  0  0
  9 10  1  0  0  0
 10 15  1  0  0  0
 10 11  2  0  0  0
 11 12  1  0  0  0
 11 26  1  0  0  0
 12 13  2  0  0  0
 12 22  1  0  0  0
 13 14  1  0  0  0
 13 27  1  0  0  0
 14 15  2  0  0  0
 14 28  1  0  0  0
 15 29  1  0  0  0
 16 30  1  0  0  0
 16 31  1  0  0  0
 17 18  1  0  0  0
 17 21  1  0  0  0
 17 32  1  0  0  0
 18 19  1  0  0  0
 18 33  1  0  0  0
 18 34  1  0  0  0
 19 20  1  0  0  0
 19 35  1  0  0  0
 19 36  1  0  0  0
 20 21  1  0  0  0
 20 37  1  0  0  0
 20 38  1  0  0  0
 21 39  1  0  0  0
 21 40  1  0  0  0
 22 23  1  0  0  0
 23 41  1  0  0  0
 23 42  1  0  0  0
 23 43  1  0  0  0
M  END
> <s_m_entry_id>
31997

> <s_m_entry_name>
dock_pv.260

> <s_m_Source_Path>
/home/csk/Desktop/cluster/DUD-E-result/src

> <s_m_Source_File>
dock_pv.maegz

> <i_m_Source_File_Index>
260

> <chembl_id>
CHEMBL168382

> <chembl_pref_name>
None

> <i_lp_mmshare_version>
53161

> <r_lp_tautomer_probability>
1

> <s_lp_Force_Field>
OPLS_2005

> <r_lp_Energy>
37.641009

> <b_lp_Chiralities_Consistent>
1

> <s_lp_Variant>
CHEMBL267_lig1532-1

> <s_i_glide_gridfile>
glide-grid_3el8

> <i_i_glide_lignum>
1713

> <i_i_glide_rotatable_bonds>
3

> <r_i_docking_score>
-7.61078006790643

> <r_i_glide_ligand_efficiency>
-0.330903481213323

> <r_i_glide_ligand_efficiency_sa>
-0.941045482756954

> <r_i_glide_ligand_efficiency_ln>
-1.84035563115797

> <r_i_glide_gscore>
-7.61078006790643

> <r_i_glide_lipo>
-2.33036469630627

> <r_i_glide_hbond>
-0.326117775823683

> <r_i_glide_metal>
0

> <r_i_glide_rewards>
-2.73553881532794

> <r_i_glide_evdw>
-35.5732269287109

> <r_i_glide_ecoul>
-4.74974155426025

> <r_i_glide_erotb>
0.272363799126053

> <r_i_glide_esite>
0

> <r_i_glide_emodel>
-57.4095238976576

> <r_i_glide_energy>
-40.3229684829712

> <r_i_glide_einternal>
1.20918190479279

> <i_i_glide_confnum>
33

> <i_i_glide_posenum>
214

> <r_i_glide_eff_state_penalty>
0

> <s_user_duplicate_titles>
CHEMBL267_lig1532,281827

> <i_f3d_flags>
0

> <s_m_subgroup_title>
dock_pv

> <s_m_subgroupid>
dock_pv

> <b_m_subgroup_collapsed>
1

$$$$
CHEMBL267_lig431
                    3D
 Schrodinger Suite 2021-1.
 48 51  0  0  1  0            999 V2000
    2.4929    7.4834    7.2635 C   0  0  0  0  0  0
    3.4981    7.0867    8.1403 N   0  0  0  0  0  0
    3.0997    8.2219    6.2000 C   0  0  0  0  0  0
    4.5095    8.3356    6.5049 C   0  0  0  0  0  0
    4.6812    7.6180    7.6747 C   0  0  0  0  0  0
    3.3909    6.3273    9.3981 C   0  0  2  0  0  0
    1.1811    7.2184    7.3600 N   0  0  0  0  0  0
    2.2086    8.6161    5.1733 C   0  0  0  0  0  0
    5.5753    9.1282    5.8225 C   0  0  0  0  0  0
    1.1655    5.7122   10.0307 N   0  0  1  0  0  0
    0.8839    8.3480    5.2341 N   0  0  0  0  0  0
    2.3614    5.1807    9.3770 C   0  0  0  0  0  0
    0.4446    7.6723    6.3194 C   0  0  0  0  0  0
    2.9229    7.2201   10.5550 C   0  0  0  0  0  0
   -0.6128    4.0145    9.2769 C   0  0  0  0  0  0
    6.8994    8.6661    5.7878 C   0  0  0  0  0  0
    0.1440    4.7229   10.4240 C   0  0  0  0  0  0
    1.7418    6.4563   11.1469 C   0  0  0  0  0  0
   -0.2018    3.9740    8.1139 O   0  0  0  0  0  0
    2.6344    9.2485    4.0141 N   0  0  0  0  0  0
    7.8976    9.4366    5.1883 C   0  0  0  0  0  0
   -1.7625    3.4428    9.7015 O   0  0  0  0  0  0
    5.2702   10.3644    5.2414 C   0  0  0  0  0  0
    9.2088    9.0354    5.1883 O   0  0  0  0  0  0
    6.2611   11.1194    4.6170 C   0  0  0  0  0  0
    7.5749   10.6518    4.5919 C   0  0  0  0  0  0
   -2.6113    2.7647    8.7890 C   0  0  0  0  0  0
    5.5835    7.4663    8.2523 H   0  0  0  0  0  0
    4.3847    5.9136    9.5729 H   0  0  0  0  0  0
    2.7147    4.3152    9.9446 H   0  0  0  0  0  0
    2.1646    4.7763    8.3815 H   0  0  0  0  0  0
   -0.6118    7.4466    6.3535 H   0  0  0  0  0  0
    2.5982    8.2118   10.2342 H   0  0  0  0  0  0
    3.7043    7.3575   11.3040 H   0  0  0  0  0  0
    7.1521    7.7208    6.2426 H   0  0  0  0  0  0
   -0.5980    5.2222   11.0499 H   0  0  0  0  0  0
    0.5968    3.9565   11.0516 H   0  0  0  0  0  0
    0.9979    7.1076   11.5840 H   0  0  0  0  0  0
    2.0337    5.8339   11.9868 H   0  0  0  0  0  0
    3.6175    9.4242    3.8744 H   0  0  0  0  0  0
    1.9520    9.4501    3.2986 H   0  0  0  0  0  0
    4.2703   10.7703    5.3016 H   0  0  0  0  0  0
    9.3521    8.1036    5.3939 H   0  0  0  0  0  0
    6.0179   12.0763    4.1742 H   0  0  0  0  0  0
    8.3478   11.2478    4.1280 H   0  0  0  0  0  0
   -3.4968    2.3974    9.3056 H   0  0  0  0  0  0
   -2.1030    1.9123    8.3319 H   0  0  0  0  0  0
   -2.9418    3.4342    7.9931 H   0  0  0  0  0  0
  1  2  1  0  0  0
  1  3  2  0  0  0
  1  7  1  0  0  0
  2  5  1  0  0  0
  2  6  1  0  0  0
  3  4  1  0  0  0
  3  8  1  0  0  0
  4  9  1  0  0  0
  4  5  2  0  0  0
  5 28  1  0  0  0
  6 12  1  0  0  0
  6 14  1  0  0  0
  6 29  1  0  0  0
  7 13  2  0  0  0
  8 20  1  0  0  0
  8 11  2  0  0  0
  9 16  2  0  0  0
  9 23  1  0  0  0
 10 12  1  0  0  0
 10 17  1  0  0  0
 10 18  1  0  0  0
 11 13  1  0  0  0
 12 30  1  0  0  0
 12 31  1  0  0  0
 13 32  1  0  0  0
 14 18  1  0  0  0
 14 33  1  0  0  0
 14 34  1  0  0  0
 15 17  1  0  0  0
 15 19  2  0  0  0
 15 22  1  0  0  0
 16 21  1  0  0  0
 16 35  1  0  0  0
 17 36  1  0  0  0
 17 37  1  0  0  0
 18 38  1  0  0  0
 18 39  1  0  0  0
 20 40  1  0  0  0
 20 41  1  0  0  0
 21 24  1  0  0  0
 21 26  2  0  0  0
 22 27  1  0  0  0
 23 25  2  0  0  0
 23 42  1  0  0  0
 24 43  1  0  0  0
 25 26  1  0  0  0
 25 44  1  0  0  0
 26 45  1  0  0  0
 27 46  1  0  0  0
 27 47  1  0  0  0
 27 48  1  0  0  0
M  END
> <s_m_entry_id>
31998

> <s_m_entry_name>
dock_pv.261

> <s_m_Source_Path>
/home/csk/Desktop/cluster/DUD-E-result/src

> <s_m_Source_File>
dock_pv.maegz

> <i_m_Source_File_Index>
261

> <chembl_id>
CHEMBL355019

> <chembl_pref_name>
None

> <i_lp_mmshare_version>
53161

> <r_lp_tautomer_probability>
0.999999999997365

> <s_lp_Force_Field>
OPLS_2005

> <r_lp_Energy>
36.444494

> <b_lp_Chiralities_Consistent>
1

> <s_lp_Variant>
CHEMBL267_lig431-1

> <s_i_glide_gridfile>
glide-grid_3el8

> <i_i_glide_lignum>
512

> <i_i_glide_rotatable_bonds>
6

> <r_i_docking_score>
-7.61023470663357

> <r_i_glide_ligand_efficiency>
-0.281860544690132

> <r_i_glide_ligand_efficiency_sa>
-0.84558163314143

> <r_i_glide_ligand_efficiency_ln>
-1.77153717517957

> <r_i_glide_gscore>
-7.61023470663357

> <r_i_glide_lipo>
-2.96109610629622

> <r_i_glide_hbond>
-0.560178745833385

> <r_i_glide_metal>
0

> <r_i_glide_rewards>
-1.79250800477651

> <r_i_glide_evdw>
-40.6008415222168

> <r_i_glide_ecoul>
-5.58061504364014

> <r_i_glide_erotb>
0.570682482929404

> <r_i_glide_esite>
0

> <r_i_glide_emodel>
-64.116883391233

> <r_i_glide_energy>
-46.1814565658569

> <r_i_glide_einternal>
4.77720355987549

> <i_i_glide_confnum>
49

> <i_i_glide_posenum>
370

> <r_i_glide_eff_state_penalty>
0

> <s_user_duplicate_titles>
CHEMBL267_lig431

> <i_f3d_flags>
0

> <s_m_subgroup_title>
dock_pv

> <s_m_subgroupid>
dock_pv

> <b_m_subgroup_collapsed>
1

$$$$
CHEMBL267_lig3432
                    3D
 Schrodinger Suite 2021-1.
 26 29  0  0  1  0            999 V2000
    8.1039   10.6371    4.3880 S   0  0  0  0  0  0
    8.1984    6.6936    7.5879 O   0  0  0  0  0  0
    6.1771    7.7526    7.1375 N   0  0  0  0  0  0
    4.1211    8.4720    6.7900 N   0  0  0  0  0  0
    5.4057    7.0543    7.9840 N   0  0  0  0  0  0
    8.1311    8.4340    6.0602 N   0  0  0  0  0  0
    0.6579    6.0048    9.6609 N   0  0  0  0  0  0
    5.3711    8.6351    6.4541 C   0  0  0  0  0  0
    6.0168    9.5682    5.5414 C   0  0  0  0  0  0
    7.3988    9.4241    5.4050 C   0  0  0  0  0  0
    4.1946    7.5152    7.7120 C   0  0  0  0  0  0
    7.5980    7.5709    6.9681 C   0  0  0  0  0  0
    5.5199   10.6289    4.7750 C   0  0  0  0  0  0
    2.9718    6.9876    8.3904 C   0  0  0  0  0  0
    6.5245   11.3021    4.0844 C   0  0  0  0  0  0
    3.0471    6.3655    9.6445 C   0  0  0  0  0  0
    1.7139    7.0993    7.7806 C   0  0  0  0  0  0
    1.8764    5.9038   10.2452 C   0  0  0  0  0  0
    0.5970    6.5888    8.4401 C   0  0  0  0  0  0
    9.1182    8.3113    5.8867 H   0  0  0  0  0  0
    4.4750   10.8995    4.7386 H   0  0  0  0  0  0
    6.4159   12.1573    3.4315 H   0  0  0  0  0  0
    3.9917    6.2376   10.1518 H   0  0  0  0  0  0
    1.6048    7.5537    6.8069 H   0  0  0  0  0  0
    1.9049    5.4383   11.2168 H   0  0  0  0  0  0
   -0.3810    6.6375    7.9894 H   0  0  0  0  0  0
  1 10  1  0  0  0
  1 15  1  0  0  0
  2 12  2  0  0  0
  3  5  1  0  0  0
  3  8  1  0  0  0
  3 12  1  0  0  0
  4  8  2  0  0  0
  4 11  1  0  0  0
  5 11  2  0  0  0
  6 10  1  0  0  0
  6 12  1  0  0  0
  6 20  1  0  0  0
  7 18  2  0  0  0
  7 19  1  0  0  0
  8  9  1  0  0  0
  9 10  2  0  0  0
  9 13  1  0  0  0
 11 14  1  0  0  0
 13 15  2  0  0  0
 13 21  1  0  0  0
 14 16  2  0  0  0
 14 17  1  0  0  0
 15 22  1  0  0  0
 16 18  1  0  0  0
 16 23  1  0  0  0
 17 19  2  0  0  0
 17 24  1  0  0  0
 18 25  1  0  0  0
 19 26  1  0  0  0
M  END
> <s_m_entry_id>
31999

> <s_m_entry_name>
dock_pv.262

> <s_m_Source_Path>
/home/csk/Desktop/cluster/DUD-E-result/src

> <s_m_Source_File>
dock_pv.maegz

> <i_m_Source_File_Index>
262

> <chembl_id>
CHEMBL1968151

> <chembl_pref_name>
None

> <i_lp_mmshare_version>
53161

> <r_lp_tautomer_probability>
1

> <s_lp_Force_Field>
OPLS_2005

> <r_lp_Energy>
21.580623

> <b_lp_Chiralities_Consistent>
1

> <s_lp_Variant>
CHEMBL267_lig3432-1

> <s_i_glide_gridfile>
glide-grid_3el8

> <i_i_glide_lignum>
4105

> <i_i_glide_rotatable_bonds>
1

> <r_i_docking_score>
-7.60846266889587

> <r_i_glide_ligand_efficiency>
-0.400445403626098

> <r_i_glide_ligand_efficiency_sa>
-1.06854917421025

> <r_i_glide_ligand_efficiency_ln>
-1.92890870135954

> <r_i_glide_gscore>
-7.60846266889587

> <r_i_glide_lipo>
-1.5669927813191

> <r_i_glide_hbond>
-0.32

> <r_i_glide_metal>
0

> <r_i_glide_rewards>
-3.59416392386747

> <r_i_glide_evdw>
-31.3659973144531

> <r_i_glide_ecoul>
-5.36921310424805

> <r_i_glide_erotb>
0.246375867650558

> <r_i_glide_esite>
0

> <r_i_glide_emodel>
-52.8016919156292

> <r_i_glide_energy>
-36.7352104187012

> <r_i_glide_einternal>
1.06282603740692

> <i_i_glide_confnum>
2

> <i_i_glide_posenum>
377

> <r_i_glide_eff_state_penalty>
0

> <s_user_duplicate_titles>
CHEMBL267_lig3432

> <i_f3d_flags>
0

> <s_m_subgroup_title>
dock_pv

> <s_m_subgroupid>
dock_pv

> <b_m_subgroup_collapsed>
1

$$$$
CHEMBL267_lig618
                    3D
 Schrodinger Suite 2021-1.
 61 65  0  0  1  0            999 V2000
    2.7600    5.3236    8.3922 C   0  0  0  0  0  0
    2.7607    6.6540    7.9224 C   0  0  0  0  0  0
    0.5561    4.0576    8.8473 C   0  0  0  0  0  0
   -0.1546    5.0930    9.5536 C   0  0  0  0  0  0
    1.8111    4.2071    8.3948 C   0  0  0  0  0  0
    4.0345    5.0370    8.7879 N   0  0  0  0  0  0
    4.1233    7.0347    7.8289 C   0  0  0  0  0  0
   -1.2286   -0.9865    7.9057 S   0  0  0  0  0  0
   -0.3587    2.9085    8.7761 C   0  0  0  0  0  0
   -1.4020    4.6370    9.6264 N   0  0  0  0  0  0
    4.8880    6.0002    8.3620 C   0  0  0  0  0  0
   -1.5786    3.3640    9.1911 C   0  0  0  0  0  0
   -0.2449    1.5730    8.3880 C   0  0  0  0  0  0
   -1.3657    0.7319    8.3879 C   0  0  0  0  0  0
    1.5980    7.4801    7.4042 C   0  0  0  0  0  0
    1.4539    7.3281    5.9540 N   0  0  0  0  0  0
    0.1971   -1.2511    7.7001 O   0  0  0  0  0  0
   -2.0049   -1.7733    8.8695 O   0  0  0  0  0  0
    0.2304    6.1824    9.9767 O   0  0  0  0  0  0
   -2.7209    2.5700    9.1880 C   0  0  0  0  0  0
   -2.6020    1.2375    8.7881 C   0  0  0  0  0  0
    0.1809    7.7811    3.4523 O   0  0  0  0  0  0
   -2.0835   -1.0997    6.2265 C   0  0  0  0  0  0
    4.7972    8.2115    7.1441 C   0  0  0  0  0  0
    6.3927    5.8171    8.2447 C   0  0  0  0  0  0
    0.2174    6.6260    5.5855 C   0  0  0  0  0  0
    1.6314    8.5918    5.2249 C   0  0  0  0  0  0
    1.4263    8.4130    3.7052 C   0  0  0  0  0  0
    0.0798    6.4963    4.0553 C   0  0  0  0  0  0
   -3.0726   -2.2771    6.1734 C   0  0  0  0  0  0
    6.2167    8.3784    7.7368 C   0  0  0  0  0  0
    7.0394    7.0749    7.5935 C   0  0  0  0  0  0
    2.1980    3.3362    7.8940 H   0  0  0  0  0  0
    4.3270    4.1491    9.1687 H   0  0  0  0  0  0
   -2.1440    5.2403    9.9880 H   0  0  0  0  0  0
    0.6900    1.1699    8.0769 H   0  0  0  0  0  0
    1.7664    8.5251    7.6694 H   0  0  0  0  0  0
    0.6672    7.2175    7.8987 H   0  0  0  0  0  0
   -3.6779    2.9525    9.5099 H   0  0  0  0  0  0
   -3.4773    0.6040    8.7868 H   0  0  0  0  0  0
   -2.6005   -0.1630    6.0419 H   0  0  0  0  0  0
   -1.2811   -1.2038    5.5026 H   0  0  0  0  0  0
    4.8996    7.9833    6.0818 H   0  0  0  0  0  0
    4.1977    9.1144    7.1881 H   0  0  0  0  0  0
    6.8391    5.5413    9.1877 H   0  0  0  0  0  0
    6.6036    4.9544    7.6113 H   0  0  0  0  0  0
   -0.6398    7.1680    5.9867 H   0  0  0  0  0  0
    0.1954    5.6440    6.0567 H   0  0  0  0  0  0
    2.6244    8.9948    5.4232 H   0  0  0  0  0  0
    0.9236    9.3316    5.6028 H   0  0  0  0  0  0
    2.2340    7.8376    3.2545 H   0  0  0  0  0  0
    1.4274    9.3850    3.2121 H   0  0  0  0  0  0
    0.8396    5.8276    3.6487 H   0  0  0  0  0  0
   -0.8890    6.0643    3.8030 H   0  0  0  0  0  0
   -3.5256   -2.3635    5.1885 H   0  0  0  0  0  0
   -2.5938   -3.2304    6.3899 H   0  0  0  0  0  0
   -3.8795   -2.1417    6.8949 H   0  0  0  0  0  0
    6.1526    8.6590    8.7880 H   0  0  0  0  0  0
    6.7307    9.1989    7.2346 H   0  0  0  0  0  0
    8.0451    7.2211    7.9879 H   0  0  0  0  0  0
    7.1845    6.8875    6.5285 H   0  0  0  0  0  0
  1  2  2  0  0  0
  1  5  1  0  0  0
  1  6  1  0  0  0
  2  7  1  0  0  0
  2 15  1  0  0  0
  3  5  2  0  0  0
  3  4  1  0  0  0
  3  9  1  0  0  0
  4 10  1  0  0  0
  4 19  2  0  0  0
  5 33  1  0  0  0
  6 11  1  0  0  0
  6 34  1  0  0  0
  7 24  1  0  0  0
  7 11  2  0  0  0
  8 14  1  0  0  0
  8 17  2  0  0  0
  8 18  2  0  0  0
  8 23  1  0  0  0
  9 12  1  0  0  0
  9 13  2  0  0  0
 10 12  1  0  0  0
 10 35  1  0  0  0
 11 25  1  0  0  0
 12 20  2  0  0  0
 13 14  1  0  0  0
 13 36  1  0  0  0
 14 21  2  0  0  0
 15 16  1  0  0  0
 15 37  1  0  0  0
 15 38  1  0  0  0
 16 26  1  0  0  0
 16 27  1  0  0  0
 20 21  1  0  0  0
 20 39  1  0  0  0
 21 40  1  0  0  0
 22 28  1  0  0  0
 22 29  1  0  0  0
 23 30  1  0  0  0
 23 41  1  0  0  0
 23 42  1  0  0  0
 24 31  1  0  0  0
 24 43  1  0  0  0
 24 44  1  0  0  0
 25 32  1  0  0  0
 25 45  1  0  0  0
 25 46  1  0  0  0
 26 29  1  0  0  0
 26 47  1  0  0  0
 26 48  1  0  0  0
 27 28  1  0  0  0
 27 49  1  0  0  0
 27 50  1  0  0  0
 28 51  1  0  0  0
 28 52  1  0  0  0
 29 53  1  0  0  0
 29 54  1  0  0  0
 30 55  1  0  0  0
 30 56  1  0  0  0
 30 57  1  0  0  0
 31 32  1  0  0  0
 31 58  1  0  0  0
 31 59  1  0  0  0
 32 60  1  0  0  0
 32 61  1  0  0  0
M  END
> <s_m_entry_id>
32000

> <s_m_entry_name>
dock_pv.263

> <s_m_Source_Path>
/home/csk/Desktop/cluster/DUD-E-result/src

> <s_m_Source_File>
dock_pv.maegz

> <i_m_Source_File_Index>
263

> <chembl_id>
CHEMBL55594

> <chembl_pref_name>
None

> <i_lp_mmshare_version>
53161

> <r_lp_tautomer_probability>
1

> <s_lp_Force_Field>
OPLS_2005

> <r_lp_Energy>
47.728544

> <b_lp_Chiralities_Consistent>
1

> <s_lp_Variant>
CHEMBL267_lig618-1

> <s_i_glide_gridfile>
glide-grid_3el8

> <i_i_glide_lignum>
721

> <i_i_glide_rotatable_bonds>
5

> <r_i_docking_score>
-7.60411483334687

> <r_i_glide_ligand_efficiency>
-0.23762858854209

> <r_i_glide_ligand_efficiency_sa>
-0.754423741987319

> <r_i_glide_ligand_efficiency_ln>
-1.70276859152813

> <r_i_glide_gscore>
-7.60411483334687

> <r_i_glide_lipo>
-4.34625094170485

> <r_i_glide_hbond>
-0.182463499006844

> <r_i_glide_metal>
0

> <r_i_glide_rewards>
-0.916745873313524

> <r_i_glide_evdw>
-36.2024688720703

> <r_i_glide_ecoul>
-4.33684253692627

> <r_i_glide_erotb>
0.387195992159201

> <r_i_glide_esite>
-0.0852006873383971

> <r_i_glide_emodel>
-37.668117058172

> <r_i_glide_energy>
-40.5393114089966

> <r_i_glide_einternal>
6.14946174621582

> <i_i_glide_confnum>
2

> <i_i_glide_posenum>
11

> <r_i_glide_eff_state_penalty>
0

> <s_user_duplicate_titles>
CHEMBL267_lig618,86516

> <i_f3d_flags>
0

> <s_m_subgroup_title>
dock_pv

> <s_m_subgroupid>
dock_pv

> <b_m_subgroup_collapsed>
1

$$$$
CHEMBL267_lig1846
                    3D
 Schrodinger Suite 2021-1.
 45 47  0  0  1  0            999 V2000
    7.8162    7.1310    7.2855 N   0  0  0  0  0  0
    8.1601    8.0940    6.3900 C   0  0  0  0  0  0
    7.3329    8.9528    5.7366 N   0  0  0  0  0  0
    6.4989    7.0168    7.5863 C   0  0  0  0  0  0
    5.5435    7.8723    7.0086 C   0  0  0  0  0  0
    6.0423    8.8016    6.0699 C   0  0  0  0  0  0
    4.9313    9.4659    5.5749 N   0  0  0  0  0  0
    3.8002    9.0223    6.1659 N   0  0  0  0  0  0
    4.1310    8.1046    7.0444 C   0  0  0  0  0  0
    3.1132    7.4541    7.9084 C   0  0  0  0  0  0
    3.3161    7.3672    9.2877 C   0  0  0  0  0  0
    2.3865    6.7232   10.1219 C   0  0  0  0  0  0
    1.2512    6.1288    9.5488 C   0  0  0  0  0  0
    1.0415    6.2398    8.1637 C   0  0  0  0  0  0
    1.9618    6.8974    7.3554 C   0  0  0  0  0  0
    6.1176    5.9452    8.3874 N   0  0  0  0  0  0
    2.5253    6.6349   11.4973 O   0  0  0  0  0  0
    0.3868    5.4606   10.3987 O   0  0  0  0  0  0
   -0.6253    4.5977    9.8780 C   0  0  0  0  0  0
    3.7134    7.1151   12.1209 C   0  0  0  0  0  0
    4.8344   10.5209    4.5555 C   0  0  0  0  0  0
    5.3908   10.0182    3.2070 C   0  0  0  0  0  0
    5.5287   11.8038    5.0533 C   0  0  0  0  0  0
   -0.0376    3.3359    9.2225 C   0  0  0  0  0  0
    9.2124    8.1831    6.1631 H   0  0  0  0  0  0
    4.2029    7.8200    9.7026 H   0  0  0  0  0  0
    0.1741    5.8116    7.6910 H   0  0  0  0  0  0
    1.7890    6.9541    6.2916 H   0  0  0  0  0  0
    5.1387    5.8098    8.5980 H   0  0  0  0  0  0
    6.8240    5.3103    8.7391 H   0  0  0  0  0  0
   -1.2517    4.2982   10.7202 H   0  0  0  0  0  0
   -1.2889    5.1251    9.1909 H   0  0  0  0  0  0
    3.6791    6.8899   13.1882 H   0  0  0  0  0  0
    4.5989    6.6372   11.7089 H   0  0  0  0  0  0
    3.8204    8.1947   12.0134 H   0  0  0  0  0  0
    3.7755   10.7543    4.4103 H   0  0  0  0  0  0
    5.2280   10.7565    2.4198 H   0  0  0  0  0  0
    6.4640    9.8292    3.2571 H   0  0  0  0  0  0
    4.9012    9.0944    2.8956 H   0  0  0  0  0  0
    5.4047   12.6223    4.3400 H   0  0  0  0  0  0
    5.1183   12.1374    6.0087 H   0  0  0  0  0  0
    6.5984   11.6448    5.1884 H   0  0  0  0  0  0
   -0.8293    2.6457    8.9360 H   0  0  0  0  0  0
    0.5422    3.5621    8.3307 H   0  0  0  0  0  0
    0.6209    2.8136    9.9140 H   0  0  0  0  0  0
  1  2  2  0  0  0
  1  4  1  0  0  0
  2  3  1  0  0  0
  2 25  1  0  0  0
  3  6  2  0  0  0
  4  5  2  0  0  0
  4 16  1  0  0  0
  5  9  1  0  0  0
  5  6  1  0  0  0
  6  7  1  0  0  0
  7  8  1  0  0  0
  7 21  1  0  0  0
  8  9  2  0  0  0
  9 10  1  0  0  0
 10 15  1  0  0  0
 10 11  2  0  0  0
 11 12  1  0  0  0
 11 26  1  0  0  0
 12 13  2  0  0  0
 12 17  1  0  0  0
 13 14  1  0  0  0
 13 18  1  0  0  0
 14 15  2  0  0  0
 14 27  1  0  0  0
 15 28  1  0  0  0
 16 29  1  0  0  0
 16 30  1  0  0  0
 17 20  1  0  0  0
 18 19  1  0  0  0
 19 24  1  0  0  0
 19 31  1  0  0  0
 19 32  1  0  0  0
 20 33  1  0  0  0
 20 34  1  0  0  0
 20 35  1  0  0  0
 21 22  1  0  0  0
 21 23  1  0  0  0
 21 36  1  0  0  0
 22 37  1  0  0  0
 22 38  1  0  0  0
 22 39  1  0  0  0
 23 40  1  0  0  0
 23 41  1  0  0  0
 23 42  1  0  0  0
 24 43  1  0  0  0
 24 44  1  0  0  0
 24 45  1  0  0  0
M  END
> <s_m_entry_id>
32001

> <s_m_entry_name>
dock_pv.264

> <s_m_Source_Path>
/home/csk/Desktop/cluster/DUD-E-result/src

> <s_m_Source_File>
dock_pv.maegz

> <i_m_Source_File_Index>
264

> <chembl_id>
CHEMBL1242472

> <chembl_pref_name>
None

> <i_lp_mmshare_version>
53161

> <r_lp_tautomer_probability>
1

> <s_lp_Force_Field>
OPLS_2005

> <r_lp_Energy>
18.993813

> <b_lp_Chiralities_Consistent>
1

> <s_lp_Variant>
CHEMBL267_lig1846-1

> <s_i_glide_gridfile>
glide-grid_3el8

> <i_i_glide_lignum>
2113

> <i_i_glide_rotatable_bonds>
5

> <r_i_docking_score>
-7.60195069985518

> <r_i_glide_ligand_efficiency>
-0.316747945827299

> <r_i_glide_ligand_efficiency_sa>
-0.913659176562467

> <r_i_glide_ligand_efficiency_ln>
-1.81949563326284

> <r_i_glide_gscore>
-7.60195069985518

> <r_i_glide_lipo>
-2.37141413756905

> <r_i_glide_hbond>
-0.00937027298895579

> <r_i_glide_metal>
0

> <r_i_glide_rewards>
-2.86819769369106

> <r_i_glide_evdw>
-41.9269561767578

> <r_i_glide_ecoul>
-4.04553318023682

> <r_i_glide_erotb>
0.350209190267301

> <r_i_glide_esite>
0

> <r_i_glide_emodel>
-65.021928469272

> <r_i_glide_energy>
-45.9724893569946

> <r_i_glide_einternal>
3.18860173225403

> <i_i_glide_confnum>
1

> <i_i_glide_posenum>
53

> <r_i_glide_eff_state_penalty>
0

> <s_user_duplicate_titles>
CHEMBL267_lig1846

> <i_f3d_flags>
0

> <s_m_subgroup_title>
dock_pv

> <s_m_subgroupid>
dock_pv

> <b_m_subgroup_collapsed>
1

$$$$
CHEMBL267_lig1754
                    3D
 Schrodinger Suite 2021-1.
 39 42  0  0  1  0            999 V2000
    4.1686    6.9162    8.1696 N   0  0  0  0  0  0
    4.4580    7.8615    7.2361 C   0  0  0  0  0  0
    3.5644    8.4306    6.3771 N   0  0  0  0  0  0
    2.9095    6.4404    8.2513 C   0  0  0  0  0  0
    1.9407    6.9726    7.3884 C   0  0  0  0  0  0
    2.3123    7.9785    6.4636 C   0  0  0  0  0  0
    1.2434    8.3839    5.7074 N   0  0  0  0  0  0
    0.2502    7.6444    6.1351 C   0  0  0  0  0  0
    0.5980    6.7786    7.1461 N   0  0  0  0  0  0
    2.7043    5.4372    9.1964 N   0  0  0  0  0  0
    1.5034    4.7657    9.3928 C   0  0  0  0  0  0
    0.6414    5.2102   10.3878 C   0  0  0  0  0  0
   -0.6152    4.6375   10.4916 C   0  0  0  0  0  0
   -1.0213    3.6609    9.5859 C   0  0  0  0  0  0
   -0.1323    3.1677    8.6378 C   0  0  0  0  0  0
    1.1407    3.7191    8.5466 C   0  0  0  0  0  0
    5.7908    8.2506    7.1344 N   0  0  0  0  0  0
    6.3293    9.2356    6.1783 C   0  0  0  0  0  0
    7.5398    8.6858    5.3988 C   0  0  0  0  0  0
    8.5997    8.2371    6.2920 N   0  0  0  0  0  0
    8.0804    7.2168    7.1878 C   0  0  0  0  0  0
    6.8818    7.7507    7.9878 C   0  0  0  0  0  0
   -2.6285    3.0373    9.6447 Cl  0  0  0  0  0  0
   -0.0545    6.1382    7.5843 H   0  0  0  0  0  0
   -0.7679    7.6613    5.7675 H   0  0  0  0  0  0
    3.4945    5.1794    9.7745 H   0  0  0  0  0  0
    0.9277    6.0113   11.0536 H   0  0  0  0  0  0
   -1.3018    4.9845   11.2482 H   0  0  0  0  0  0
   -0.4365    2.3754    7.9707 H   0  0  0  0  0  0
    1.8217    3.3658    7.7887 H   0  0  0  0  0  0
    6.5964   10.1442    6.7200 H   0  0  0  0  0  0
    5.5723    9.5486    5.4596 H   0  0  0  0  0  0
    7.2326    7.8603    4.7547 H   0  0  0  0  0  0
    7.9459    9.4532    4.7400 H   0  0  0  0  0  0
    9.3635    7.8437    5.7482 H   0  0  0  0  0  0
    7.7981    6.3298    6.6193 H   0  0  0  0  0  0
    8.8792    6.9001    7.8571 H   0  0  0  0  0  0
    6.5365    6.9417    8.6292 H   0  0  0  0  0  0
    7.1902    8.5462    8.6686 H   0  0  0  0  0  0
  1  2  2  0  0  0
  1  4  1  0  0  0
  2 17  1  0  0  0
  2  3  1  0  0  0
  3  6  2  0  0  0
  4 10  1  0  0  0
  4  5  2  0  0  0
  5  9  1  0  0  0
  5  6  1  0  0  0
  6  7  1  0  0  0
  7  8  2  0  0  0
  8  9  1  0  0  0
  8 25  1  0  0  0
  9 24  1  0  0  0
 10 11  1  0  0  0
 10 26  1  0  0  0
 11 12  2  0  0  0
 11 16  1  0  0  0
 12 13  1  0  0  0
 12 27  1  0  0  0
 13 14  2  0  0  0
 13 28  1  0  0  0
 14 15  1  0  0  0
 14 23  1  0  0  0
 15 16  2  0  0  0
 15 29  1  0  0  0
 16 30  1  0  0  0
 17 18  1  0  0  0
 17 22  1  0  0  0
 18 19  1  0  0  0
 18 31  1  0  0  0
 18 32  1  0  0  0
 19 20  1  0  0  0
 19 33  1  0  0  0
 19 34  1  0  0  0
 20 21  1  0  0  0
 20 35  1  0  0  0
 21 22  1  0  0  0
 21 36  1  0  0  0
 21 37  1  0  0  0
 22 38  1  0  0  0
 22 39  1  0  0  0
M  END
> <s_m_entry_id>
32003

> <s_m_entry_name>
dock_pv.266

> <s_m_Source_Path>
/home/csk/Desktop/cluster/DUD-E-result/src

> <s_m_Source_File>
dock_pv.maegz

> <i_m_Source_File_Index>
266

> <chembl_id>
CHEMBL1173114

> <chembl_pref_name>
None

> <i_lp_mmshare_version>
53161

> <r_lp_tautomer_probability>
0.0419191988452545

> <s_lp_Force_Field>
OPLS_2005

> <r_lp_Energy>
31.421699

> <b_lp_Chiralities_Consistent>
1

> <s_lp_Variant>
CHEMBL267_lig1754-2

> <s_i_glide_gridfile>
glide-grid_3el8

> <i_i_glide_lignum>
1987

> <i_i_glide_rotatable_bonds>
3

> <r_i_docking_score>
-7.58706113737072

> <r_i_glide_ligand_efficiency>
-0.329872223363944

> <r_i_glide_ligand_efficiency_sa>
-0.938112722614459

> <r_i_glide_ligand_efficiency_ln>
-1.83462017868307

> <r_i_glide_gscore>
-7.58706113737072

> <r_i_glide_lipo>
-2.82374784609687

> <r_i_glide_hbond>
-0.547448627008112

> <r_i_glide_metal>
0

> <r_i_glide_rewards>
-2.18679379924182

> <r_i_glide_evdw>
-37.5364379882812

> <r_i_glide_ecoul>
-4.47206926345825

> <r_i_glide_erotb>
0.518561423908882

> <r_i_glide_esite>
0

> <r_i_glide_emodel>
-56.0849998556725

> <r_i_glide_energy>
-42.0085072517395

> <r_i_glide_einternal>
10.5572910308838

> <i_i_glide_confnum>
25

> <i_i_glide_posenum>
286

> <r_i_glide_eff_state_penalty>
0

> <s_user_duplicate_titles>
CHEMBL267_lig1754

> <i_f3d_flags>
0

> <s_m_subgroup_title>
dock_pv

> <s_m_subgroupid>
dock_pv

> <b_m_subgroup_collapsed>
1

$$$$
CHEMBL267_lig837
                    3D
 Schrodinger Suite 2021-1.
 38 41  0  0  1  0            999 V2000
    0.9238    6.1914    8.7041 C   0  0  0  0  0  0
    2.0829    6.6545    9.3795 C   0  0  0  0  0  0
    3.3349    7.2290    9.0886 C   0  0  0  0  0  0
    0.0924    5.7148    9.6855 N   0  0  0  0  0  0
    0.5645    5.8057   10.9388 N   0  0  0  0  0  0
    1.7939    6.3712   10.7556 C   0  0  0  0  0  0
    4.1793    7.5526   10.0976 N   0  0  0  0  0  0
    0.5980    6.1474    7.3779 N   0  0  0  0  0  0
    3.7182    7.4710    7.7623 N   0  0  0  0  0  0
    2.6445    6.6370   11.7471 N   0  0  0  0  0  0
    3.7980    7.2383   11.3603 C   0  0  0  0  0  0
    0.8636    7.0983    6.3903 C   0  0  0  0  0  0
    4.9466    7.8370    7.1891 C   0  0  0  0  0  0
    4.9401    8.5507    5.9881 C   0  0  0  0  0  0
    0.9755    6.6437    5.0803 C   0  0  0  0  0  0
    6.1386    8.8869    5.3563 C   0  0  0  0  0  0
    1.2353    7.5341    4.0471 C   0  0  0  0  0  0
    6.1114    9.7620    3.8691 Cl  0  0  0  0  0  0
    1.3980    7.0367    2.7880 O   0  0  0  0  0  0
    1.2275    9.3653    5.6185 C   0  0  0  0  0  0
    7.3736    7.7853    7.1144 C   0  0  0  0  0  0
    6.1729    7.4465    7.7400 C   0  0  0  0  0  0
    0.9876    8.4667    6.6604 C   0  0  0  0  0  0
    7.3561    8.5062    5.9213 C   0  0  0  0  0  0
    1.3521    8.8985    4.3081 C   0  0  0  0  0  0
   -0.8333    5.3499    9.5044 H   0  0  0  0  0  0
   -0.1790    5.5632    7.1024 H   0  0  0  0  0  0
    2.9557    7.3712    7.1095 H   0  0  0  0  0  0
    4.4996    7.4658   12.1496 H   0  0  0  0  0  0
    4.0050    8.8406    5.5342 H   0  0  0  0  0  0
    0.8773    5.5932    4.8547 H   0  0  0  0  0  0
    1.0985    7.6175    2.0754 H   0  0  0  0  0  0
    1.3239   10.4207    5.8267 H   0  0  0  0  0  0
    8.3152    7.4787    7.5452 H   0  0  0  0  0  0
    6.1983    6.8545    8.6420 H   0  0  0  0  0  0
    0.9004    8.8355    7.6716 H   0  0  0  0  0  0
    8.2862    8.7590    5.4326 H   0  0  0  0  0  0
    1.5533    9.5917    3.5044 H   0  0  0  0  0  0
  1  2  2  0  0  0
  1  4  1  0  0  0
  1  8  1  0  0  0
  2  3  1  0  0  0
  2  6  1  0  0  0
  3  7  2  0  0  0
  3  9  1  0  0  0
  4  5  1  0  0  0
  4 26  1  0  0  0
  5  6  2  0  0  0
  6 10  1  0  0  0
  7 11  1  0  0  0
  8 12  1  0  0  0
  8 27  1  0  0  0
  9 13  1  0  0  0
  9 28  1  0  0  0
 10 11  2  0  0  0
 11 29  1  0  0  0
 12 15  2  0  0  0
 12 23  1  0  0  0
 13 14  2  0  0  0
 13 22  1  0  0  0
 14 16  1  0  0  0
 14 30  1  0  0  0
 15 17  1  0  0  0
 15 31  1  0  0  0
 16 18  1  0  0  0
 16 24  2  0  0  0
 17 19  1  0  0  0
 17 25  2  0  0  0
 19 32  1  0  0  0
 20 23  2  0  0  0
 20 25  1  0  0  0
 20 33  1  0  0  0
 21 22  2  0  0  0
 21 24  1  0  0  0
 21 34  1  0  0  0
 22 35  1  0  0  0
 23 36  1  0  0  0
 24 37  1  0  0  0
 25 38  1  0  0  0
M  END
> <s_m_entry_id>
32004

> <s_m_entry_name>
dock_pv.267

> <s_m_Source_Path>
/home/csk/Desktop/cluster/DUD-E-result/src

> <s_m_Source_File>
dock_pv.maegz

> <i_m_Source_File_Index>
267

> <chembl_id>
CHEMBL121954

> <chembl_pref_name>
None

> <i_lp_mmshare_version>
53161

> <r_lp_tautomer_probability>
1

> <s_lp_Force_Field>
OPLS_2005

> <r_lp_Energy>
35.138993

> <b_lp_Chiralities_Consistent>
1

> <s_lp_Variant>
CHEMBL267_lig837-1

> <s_i_glide_gridfile>
glide-grid_3el8

> <i_i_glide_lignum>
965

> <i_i_glide_rotatable_bonds>
5

> <r_i_docking_score>
-7.58475300111573

> <r_i_glide_ligand_efficiency>
-0.303390120044629

> <r_i_glide_ligand_efficiency_sa>
-0.887118091657186

> <r_i_glide_ligand_efficiency_ln>
-1.79781375797015

> <r_i_glide_gscore>
-7.58475300111573

> <r_i_glide_lipo>
-3.05674741188855

> <r_i_glide_hbond>
-0.505117840827054

> <r_i_glide_metal>
0

> <r_i_glide_rewards>
-1.49976906873229

> <r_i_glide_evdw>
-39.3813323974609

> <r_i_glide_ecoul>
-7.62591791152954

> <r_i_glide_erotb>
0.613536685030292

> <r_i_glide_esite>
-0.0237010580956538

> <r_i_glide_emodel>
-61.7545513711493

> <r_i_glide_energy>
-47.0072503089905

> <r_i_glide_einternal>
11.3568687438965

> <i_i_glide_confnum>
26

> <i_i_glide_posenum>
43

> <r_i_glide_eff_state_penalty>
0

> <s_user_duplicate_titles>
CHEMBL267_lig837,198357

> <i_f3d_flags>
0

> <s_m_subgroup_title>
dock_pv

> <s_m_subgroupid>
dock_pv

> <b_m_subgroup_collapsed>
1

$$$$
CHEMBL267_lig2169
                    3D
 Schrodinger Suite 2021-1.
 37 39  0  0  1  0            999 V2000
    1.4549    6.1313    8.8647 N   0  0  0  0  0  0
    2.5572    6.7191    9.2798 C   0  0  0  0  0  0
    2.6249    6.7504   10.6948 C   0  0  0  0  0  0
    1.4010    6.2370   11.1176 C   0  0  0  0  0  0
    0.7663    5.8253    9.9707 N   0  0  0  0  0  0
    3.6309    7.3796   11.5122 C   0  0  0  0  0  0
    3.7980    6.8671   12.7248 N   0  0  0  0  0  0
    4.1980    8.4029   11.1762 O   0  0  0  0  0  0
    0.8179    6.1598   12.3534 N   0  0  0  0  0  0
   -0.5312    5.1660    9.8363 C   0  0  0  0  0  0
    3.5393    7.2431    8.2826 C   0  0  0  0  0  0
    4.8886    6.9025    8.3880 C   0  0  0  0  0  0
    4.0320    8.6293    6.3519 C   0  0  0  0  0  0
    3.1192    8.0894    7.2549 C   0  0  0  0  0  0
    5.4107    8.3233    6.4594 C   0  0  0  0  0  0
    5.8447    7.4370    7.4914 C   0  0  0  0  0  0
    7.2195    7.1120    7.5880 C   0  0  0  0  0  0
    8.1402    7.6807    6.7134 C   0  0  0  0  0  0
    7.7201    8.5523    5.7148 C   0  0  0  0  0  0
    6.3719    8.8726    5.5741 C   0  0  0  0  0  0
   -0.4113    3.7396    9.2896 C   0  0  0  0  0  0
   -0.2020    3.7563    7.9880 F   0  0  0  0  0  0
   -1.5476    3.0714    9.4806 F   0  0  0  0  0  0
    0.5980    3.0585    9.8344 F   0  0  0  0  0  0
    4.4490    7.2998   13.3647 H   0  0  0  0  0  0
    3.5029    5.9169   12.8850 H   0  0  0  0  0  0
    1.3372    6.4366   13.1741 H   0  0  0  0  0  0
   -0.1877    6.1636   12.4585 H   0  0  0  0  0  0
   -1.1656    5.7689    9.1880 H   0  0  0  0  0  0
   -1.0020    5.1270   10.8165 H   0  0  0  0  0  0
    5.2181    6.2370    9.1740 H   0  0  0  0  0  0
    3.6929    9.2930    5.5696 H   0  0  0  0  0  0
    2.0740    8.3475    7.1654 H   0  0  0  0  0  0
    7.5452    6.4191    8.3493 H   0  0  0  0  0  0
    9.1896    7.4370    6.7966 H   0  0  0  0  0  0
    8.4500    8.9793    5.0430 H   0  0  0  0  0  0
    6.0531    9.5468    4.7923 H   0  0  0  0  0  0
  1  2  2  0  0  0
  1  5  1  0  0  0
  2  3  1  0  0  0
  2 11  1  0  0  0
  3  4  2  0  0  0
  3  6  1  0  0  0
  4  5  1  0  0  0
  4  9  1  0  0  0
  5 10  1  0  0  0
  6  7  1  0  0  0
  6  8  2  0  0  0
  7 25  1  0  0  0
  7 26  1  0  0  0
  9 27  1  0  0  0
  9 28  1  0  0  0
 10 21  1  0  0  0
 10 29  1  0  0  0
 10 30  1  0  0  0
 11 12  2  0  0  0
 11 14  1  0  0  0
 12 16  1  0  0  0
 12 31  1  0  0  0
 13 15  1  0  0  0
 13 14  2  0  0  0
 13 32  1  0  0  0
 14 33  1  0  0  0
 15 16  1  0  0  0
 15 20  2  0  0  0
 16 17  2  0  0  0
 17 18  1  0  0  0
 17 34  1  0  0  0
 18 19  2  0  0  0
 18 35  1  0  0  0
 19 20  1  0  0  0
 19 36  1  0  0  0
 20 37  1  0  0  0
 21 22  1  0  0  0
 21 23  1  0  0  0
 21 24  1  0  0  0
M  END
> <s_m_entry_id>
32005

> <s_m_entry_name>
dock_pv.268

> <s_m_Source_Path>
/home/csk/Desktop/cluster/DUD-E-result/src

> <s_m_Source_File>
dock_pv.maegz

> <i_m_Source_File_Index>
268

> <chembl_id>
CHEMBL3108991

> <chembl_pref_name>
None

> <i_lp_mmshare_version>
53161

> <r_lp_tautomer_probability>
1

> <s_lp_Force_Field>
OPLS_2005

> <r_lp_Energy>
22.572759

> <b_lp_Chiralities_Consistent>
1

> <s_lp_Variant>
CHEMBL267_lig2169-1

> <s_i_glide_gridfile>
glide-grid_3el8

> <i_i_glide_lignum>
2457

> <i_i_glide_rotatable_bonds>
4

> <r_i_docking_score>
-7.57319041502874

> <r_i_glide_ligand_efficiency>
-0.315549600626198

> <r_i_glide_ligand_efficiency_sa>
-0.910202550863391

> <r_i_glide_ligand_efficiency_ln>
-1.8126119773804

> <r_i_glide_gscore>
-7.57319041502874

> <r_i_glide_lipo>
-3.00422596662695

> <r_i_glide_hbond>
-0.20640913688978

> <r_i_glide_metal>
0

> <r_i_glide_rewards>
-2.42921503271144

> <r_i_glide_evdw>
-29.9994792938232

> <r_i_glide_ecoul>
-5.13913822174072

> <r_i_glide_erotb>
0.337504419151691

> <r_i_glide_esite>
0

> <r_i_glide_emodel>
-49.8553257948941

> <r_i_glide_energy>
-35.138617515564

> <r_i_glide_einternal>
3.65405297279358

> <i_i_glide_confnum>
4

> <i_i_glide_posenum>
71

> <r_i_glide_eff_state_penalty>
0

> <s_user_duplicate_titles>
CHEMBL267_lig2169

> <i_f3d_flags>
0

> <s_m_subgroup_title>
dock_pv

> <s_m_subgroupid>
dock_pv

> <b_m_subgroup_collapsed>
1

$$$$
CHEMBL267_lig3523
                    3D
 Schrodinger Suite 2021-1.
 40 42  0  0  1  0            999 V2000
    8.3403    7.0377    7.5879 O   0  0  0  0  0  0
    3.9859    8.2369    7.3682 N   0  0  0  0  0  0
    1.9572    6.6190    8.8585 N   0  0  0  0  0  0
    1.1484    6.2354   11.1029 N   0  0  0  0  0  0
    7.7976    7.6218    5.5074 N   0  0  0  0  0  0
   -0.2020    5.8123    9.2449 N   0  0  0  0  0  0
    5.1110    8.4474    6.6050 C   0  0  0  0  0  0
    6.1070    7.6084    7.1576 C   0  0  0  0  0  0
    4.1996    7.3572    8.3898 C   0  0  0  0  0  0
    5.0938    9.4515    5.4838 C   0  0  0  0  0  0
    5.5165    6.9635    8.2600 C   0  0  0  0  0  0
    3.1583    6.9918    9.3762 C   0  0  0  0  0  0
    4.0224    9.6266    4.5729 C   0  0  0  0  0  0
    7.4969    7.4358    6.7895 C   0  0  0  0  0  0
    6.2095   10.2916    5.3861 C   0  0  0  0  0  0
    4.1188   10.6135    3.5692 C   0  0  0  0  0  0
    3.3980    7.0369   10.7526 C   0  0  0  0  0  0
    1.0140    6.2370    9.7534 C   0  0  0  0  0  0
    6.3018   11.2535    4.3868 C   0  0  0  0  0  0
    5.2622   11.4098    3.4791 C   0  0  0  0  0  0
    2.3519    6.6370   11.5862 C   0  0  0  0  0  0
    2.7545    8.7689    4.6453 C   0  0  0  0  0  0
    2.9892   10.8605    2.5760 C   0  0  0  0  0  0
    3.1053    8.7042    7.2093 H   0  0  0  0  0  0
    7.1051    7.9781    4.8668 H   0  0  0  0  0  0
    8.7303    7.3790    5.1883 H   0  0  0  0  0  0
   -0.9595    5.6301    9.8925 H   0  0  0  0  0  0
   -0.3849    5.8370    8.2506 H   0  0  0  0  0  0
    6.0104    6.2462    8.9002 H   0  0  0  0  0  0
    7.0196   10.2074    6.0954 H   0  0  0  0  0  0
    4.3517    7.3354   11.1596 H   0  0  0  0  0  0
    7.1753   11.8855    4.3219 H   0  0  0  0  0  0
    5.3437   12.1671    2.7119 H   0  0  0  0  0  0
    2.4698    6.6372   12.6607 H   0  0  0  0  0  0
    2.4287    8.4668    3.6503 H   0  0  0  0  0  0
    2.8849    7.8360    5.1878 H   0  0  0  0  0  0
    1.9406    9.3325    5.1020 H   0  0  0  0  0  0
    2.0687   11.1081    3.1053 H   0  0  0  0  0  0
    3.2100   11.6759    1.8855 H   0  0  0  0  0  0
    2.7950    9.9652    1.9874 H   0  0  0  0  0  0
  1 14  2  0  0  0
  2  7  1  0  0  0
  2  9  1  0  0  0
  2 24  1  0  0  0
  3 12  1  0  0  0
  3 18  2  0  0  0
  4 18  1  0  0  0
  4 21  2  0  0  0
  5 14  1  0  0  0
  5 25  1  0  0  0
  5 26  1  0  0  0
  6 18  1  0  0  0
  6 27  1  0  0  0
  6 28  1  0  0  0
  7  8  2  0  0  0
  7 10  1  0  0  0
  8 11  1  0  0  0
  8 14  1  0  0  0
  9 11  2  0  0  0
  9 12  1  0  0  0
 10 13  2  0  0  0
 10 15  1  0  0  0
 11 29  1  0  0  0
 12 17  2  0  0  0
 13 16  1  0  0  0
 13 22  1  0  0  0
 15 19  2  0  0  0
 15 30  1  0  0  0
 16 20  2  0  0  0
 16 23  1  0  0  0
 17 21  1  0  0  0
 17 31  1  0  0  0
 19 20  1  0  0  0
 19 32  1  0  0  0
 20 33  1  0  0  0
 21 34  1  0  0  0
 22 35  1  0  0  0
 22 36  1  0  0  0
 22 37  1  0  0  0
 23 38  1  0  0  0
 23 39  1  0  0  0
 23 40  1  0  0  0
M  END
> <s_m_entry_id>
32006

> <s_m_entry_name>
dock_pv.269

> <s_m_Source_Path>
/home/csk/Desktop/cluster/DUD-E-result/src

> <s_m_Source_File>
dock_pv.maegz

> <i_m_Source_File_Index>
269

> <chembl_id>
CHEMBL1964290

> <chembl_pref_name>
None

> <i_lp_mmshare_version>
53161

> <r_lp_tautomer_probability>
0.999999987636

> <s_lp_Force_Field>
OPLS_2005

> <r_lp_Energy>
1.922295

> <b_lp_Chiralities_Consistent>
1

> <s_lp_Variant>
CHEMBL267_lig3523-1

> <s_i_glide_gridfile>
glide-grid_3el8

> <i_i_glide_lignum>
4236

> <i_i_glide_rotatable_bonds>
3

> <r_i_docking_score>
-7.57144394567785

> <r_i_glide_ligand_efficiency>
-0.329193215029472

> <r_i_glide_ligand_efficiency_sa>
-0.936181713235027

> <r_i_glide_ligand_efficiency_ln>
-1.83084380012286

> <r_i_glide_gscore>
-7.57144394567785

> <r_i_glide_lipo>
-2.33869903957266

> <r_i_glide_hbond>
-0.736964220892655

> <r_i_glide_metal>
0

> <r_i_glide_rewards>
-1.93193699602027

> <r_i_glide_evdw>
-34.6974868774414

> <r_i_glide_ecoul>
-7.73408365249634

> <r_i_glide_erotb>
0.391377349114743

> <r_i_glide_esite>
-0.0602341465604929

> <r_i_glide_emodel>
-58.647110586413

> <r_i_glide_energy>
-42.4315705299377

> <r_i_glide_einternal>
6.39942646026611

> <i_i_glide_confnum>
1

> <i_i_glide_posenum>
51

> <r_i_glide_eff_state_penalty>
0

> <s_user_duplicate_titles>
CHEMBL267_lig3523

> <i_f3d_flags>
0

> <s_m_subgroup_title>
dock_pv

> <s_m_subgroupid>
dock_pv

> <b_m_subgroup_collapsed>
1

$$$$
CHEMBL267_lig513
                    3D
 Schrodinger Suite 2021-1.
 30 32  0  0  1  0            999 V2000
    4.8159    6.8333    8.0100 C   0  0  0  0  0  0
    5.7200    7.5772    7.1875 C   0  0  0  0  0  0
    3.4505    7.1491    8.0057 C   0  0  0  0  0  0
    5.1677    8.6378    6.4027 C   0  0  0  0  0  0
    3.0200    8.1817    7.1749 C   0  0  0  0  0  0
    7.1232    7.3189    7.0753 C   0  0  0  0  0  0
    3.8382    8.9165    6.3892 N   0  0  0  0  0  0
    2.4574    6.4238    8.8381 C   0  0  0  0  0  0
    6.0150    9.4406    5.6081 C   0  0  0  0  0  0
    7.9272    8.1359    6.2868 C   0  0  0  0  0  0
    5.2649    5.7909    8.7878 O   0  0  0  0  0  0
    7.3797    9.1915    5.5711 C   0  0  0  0  0  0
    1.6917    5.3856    8.2938 C   0  0  0  0  0  0
    7.7040    6.2385    7.6873 O   0  0  0  0  0  0
    0.7284    4.7305    9.0643 C   0  0  0  0  0  0
   -0.2011    3.4412    8.3880 Cl  0  0  0  0  0  0
    8.1869    9.9770    4.7906 O   0  0  0  0  0  0
    2.2530    6.7854   10.1733 C   0  0  0  0  0  0
    1.2835    6.1432   10.9439 C   0  0  0  0  0  0
    0.5174    5.1188   10.3864 C   0  0  0  0  0  0
    1.9745    8.4485    7.1341 H   0  0  0  0  0  0
    5.5938   10.2482    5.0275 H   0  0  0  0  0  0
    8.9844    7.9234    6.2176 H   0  0  0  0  0  0
    4.5902    5.4397    9.3777 H   0  0  0  0  0  0
    1.8445    5.0911    7.2661 H   0  0  0  0  0  0
    7.0336    5.7576    8.1927 H   0  0  0  0  0  0
    9.1075    9.7077    4.8395 H   0  0  0  0  0  0
    2.8349    7.5828   10.6130 H   0  0  0  0  0  0
    1.1244    6.4368   11.9710 H   0  0  0  0  0  0
   -0.2398    4.6255   10.9790 H   0  0  0  0  0  0
  1  2  1  0  0  0
  1  3  2  0  0  0
  1 11  1  0  0  0
  2  4  2  0  0  0
  2  6  1  0  0  0
  3  5  1  0  0  0
  3  8  1  0  0  0
  4  9  1  0  0  0
  4  7  1  0  0  0
  5  7  2  0  0  0
  5 21  1  0  0  0
  6 10  2  0  0  0
  6 14  1  0  0  0
  8 13  2  0  0  0
  8 18  1  0  0  0
  9 12  2  0  0  0
  9 22  1  0  0  0
 10 12  1  0  0  0
 10 23  1  0  0  0
 11 24  1  0  0  0
 12 17  1  0  0  0
 13 15  1  0  0  0
 13 25  1  0  0  0
 14 26  1  0  0  0
 15 16  1  0  0  0
 15 20  2  0  0  0
 17 27  1  0  0  0
 18 19  2  0  0  0
 18 28  1  0  0  0
 19 20  1  0  0  0
 19 29  1  0  0  0
 20 30  1  0  0  0
M  END
> <s_m_entry_id>
32007

> <s_m_entry_name>
dock_pv.270

> <s_m_Source_Path>
/home/csk/Desktop/cluster/DUD-E-result/src

> <s_m_Source_File>
dock_pv.maegz

> <i_m_Source_File_Index>
270

> <chembl_id>
CHEMBL266995

> <chembl_pref_name>
None

> <i_lp_mmshare_version>
53161

> <r_lp_tautomer_probability>
1

> <s_lp_Force_Field>
OPLS_2005

> <r_lp_Energy>
23.96518

> <b_lp_Chiralities_Consistent>
1

> <s_lp_Variant>
CHEMBL267_lig513-1

> <s_i_glide_gridfile>
glide-grid_3el8

> <i_i_glide_lignum>
605

> <i_i_glide_rotatable_bonds>
4

> <r_i_docking_score>
-7.56741162044588

> <r_i_glide_ligand_efficiency>
-0.378370581022294

> <r_i_glide_ligand_efficiency_sa>
-1.02705576970257

> <r_i_glide_ligand_efficiency_ln>
-1.89387353865805

> <r_i_glide_gscore>
-7.56741162044588

> <r_i_glide_lipo>
-3.45572940058122

> <r_i_glide_hbond>
0

> <r_i_glide_metal>
0

> <r_i_glide_rewards>
-1.94751704545454

> <r_i_glide_evdw>
-32.9082794189453

> <r_i_glide_ecoul>
-4.92269420623779

> <r_i_glide_erotb>
0.219652927472824

> <r_i_glide_esite>
0

> <r_i_glide_emodel>
-52.4693974902138

> <r_i_glide_energy>
-37.8309736251831

> <r_i_glide_einternal>
3.92794895172119

> <i_i_glide_confnum>
2

> <i_i_glide_posenum>
337

> <r_i_glide_eff_state_penalty>
0

> <s_user_duplicate_titles>
CHEMBL267_lig513

> <i_f3d_flags>
0

> <s_m_subgroup_title>
dock_pv

> <s_m_subgroupid>
dock_pv

> <b_m_subgroup_collapsed>
1

$$$$
CHEMBL267_lig1753
                    3D
 Schrodinger Suite 2021-1.
 43 46  0  0  1  0            999 V2000
    4.3695    7.4520    8.0910 N   0  0  0  0  0  0
    4.7564    8.2153    7.0370 C   0  0  0  0  0  0
    3.9432    8.6331    6.0238 N   0  0  0  0  0  0
    3.0917    7.0344    8.1734 C   0  0  0  0  0  0
    2.2026    7.4015    7.1540 C   0  0  0  0  0  0
    2.6750    8.2112    6.0893 C   0  0  0  0  0  0
    1.6763    8.4771    5.1894 N   0  0  0  0  0  0
    0.6310    7.8472    5.6688 C   0  0  0  0  0  0
    0.8725    7.1863    6.8512 N   0  0  0  0  0  0
    2.8001    6.2959    9.3172 N   0  0  0  0  0  0
    1.6447    5.5772    9.5997 C   0  0  0  0  0  0
    0.9783    5.8370   10.7917 C   0  0  0  0  0  0
   -0.2020    5.1637   11.0765 C   0  0  0  0  0  0
   -0.7165    4.2370   10.1693 C   0  0  0  0  0  0
   -0.0369    3.9446    8.9781 C   0  0  0  0  0  0
    1.1527    4.6206    8.7104 C   0  0  0  0  0  0
    6.0861    8.6370    7.0436 N   0  0  0  0  0  0
    6.7435    9.4290    5.9875 C   0  0  0  0  0  0
    7.9820    8.7223    5.3827 C   0  0  0  0  0  0
    8.9229    8.2370    6.3880 N   0  0  0  0  0  0
    8.2080    7.3686    7.3054 C   0  0  0  0  0  0
    7.1052    8.1791    8.0071 C   0  0  0  0  0  0
   -0.4685    3.0370    8.0318 O   0  0  0  0  0  0
   -1.6391    2.2688    8.2919 C   0  0  0  0  0  0
    0.1764    6.6373    7.3424 H   0  0  0  0  0  0
   -0.3539    7.8099    5.2220 H   0  0  0  0  0  0
    3.5883    6.1149    9.9234 H   0  0  0  0  0  0
    1.3603    6.5689   11.4886 H   0  0  0  0  0  0
   -0.7401    5.3805   11.9882 H   0  0  0  0  0  0
   -1.6503    3.7526   10.4106 H   0  0  0  0  0  0
    1.6920    4.4103    7.7991 H   0  0  0  0  0  0
    6.0502    9.6388    5.1734 H   0  0  0  0  0  0
    6.9981   10.4083    6.3928 H   0  0  0  0  0  0
    8.5137    9.3961    4.7111 H   0  0  0  0  0  0
    7.6574    7.8696    4.7879 H   0  0  0  0  0  0
    9.6431    7.6945    5.9106 H   0  0  0  0  0  0
    8.9194    6.9497    8.0113 H   0  0  0  0  0  0
    7.7875    6.5137    6.7724 H   0  0  0  0  0  0
    7.5126    9.0369    8.5443 H   0  0  0  0  0  0
    6.6675    7.5480    8.7762 H   0  0  0  0  0  0
   -1.8019    1.5819    7.4631 H   0  0  0  0  0  0
   -1.5325    1.6605    9.1880 H   0  0  0  0  0  0
   -2.5257    2.8984    8.3853 H   0  0  0  0  0  0
  1  2  2  0  0  0
  1  4  1  0  0  0
  2 17  1  0  0  0
  2  3  1  0  0  0
  3  6  2  0  0  0
  4 10  1  0  0  0
  4  5  2  0  0  0
  5  9  1  0  0  0
  5  6  1  0  0  0
  6  7  1  0  0  0
  7  8  2  0  0  0
  8  9  1  0  0  0
  8 26  1  0  0  0
  9 25  1  0  0  0
 10 11  1  0  0  0
 10 27  1  0  0  0
 11 12  2  0  0  0
 11 16  1  0  0  0
 12 13  1  0  0  0
 12 28  1  0  0  0
 13 14  2  0  0  0
 13 29  1  0  0  0
 14 15  1  0  0  0
 14 30  1  0  0  0
 15 16  2  0  0  0
 15 23  1  0  0  0
 16 31  1  0  0  0
 17 18  1  0  0  0
 17 22  1  0  0  0
 18 19  1  0  0  0
 18 32  1  0  0  0
 18 33  1  0  0  0
 19 20  1  0  0  0
 19 34  1  0  0  0
 19 35  1  0  0  0
 20 21  1  0  0  0
 20 36  1  0  0  0
 21 22  1  0  0  0
 21 37  1  0  0  0
 21 38  1  0  0  0
 22 39  1  0  0  0
 22 40  1  0  0  0
 23 24  1  0  0  0
 24 41  1  0  0  0
 24 42  1  0  0  0
 24 43  1  0  0  0
M  END
> <s_m_entry_id>
32008

> <s_m_entry_name>
dock_pv.271

> <s_m_Source_Path>
/home/csk/Desktop/cluster/DUD-E-result/src

> <s_m_Source_File>
dock_pv.maegz

> <i_m_Source_File_Index>
271

> <chembl_id>
CHEMBL1173805

> <chembl_pref_name>
None

> <i_lp_mmshare_version>
53161

> <r_lp_tautomer_probability>
0.0419191988452545

> <s_lp_Force_Field>
OPLS_2005

> <r_lp_Energy>
37.387517

> <b_lp_Chiralities_Consistent>
1

> <s_lp_Variant>
CHEMBL267_lig1753-2

> <s_i_glide_gridfile>
glide-grid_3el8

> <i_i_glide_lignum>
1985

> <i_i_glide_rotatable_bonds>
4

> <r_i_docking_score>
-7.56512773113318

> <r_i_glide_ligand_efficiency>
-0.315213655463882

> <r_i_glide_ligand_efficiency_sa>
-0.909233517332426

> <r_i_glide_ligand_efficiency_ln>
-1.81068220715173

> <r_i_glide_gscore>
-7.56512773113318

> <r_i_glide_lipo>
-2.51327317132953

> <r_i_glide_hbond>
-0.608

> <r_i_glide_metal>
0

> <r_i_glide_rewards>
-2.11767580282146

> <r_i_glide_evdw>
-37.6113891601562

> <r_i_glide_ecoul>
-6.511155128479

> <r_i_glide_erotb>
0.531063970297478

> <r_i_glide_esite>
0

> <r_i_glide_emodel>
-59.2481840508875

> <r_i_glide_energy>
-44.1225442886353

> <r_i_glide_einternal>
9.44225788116455

> <i_i_glide_confnum>
3

> <i_i_glide_posenum>
176

> <r_i_glide_eff_state_penalty>
0

> <s_user_duplicate_titles>
CHEMBL267_lig1753,CHEMBL267_lig1753

> <i_f3d_flags>
0

> <s_m_subgroup_title>
dock_pv

> <s_m_subgroupid>
dock_pv

> <b_m_subgroup_collapsed>
1

$$$$
CHEMBL267_lig1857
                    3D
 Schrodinger Suite 2021-1.
 50 52  0  0  1  0            999 V2000
    7.7955    7.1205    7.3304 N   0  0  0  0  0  0
    8.1534    8.0872    6.4450 C   0  0  0  0  0  0
    7.3379    8.9378    5.7656 N   0  0  0  0  0  0
    6.4703    6.9904    7.5880 C   0  0  0  0  0  0
    5.5241    7.8369    6.9801 C   0  0  0  0  0  0
    6.0400    8.7736    6.0578 C   0  0  0  0  0  0
    4.9350    9.4273    5.5316 N   0  0  0  0  0  0
    3.7894    8.9628    6.0820 N   0  0  0  0  0  0
    4.1055    8.0438    6.9639 C   0  0  0  0  0  0
    3.0771    7.3611    7.7943 C   0  0  0  0  0  0
    3.2480    7.3117    9.1772 C   0  0  0  0  0  0
    2.3436    6.6240   10.0031 C   0  0  0  0  0  0
    1.2638    5.9381    9.4041 C   0  0  0  0  0  0
    1.0790    6.0209    8.0178 C   0  0  0  0  0  0
    1.9732    6.7312    7.2194 C   0  0  0  0  0  0
    6.0779    5.9226    8.3880 N   0  0  0  0  0  0
    4.8559   10.4882    4.5197 C   0  0  0  0  0  0
    5.4510   10.0047    3.1826 C   0  0  0  0  0  0
    5.5282   11.7715    5.0428 C   0  0  0  0  0  0
    0.3812    5.1879   10.2077 N   0  0  0  0  0  0
    2.4804    6.5952   11.3841 O   0  0  0  0  0  0
    3.6737    7.1036   11.9937 C   0  0  0  0  0  0
   -0.1100    3.8508    9.8247 C   0  0  2  0  0  0
    0.9751    2.8976    9.2851 C   0  0  0  0  0  0
   -1.3949    3.8284    8.9611 C   0  0  0  0  0  0
   -2.1712    2.6642    9.1878 O   0  0  0  0  0  0
    9.2117    8.1831    6.2447 H   0  0  0  0  0  0
    4.0979    7.8259    9.5993 H   0  0  0  0  0  0
    0.2410    5.5335    7.5459 H   0  0  0  0  0  0
    1.8253    6.7638    6.1496 H   0  0  0  0  0  0
    5.0951    5.7810    8.5733 H   0  0  0  0  0  0
    6.7788    5.3007    8.7672 H   0  0  0  0  0  0
    3.7997   10.7130    4.3486 H   0  0  0  0  0  0
    5.2921   10.7434    2.3963 H   0  0  0  0  0  0
    6.5259    9.8377    3.2561 H   0  0  0  0  0  0
    4.9904    9.0720    2.8535 H   0  0  0  0  0  0
    5.4092   12.5946    4.3371 H   0  0  0  0  0  0
    5.0982   12.0900    5.9934 H   0  0  0  0  0  0
    6.5979   11.6275    5.1940 H   0  0  0  0  0  0
    0.6127    5.2621   11.1888 H   0  0  0  0  0  0
    3.6468    6.9077   13.0658 H   0  0  0  0  0  0
    4.5729    6.6370   11.5974 H   0  0  0  0  0  0
    3.7981    8.1785   11.8580 H   0  0  0  0  0  0
   -0.4064    3.4383   10.7877 H   0  0  0  0  0  0
    0.5773    1.8925    9.1374 H   0  0  0  0  0  0
    1.3822    3.2332    8.3315 H   0  0  0  0  0  0
    1.7981    2.8116    9.9880 H   0  0  0  0  0  0
   -1.1439    3.8370    7.9053 H   0  0  0  0  0  0
   -2.0446    4.6689    9.1882 H   0  0  0  0  0  0
   -2.8782    2.6160    8.5345 H   0  0  0  0  0  0
  1  2  2  0  0  0
  1  4  1  0  0  0
  2  3  1  0  0  0
  2 27  1  0  0  0
  3  6  2  0  0  0
  4  5  2  0  0  0
  4 16  1  0  0  0
  5  9  1  0  0  0
  5  6  1  0  0  0
  6  7  1  0  0  0
  7 17  1  0  0  0
  7  8  1  0  0  0
  8  9  2  0  0  0
  9 10  1  0  0  0
 10 15  1  0  0  0
 10 11  2  0  0  0
 11 12  1  0  0  0
 11 28  1  0  0  0
 12 13  2  0  0  0
 12 21  1  0  0  0
 13 14  1  0  0  0
 13 20  1  0  0  0
 14 15  2  0  0  0
 14 29  1  0  0  0
 15 30  1  0  0  0
 16 31  1  0  0  0
 16 32  1  0  0  0
 17 18  1  0  0  0
 17 19  1  0  0  0
 17 33  1  0  0  0
 18 34  1  0  0  0
 18 35  1  0  0  0
 18 36  1  0  0  0
 19 37  1  0  0  0
 19 38  1  0  0  0
 19 39  1  0  0  0
 20 23  1  0  0  0
 20 40  1  0  0  0
 21 22  1  0  0  0
 22 41  1  0  0  0
 22 42  1  0  0  0
 22 43  1  0  0  0
 23 24  1  0  0  0
 23 25  1  0  0  0
 23 44  1  0  0  0
 24 45  1  0  0  0
 24 46  1  0  0  0
 24 47  1  0  0  0
 25 26  1  0  0  0
 25 48  1  0  0  0
 25 49  1  0  0  0
 26 50  1  0  0  0
M  END
> <s_m_entry_id>
32009

> <s_m_entry_name>
dock_pv.272

> <s_m_Source_Path>
/home/csk/Desktop/cluster/DUD-E-result/src

> <s_m_Source_File>
dock_pv.maegz

> <i_m_Source_File_Index>
272

> <chembl_id>
CHEMBL1241486

> <chembl_pref_name>
None

> <i_lp_mmshare_version>
53161

> <r_lp_tautomer_probability>
1

> <s_lp_Force_Field>
OPLS_2005

> <r_lp_Energy>
19.64816

> <b_lp_Chiralities_Consistent>
1

> <s_lp_Variant>
CHEMBL267_lig1857-1

> <s_i_glide_gridfile>
glide-grid_3el8

> <i_i_glide_lignum>
2124

> <i_i_glide_rotatable_bonds>
7

> <r_i_docking_score>
-7.56387094964707

> <r_i_glide_ligand_efficiency>
-0.290918113447964

> <r_i_glide_ligand_efficiency_sa>
-0.861843766382093

> <r_i_glide_ligand_efficiency_ln>
-1.77635027343969

> <r_i_glide_gscore>
-7.56387094964707

> <r_i_glide_lipo>
-2.71461712360085

> <r_i_glide_hbond>
-0.0137991268163195

> <r_i_glide_metal>
0

> <r_i_glide_rewards>
-2.70743643233884

> <r_i_glide_evdw>
-45.483699798584

> <r_i_glide_ecoul>
-3.04164481163025

> <r_i_glide_erotb>
0.602413444782679

> <r_i_glide_esite>
0

> <r_i_glide_emodel>
-66.1871300682903

> <r_i_glide_energy>
-48.5253446102142

> <r_i_glide_einternal>
6.46713924407959

> <i_i_glide_confnum>
4

> <i_i_glide_posenum>
328

> <r_i_glide_eff_state_penalty>
0

> <s_user_duplicate_titles>
CHEMBL267_lig1857

> <i_f3d_flags>
0

> <s_m_subgroup_title>
dock_pv

> <s_m_subgroupid>
dock_pv

> <b_m_subgroup_collapsed>
1

$$$$
CHEMBL267_lig3536
                    3D
 Schrodinger Suite 2021-1.
 43 46  0  0  1  0            999 V2000
    6.5957    5.6371    8.3466 N   0  0  0  0  0  0
    2.8285    8.0152    7.0033 N   0  0  0  0  0  0
    8.1904    7.0374    7.1790 N   0  0  0  0  0  0
    1.0316    9.1493    5.8989 N   0  0  0  0  0  0
    0.5357    7.7160    7.6682 N   0  0  0  0  0  0
    1.3879    7.9302    3.1925 N   0  0  0  0  0  0
    4.6763    6.8013    7.9895 C   0  0  0  0  0  0
    5.7710    7.4844    7.3366 C   0  0  0  0  0  0
    3.2177    7.1243    7.9533 C   0  0  0  0  0  0
    6.9581    6.7324    7.5924 C   0  0  0  0  0  0
    5.2503    5.6979    8.6004 C   0  0  0  0  0  0
    1.4975    8.2712    6.8889 C   0  0  0  0  0  0
    5.9101    8.6339    6.5384 C   0  0  0  0  0  0
    2.2893    6.5023    8.7976 C   0  0  0  0  0  0
    1.8931    9.7507    4.8729 C   0  0  1  0  0  0
    0.9453    6.8289    8.6124 C   0  0  0  0  0  0
    7.1818    8.9662    6.0720 C   0  0  0  0  0  0
    8.2679    8.1627    6.4183 C   0  0  0  0  0  0
    1.3941    9.3574    3.4545 C   0  0  1  0  0  0
    1.9294   11.2795    5.0954 C   0  0  0  0  0  0
    2.1983   10.1081    2.3735 C   0  0  0  0  0  0
    2.7286   12.0011    3.9944 C   0  0  0  0  0  0
    2.2150   11.6334    2.5905 C   0  0  0  0  0  0
    7.1854    4.8919    8.7016 H   0  0  0  0  0  0
    0.0406    9.3329    5.8528 H   0  0  0  0  0  0
    0.7886    7.4703    3.8610 H   0  0  0  0  0  0
    0.9791    7.7734    2.2702 H   0  0  0  0  0  0
    4.7857    4.9114    9.1794 H   0  0  0  0  0  0
    5.0572    9.2451    6.2869 H   0  0  0  0  0  0
    2.5881    5.7834    9.5458 H   0  0  0  0  0  0
    2.9141    9.3811    4.9763 H   0  0  0  0  0  0
    0.1739    6.3696    9.2161 H   0  0  0  0  0  0
    7.3264    9.8435    5.4578 H   0  0  0  0  0  0
    9.2579    8.4236    6.0707 H   0  0  0  0  0  0
    0.3592    9.6959    3.3798 H   0  0  0  0  0  0
    0.9144   11.6793    5.1266 H   0  0  0  0  0  0
    2.3781   11.5066    6.0609 H   0  0  0  0  0  0
    3.2294    9.7506    2.3848 H   0  0  0  0  0  0
    1.7981    9.8882    1.3821 H   0  0  0  0  0  0
    3.7839   11.7343    4.0738 H   0  0  0  0  0  0
    2.6771   13.0810    4.1395 H   0  0  0  0  0  0
    2.8383   12.1075    1.8307 H   0  0  0  0  0  0
    1.2090   12.0333    2.4522 H   0  0  0  0  0  0
  1 10  1  0  0  0
  1 11  1  0  0  0
  1 24  1  0  0  0
  2  9  2  0  0  0
  2 12  1  0  0  0
  3 10  2  0  0  0
  3 18  1  0  0  0
  4 12  1  0  0  0
  4 15  1  0  0  0
  4 25  1  0  0  0
  5 12  2  0  0  0
  5 16  1  0  0  0
  6 19  1  0  0  0
  6 26  1  0  0  0
  6 27  1  0  0  0
  7  8  1  0  0  0
  7  9  1  0  0  0
  7 11  2  0  0  0
  8 10  1  0  0  0
  8 13  2  0  0  0
  9 14  1  0  0  0
 11 28  1  0  0  0
 13 17  1  0  0  0
 13 29  1  0  0  0
 14 16  2  0  0  0
 14 30  1  0  0  0
 15 19  1  0  0  0
 15 20  1  0  0  0
 15 31  1  0  0  0
 16 32  1  0  0  0
 17 18  2  0  0  0
 17 33  1  0  0  0
 18 34  1  0  0  0
 19 21  1  0  0  0
 19 35  1  0  0  0
 20 22  1  0  0  0
 20 36  1  0  0  0
 20 37  1  0  0  0
 21 23  1  0  0  0
 21 38  1  0  0  0
 21 39  1  0  0  0
 22 23  1  0  0  0
 22 40  1  0  0  0
 22 41  1  0  0  0
 23 42  1  0  0  0
 23 43  1  0  0  0
M  END
> <s_m_entry_id>
32010

> <s_m_entry_name>
dock_pv.273

> <s_m_Source_Path>
/home/csk/Desktop/cluster/DUD-E-result/src

> <s_m_Source_File>
dock_pv.maegz

> <i_m_Source_File_Index>
273

> <chembl_id>
CHEMBL1995813

> <chembl_pref_name>
None

> <i_lp_mmshare_version>
53161

> <r_lp_tautomer_probability>
0.999998420164496

> <s_lp_Force_Field>
OPLS_2005

> <r_lp_Energy>
9.37261

> <b_lp_Chiralities_Consistent>
1

> <s_lp_Variant>
CHEMBL267_lig3536-4

> <s_i_glide_gridfile>
glide-grid_3el8

> <i_i_glide_lignum>
4256

> <i_i_glide_rotatable_bonds>
3

> <r_i_docking_score>
-7.56200348685339

> <r_i_glide_ligand_efficiency>
-0.328782760297974

> <r_i_glide_ligand_efficiency_sa>
-0.935014434578615

> <r_i_glide_ligand_efficiency_ln>
-1.82856101157776

> <r_i_glide_gscore>
-7.56200348685339

> <r_i_glide_lipo>
-1.77205237767769

> <r_i_glide_hbond>
-0.831229000099234

> <r_i_glide_metal>
0

> <r_i_glide_rewards>
-2.63281558790096

> <r_i_glide_evdw>
-32.2423248291016

> <r_i_glide_ecoul>
-7.48218870162964

> <r_i_glide_erotb>
0.408538025524016

> <r_i_glide_esite>
0

> <r_i_glide_emodel>
-56.5055210949585

> <r_i_glide_energy>
-39.7245135307312

> <r_i_glide_einternal>
1.84613525867462

> <i_i_glide_confnum>
2

> <i_i_glide_posenum>
334

> <r_i_glide_eff_state_penalty>
0

> <s_user_duplicate_titles>
CHEMBL267_lig3536

> <i_f3d_flags>
0

> <s_m_subgroup_title>
dock_pv

> <s_m_subgroupid>
dock_pv

> <b_m_subgroup_collapsed>
1

$$$$
CHEMBL267_lig1466
                    3D
 Schrodinger Suite 2021-1.
 44 46  0  0  1  0            999 V2000
    2.5028    5.7087    9.4330 C   0  0  0  0  0  0
    2.1710    6.2370   10.6937 C   0  0  0  0  0  0
    0.9330    5.9150   11.2582 C   0  0  0  0  0  0
    0.0627    5.0326   10.6178 C   0  0  0  0  0  0
    0.4231    4.4273    9.4039 C   0  0  0  0  0  0
    1.6422    4.7990    8.8137 C   0  0  0  0  0  0
    3.1658    7.0633   11.5027 C   0  0  0  0  0  0
   -0.3935    3.3091    8.7880 C   0  0  0  0  0  0
   -1.6797    3.1678    9.1880 N   0  0  0  0  0  0
    0.1536    2.5536    7.9880 O   0  0  0  0  0  0
   -2.4871    2.0026    9.1332 C   0  0  0  0  0  0
   -2.0350    0.7368    8.7047 C   0  0  0  0  0  0
   -2.8834   -0.3795    8.7014 C   0  0  0  0  0  0
   -4.1973   -0.2348    9.1584 C   0  0  0  0  0  0
   -4.6534    1.0084    9.5880 C   0  0  0  0  0  0
   -3.8020    2.1080    9.5880 C   0  0  0  0  0  0
   -2.4020   -1.7283    8.1682 C   0  0  0  0  0  0
   -3.3187   -2.2535    7.3543 F   0  0  0  0  0  0
   -2.2020   -2.5630    9.1880 F   0  0  0  0  0  0
   -1.2612   -1.6268    7.4836 F   0  0  0  0  0  0
    3.7051    6.0128    8.7774 N   0  0  0  0  0  0
    4.0588    7.2464    8.3570 C   0  0  0  0  0  0
    5.4140    7.3687    7.7058 C   0  0  0  0  0  0
    3.3307    8.2370    8.4552 O   0  0  0  0  0  0
    5.6849    8.3948    6.7880 C   0  0  0  0  0  0
    6.9005    8.5662    6.2072 N   0  0  0  0  0  0
    7.8607    7.6786    6.5659 C   0  0  0  0  0  0
    7.7149    6.6431    7.4318 N   0  0  0  0  0  0
    6.4823    6.4995    7.9880 C   0  0  0  0  0  0
    0.6565    6.3133   12.2239 H   0  0  0  0  0  0
   -0.8628    4.7804   11.1165 H   0  0  0  0  0  0
    1.9432    4.3559    7.8742 H   0  0  0  0  0  0
    2.9009    7.1034   12.5601 H   0  0  0  0  0  0
    4.1661    6.6370   11.4557 H   0  0  0  0  0  0
    3.2583    8.0689   11.0983 H   0  0  0  0  0  0
   -2.0791    3.9461    9.6916 H   0  0  0  0  0  0
   -1.0222    0.5918    8.3690 H   0  0  0  0  0  0
   -4.8727   -1.0779    9.1548 H   0  0  0  0  0  0
   -5.6730    1.1255    9.9201 H   0  0  0  0  0  0
   -4.1941    3.0370    9.9411 H   0  0  0  0  0  0
    4.2989    5.2331    8.5438 H   0  0  0  0  0  0
    4.9237    9.1086    6.5052 H   0  0  0  0  0  0
    8.8349    7.8137    6.1167 H   0  0  0  0  0  0
    6.3850    5.6828    8.6902 H   0  0  0  0  0  0
  1 21  1  0  0  0
  1  6  1  0  0  0
  1  2  2  0  0  0
  2  7  1  0  0  0
  2  3  1  0  0  0
  3  4  2  0  0  0
  3 30  1  0  0  0
  4  5  1  0  0  0
  4 31  1  0  0  0
  5  8  1  0  0  0
  5  6  2  0  0  0
  6 32  1  0  0  0
  7 33  1  0  0  0
  7 34  1  0  0  0
  7 35  1  0  0  0
  8  9  1  0  0  0
  8 10  2  0  0  0
  9 11  1  0  0  0
  9 36  1  0  0  0
 11 16  1  0  0  0
 11 12  2  0  0  0
 12 13  1  0  0  0
 12 37  1  0  0  0
 13 17  1  0  0  0
 13 14  2  0  0  0
 14 15  1  0  0  0
 14 38  1  0  0  0
 15 16  2  0  0  0
 15 39  1  0  0  0
 16 40  1  0  0  0
 17 18  1  0  0  0
 17 19  1  0  0  0
 17 20  1  0  0  0
 21 22  1  0  0  0
 21 41  1  0  0  0
 22 23  1  0  0  0
 22 24  2  0  0  0
 23 25  2  0  0  0
 23 29  1  0  0  0
 25 26  1  0  0  0
 25 42  1  0  0  0
 26 27  2  0  0  0
 27 28  1  0  0  0
 27 43  1  0  0  0
 28 29  2  0  0  0
 29 44  1  0  0  0
M  END
> <s_m_entry_id>
32011

> <s_m_entry_name>
dock_pv.274

> <s_m_Source_Path>
/home/csk/Desktop/cluster/DUD-E-result/src

> <s_m_Source_File>
dock_pv.maegz

> <i_m_Source_File_Index>
274

> <chembl_id>
CHEMBL469882

> <chembl_pref_name>
None

> <i_lp_mmshare_version>
53161

> <r_lp_tautomer_probability>
1

> <s_lp_Force_Field>
OPLS_2005

> <r_lp_Energy>
29.824774

> <b_lp_Chiralities_Consistent>
1

> <s_lp_Variant>
CHEMBL267_lig1466-1

> <s_i_glide_gridfile>
glide-grid_3el8

> <i_i_glide_lignum>
1638

> <i_i_glide_rotatable_bonds>
7

> <r_i_docking_score>
-7.5553829293971

> <r_i_glide_ligand_efficiency>
-0.260530445841279

> <r_i_glide_ligand_efficiency_sa>
-0.800432071463167

> <r_i_glide_ligand_efficiency_ln>
-1.72999110285151

> <r_i_glide_gscore>
-7.5553829293971

> <r_i_glide_lipo>
-2.15387439250701

> <r_i_glide_hbond>
-0.180696046658686

> <r_i_glide_metal>
0

> <r_i_glide_rewards>
-3.10440902084673

> <r_i_glide_evdw>
-47.5587158203125

> <r_i_glide_ecoul>
-3.14865684509277

> <r_i_glide_erotb>
0.733830848394872

> <r_i_glide_esite>
0

> <r_i_glide_emodel>
-65.3531627479028

> <r_i_glide_energy>
-50.7073726654053

> <r_i_glide_einternal>
6.35961484909058

> <i_i_glide_confnum>
15

> <i_i_glide_posenum>
20

> <r_i_glide_eff_state_penalty>
0

> <s_user_duplicate_titles>
CHEMBL267_lig1466

> <i_f3d_flags>
0

> <s_m_subgroup_title>
dock_pv

> <s_m_subgroupid>
dock_pv

> <b_m_subgroup_collapsed>
1

$$$$
CHEMBL267_lig419
                    3D
 Schrodinger Suite 2021-1.
 51 54  0  0  1  0            999 V2000
    7.4758    6.4293    7.5879 N   0  0  0  0  0  0
    7.8077    7.4346    6.7378 C   0  0  0  0  0  0
    6.9899    8.3837    6.2114 N   0  0  0  0  0  0
    6.1832    6.3800    7.9882 C   0  0  0  0  0  0
    5.2455    7.3472    7.5882 C   0  0  0  0  0  0
    5.7243    8.2992    6.6470 C   0  0  0  0  0  0
    4.6556    9.1006    6.2717 N   0  0  0  0  0  0
    3.5422    8.6473    6.9576 C   0  0  0  0  0  0
    3.8731    7.6605    7.8629 C   0  0  0  0  0  0
    2.9811    7.0534    8.8809 C   0  0  0  0  0  0
    1.7903    6.4172    8.5254 C   0  0  0  0  0  0
    0.9607    5.8840    9.5127 C   0  0  0  0  0  0
    1.3103    5.9977   10.8563 C   0  0  0  0  0  0
    2.4949    6.6368   11.2176 C   0  0  0  0  0  0
    3.3292    7.1597   10.2313 C   0  0  0  0  0  0
    5.7985    5.3098    8.7870 N   0  0  0  0  0  0
    4.7236   10.2154    5.3015 C   0  0  0  0  0  0
    4.8582    9.7155    3.8630 C   0  0  0  0  0  0
    3.5351    9.1082    3.3928 C   0  0  0  0  0  0
    2.3969   10.0342    3.4853 N   0  0  2  0  0  0
    2.2475   10.8045    4.7326 C   0  0  0  0  0  0
    3.5865   11.2593    5.3635 C   0  0  0  0  0  0
   -0.2021    5.2473    9.1873 O   0  0  0  0  0  0
    1.1341    9.4112    3.0448 C   0  0  0  0  0  0
    0.7562    8.0759    3.7253 C   0  0  0  0  0  0
    0.1987    8.2366    4.9356 O   0  0  0  0  0  0
    0.9981    6.9937    3.1880 O   0  0  0  0  0  0
   -0.3211    7.1167    5.6273 C   0  0  0  0  0  0
    8.8380    7.4667    6.4094 H   0  0  0  0  0  0
    2.5863    9.1220    6.8325 H   0  0  0  0  0  0
    1.5314    6.3245    7.4858 H   0  0  0  0  0  0
    0.6669    5.5848   11.6186 H   0  0  0  0  0  0
    2.7679    6.7206   12.2610 H   0  0  0  0  0  0
    4.2376    7.6648   10.5215 H   0  0  0  0  0  0
    4.8518    5.2627    9.1363 H   0  0  0  0  0  0
    6.4961    4.6266    9.0580 H   0  0  0  0  0  0
    5.6409   10.7373    5.5817 H   0  0  0  0  0  0
    5.6725    8.9938    3.7803 H   0  0  0  0  0  0
    5.1940   10.5175    3.2060 H   0  0  0  0  0  0
    3.2925    8.2837    4.0603 H   0  0  0  0  0  0
    3.6187    8.6976    2.3883 H   0  0  0  0  0  0
    1.6150   11.6677    4.5167 H   0  0  0  0  0  0
    1.6797   10.2318    5.4598 H   0  0  0  0  0  0
    3.9200   12.1796    4.8832 H   0  0  0  0  0  0
    3.4434   11.5942    6.3880 H   0  0  0  0  0  0
   -0.5563    5.4375    8.3115 H   0  0  0  0  0  0
    1.2111    9.2227    1.9798 H   0  0  0  0  0  0
    0.3079   10.1114    3.1645 H   0  0  0  0  0  0
   -0.5994    7.4077    6.6400 H   0  0  0  0  0  0
    0.4069    6.3086    5.6930 H   0  0  0  0  0  0
   -1.2089    6.7338    5.1240 H   0  0  0  0  0  0
  1  2  2  0  0  0
  1  4  1  0  0  0
  2  3  1  0  0  0
  2 29  1  0  0  0
  3  6  2  0  0  0
  4  5  2  0  0  0
  4 16  1  0  0  0
  5  9  1  0  0  0
  5  6  1  0  0  0
  6  7  1  0  0  0
  7  8  1  0  0  0
  7 17  1  0  0  0
  8  9  2  0  0  0
  8 30  1  0  0  0
  9 10  1  0  0  0
 10 15  1  0  0  0
 10 11  2  0  0  0
 11 12  1  0  0  0
 11 31  1  0  0  0
 12 23  1  0  0  0
 12 13  2  0  0  0
 13 14  1  0  0  0
 13 32  1  0  0  0
 14 15  2  0  0  0
 14 33  1  0  0  0
 15 34  1  0  0  0
 16 35  1  0  0  0
 16 36  1  0  0  0
 17 18  1  0  0  0
 17 22  1  0  0  0
 17 37  1  0  0  0
 18 19  1  0  0  0
 18 38  1  0  0  0
 18 39  1  0  0  0
 19 20  1  0  0  0
 19 40  1  0  0  0
 19 41  1  0  0  0
 20 21  1  0  0  0
 20 24  1  0  0  0
 21 22  1  0  0  0
 21 42  1  0  0  0
 21 43  1  0  0  0
 22 44  1  0  0  0
 22 45  1  0  0  0
 23 46  1  0  0  0
 24 25  1  0  0  0
 24 47  1  0  0  0
 24 48  1  0  0  0
 25 26  1  0  0  0
 25 27  2  0  0  0
 26 28  1  0  0  0
 28 49  1  0  0  0
 28 50  1  0  0  0
 28 51  1  0  0  0
M  END
> <s_m_entry_id>
32012

> <s_m_entry_name>
dock_pv.275

> <s_m_Source_Path>
/home/csk/Desktop/cluster/DUD-E-result/src

> <s_m_Source_File>
dock_pv.maegz

> <i_m_Source_File_Index>
275

> <chembl_id>
CHEMBL262276

> <chembl_pref_name>
None

> <i_lp_mmshare_version>
53161

> <r_lp_tautomer_probability>
0.999999999997365

> <s_lp_Force_Field>
OPLS_2005

> <r_lp_Energy>
28.531747

> <b_lp_Chiralities_Consistent>
1

> <s_lp_Variant>
CHEMBL267_lig419-1

> <s_i_glide_gridfile>
glide-grid_3el8

> <i_i_glide_lignum>
497

> <i_i_glide_rotatable_bonds>
6

> <r_i_docking_score>
-7.55486234229684

> <r_i_glide_ligand_efficiency>
-0.269816512224887

> <r_i_glide_ligand_efficiency_sa>
-0.819321844541998

> <r_i_glide_ligand_efficiency_ln>
-1.74388404899918

> <r_i_glide_gscore>
-7.55486234229684

> <r_i_glide_lipo>
-2.58228237140078

> <r_i_glide_hbond>
-0.687617591074444

> <r_i_glide_metal>
0

> <r_i_glide_rewards>
-2.00396616271605

> <r_i_glide_evdw>
-39.0431594848633

> <r_i_glide_ecoul>
-5.75012636184692

> <r_i_glide_erotb>
0.533680711414639

> <r_i_glide_esite>
0

> <r_i_glide_emodel>
-59.2302451463845

> <r_i_glide_energy>
-44.7932858467102

> <r_i_glide_einternal>
7.92017793655396

> <i_i_glide_confnum>
55

> <i_i_glide_posenum>
261

> <r_i_glide_eff_state_penalty>
0

> <s_user_duplicate_titles>
CHEMBL267_lig419,282139

> <i_f3d_flags>
0

> <s_m_subgroup_title>
dock_pv

> <s_m_subgroupid>
dock_pv

> <b_m_subgroup_collapsed>
1

$$$$
CHEMBL267_lig2141
                    3D
 Schrodinger Suite 2021-1.
 54 57  0  0  1  0            999 V2000
    1.3840    9.2607    5.2350 C   0  0  0  0  0  0
    1.2240   10.5948    5.6320 C   0  0  0  0  0  0
    1.7147   11.6447    4.8377 C   0  0  0  0  0  0
    2.4358   11.3429    3.6595 C   0  0  0  0  0  0
    2.5935   10.0037    3.2843 C   0  0  0  0  0  0
    2.0694    8.9755    4.0572 C   0  0  0  0  0  0
    3.0390   12.3874    2.7471 C   0  0  0  0  0  0
    2.5744   12.5009    1.6116 O   0  0  0  0  0  0
    7.1560   13.0691    2.9584 O   0  0  0  0  0  0
    6.2458   13.2302    1.8662 C   0  0  0  0  0  0
    4.9047   13.8987    2.2359 C   0  0  0  0  0  0
    4.1217   13.0923    3.1794 N   0  0  0  0  0  0
    4.7243   12.9501    4.5078 C   0  0  0  0  0  0
    5.7967   11.8873    4.5957 C   0  0  0  0  0  0
    6.9536   12.0029    3.8087 C   0  0  0  0  0  0
    7.9491   11.0372    3.9324 C   0  0  0  0  0  0
    7.7850    9.9489    4.7882 C   0  0  0  0  0  0
    6.6259    9.7951    5.5613 C   0  0  0  0  0  0
    5.6568   10.8036    5.4636 C   0  0  0  0  0  0
    6.4126    8.5946    6.4379 C   0  0  0  0  0  0
    5.1288    8.2376    6.8869 C   0  0  0  0  0  0
    4.9400    7.1211    7.6940 C   0  0  0  0  0  0
    7.4654    7.7504    6.8408 C   0  0  0  0  0  0
    7.2947    6.6263    7.5879 N   0  0  0  0  0  0
    6.0357    6.3227    7.9889 C   0  0  0  0  0  0
    0.7524    7.8838    6.1987 S   0  0  0  0  0  0
   -0.1986    6.8378    4.9594 C   0  0  0  0  0  0
   -0.2012    8.3973    7.1878 O   0  0  0  0  0  0
    1.9202    7.1107    6.6265 O   0  0  0  0  0  0
    5.8289    5.1517    8.7099 N   0  0  0  0  0  0
    1.4027   13.0778    5.2762 C   0  0  0  0  0  0
    0.5819   10.8918    6.7855 F   0  0  0  0  0  0
    3.1276    9.7483    2.3802 H   0  0  0  0  0  0
    2.1984    7.9535    3.7335 H   0  0  0  0  0  0
    6.0771   12.2732    1.3672 H   0  0  0  0  0  0
    6.7417   13.8400    1.1107 H   0  0  0  0  0  0
    4.3524   14.1862    1.3391 H   0  0  0  0  0  0
    5.0918   14.8433    2.7484 H   0  0  0  0  0  0
    5.1878   13.8986    4.7789 H   0  0  0  0  0  0
    3.9760   12.8213    5.2854 H   0  0  0  0  0  0
    8.8519   11.1275    3.3468 H   0  0  0  0  0  0
    8.5745    9.2143    4.8213 H   0  0  0  0  0  0
    4.7556   10.7556    6.0534 H   0  0  0  0  0  0
    4.2513    8.8039    6.6165 H   0  0  0  0  0  0
    3.9522    6.8529    8.0367 H   0  0  0  0  0  0
    8.4884    7.9457    6.5562 H   0  0  0  0  0  0
   -0.6020    5.9787    5.4906 H   0  0  0  0  0  0
    0.4736    6.4961    4.1752 H   0  0  0  0  0  0
   -1.0016    7.4371    4.5379 H   0  0  0  0  0  0
    4.9138    4.9682    9.0957 H   0  0  0  0  0  0
    6.6242    4.5733    8.9628 H   0  0  0  0  0  0
    1.6697   13.8356    4.5412 H   0  0  0  0  0  0
    0.3310   13.1798    5.4523 H   0  0  0  0  0  0
    1.8984   13.3060    6.2201 H   0  0  0  0  0  0
  1  2  1  0  0  0
  1  6  2  0  0  0
  1 26  1  0  0  0
  2  3  2  0  0  0
  2 32  1  0  0  0
  3  4  1  0  0  0
  3 31  1  0  0  0
  4  5  2  0  0  0
  4  7  1  0  0  0
  5  6  1  0  0  0
  5 33  1  0  0  0
  6 34  1  0  0  0
  7  8  2  0  0  0
  7 12  1  0  0  0
  9 10  1  0  0  0
  9 15  1  0  0  0
 10 11  1  0  0  0
 10 35  1  0  0  0
 10 36  1  0  0  0
 11 12  1  0  0  0
 11 37  1  0  0  0
 11 38  1  0  0  0
 12 13  1  0  0  0
 13 14  1  0  0  0
 13 39  1  0  0  0
 13 40  1  0  0  0
 14 15  1  0  0  0
 14 19  2  0  0  0
 15 16  2  0  0  0
 16 17  1  0  0  0
 16 41  1  0  0  0
 17 18  2  0  0  0
 17 42  1  0  0  0
 18 19  1  0  0  0
 18 20  1  0  0  0
 19 43  1  0  0  0
 20 21  2  0  0  0
 20 23  1  0  0  0
 21 22  1  0  0  0
 21 44  1  0  0  0
 22 25  2  0  0  0
 22 45  1  0  0  0
 23 24  2  0  0  0
 23 46  1  0  0  0
 24 25  1  0  0  0
 25 30  1  0  0  0
 26 27  1  0  0  0
 26 28  2  0  0  0
 26 29  2  0  0  0
 27 47  1  0  0  0
 27 48  1  0  0  0
 27 49  1  0  0  0
 30 50  1  0  0  0
 30 51  1  0  0  0
 31 52  1  0  0  0
 31 53  1  0  0  0
 31 54  1  0  0  0
M  END
> <s_m_entry_id>
32013

> <s_m_entry_name>
dock_pv.276

> <s_m_Source_Path>
/home/csk/Desktop/cluster/DUD-E-result/src

> <s_m_Source_File>
dock_pv.maegz

> <i_m_Source_File_Index>
276

> <chembl_id>
CHEMBL2333365

> <chembl_pref_name>
None

> <i_lp_mmshare_version>
53161

> <r_lp_tautomer_probability>
0.999999772200052

> <s_lp_Force_Field>
OPLS_2005

> <r_lp_Energy>
36.522751

> <b_lp_Chiralities_Consistent>
1

> <s_lp_Variant>
CHEMBL267_lig2141-1

> <s_i_glide_gridfile>
glide-grid_3el8

> <i_i_glide_lignum>
2427

> <i_i_glide_rotatable_bonds>
4

> <r_i_docking_score>
-7.55096376747983

> <r_i_glide_ligand_efficiency>
-0.235967617733745

> <r_i_glide_ligand_efficiency_sa>
-0.7491504883765

> <r_i_glide_ligand_efficiency_ln>
-1.69086661903716

> <r_i_glide_gscore>
-7.55096376747983

> <r_i_glide_lipo>
-3.10448242914515

> <r_i_glide_hbond>
-0.329021262228158

> <r_i_glide_metal>
0

> <r_i_glide_rewards>
-1.3653051126543

> <r_i_glide_evdw>
-38.2043190002441

> <r_i_glide_ecoul>
-6.92899990081787

> <r_i_glide_erotb>
0.290475756729171

> <r_i_glide_esite>
-0.093064785046503

> <r_i_glide_emodel>
-63.435824191844

> <r_i_glide_energy>
-45.133318901062

> <r_i_glide_einternal>
4.78703689575195

> <i_i_glide_confnum>
16

> <i_i_glide_posenum>
379

> <r_i_glide_eff_state_penalty>
0

> <s_user_duplicate_titles>
CHEMBL267_lig2141

> <i_f3d_flags>
0

> <s_m_subgroup_title>
dock_pv

> <s_m_subgroupid>
dock_pv

> <b_m_subgroup_collapsed>
1

$$$$
CHEMBL267_lig3874
                    3D
 Schrodinger Suite 2021-1.
 51 54  0  0  1  0            999 V2000
    1.7867    5.7329    9.6898 C   0  0  0  0  0  0
    0.4808    6.0819    9.3449 C   0  0  0  0  0  0
    0.1981    6.8338    8.2514 N   0  0  0  0  0  0
    1.2476    7.2246    7.4886 C   0  0  0  0  0  0
    2.5482    6.9325    7.7480 N   0  0  0  0  0  0
    2.8115    6.1834    8.8538 C   0  0  0  0  0  0
    0.9178    7.9476    6.3365 N   0  0  0  0  0  0
    1.7099    8.7500    5.5025 C   0  0  0  0  0  0
    1.3334    8.9030    4.1659 C   0  0  0  0  0  0
    2.0565    9.7451    3.3162 C   0  0  0  0  0  0
    3.1944   10.4072    3.8028 C   0  0  0  0  0  0
    3.5742   10.2594    5.1349 C   0  0  0  0  0  0
    2.8283    9.4418    5.9825 C   0  0  0  0  0  0
    4.1315    5.8373    9.1701 N   0  0  0  0  0  0
    5.2648    6.2358    8.5055 C   0  0  0  0  0  0
    5.6366    7.4057    7.8711 C   0  0  0  0  0  0
    6.9497    7.2231    7.4222 C   0  0  0  0  0  0
    7.3810    6.0145    7.7157 N   0  0  0  0  0  0
    6.3704    5.4370    8.3879 N   0  0  0  0  0  0
    7.8238    8.2020    6.6747 C   0  0  0  0  0  0
    8.1832    7.9777    5.2337 C   0  0  0  0  0  0
    7.2290    9.0981    5.6169 C   0  0  0  0  0  0
    1.6056    9.8761    1.9946 N   0  0  0  0  0  0
    1.6180   10.9999    1.2498 C   0  0  0  0  0  0
    0.9991   10.8549   -0.1468 C   0  0  0  0  0  0
    2.0351   12.0901    1.6460 O   0  0  0  0  0  0
    1.1495   12.0687   -1.0914 C   0  0  0  0  0  0
    2.5900   12.3229   -1.5615 C   0  0  0  0  0  0
    1.9903    5.1367   10.5646 H   0  0  0  0  0  0
   -0.3634    5.7601    9.9395 H   0  0  0  0  0  0
   -0.0698    7.9539    6.1303 H   0  0  0  0  0  0
    0.4614    8.3848    3.7940 H   0  0  0  0  0  0
    3.7808   11.0430    3.1560 H   0  0  0  0  0  0
    4.4402   10.7848    5.5125 H   0  0  0  0  0  0
    3.1186    9.3594    7.0190 H   0  0  0  0  0  0
    4.1977    5.2220    9.9738 H   0  0  0  0  0  0
    5.0362    8.2948    7.7639 H   0  0  0  0  0  0
    6.4558    4.5069    8.7774 H   0  0  0  0  0  0
    8.6088    8.6363    7.2951 H   0  0  0  0  0  0
    9.1847    8.2390    4.8994 H   0  0  0  0  0  0
    7.7974    7.0818    4.7423 H   0  0  0  0  0  0
    6.1724    8.9915    5.3720 H   0  0  0  0  0  0
    7.5673   10.1338    5.5667 H   0  0  0  0  0  0
    1.1105    9.0790    1.6082 H   0  0  0  0  0  0
   -0.0649   10.6833    0.0141 H   0  0  0  0  0  0
    1.3979    9.9586   -0.6257 H   0  0  0  0  0  0
    0.7499   12.9686   -0.6198 H   0  0  0  0  0  0
    0.5278   11.9009   -1.9722 H   0  0  0  0  0  0
    2.6123   13.1451   -2.2786 H   0  0  0  0  0  0
    2.9982   11.4376   -2.0494 H   0  0  0  0  0  0
    3.2497   12.5844   -0.7335 H   0  0  0  0  0  0
  1  2  2  0  0  0
  1  6  1  0  0  0
  1 29  1  0  0  0
  2  3  1  0  0  0
  2 30  1  0  0  0
  3  4  2  0  0  0
  4  5  1  0  0  0
  4  7  1  0  0  0
  5  6  2  0  0  0
  6 14  1  0  0  0
  7  8  1  0  0  0
  7 31  1  0  0  0
  8  9  2  0  0  0
  8 13  1  0  0  0
  9 10  1  0  0  0
  9 32  1  0  0  0
 10 11  2  0  0  0
 10 23  1  0  0  0
 11 12  1  0  0  0
 11 33  1  0  0  0
 12 13  2  0  0  0
 12 34  1  0  0  0
 13 35  1  0  0  0
 14 15  1  0  0  0
 14 36  1  0  0  0
 15 19  1  0  0  0
 15 16  2  0  0  0
 16 17  1  0  0  0
 16 37  1  0  0  0
 17 20  1  0  0  0
 17 18  2  0  0  0
 18 19  1  0  0  0
 19 38  1  0  0  0
 20 21  1  0  0  0
 20 22  1  0  0  0
 20 39  1  0  0  0
 21 22  1  0  0  0
 21 40  1  0  0  0
 21 41  1  0  0  0
 22 42  1  0  0  0
 22 43  1  0  0  0
 23 24  1  0  0  0
 23 44  1  0  0  0
 24 25  1  0  0  0
 24 26  2  0  0  0
 25 27  1  0  0  0
 25 45  1  0  0  0
 25 46  1  0  0  0
 27 28  1  0  0  0
 27 47  1  0  0  0
 27 48  1  0  0  0
 28 49  1  0  0  0
 28 50  1  0  0  0
 28 51  1  0  0  0
M  END
> <s_m_entry_id>
32014

> <s_m_entry_name>
dock_pv.277

> <s_m_Source_Path>
/home/csk/Desktop/cluster/DUD-E-result/src

> <s_m_Source_File>
dock_pv.maegz

> <i_m_Source_File_Index>
277

> <chembl_id>
CHEMBL3617732

> <chembl_pref_name>
None

> <i_lp_mmshare_version>
53161

> <r_lp_tautomer_probability>
0.15739995007316

> <s_lp_Force_Field>
OPLS_2005

> <r_lp_Energy>
14.074283

> <b_lp_Chiralities_Consistent>
1

> <s_lp_Variant>
CHEMBL267_lig3874-2

> <s_i_glide_gridfile>
glide-grid_3el8

> <i_i_glide_lignum>
4782

> <i_i_glide_rotatable_bonds>
9

> <r_i_docking_score>
-7.54556301449539

> <r_i_glide_ligand_efficiency>
-0.269484393374835

> <r_i_glide_ligand_efficiency_sa>
-0.818313336105699

> <r_i_glide_ligand_efficiency_ln>
-1.74173749110248

> <r_i_glide_gscore>
-7.54556301449539

> <r_i_glide_lipo>
-2.34789377378006

> <r_i_glide_hbond>
-0.971234236774341

> <r_i_glide_metal>
0

> <r_i_glide_rewards>
-1.76726990576324

> <r_i_glide_evdw>
-37.4748306274414

> <r_i_glide_ecoul>
-10.7506885528564

> <r_i_glide_erotb>
1.08763538995922

> <r_i_glide_esite>
-0.0604556738364379

> <r_i_glide_emodel>
-67.3229626126311

> <r_i_glide_energy>
-48.2255191802979

> <r_i_glide_einternal>
5.76530313491821

> <i_i_glide_confnum>
7

> <i_i_glide_posenum>
186

> <r_i_glide_eff_state_penalty>
0

> <s_user_duplicate_titles>
CHEMBL267_lig3874,CHEMBL267_lig3874

> <i_f3d_flags>
0

> <s_m_subgroup_title>
dock_pv

> <s_m_subgroupid>
dock_pv

> <b_m_subgroup_collapsed>
1

$$$$
CHEMBL267_lig1907
                    3D
 Schrodinger Suite 2021-1.
 43 47  0  0  1  0            999 V2000
    7.8185    6.9210    7.4073 N   0  0  0  0  0  0
    8.3086    7.8656    6.5629 C   0  0  0  0  0  0
    7.6137    8.7998    5.8632 N   0  0  0  0  0  0
    6.4749    6.9027    7.5881 C   0  0  0  0  0  0
    5.6434    7.8370    6.9445 C   0  0  0  0  0  0
    6.2941    8.7495    6.0877 C   0  0  0  0  0  0
    5.2989    9.5411    5.5468 N   0  0  0  0  0  0
    4.0792    9.1534    5.9874 N   0  0  0  0  0  0
    4.2550    8.1714    6.8425 C   0  0  0  0  0  0
    3.1206    7.5315    7.5546 C   0  0  0  0  0  0
    3.1684    7.3526    8.9371 C   0  0  0  0  0  0
    0.9976    6.3651    7.4424 N   0  0  0  0  0  0
    2.0160    7.0412    6.8569 C   0  0  0  0  0  0
    5.9644    5.8822    8.3878 N   0  0  0  0  0  0
    1.0379    6.1797    8.7921 C   0  0  0  0  0  0
    2.1096    6.6801    9.5925 C   0  0  0  0  0  0
    2.0761    6.4952   10.9954 C   0  0  0  0  0  0
    0.9979    5.8371   11.5819 C   0  0  0  0  0  0
   -0.0265    5.3162   10.7991 C   0  0  0  0  0  0
   -0.0157    5.4752    9.4171 C   0  0  0  0  0  0
    5.4348   10.6735    4.6237 C   0  0  0  0  0  0
    4.7146   10.4800    3.2736 C   0  0  0  0  0  0
    4.2103   11.8730    2.8566 C   0  0  0  0  0  0
    4.6715   12.8513    3.9465 C   0  0  0  0  0  0
    4.8773   11.9887    5.1904 C   0  0  0  0  0  0
    9.3783    7.8505    6.3961 H   0  0  0  0  0  0
    4.0017    7.7266    9.5150 H   0  0  0  0  0  0
    1.9469    7.1554    5.7848 H   0  0  0  0  0  0
    4.9672    5.8077    8.5182 H   0  0  0  0  0  0
    6.5984    5.2072    8.7902 H   0  0  0  0  0  0
    2.8816    6.8734   11.6085 H   0  0  0  0  0  0
    0.9641    5.7123   12.6551 H   0  0  0  0  0  0
   -0.8534    4.8000   11.2648 H   0  0  0  0  0  0
   -0.8279    5.0845    8.8210 H   0  0  0  0  0  0
    6.5032   10.8068    4.4344 H   0  0  0  0  0  0
    5.3856   10.0572    2.5252 H   0  0  0  0  0  0
    3.8576    9.8102    3.3656 H   0  0  0  0  0  0
    4.5887   12.1658    1.8754 H   0  0  0  0  0  0
    3.1211   11.8718    2.7918 H   0  0  0  0  0  0
    5.6150   13.3193    3.6548 H   0  0  0  0  0  0
    3.9518   13.6537    4.1153 H   0  0  0  0  0  0
    3.9097   11.8310    5.6723 H   0  0  0  0  0  0
    5.5446   12.4531    5.9153 H   0  0  0  0  0  0
  1  2  2  0  0  0
  1  4  1  0  0  0
  2  3  1  0  0  0
  2 26  1  0  0  0
  3  6  2  0  0  0
  4 14  1  0  0  0
  4  5  2  0  0  0
  5  9  1  0  0  0
  5  6  1  0  0  0
  6  7  1  0  0  0
  7  8  1  0  0  0
  7 21  1  0  0  0
  8  9  2  0  0  0
  9 10  1  0  0  0
 10 13  1  0  0  0
 10 11  2  0  0  0
 11 16  1  0  0  0
 11 27  1  0  0  0
 12 15  1  0  0  0
 12 13  2  0  0  0
 13 28  1  0  0  0
 14 29  1  0  0  0
 14 30  1  0  0  0
 15 16  1  0  0  0
 15 20  2  0  0  0
 16 17  2  0  0  0
 17 18  1  0  0  0
 17 31  1  0  0  0
 18 19  2  0  0  0
 18 32  1  0  0  0
 19 20  1  0  0  0
 19 33  1  0  0  0
 20 34  1  0  0  0
 21 22  1  0  0  0
 21 25  1  0  0  0
 21 35  1  0  0  0
 22 23  1  0  0  0
 22 36  1  0  0  0
 22 37  1  0  0  0
 23 24  1  0  0  0
 23 38  1  0  0  0
 23 39  1  0  0  0
 24 25  1  0  0  0
 24 40  1  0  0  0
 24 41  1  0  0  0
 25 42  1  0  0  0
 25 43  1  0  0  0
M  END
> <s_m_entry_id>
32015

> <s_m_entry_name>
dock_pv.278

> <s_m_Source_Path>
/home/csk/Desktop/cluster/DUD-E-result/src

> <s_m_Source_File>
dock_pv.maegz

> <i_m_Source_File_Index>
278

> <chembl_id>
CHEMBL1242755

> <chembl_pref_name>
None

> <i_lp_mmshare_version>
53161

> <r_lp_tautomer_probability>
1

> <s_lp_Force_Field>
OPLS_2005

> <r_lp_Energy>
36.219276

> <b_lp_Chiralities_Consistent>
1

> <s_lp_Variant>
CHEMBL267_lig1907-1

> <s_i_glide_gridfile>
glide-grid_3el8

> <i_i_glide_lignum>
2182

> <i_i_glide_rotatable_bonds>
2

> <r_i_docking_score>
-7.54280202383964

> <r_i_glide_ligand_efficiency>
-0.301712080953586

> <r_i_glide_ligand_efficiency_sa>
-0.882211475594824

> <r_i_glide_ligand_efficiency_ln>
-1.78787011918638

> <r_i_glide_gscore>
-7.54280202383964

> <r_i_glide_lipo>
-2.55088618231421

> <r_i_glide_hbond>
-0.113976607614463

> <r_i_glide_metal>
0

> <r_i_glide_rewards>
-2.55404819002225

> <r_i_glide_evdw>
-40.0602531433105

> <r_i_glide_ecoul>
-3.74732279777527

> <r_i_glide_erotb>
0.241220032943097

> <r_i_glide_esite>
0

> <r_i_glide_emodel>
-61.9771360827713

> <r_i_glide_energy>
-43.8075759410858

> <r_i_glide_einternal>
2.72554469108582

> <i_i_glide_confnum>
5

> <i_i_glide_posenum>
297

> <r_i_glide_eff_state_penalty>
0

> <s_user_duplicate_titles>
CHEMBL267_lig1907

> <i_f3d_flags>
0

> <s_m_subgroup_title>
dock_pv

> <s_m_subgroupid>
dock_pv

> <b_m_subgroup_collapsed>
1

$$$$
CHEMBL267_lig667
                    3D
 Schrodinger Suite 2021-1.
 42 45  0  0  1  0            999 V2000
    3.1556    8.3773    7.4062 N   0  0  0  0  0  0
    4.5091    8.1584    7.1881 C   0  0  0  0  0  0
    2.6036    7.3171    8.1281 C   0  0  0  0  0  0
    4.8772    7.0369    7.9583 C   0  0  0  0  0  0
    3.6952    6.4888    8.4846 C   0  0  0  0  0  0
    5.4403    8.8398    6.3875 C   0  0  0  0  0  0
    1.2722    6.9502    8.4516 C   0  0  0  0  0  0
    6.2218    6.6325    7.9878 C   0  0  0  0  0  0
    6.7583    8.3870    6.3943 C   0  0  0  0  0  0
    2.4209    9.4481    6.7585 C   0  0  0  0  0  0
    3.4494    5.3061    9.1769 C   0  0  0  0  0  0
    7.1519    7.3093    7.1952 C   0  0  0  0  0  0
    1.0750    5.7457    9.1437 C   0  0  0  0  0  0
    2.1488    4.9457    9.4931 C   0  0  0  0  0  0
    1.8037    9.0793    5.4244 C   0  0  0  0  0  0
    0.1979    7.6667    7.9878 O   0  0  0  0  0  0
    1.3238    7.7858    5.1917 C   0  0  0  0  0  0
    7.6594    9.0379    5.5880 O   0  0  0  0  0  0
    8.4496    6.8628    7.1888 O   0  0  0  0  0  0
   -0.1748    5.2785    9.4784 O   0  0  0  0  0  0
    0.5145    7.5197    4.1048 C   0  0  0  0  0  0
    0.8645    9.7852    3.3176 C   0  0  0  0  0  0
    1.6086   10.0705    4.4592 C   0  0  0  0  0  0
    0.2678    8.5320    3.1879 C   0  0  0  0  0  0
   -0.1478    6.1668    3.9878 C   0  0  0  0  0  0
    5.1602    9.6826    5.7734 H   0  0  0  0  0  0
    6.5259    5.7701    8.5637 H   0  0  0  0  0  0
    3.1000   10.2892    6.6287 H   0  0  0  0  0  0
    1.6290    9.7807    7.4293 H   0  0  0  0  0  0
    4.2613    4.6372    9.3956 H   0  0  0  0  0  0
    1.9694    4.0036    9.9874 H   0  0  0  0  0  0
   -0.4903    7.0732    7.6616 H   0  0  0  0  0  0
    1.4957    6.9786    5.8799 H   0  0  0  0  0  0
    8.5709    8.7694    5.7237 H   0  0  0  0  0  0
    8.9313    7.0501    6.3762 H   0  0  0  0  0  0
   -0.9314    5.8429    9.3014 H   0  0  0  0  0  0
    0.6745   10.5533    2.5827 H   0  0  0  0  0  0
    1.9891   11.0705    4.6099 H   0  0  0  0  0  0
   -0.4211    8.3437    2.3869 H   0  0  0  0  0  0
    0.5732    5.4370    3.6295 H   0  0  0  0  0  0
   -0.5169    5.8384    4.9599 H   0  0  0  0  0  0
   -1.0023    6.2025    3.3171 H   0  0  0  0  0  0
  1  2  1  0  0  0
  1  3  1  0  0  0
  1 10  1  0  0  0
  2  4  2  0  0  0
  2  6  1  0  0  0
  3  5  2  0  0  0
  3  7  1  0  0  0
  4  8  1  0  0  0
  4  5  1  0  0  0
  5 11  1  0  0  0
  6  9  2  0  0  0
  6 26  1  0  0  0
  7 13  2  0  0  0
  7 16  1  0  0  0
  8 12  2  0  0  0
  8 27  1  0  0  0
  9 12  1  0  0  0
  9 18  1  0  0  0
 10 15  1  0  0  0
 10 28  1  0  0  0
 10 29  1  0  0  0
 11 14  2  0  0  0
 11 30  1  0  0  0
 12 19  1  0  0  0
 13 14  1  0  0  0
 13 20  1  0  0  0
 14 31  1  0  0  0
 15 17  1  0  0  0
 15 23  2  0  0  0
 16 32  1  0  0  0
 17 21  2  0  0  0
 17 33  1  0  0  0
 18 34  1  0  0  0
 19 35  1  0  0  0
 20 36  1  0  0  0
 21 25  1  0  0  0
 21 24  1  0  0  0
 22 23  1  0  0  0
 22 24  2  0  0  0
 22 37  1  0  0  0
 23 38  1  0  0  0
 24 39  1  0  0  0
 25 40  1  0  0  0
 25 41  1  0  0  0
 25 42  1  0  0  0
M  END
> <s_m_entry_id>
32016

> <s_m_entry_name>
dock_pv.279

> <s_m_Source_Path>
/home/csk/Desktop/cluster/DUD-E-result/src

> <s_m_Source_File>
dock_pv.maegz

> <i_m_Source_File_Index>
279

> <chembl_id>
CHEMBL73937

> <chembl_pref_name>
None

> <i_lp_mmshare_version>
53161

> <r_lp_tautomer_probability>
1

> <s_lp_Force_Field>
OPLS_2005

> <r_lp_Energy>
15.719666

> <b_lp_Chiralities_Consistent>
1

> <s_lp_Variant>
CHEMBL267_lig667-1

> <s_i_glide_gridfile>
glide-grid_3el8

> <i_i_glide_lignum>
786

> <i_i_glide_rotatable_bonds>
6

> <r_i_docking_score>
-7.54152558665865

> <r_i_glide_ligand_efficiency>
-0.301661023466346

> <r_i_glide_ligand_efficiency_sa>
-0.882062182596628

> <r_i_glide_ligand_efficiency_ln>
-1.78756756532275

> <r_i_glide_gscore>
-7.54152558665865

> <r_i_glide_lipo>
-2.99955426600647

> <r_i_glide_hbond>
0

> <r_i_glide_metal>
0

> <r_i_glide_rewards>
-1.88755958633609

> <r_i_glide_evdw>
-28.0013542175293

> <r_i_glide_ecoul>
-10.5997800827026

> <r_i_glide_erotb>
0.335622988965761

> <r_i_glide_esite>
0

> <r_i_glide_emodel>
-54.8649310844826

> <r_i_glide_energy>
-38.6011343002319

> <r_i_glide_einternal>
3.01804137229919

> <i_i_glide_confnum>
4

> <i_i_glide_posenum>
12

> <r_i_glide_eff_state_penalty>
0

> <s_user_duplicate_titles>
CHEMBL267_lig667

> <i_f3d_flags>
0

> <s_m_subgroup_title>
dock_pv

> <s_m_subgroupid>
dock_pv

> <b_m_subgroup_collapsed>
1

$$$$
CHEMBL267_lig1438
                    3D
 Schrodinger Suite 2021-1.
 41 44  0  0  1  0            999 V2000
    2.9535    8.2417    6.7310 C   0  0  0  0  0  0
    3.5378    7.5232    7.7805 C   0  0  0  0  0  0
    4.9324    7.4081    7.8329 C   0  0  0  0  0  0
    5.7529    8.0167    6.8829 C   0  0  0  0  0  0
    2.6739    6.8731    8.8103 C   0  0  0  0  0  0
    1.8035    5.7673    8.3590 C   0  0  0  0  0  0
    1.0202    5.1670    9.3293 N   0  0  0  0  0  0
    1.0128    5.6403   10.6206 C   0  0  0  0  0  0
    1.7977    6.6369   11.0624 C   0  0  0  0  0  0
    2.6727    7.3023   10.1069 C   0  0  0  0  0  0
    3.7597    8.8553    5.7450 C   0  0  0  0  0  0
    5.1803    8.7514    5.8205 C   0  0  0  0  0  0
    5.9905    9.3386    4.8906 N   0  0  0  0  0  0
    5.3769   10.0164    3.8894 C   0  0  0  0  0  0
    4.0450   10.1671    3.7099 N   0  0  0  0  0  0
    3.2565    9.5838    4.6432 C   0  0  0  0  0  0
    0.1979    4.0509    9.0328 C   0  0  0  0  0  0
    0.7665    2.8468    8.6107 C   0  0  0  0  0  0
   -0.0198    1.7202    8.3880 C   0  0  0  0  0  0
   -1.1874    4.1037    9.2184 C   0  0  0  0  0  0
   -1.9873    2.9817    8.9828 C   0  0  0  0  0  0
   -1.3972    1.7818    8.5712 C   0  0  0  0  0  0
    6.1983   10.6374    2.9630 N   0  0  0  0  0  0
    3.5373    8.4460   10.5892 C   0  0  0  0  0  0
    1.7935    5.4370    7.1756 O   0  0  0  0  0  0
   -2.3202    0.3332    8.3885 Cl  0  0  0  0  0  0
   -3.3219    3.0537    9.1889 F   0  0  0  0  0  0
    1.8786    8.3261    6.6611 H   0  0  0  0  0  0
    5.3866    6.8323    8.6270 H   0  0  0  0  0  0
    6.8273    7.9218    6.9424 H   0  0  0  0  0  0
    0.3388    5.1023   11.2754 H   0  0  0  0  0  0
    1.7664    6.9445   12.0983 H   0  0  0  0  0  0
    2.1898    9.6942    4.5111 H   0  0  0  0  0  0
    1.8252    2.7740    8.4665 H   0  0  0  0  0  0
    0.4411    0.7878    8.0958 H   0  0  0  0  0  0
   -1.6507    5.0258    9.5374 H   0  0  0  0  0  0
    7.1809   10.6893    3.1793 H   0  0  0  0  0  0
    5.7693   11.2782    2.3121 H   0  0  0  0  0  0
    3.7982    8.3353   11.6425 H   0  0  0  0  0  0
    4.4987    8.4825   10.0893 H   0  0  0  0  0  0
    2.9987    9.3765   10.3887 H   0  0  0  0  0  0
  1  2  2  0  0  0
  1 11  1  0  0  0
  1 28  1  0  0  0
  2  3  1  0  0  0
  2  5  1  0  0  0
  3  4  2  0  0  0
  3 29  1  0  0  0
  4 12  1  0  0  0
  4 30  1  0  0  0
  5 10  2  0  0  0
  5  6  1  0  0  0
  6  7  1  0  0  0
  6 25  2  0  0  0
  7  8  1  0  0  0
  7 17  1  0  0  0
  8  9  2  0  0  0
  8 31  1  0  0  0
  9 10  1  0  0  0
  9 32  1  0  0  0
 10 24  1  0  0  0
 11 16  2  0  0  0
 11 12  1  0  0  0
 12 13  2  0  0  0
 13 14  1  0  0  0
 14 15  2  0  0  0
 14 23  1  0  0  0
 15 16  1  0  0  0
 16 33  1  0  0  0
 17 18  2  0  0  0
 17 20  1  0  0  0
 18 19  1  0  0  0
 18 34  1  0  0  0
 19 22  2  0  0  0
 19 35  1  0  0  0
 20 21  2  0  0  0
 20 36  1  0  0  0
 21 22  1  0  0  0
 21 27  1  0  0  0
 22 26  1  0  0  0
 23 37  1  0  0  0
 23 38  1  0  0  0
 24 39  1  0  0  0
 24 40  1  0  0  0
 24 41  1  0  0  0
M  END
> <s_m_entry_id>
32017

> <s_m_entry_name>
dock_pv.280

> <s_m_Source_Path>
/home/csk/Desktop/cluster/DUD-E-result/src

> <s_m_Source_File>
dock_pv.maegz

> <i_m_Source_File_Index>
280

> <chembl_id>
CHEMBL497754

> <chembl_pref_name>
None

> <i_lp_mmshare_version>
53161

> <r_lp_tautomer_probability>
1

> <s_lp_Force_Field>
OPLS_2005

> <r_lp_Energy>
38.619097

> <b_lp_Chiralities_Consistent>
1

> <s_lp_Variant>
CHEMBL267_lig1438-1

> <s_i_glide_gridfile>
glide-grid_3el8

> <i_i_glide_lignum>
1606

> <i_i_glide_rotatable_bonds>
2

> <r_i_docking_score>
-7.54060115454546

> <r_i_glide_ligand_efficiency>
-0.279281524242424

> <r_i_glide_ligand_efficiency_sa>
-0.837844571806807

> <r_i_glide_ligand_efficiency_ln>
-1.75532763225229

> <r_i_glide_gscore>
-7.54060115454546

> <r_i_glide_lipo>
-3.74972951220224

> <r_i_glide_hbond>
0

> <r_i_glide_metal>
0

> <r_i_glide_rewards>
-1.88265306242728

> <r_i_glide_evdw>
-37.7698440551758

> <r_i_glide_ecoul>
-1.91568803787231

> <r_i_glide_erotb>
0.267626828523698

> <r_i_glide_esite>
0

> <r_i_glide_emodel>
-53.8848544844065

> <r_i_glide_energy>
-39.6855320930481

> <r_i_glide_einternal>
1.96317338943481

> <i_i_glide_confnum>
5

> <i_i_glide_posenum>
13

> <r_i_glide_eff_state_penalty>
0

> <s_user_duplicate_titles>
CHEMBL267_lig1438,486699

> <i_f3d_flags>
0

> <s_m_subgroup_title>
dock_pv

> <s_m_subgroupid>
dock_pv

> <b_m_subgroup_collapsed>
1

$$$$
CHEMBL267_lig666
                    3D
 Schrodinger Suite 2021-1.
 28 30  0  0  1  0            999 V2000
    4.0181    7.7202    7.5371 C   0  0  0  0  0  0
    3.0424    9.3417    5.9873 C   0  0  0  0  0  0
    2.8563    8.3594    7.0031 C   0  0  0  0  0  0
    5.2938    8.0549    7.0009 C   0  0  0  0  0  0
    4.2580    9.6656    5.4980 N   0  0  0  0  0  0
    5.3611    9.0337    5.9668 C   0  0  0  0  0  0
    3.8502    6.7448    8.5654 C   0  0  0  0  0  0
    1.5757    7.9772    7.4934 C   0  0  0  0  0  0
    6.5051    7.4347    7.4176 C   0  0  0  0  0  0
    6.6105    9.3571    5.3862 C   0  0  0  0  0  0
    2.5824    6.3937    9.0141 C   0  0  0  0  0  0
    1.4501    6.9997    8.4730 C   0  0  0  0  0  0
    7.7111    7.7343    6.7966 C   0  0  0  0  0  0
    7.7695    8.6997    5.7897 C   0  0  0  0  0  0
    1.9205    9.9585    5.5053 O   0  0  0  0  0  0
    8.8223    7.0371    7.1880 O   0  0  0  0  0  0
    0.1983    6.6372    8.8964 O   0  0  0  0  0  0
    2.4567    5.4363    9.9878 O   0  0  0  0  0  0
    8.9572    9.0370    5.1881 O   0  0  0  0  0  0
    4.6963    6.2420    9.0033 H   0  0  0  0  0  0
    0.6859    8.4338    7.0837 H   0  0  0  0  0  0
    6.5099    6.6740    8.1806 H   0  0  0  0  0  0
    6.6542   10.1052    4.6084 H   0  0  0  0  0  0
    2.1569   10.5646    4.7998 H   0  0  0  0  0  0
    9.5244    7.0371    6.5271 H   0  0  0  0  0  0
    0.2362    5.8948    9.5079 H   0  0  0  0  0  0
    3.2896    5.1221   10.3617 H   0  0  0  0  0  0
    9.6972    8.4641    5.4029 H   0  0  0  0  0  0
  1  3  1  0  0  0
  1  4  2  0  0  0
  1  7  1  0  0  0
  2  3  2  0  0  0
  2 15  1  0  0  0
  2  5  1  0  0  0
  3  8  1  0  0  0
  4  6  1  0  0  0
  4  9  1  0  0  0
  5  6  2  0  0  0
  6 10  1  0  0  0
  7 11  2  0  0  0
  7 20  1  0  0  0
  8 12  2  0  0  0
  8 21  1  0  0  0
  9 13  2  0  0  0
  9 22  1  0  0  0
 10 14  2  0  0  0
 10 23  1  0  0  0
 11 12  1  0  0  0
 11 18  1  0  0  0
 12 17  1  0  0  0
 13 14  1  0  0  0
 13 16  1  0  0  0
 14 19  1  0  0  0
 15 24  1  0  0  0
 16 25  1  0  0  0
 17 26  1  0  0  0
 18 27  1  0  0  0
 19 28  1  0  0  0
M  END
> <s_m_entry_id>
32018

> <s_m_entry_name>
dock_pv.281

> <s_m_Source_Path>
/home/csk/Desktop/cluster/DUD-E-result/src

> <s_m_Source_File>
dock_pv.maegz

> <i_m_Source_File_Index>
281

> <chembl_id>
CHEMBL306785

> <chembl_pref_name>
None

> <i_lp_mmshare_version>
53161

> <r_lp_tautomer_probability>
1

> <s_lp_Force_Field>
OPLS_2005

> <r_lp_Energy>
13.632456

> <b_lp_Chiralities_Consistent>
1

> <s_lp_Variant>
CHEMBL267_lig666-1

> <s_i_glide_gridfile>
glide-grid_3el8

> <i_i_glide_lignum>
785

> <i_i_glide_rotatable_bonds>
5

> <r_i_docking_score>
-7.53980755285282

> <r_i_glide_ligand_efficiency>
-0.396831976465938

> <r_i_glide_ligand_efficiency_sa>
-1.058907099228

> <r_i_glide_ligand_efficiency_ln>
-1.91150315486594

> <r_i_glide_gscore>
-7.53980755285282

> <r_i_glide_lipo>
-2.48606259305326

> <r_i_glide_hbond>
0

> <r_i_glide_metal>
0

> <r_i_glide_rewards>
-2.20005428787879

> <r_i_glide_evdw>
-27.1711254119873

> <r_i_glide_ecoul>
-9.96756267547607

> <r_i_glide_erotb>
0

> <r_i_glide_esite>
0

> <r_i_glide_emodel>
-52.8457140558058

> <r_i_glide_energy>
-37.1386880874634

> <r_i_glide_einternal>
1.52710103988647

> <i_i_glide_confnum>
1

> <i_i_glide_posenum>
81

> <r_i_glide_eff_state_penalty>
0

> <s_user_duplicate_titles>
CHEMBL267_lig666

> <i_f3d_flags>
0

> <s_m_subgroup_title>
dock_pv

> <s_m_subgroupid>
dock_pv

> <b_m_subgroup_collapsed>
1

$$$$
CHEMBL267_lig1881
                    3D
 Schrodinger Suite 2021-1.
 41 44  0  0  1  0            999 V2000
    0.5981    8.6373    5.4749 N   0  0  0  0  0  0
   -0.1399    8.1564    6.5027 C   0  0  0  0  0  0
    0.3074    7.6267    7.6668 N   0  0  0  0  0  0
    1.9439    8.5941    5.6078 C   0  0  0  0  0  0
    2.5491    8.0893    6.7810 C   0  0  0  0  0  0
    1.6430    7.6004    7.7528 C   0  0  0  0  0  0
    2.4120    7.0594    8.7631 N   0  0  0  0  0  0
    3.7220    7.2463    8.5188 N   0  0  0  0  0  0
    3.8513    7.8725    7.3664 C   0  0  0  0  0  0
    5.2142    8.2372    6.8594 C   0  0  0  0  0  0
    6.3279    7.4828    7.2509 C   0  0  0  0  0  0
    7.5942    7.7723    6.7539 C   0  0  0  0  0  0
    7.7695    8.8091    5.8348 C   0  0  0  0  0  0
    6.6769    9.5905    5.4654 C   0  0  0  0  0  0
    5.4139    9.3149    5.9877 C   0  0  0  0  0  0
    2.6596    9.0368    4.5043 N   0  0  0  0  0  0
    9.3320    9.1764    5.1880 Cl  0  0  0  0  0  0
    8.6580    7.0370    7.1879 O   0  0  0  0  0  0
    1.9897    6.3512    9.9763 C   0  0  0  0  0  0
    1.2380    5.0127    9.7085 C   0  0  2  0  0  0
    0.8450    4.6604    8.3559 N   0  0  1  0  0  0
   -0.0720    3.5491    8.5326 C   0  0  0  0  0  0
   -0.9765    4.0274    9.6571 C   0  0  0  0  0  0
   -0.0364    4.8363   10.5538 C   0  0  0  0  0  0
   -1.2123    8.1920    6.3880 H   0  0  0  0  0  0
    6.2143    6.6582    7.9402 H   0  0  0  0  0  0
    6.8116   10.4225    4.7889 H   0  0  0  0  0  0
    4.6010    9.9749    5.7340 H   0  0  0  0  0  0
    3.6612    8.9277    4.4825 H   0  0  0  0  0  0
    2.1398    9.3320    3.6911 H   0  0  0  0  0  0
    9.4274    7.2061    6.6289 H   0  0  0  0  0  0
    2.8684    6.1538   10.5952 H   0  0  0  0  0  0
    1.3741    7.0371   10.5527 H   0  0  0  0  0  0
    1.9623    4.2457    9.9880 H   0  0  0  0  0  0
    0.3266    5.4431    7.9716 H   0  0  0  0  0  0
    0.4583    2.6326    8.8015 H   0  0  0  0  0  0
   -0.6215    3.3705    7.6089 H   0  0  0  0  0  0
   -1.4570    3.1990   10.1738 H   0  0  0  0  0  0
   -1.7866    4.6370    9.2541 H   0  0  0  0  0  0
    0.1980    4.2371   11.4293 H   0  0  0  0  0  0
   -0.4992    5.7716   10.8719 H   0  0  0  0  0  0
  1  2  2  0  0  0
  1  4  1  0  0  0
  2  3  1  0  0  0
  2 25  1  0  0  0
  3  6  2  0  0  0
  4  5  2  0  0  0
  4 16  1  0  0  0
  5  9  1  0  0  0
  5  6  1  0  0  0
  6  7  1  0  0  0
  7  8  1  0  0  0
  7 19  1  0  0  0
  8  9  2  0  0  0
  9 10  1  0  0  0
 10 15  1  0  0  0
 10 11  2  0  0  0
 11 12  1  0  0  0
 11 26  1  0  0  0
 12 13  2  0  0  0
 12 18  1  0  0  0
 13 14  1  0  0  0
 13 17  1  0  0  0
 14 15  2  0  0  0
 14 27  1  0  0  0
 15 28  1  0  0  0
 16 29  1  0  0  0
 16 30  1  0  0  0
 18 31  1  0  0  0
 19 20  1  0  0  0
 19 32  1  0  0  0
 19 33  1  0  0  0
 20 21  1  0  0  0
 20 24  1  0  0  0
 20 34  1  0  0  0
 21 22  1  0  0  0
 21 35  1  0  0  0
 22 23  1  0  0  0
 22 36  1  0  0  0
 22 37  1  0  0  0
 23 24  1  0  0  0
 23 38  1  0  0  0
 23 39  1  0  0  0
 24 40  1  0  0  0
 24 41  1  0  0  0
M  END
> <s_m_entry_id>
32019

> <s_m_entry_name>
dock_pv.282

> <s_m_Source_Path>
/home/csk/Desktop/cluster/DUD-E-result/src

> <s_m_Source_File>
dock_pv.maegz

> <i_m_Source_File_Index>
282

> <chembl_id>
CHEMBL1241769

> <chembl_pref_name>
None

> <i_lp_mmshare_version>
53161

> <r_lp_tautomer_probability>
0.999999999997365

> <s_lp_Force_Field>
OPLS_2005

> <r_lp_Energy>
26.806034

> <b_lp_Chiralities_Consistent>
1

> <s_lp_Variant>
CHEMBL267_lig1881-1

> <s_i_glide_gridfile>
glide-grid_3el8

> <i_i_glide_lignum>
2149

> <i_i_glide_rotatable_bonds>
4

> <r_i_docking_score>
-7.53959173843796

> <r_i_glide_ligand_efficiency>
-0.314149655768248

> <r_i_glide_ligand_efficiency_sa>
-0.906164411128006

> <r_i_glide_ligand_efficiency_ln>
-1.80457027232942

> <r_i_glide_gscore>
-7.53959173843796

> <r_i_glide_lipo>
-2.85388320924159

> <r_i_glide_hbond>
-0.646797977896529

> <r_i_glide_metal>
0

> <r_i_glide_rewards>
-1.91388912054705

> <r_i_glide_evdw>
-35.3901519775391

> <r_i_glide_ecoul>
-5.45250415802002

> <r_i_glide_erotb>
0.479246226479821

> <r_i_glide_esite>
-0.0168844346526547

> <r_i_glide_emodel>
-56.3727799737066

> <r_i_glide_energy>
-40.8426561355591

> <r_i_glide_einternal>
5.74071979522705

> <i_i_glide_confnum>
41

> <i_i_glide_posenum>
210

> <r_i_glide_eff_state_penalty>
0

> <s_user_duplicate_titles>
CHEMBL267_lig1881

> <i_f3d_flags>
0

> <s_m_subgroup_title>
dock_pv

> <s_m_subgroupid>
dock_pv

> <b_m_subgroup_collapsed>
1

$$$$
CHEMBL267_lig3333
                    3D
 Schrodinger Suite 2021-1.
 38 41  0  0  1  0            999 V2000
    1.2984    5.7431   10.6917 C   0  0  0  0  0  0
    0.5943    4.4575   10.1743 C   0  0  0  0  0  0
   -0.9026    4.6438    9.8780 C   0  0  0  0  0  0
   -1.5855    3.4610    9.1639 C   0  0  0  0  0  0
   -0.7868    3.0213    8.0708 O   0  0  0  0  0  0
    0.4977    2.5552    8.4658 C   0  0  0  0  0  0
    1.3159    3.7251    9.0293 C   0  0  0  0  0  0
    1.8360    6.5724    9.6223 N   0  0  0  0  0  0
    3.1478    6.7267    9.2591 C   0  0  0  0  0  0
    3.1203    7.5332    8.1256 C   0  0  0  0  0  0
    1.8574    7.8344    7.8528 N   0  0  0  0  0  0
    1.0332    7.2183    8.7767 N   0  0  0  0  0  0
    4.2721    8.0200    7.3006 C   0  0  0  0  0  0
    4.0722    8.9270    6.2523 C   0  0  0  0  0  0
    5.1321    9.4283    5.4991 C   0  0  0  0  0  0
    6.4299    8.9944    5.8007 C   0  0  0  0  0  0
    7.5910    9.3709    5.1880 N   0  0  0  0  0  0
    8.5194    8.6370    5.8199 N   0  0  0  0  0  0
    8.0497    7.8370    6.8313 C   0  0  0  0  0  0
    6.6483    8.0490    6.8486 C   0  0  0  0  0  0
    5.5648    7.5693    7.5974 C   0  0  0  0  0  0
    0.6230    6.3510   11.2957 H   0  0  0  0  0  0
    2.1306    5.4799   11.3408 H   0  0  0  0  0  0
    0.5979    3.7279   10.9844 H   0  0  0  0  0  0
   -1.0093    5.4995    9.2108 H   0  0  0  0  0  0
   -1.4020    4.9093   10.8043 H   0  0  0  0  0  0
   -2.5614    3.7716    8.7871 H   0  0  0  0  0  0
   -1.7876    2.6376    9.8498 H   0  0  0  0  0  0
    0.9977    2.1631    7.5881 H   0  0  0  0  0  0
    0.4199    1.7357    9.1827 H   0  0  0  0  0  0
    2.3049    3.4366    9.3673 H   0  0  0  0  0  0
    1.4823    4.4134    8.1997 H   0  0  0  0  0  0
    3.9414    6.2472    9.8140 H   0  0  0  0  0  0
    3.0743    9.2700    6.0208 H   0  0  0  0  0  0
    4.9538   10.1365    4.7031 H   0  0  0  0  0  0
    9.4927    8.6844    5.5539 H   0  0  0  0  0  0
    8.7291    7.2230    7.4024 H   0  0  0  0  0  0
    5.7341    6.8591    8.3925 H   0  0  0  0  0  0
  1  2  1  0  0  0
  1  8  1  0  0  0
  1 22  1  0  0  0
  1 23  1  0  0  0
  2  3  1  0  0  0
  2  7  1  0  0  0
  2 24  1  0  0  0
  3  4  1  0  0  0
  3 25  1  0  0  0
  3 26  1  0  0  0
  4  5  1  0  0  0
  4 27  1  0  0  0
  4 28  1  0  0  0
  5  6  1  0  0  0
  6  7  1  0  0  0
  6 29  1  0  0  0
  6 30  1  0  0  0
  7 31  1  0  0  0
  7 32  1  0  0  0
  8  9  1  0  0  0
  8 12  1  0  0  0
  9 10  2  0  0  0
  9 33  1  0  0  0
 10 11  1  0  0  0
 10 13  1  0  0  0
 11 12  2  0  0  0
 13 14  1  0  0  0
 13 21  2  0  0  0
 14 15  2  0  0  0
 14 34  1  0  0  0
 15 16  1  0  0  0
 15 35  1  0  0  0
 16 17  2  0  0  0
 16 20  1  0  0  0
 17 18  1  0  0  0
 18 36  1  0  0  0
 18 19  1  0  0  0
 19 20  2  0  0  0
 19 37  1  0  0  0
 20 21  1  0  0  0
 21 38  1  0  0  0
M  END
> <s_m_entry_id>
32020

> <s_m_entry_name>
dock_pv.283

> <s_m_Source_Path>
/home/csk/Desktop/cluster/DUD-E-result/src

> <s_m_Source_File>
dock_pv.maegz

> <i_m_Source_File_Index>
283

> <chembl_id>
CHEMBL1969843

> <chembl_pref_name>
None

> <i_lp_mmshare_version>
53161

> <r_lp_tautomer_probability>
0.0196078431372549

> <s_lp_Force_Field>
OPLS_2005

> <r_lp_Energy>
27.388841

> <b_lp_Chiralities_Consistent>
1

> <s_lp_Variant>
CHEMBL267_lig3333-2

> <s_i_glide_gridfile>
glide-grid_3el8

> <i_i_glide_lignum>
3935

> <i_i_glide_rotatable_bonds>
3

> <r_i_docking_score>
-7.53816781973055

> <r_i_glide_ligand_efficiency>
-0.358960372368122

> <r_i_glide_ligand_efficiency_sa>
-0.990344448684138

> <r_i_glide_ligand_efficiency_ln>
-1.86379676112605

> <r_i_glide_gscore>
-7.53816781973055

> <r_i_glide_lipo>
-3.30437597341173

> <r_i_glide_hbond>
-0.30134142732336

> <r_i_glide_metal>
0

> <r_i_glide_rewards>
-2.24949627618042

> <r_i_glide_evdw>
-32.1942329406738

> <r_i_glide_ecoul>
-4.99992942810059

> <r_i_glide_erotb>
0.676746918433735

> <r_i_glide_esite>
0

> <r_i_glide_emodel>
-50.0645866581318

> <r_i_glide_energy>
-37.1941623687744

> <r_i_glide_einternal>
6.87933731079102

> <i_i_glide_confnum>
6

> <i_i_glide_posenum>
11

> <r_i_glide_eff_state_penalty>
0

> <s_user_duplicate_titles>
CHEMBL267_lig3333

> <i_f3d_flags>
0

> <s_m_subgroup_title>
dock_pv

> <s_m_subgroupid>
dock_pv

> <b_m_subgroup_collapsed>
1

$$$$
CHEMBL267_lig3738
                    3D
 Schrodinger Suite 2021-1.
 40 43  0  0  1  0            999 V2000
    8.3471    8.2369    6.6245 F   0  0  0  0  0  0
    7.3268    8.3933    5.7788 C   0  0  0  0  0  0
    7.4562    9.5812    5.1876 F   0  0  0  0  0  0
    7.3980    7.4371    4.8549 F   0  0  0  0  0  0
    5.9733    8.3052    6.4774 C   0  0  0  0  0  0
    5.8824    7.9060    7.8105 C   0  0  0  0  0  0
    4.6439    7.8367    8.4350 C   0  0  0  0  0  0
    3.4647    8.1367    7.7455 C   0  0  0  0  0  0
    2.1512    8.0351    8.5281 C   0  0  0  0  0  0
    1.7438    6.6679    8.8318 N   0  0  0  0  0  0
    0.5977    6.0074    8.4747 C   0  0  0  0  0  0
    0.7447    4.7257    8.9913 C   0  0  0  0  0  0
    1.9196    4.6369    9.5879 N   0  0  0  0  0  0
    2.5500    5.8605    9.5253 N   0  0  0  0  0  0
   -0.1713    3.5566    8.9051 C   0  0  0  0  0  0
   -1.5336    3.6738    9.1880 C   0  0  0  0  0  0
   -2.4095    2.5910    9.0582 C   0  0  0  0  0  0
   -1.8518    1.3704    8.6469 C   0  0  0  0  0  0
   -2.3962    0.1254    8.3946 N   0  0  0  0  0  0
   -1.4719   -0.7789    8.0221 N   0  0  0  0  0  0
   -0.3237   -0.1563    8.0228 C   0  0  0  0  0  0
   -0.4751    1.2157    8.3880 C   0  0  0  0  0  0
    0.3630    2.3244    8.5273 C   0  0  0  0  0  0
    3.5365    8.5227    6.3884 C   0  0  0  0  0  0
    4.7995    8.6164    5.7798 C   0  0  0  0  0  0
    2.2778    8.8199    5.5597 C   0  0  0  0  0  0
    1.4319    7.7907    5.6237 F   0  0  0  0  0  0
    1.6717    9.9091    6.0341 F   0  0  0  0  0  0
    2.5508    9.0367    4.2709 F   0  0  0  0  0  0
    6.7672    7.6549    8.3772 H   0  0  0  0  0  0
    4.5981    7.5398    9.4728 H   0  0  0  0  0  0
    2.2709    8.5552    9.4806 H   0  0  0  0  0  0
    1.3249    8.5353    8.0295 H   0  0  0  0  0  0
   -0.1872    6.4741    7.8979 H   0  0  0  0  0  0
   -1.9275    4.6363    9.4864 H   0  0  0  0  0  0
   -3.4676    2.6997    9.2476 H   0  0  0  0  0  0
   -3.3769   -0.1134    8.4020 H   0  0  0  0  0  0
    0.5882   -0.6709    7.7616 H   0  0  0  0  0  0
    1.4101    2.2385    8.3318 H   0  0  0  0  0  0
    4.8797    8.9147    4.7440 H   0  0  0  0  0  0
  1  2  1  0  0  0
  2  3  1  0  0  0
  2  4  1  0  0  0
  2  5  1  0  0  0
  5  6  2  0  0  0
  5 25  1  0  0  0
  6  7  1  0  0  0
  6 30  1  0  0  0
  7  8  2  0  0  0
  7 31  1  0  0  0
  8  9  1  0  0  0
  8 24  1  0  0  0
  9 10  1  0  0  0
  9 32  1  0  0  0
  9 33  1  0  0  0
 10 11  1  0  0  0
 10 14  1  0  0  0
 11 12  2  0  0  0
 11 34  1  0  0  0
 12 13  1  0  0  0
 12 15  1  0  0  0
 13 14  2  0  0  0
 15 16  2  0  0  0
 15 23  1  0  0  0
 16 17  1  0  0  0
 16 35  1  0  0  0
 17 18  2  0  0  0
 17 36  1  0  0  0
 18 19  1  0  0  0
 18 22  1  0  0  0
 19 20  1  0  0  0
 19 37  1  0  0  0
 20 21  2  0  0  0
 21 22  1  0  0  0
 21 38  1  0  0  0
 22 23  2  0  0  0
 23 39  1  0  0  0
 24 25  2  0  0  0
 24 26  1  0  0  0
 25 40  1  0  0  0
 26 27  1  0  0  0
 26 28  1  0  0  0
 26 29  1  0  0  0
M  END
> <s_m_entry_id>
32021

> <s_m_entry_name>
dock_pv.284

> <s_m_Source_Path>
/home/csk/Desktop/cluster/DUD-E-result/src

> <s_m_Source_File>
dock_pv.maegz

> <i_m_Source_File_Index>
284

> <chembl_id>
CHEMBL1964413

> <chembl_pref_name>
None

> <i_lp_mmshare_version>
53161

> <r_lp_tautomer_probability>
0.980392156862745

> <s_lp_Force_Field>
OPLS_2005

> <r_lp_Energy>
15.945838

> <b_lp_Chiralities_Consistent>
1

> <s_lp_Variant>
CHEMBL267_lig3738-1

> <s_i_glide_gridfile>
glide-grid_3el8

> <i_i_glide_lignum>
4562

> <i_i_glide_rotatable_bonds>
5

> <r_i_docking_score>
-7.53757431149533

> <r_i_glide_ligand_efficiency>
-0.259916355568804

> <r_i_glide_ligand_efficiency_sa>
-0.79854539158867

> <r_i_glide_ligand_efficiency_ln>
-1.72591338093959

> <r_i_glide_gscore>
-7.53757431149533

> <r_i_glide_lipo>
-3.7460544088029

> <r_i_glide_hbond>
0

> <r_i_glide_metal>
0

> <r_i_glide_rewards>
-2.06753200712604

> <r_i_glide_evdw>
-38.9801788330078

> <r_i_glide_ecoul>
-0.365398228168488

> <r_i_glide_erotb>
0.349498636873117

> <r_i_glide_esite>
-0.069667856563841

> <r_i_glide_emodel>
-55.9572345496518

> <r_i_glide_energy>
-39.3455770611763

> <r_i_glide_einternal>
3.28315544128418

> <i_i_glide_confnum>
1

> <i_i_glide_posenum>
105

> <r_i_glide_eff_state_penalty>
0

> <s_user_duplicate_titles>
CHEMBL267_lig3738

> <i_f3d_flags>
0

> <s_m_subgroup_title>
dock_pv

> <s_m_subgroupid>
dock_pv

> <b_m_subgroup_collapsed>
1

$$$$
CHEMBL267_lig3074
                    3D
 Schrodinger Suite 2021-1.
 39 42  0  0  1  0            999 V2000
    0.0187    5.5904   10.7097 C   0  0  0  0  0  0
    0.9980    5.9561   11.6207 C   0  0  0  0  0  0
    2.2000    6.5088   11.1858 C   0  0  0  0  0  0
    0.1911    5.8241    9.3488 C   0  0  0  0  0  0
    1.3896    6.4120    8.8696 C   0  0  0  0  0  0
    2.4262    6.7235    9.8059 C   0  0  0  0  0  0
    3.6305    7.2234    9.4084 N   0  0  0  0  0  0
    3.7989    7.4298    8.0812 C   0  0  0  0  0  0
    2.8621    7.2333    7.1257 N   0  0  0  0  0  0
    1.6601    6.7362    7.5086 C   0  0  0  0  0  0
    5.4424    7.8370    7.5502 S   0  0  0  0  0  0
    5.2677    8.9328    6.1529 C   0  0  0  0  0  0
    6.2981    8.9795    5.2142 C   0  0  0  0  0  0
    6.1987    9.8285    4.1136 C   0  0  0  0  0  0
    5.0712   10.6287    3.9510 C   0  0  0  0  0  0
    4.0425   10.5945    4.8883 C   0  0  0  0  0  0
    4.1430    9.7477    5.9877 C   0  0  0  0  0  0
    0.6900    6.5551    6.5007 N   0  0  0  0  0  0
    0.6895    7.1802    5.2765 C   0  0  0  0  0  0
    1.0038    8.5174    4.9899 C   0  0  0  0  0  0
    0.8947    8.6751    3.6230 C   0  0  0  0  0  0
    0.4767    7.4451    3.1956 N   0  0  0  0  0  0
    0.3227    6.5491    4.1831 N   0  0  0  0  0  0
    1.1261    9.8391    2.6926 C   0  0  0  0  0  0
   -0.9019    5.1434   11.0621 H   0  0  0  0  0  0
    0.8385    5.7866   12.6749 H   0  0  0  0  0  0
    2.9770    6.7548   11.8952 H   0  0  0  0  0  0
   -0.6010    5.5577    8.6665 H   0  0  0  0  0  0
    7.1722    8.3547    5.3311 H   0  0  0  0  0  0
    6.9976    9.8613    3.3903 H   0  0  0  0  0  0
    4.9961   11.2845    3.0951 H   0  0  0  0  0  0
    3.1741   11.2257    4.7676 H   0  0  0  0  0  0
    3.3536    9.7493    6.7234 H   0  0  0  0  0  0
   -0.1549    6.0968    6.8125 H   0  0  0  0  0  0
    1.2981    9.2706    5.7045 H   0  0  0  0  0  0
    0.2694    7.2330    2.2232 H   0  0  0  0  0  0
    1.2589   10.7768    3.2344 H   0  0  0  0  0  0
    0.2863    9.9803    2.0122 H   0  0  0  0  0  0
    2.0138    9.6884    2.0805 H   0  0  0  0  0  0
  1  2  2  0  0  0
  1  4  1  0  0  0
  1 25  1  0  0  0
  2  3  1  0  0  0
  2 26  1  0  0  0
  3  6  2  0  0  0
  3 27  1  0  0  0
  4  5  2  0  0  0
  4 28  1  0  0  0
  5  6  1  0  0  0
  5 10  1  0  0  0
  6  7  1  0  0  0
  7  8  2  0  0  0
  8  9  1  0  0  0
  8 11  1  0  0  0
  9 10  2  0  0  0
 10 18  1  0  0  0
 11 12  1  0  0  0
 12 13  2  0  0  0
 12 17  1  0  0  0
 13 14  1  0  0  0
 13 29  1  0  0  0
 14 15  2  0  0  0
 14 30  1  0  0  0
 15 16  1  0  0  0
 15 31  1  0  0  0
 16 17  2  0  0  0
 16 32  1  0  0  0
 17 33  1  0  0  0
 18 19  1  0  0  0
 18 34  1  0  0  0
 19 20  1  0  0  0
 19 23  2  0  0  0
 20 21  2  0  0  0
 20 35  1  0  0  0
 21 22  1  0  0  0
 21 24  1  0  0  0
 22 23  1  0  0  0
 22 36  1  0  0  0
 24 37  1  0  0  0
 24 38  1  0  0  0
 24 39  1  0  0  0
M  END
> <s_m_entry_id>
32022

> <s_m_entry_name>
dock_pv.285

> <s_m_Source_Path>
/home/csk/Desktop/cluster/DUD-E-result/src

> <s_m_Source_File>
dock_pv.maegz

> <i_m_Source_File_Index>
285

> <chembl_id>
CHEMBL549322

> <chembl_pref_name>
None

> <i_lp_mmshare_version>
53161

> <r_lp_tautomer_probability>
0.842584379834229

> <s_lp_Force_Field>
OPLS_2005

> <r_lp_Energy>
11.474969

> <b_lp_Chiralities_Consistent>
1

> <s_lp_Variant>
CHEMBL267_lig3074-1

> <s_i_glide_gridfile>
glide-grid_3el8

> <i_i_glide_lignum>
3536

> <i_i_glide_rotatable_bonds>
4

> <r_i_docking_score>
-7.53595858817279

> <r_i_glide_ligand_efficiency>
-0.3139982745072

> <r_i_glide_ligand_efficiency_sa>
-0.905727752011069

> <r_i_glide_ligand_efficiency_ln>
-1.80370069275656

> <r_i_glide_gscore>
-7.53595858817279

> <r_i_glide_lipo>
-2.65138391937082

> <r_i_glide_hbond>
-0.552430812853726

> <r_i_glide_metal>
0

> <r_i_glide_rewards>
-2.25448852805109

> <r_i_glide_evdw>
-37.9379615783691

> <r_i_glide_ecoul>
-5.33869600296021

> <r_i_glide_erotb>
0.678181222911469

> <r_i_glide_esite>
-0.0581340714461376

> <r_i_glide_emodel>
-61.8983190599532

> <r_i_glide_energy>
-43.2766575813293

> <r_i_glide_einternal>
3.67925381660461

> <i_i_glide_confnum>
31

> <i_i_glide_posenum>
157

> <r_i_glide_eff_state_penalty>
0

> <s_user_duplicate_titles>
CHEMBL267_lig3074,CHEMBL267_lig3074,564890

> <i_f3d_flags>
0

> <s_m_subgroup_title>
dock_pv

> <s_m_subgroupid>
dock_pv

> <b_m_subgroup_collapsed>
1

$$$$
CHEMBL267_lig3560
                    3D
 Schrodinger Suite 2021-1.
 40 42  0  0  1  0            999 V2000
    2.9021    9.0919    6.7805 O   0  0  0  0  0  0
   -0.3575    8.3665    6.7880 O   0  0  0  0  0  0
    3.4841    6.3493    8.6840 N   0  0  0  0  0  0
    0.2249    5.5553    8.3262 N   0  0  0  0  0  0
    7.5512    6.6677    7.5880 N   0  0  0  0  0  0
    2.3680    6.9398    8.1019 C   0  0  0  0  0  0
    1.0490    6.6001    7.9842 C   0  0  0  0  0  0
    2.1996    8.1983    7.2485 C   0  0  0  0  0  0
    0.6714    7.8512    7.2213 C   0  0  0  0  0  0
    4.8446    6.5087    8.3645 C   0  0  0  0  0  0
    0.6612    4.3102    8.9285 C   0  0  0  0  0  0
   -0.4033    3.2278    8.8098 C   0  0  0  0  0  0
    5.4177    7.7288    7.9880 C   0  0  0  0  0  0
    5.6664    5.3785    8.3880 C   0  0  0  0  0  0
   -0.0248    1.9546    8.3885 C   0  0  0  0  0  0
   -0.9307    0.8886    8.3870 C   0  0  0  0  0  0
   -1.7250    3.4410    9.2060 C   0  0  0  0  0  0
   -2.2562    1.1145    8.7881 C   0  0  0  0  0  0
   -2.6462    2.3978    9.1880 C   0  0  0  0  0  0
    6.7566    7.7662    7.5896 C   0  0  0  0  0  0
    6.9979    5.4967    7.9880 C   0  0  0  0  0  0
   -0.4598   -0.4916    7.9515 C   0  0  0  0  0  0
   -3.2942   -0.0019    8.7880 C   0  0  0  0  0  0
    3.3284    5.4990    9.2072 H   0  0  0  0  0  0
   -0.7536    5.5587    8.0316 H   0  0  0  0  0  0
    0.8900    4.4746    9.9824 H   0  0  0  0  0  0
    1.5826    3.9821    8.4438 H   0  0  0  0  0  0
    4.8500    8.6369    8.0143 H   0  0  0  0  0  0
    5.2845    4.4142    8.6889 H   0  0  0  0  0  0
    0.9980    1.8046    8.0973 H   0  0  0  0  0  0
   -2.0386    4.4162    9.5487 H   0  0  0  0  0  0
   -3.6647    2.5882    9.4936 H   0  0  0  0  0  0
    7.2182    8.6951    7.2878 H   0  0  0  0  0  0
    7.6475    4.6370    7.9881 H   0  0  0  0  0  0
    0.6169   -0.5323    7.8004 H   0  0  0  0  0  0
   -0.7101   -1.2332    8.7097 H   0  0  0  0  0  0
   -0.9489   -0.7849    7.0225 H   0  0  0  0  0  0
   -3.1073   -0.7168    9.5875 H   0  0  0  0  0  0
   -4.3076    0.3889    8.8894 H   0  0  0  0  0  0
   -3.2659   -0.5466    7.8442 H   0  0  0  0  0  0
  1  8  2  0  0  0
  2  9  2  0  0  0
  3  6  1  0  0  0
  3 10  1  0  0  0
  3 24  1  0  0  0
  4  7  1  0  0  0
  4 11  1  0  0  0
  4 25  1  0  0  0
  5 20  2  0  0  0
  5 21  1  0  0  0
  6  7  2  0  0  0
  6  8  1  0  0  0
  7  9  1  0  0  0
  8  9  1  0  0  0
 10 13  2  0  0  0
 10 14  1  0  0  0
 11 12  1  0  0  0
 11 26  1  0  0  0
 11 27  1  0  0  0
 12 15  1  0  0  0
 12 17  2  0  0  0
 13 20  1  0  0  0
 13 28  1  0  0  0
 14 21  2  0  0  0
 14 29  1  0  0  0
 15 16  2  0  0  0
 15 30  1  0  0  0
 16 18  1  0  0  0
 16 22  1  0  0  0
 17 19  1  0  0  0
 17 31  1  0  0  0
 18 19  2  0  0  0
 18 23  1  0  0  0
 19 32  1  0  0  0
 20 33  1  0  0  0
 21 34  1  0  0  0
 22 35  1  0  0  0
 22 36  1  0  0  0
 22 37  1  0  0  0
 23 38  1  0  0  0
 23 39  1  0  0  0
 23 40  1  0  0  0
M  END
> <s_m_entry_id>
32023

> <s_m_entry_name>
dock_pv.286

> <s_m_Source_Path>
/home/csk/Desktop/cluster/DUD-E-result/src

> <s_m_Source_File>
dock_pv.maegz

> <i_m_Source_File_Index>
286

> <chembl_id>
CHEMBL1983449

> <chembl_pref_name>
None

> <i_lp_mmshare_version>
53161

> <r_lp_tautomer_probability>
1

> <s_lp_Force_Field>
OPLS_2005

> <r_lp_Energy>
51.586812

> <b_lp_Chiralities_Consistent>
1

> <s_lp_Variant>
CHEMBL267_lig3560-1

> <s_i_glide_gridfile>
glide-grid_3el8

> <i_i_glide_lignum>
4288

> <i_i_glide_rotatable_bonds>
5

> <r_i_docking_score>
-7.52591322581079

> <r_i_glide_ligand_efficiency>
-0.327213618513513

> <r_i_glide_ligand_efficiency_sa>
-0.930552004075746

> <r_i_glide_ligand_efficiency_ln>
-1.81983405920927

> <r_i_glide_gscore>
-7.52591322581079

> <r_i_glide_lipo>
-3.49591699481234

> <r_i_glide_hbond>
-0.464754349023332

> <r_i_glide_metal>
0

> <r_i_glide_rewards>
-1.93218217466927

> <r_i_glide_evdw>
-36.8213233947754

> <r_i_glide_ecoul>
-5.009840965271

> <r_i_glide_erotb>
0.978461805061551

> <r_i_glide_esite>
-0.0189791978379777

> <r_i_glide_emodel>
-57.1194981801805

> <r_i_glide_energy>
-41.8311643600464

> <r_i_glide_einternal>
4.36985635757446

> <i_i_glide_confnum>
26

> <i_i_glide_posenum>
124

> <r_i_glide_eff_state_penalty>
0

> <s_user_duplicate_titles>
CHEMBL267_lig3560

> <i_f3d_flags>
0

> <s_m_subgroup_title>
dock_pv

> <s_m_subgroupid>
dock_pv

> <b_m_subgroup_collapsed>
1

$$$$
CHEMBL267_lig693
                    3D
 Schrodinger Suite 2021-1.
 38 41  0  0  1  0            999 V2000
    2.7109    8.2986    7.1972 N   0  0  0  0  0  0
    4.1108    8.1169    7.1529 C   0  0  0  0  0  0
    2.1789    7.2100    7.9232 C   0  0  0  0  0  0
    4.4503    7.0186    7.9851 C   0  0  0  0  0  0
    3.2634    6.4477    8.4328 C   0  0  0  0  0  0
    1.9549    9.3956    6.6261 C   0  0  0  0  0  0
    5.1321    8.8175    6.4733 C   0  0  0  0  0  0
    0.8514    6.7685    8.1506 C   0  0  0  0  0  0
    5.7934    6.6383    8.1437 C   0  0  0  0  0  0
    6.4499    8.3801    6.6042 C   0  0  0  0  0  0
    3.0242    5.2957    9.1877 C   0  0  0  0  0  0
    6.7871    7.3163    7.4446 C   0  0  0  0  0  0
    0.6486    5.6034    8.9147 C   0  0  0  0  0  0
    0.9384    9.8221    7.1803 O   0  0  0  0  0  0
    2.4302   10.0739    5.3692 C   0  0  0  0  0  0
    1.7205    4.8933    9.4235 C   0  0  0  0  0  0
   -0.2023    7.4175    7.5708 O   0  0  0  0  0  0
    7.4029    9.0264    5.8555 O   0  0  0  0  0  0
    8.0896    6.8959    7.5882 O   0  0  0  0  0  0
   -0.6007    5.0926    9.1880 O   0  0  0  0  0  0
    2.3666   11.4684    5.2483 C   0  0  0  0  0  0
    2.9171    9.3121    4.3070 C   0  0  0  0  0  0
    3.4144    9.9353    3.1710 C   0  0  0  0  0  0
    2.8396   12.0925    4.0958 C   0  0  0  0  0  0
    3.3729   11.3230    3.0647 C   0  0  0  0  0  0
    4.9383    9.6750    5.8485 H   0  0  0  0  0  0
    6.0551    5.7934    8.7656 H   0  0  0  0  0  0
    3.8398    4.6933    9.5506 H   0  0  0  0  0  0
    1.5381    3.9889    9.9858 H   0  0  0  0  0  0
   -0.9380    6.8211    7.3683 H   0  0  0  0  0  0
    8.2277    8.5471    5.7572 H   0  0  0  0  0  0
    8.7328    7.4446    7.1380 H   0  0  0  0  0  0
   -1.3478    5.4630    8.6757 H   0  0  0  0  0  0
    1.9666   12.0737    6.0487 H   0  0  0  0  0  0
    2.9436    8.2367    4.3773 H   0  0  0  0  0  0
    3.8380    9.3323    2.3880 H   0  0  0  0  0  0
    2.8013   13.1686    4.0060 H   0  0  0  0  0  0
    3.7546   11.8060    2.1746 H   0  0  0  0  0  0
  1  2  1  0  0  0
  1  3  1  0  0  0
  1  6  1  0  0  0
  2  4  2  0  0  0
  2  7  1  0  0  0
  3  5  2  0  0  0
  3  8  1  0  0  0
  4  9  1  0  0  0
  4  5  1  0  0  0
  5 11  1  0  0  0
  6 14  2  0  0  0
  6 15  1  0  0  0
  7 10  2  0  0  0
  7 26  1  0  0  0
  8 13  2  0  0  0
  8 17  1  0  0  0
  9 12  2  0  0  0
  9 27  1  0  0  0
 10 12  1  0  0  0
 10 18  1  0  0  0
 11 16  2  0  0  0
 11 28  1  0  0  0
 12 19  1  0  0  0
 13 16  1  0  0  0
 13 20  1  0  0  0
 15 21  2  0  0  0
 15 22  1  0  0  0
 16 29  1  0  0  0
 17 30  1  0  0  0
 18 31  1  0  0  0
 19 32  1  0  0  0
 20 33  1  0  0  0
 21 24  1  0  0  0
 21 34  1  0  0  0
 22 23  2  0  0  0
 22 35  1  0  0  0
 23 25  1  0  0  0
 23 36  1  0  0  0
 24 25  2  0  0  0
 24 37  1  0  0  0
 25 38  1  0  0  0
M  END
> <s_m_entry_id>
32024

> <s_m_entry_name>
dock_pv.287

> <s_m_Source_Path>
/home/csk/Desktop/cluster/DUD-E-result/src

> <s_m_Source_File>
dock_pv.maegz

> <i_m_Source_File_Index>
287

> <chembl_id>
CHEMBL70594

> <chembl_pref_name>
None

> <i_lp_mmshare_version>
53161

> <r_lp_tautomer_probability>
1

> <s_lp_Force_Field>
OPLS_2005

> <r_lp_Energy>
32.189571

> <b_lp_Chiralities_Consistent>
1

> <s_lp_Variant>
CHEMBL267_lig693-1

> <s_i_glide_gridfile>
glide-grid_3el8

> <i_i_glide_lignum>
812

> <i_i_glide_rotatable_bonds>
6

> <r_i_docking_score>
-7.52349276856839

> <r_i_glide_ligand_efficiency>
-0.300939710742736

> <r_i_glide_ligand_efficiency_sa>
-0.879953051400255

> <r_i_glide_ligand_efficiency_ln>
-1.78329324703541

> <r_i_glide_gscore>
-7.52349276856839

> <r_i_glide_lipo>
-2.54587012458857

> <r_i_glide_hbond>
0

> <r_i_glide_metal>
0

> <r_i_glide_rewards>
-1.81867739000768

> <r_i_glide_evdw>
-28.2850742340088

> <r_i_glide_ecoul>
-13.8692722320557

> <r_i_glide_erotb>
0.335699292536652

> <r_i_glide_esite>
0

> <r_i_glide_emodel>
-60.5888986694468

> <r_i_glide_energy>
-42.1543464660645

> <r_i_glide_einternal>
1.78639388084412

> <i_i_glide_confnum>
3

> <i_i_glide_posenum>
56

> <r_i_glide_eff_state_penalty>
0

> <s_user_duplicate_titles>
CHEMBL267_lig693,113477

> <i_f3d_flags>
0

> <s_m_subgroup_title>
dock_pv

> <s_m_subgroupid>
dock_pv

> <b_m_subgroup_collapsed>
1

$$$$
CHEMBL267_lig432
                    3D
 Schrodinger Suite 2021-1.
 63 66  0  0  1  0            999 V2000
    5.1759    7.0370    7.7267 C   0  0  0  0  0  0
    5.7893    7.9351    6.8009 C   0  0  0  0  0  0
    4.7555    8.8267    6.3243 C   0  0  0  0  0  0
    3.8297    7.3505    7.8265 N   0  0  0  0  0  0
    3.5998    8.4208    6.9796 C   0  0  0  0  0  0
    5.7946    6.0282    8.3578 N   0  0  0  0  0  0
    7.1733    7.7242    6.6103 C   0  0  0  0  0  0
    4.8486    9.9257    5.3138 C   0  0  0  0  0  0
    7.8153    6.6817    7.1878 N   0  0  0  0  0  0
    2.8636    6.6189    8.6771 C   0  0  0  0  0  0
    0.3831    5.0193    8.9544 N   0  0  2  0  0  0
    7.0855    5.8747    7.9880 C   0  0  0  0  0  0
    1.4602    7.2537    8.6711 C   0  0  0  0  0  0
    2.7306    5.1693    8.1642 C   0  0  0  0  0  0
    5.6419    9.8037    4.1679 C   0  0  0  0  0  0
    1.6952    4.3609    8.9593 C   0  0  0  0  0  0
    0.4584    6.3941    9.4676 C   0  0  0  0  0  0
    7.9598    8.5444    5.8131 N   0  0  0  0  0  0
    5.7786   10.8562    3.2603 C   0  0  0  0  0  0
   -0.4925    2.0447    8.5361 N   0  0  1  0  0  0
    4.1550   11.1215    5.5247 C   0  0  0  0  0  0
    6.5980   10.6367    2.1712 O   0  0  0  0  0  0
   -0.6203    4.2551    9.7109 C   0  0  0  0  0  0
    4.2756   12.1814    4.6288 C   0  0  0  0  0  0
   -1.1944   -1.5113    7.6588 O   0  0  0  0  0  0
   -1.3531    3.1639    8.9006 C   0  0  0  0  0  0
    5.0909   12.0545    3.5072 C   0  0  0  0  0  0
   -1.3005    0.9064    8.1184 C   0  0  0  0  0  0
   -0.4231   -0.3468    7.9452 C   0  0  0  0  0  0
    6.7402   11.6625    1.1945 C   0  0  0  0  0  0
   -1.8356   -1.5097    6.3902 C   0  0  0  0  0  0
    2.6078    8.8310    6.8818 H   0  0  0  0  0  0
    3.3112    6.6571    9.6736 H   0  0  0  0  0  0
    7.6061    5.0362    8.4231 H   0  0  0  0  0  0
    1.0790    7.4817    7.6750 H   0  0  0  0  0  0
    1.5354    8.2132    9.1800 H   0  0  0  0  0  0
    3.6678    4.6449    8.3352 H   0  0  0  0  0  0
    2.5704    5.1022    7.0902 H   0  0  0  0  0  0
    6.1478    8.8715    3.9630 H   0  0  0  0  0  0
    2.0320    4.2134    9.9870 H   0  0  0  0  0  0
    1.6231    3.3685    8.5217 H   0  0  0  0  0  0
   -0.5339    6.8339    9.3850 H   0  0  0  0  0  0
    0.7042    6.3854   10.5326 H   0  0  0  0  0  0
    7.5546    9.3606    5.3786 H   0  0  0  0  0  0
    8.9347    8.3044    5.6996 H   0  0  0  0  0  0
    0.1350    2.3291    7.7991 H   0  0  0  0  0  0
    3.5221   11.2377    6.3880 H   0  0  0  0  0  0
   -1.4020    4.9333   10.0512 H   0  0  0  0  0  0
   -0.2018    3.8371   10.6278 H   0  0  0  0  0  0
    3.7403   13.1034    4.8034 H   0  0  0  0  0  0
   -1.7630    3.5964    7.9881 H   0  0  0  0  0  0
   -2.2060    2.8239    9.4924 H   0  0  0  0  0  0
    5.1706   12.8963    2.8362 H   0  0  0  0  0  0
   -1.8017    1.1546    7.1880 H   0  0  0  0  0  0
   -2.0689    0.6909    8.8616 H   0  0  0  0  0  0
    0.1087   -0.5399    8.8764 H   0  0  0  0  0  0
    0.3457   -0.1975    7.1881 H   0  0  0  0  0  0
    7.3637   11.3063    0.3748 H   0  0  0  0  0  0
    5.7688   11.9381    0.7895 H   0  0  0  0  0  0
    7.2163   12.5500    1.6144 H   0  0  0  0  0  0
   -2.3253   -2.4708    6.2356 H   0  0  0  0  0  0
   -1.1122   -1.3631    5.5871 H   0  0  0  0  0  0
   -2.6034   -0.7384    6.3177 H   0  0  0  0  0  0
  1  2  2  0  0  0
  1  4  1  0  0  0
  1  6  1  0  0  0
  2  3  1  0  0  0
  2  7  1  0  0  0
  3  8  1  0  0  0
  3  5  2  0  0  0
  4  5  1  0  0  0
  4 10  1  0  0  0
  5 32  1  0  0  0
  6 12  2  0  0  0
  7 18  1  0  0  0
  7  9  2  0  0  0
  8 15  2  0  0  0
  8 21  1  0  0  0
  9 12  1  0  0  0
 10 13  1  0  0  0
 10 14  1  0  0  0
 10 33  1  0  0  0
 11 16  1  0  0  0
 11 23  1  0  0  0
 11 17  1  0  0  0
 12 34  1  0  0  0
 13 17  1  0  0  0
 13 35  1  0  0  0
 13 36  1  0  0  0
 14 16  1  0  0  0
 14 37  1  0  0  0
 14 38  1  0  0  0
 15 19  1  0  0  0
 15 39  1  0  0  0
 16 40  1  0  0  0
 16 41  1  0  0  0
 17 42  1  0  0  0
 17 43  1  0  0  0
 18 44  1  0  0  0
 18 45  1  0  0  0
 19 22  1  0  0  0
 19 27  2  0  0  0
 20 26  1  0  0  0
 20 28  1  0  0  0
 20 46  1  0  0  0
 21 24  2  0  0  0
 21 47  1  0  0  0
 22 30  1  0  0  0
 23 26  1  0  0  0
 23 48  1  0  0  0
 23 49  1  0  0  0
 24 27  1  0  0  0
 24 50  1  0  0  0
 25 29  1  0  0  0
 25 31  1  0  0  0
 26 51  1  0  0  0
 26 52  1  0  0  0
 27 53  1  0  0  0
 28 29  1  0  0  0
 28 54  1  0  0  0
 28 55  1  0  0  0
 29 56  1  0  0  0
 29 57  1  0  0  0
 30 58  1  0  0  0
 30 59  1  0  0  0
 30 60  1  0  0  0
 31 61  1  0  0  0
 31 62  1  0  0  0
 31 63  1  0  0  0
M  END
> <s_m_entry_id>
32025

> <s_m_entry_name>
dock_pv.288

> <s_m_Source_Path>
/home/csk/Desktop/cluster/DUD-E-result/src

> <s_m_Source_File>
dock_pv.maegz

> <i_m_Source_File_Index>
288

> <chembl_id>
CHEMBL172514

> <chembl_pref_name>
None

> <i_lp_mmshare_version>
53161

> <r_lp_tautomer_probability>
1

> <s_lp_Force_Field>
OPLS_2005

> <r_lp_Energy>
49.136256

> <b_lp_Chiralities_Consistent>
1

> <s_lp_Variant>
CHEMBL267_lig432-1

> <s_i_glide_gridfile>
glide-grid_3el8

> <i_i_glide_lignum>
514

> <i_i_glide_rotatable_bonds>
9

> <r_i_docking_score>
-7.51782692917093

> <r_i_glide_ligand_efficiency>
-0.242510546102288

> <r_i_glide_ligand_efficiency_sa>
-0.761817936654574

> <r_i_glide_ligand_efficiency_ln>
-1.69550036625418

> <r_i_glide_gscore>
-7.51782692917093

> <r_i_glide_lipo>
-3.35758318867209

> <r_i_glide_hbond>
-0.393219735459837

> <r_i_glide_metal>
0

> <r_i_glide_rewards>
-1.99309810255817

> <r_i_glide_evdw>
-45.3029518127441

> <r_i_glide_ecoul>
-1.85944044589996

> <r_i_glide_erotb>
0.770137755041368

> <r_i_glide_esite>
0

> <r_i_glide_emodel>
-65.3946126357639

> <r_i_glide_energy>
-47.1623922586441

> <r_i_glide_einternal>
6.85903835296631

> <i_i_glide_confnum>
3

> <i_i_glide_posenum>
45

> <r_i_glide_eff_state_penalty>
0

> <s_user_duplicate_titles>
CHEMBL267_lig432,282582

> <i_f3d_flags>
0

> <s_m_subgroup_title>
dock_pv

> <s_m_subgroupid>
dock_pv

> <b_m_subgroup_collapsed>
1

$$$$
CHEMBL267_lig2754
                    3D
 Schrodinger Suite 2021-1.
 44 47  0  0  1  0            999 V2000
    7.5519    6.5479    7.5882 N   0  0  0  0  0  0
    7.9841    7.5913    6.8379 C   0  0  0  0  0  0
    7.2380    8.5919    6.3070 N   0  0  0  0  0  0
    6.2247    6.4935    7.8746 C   0  0  0  0  0  0
    5.3333    7.4461    7.3480 C   0  0  0  0  0  0
    5.9308    8.4662    6.5678 C   0  0  0  0  0  0
    4.8984    9.2742    6.1308 N   0  0  0  0  0  0
    3.7050    8.8090    6.5558 N   0  0  0  0  0  0
    3.9266    7.7258    7.2605 C   0  0  0  0  0  0
    4.9774   10.5132    5.3601 C   0  0  0  0  0  0
    5.7914    5.4136    8.6308 N   0  0  0  0  0  0
    2.8496    6.9475    7.5984 O   0  0  0  0  0  0
    2.4312    6.6871    8.8857 C   0  0  0  0  0  0
    1.1688    6.0966    8.9929 C   0  0  0  0  0  0
    0.6052    5.8241   10.2377 C   0  0  0  0  0  0
    1.3172    6.1227   11.3959 C   0  0  0  0  0  0
    2.5977    6.6672   11.3095 C   0  0  0  0  0  0
    3.1488    6.9749   10.0577 C   0  0  0  0  0  0
    3.4606    7.0363   12.7671 Cl  0  0  0  0  0  0
    4.4400   10.3654    3.9175 C   0  0  1  0  0  0
    2.8986   10.4005    3.7983 C   0  0  0  0  0  0
    2.4701   10.2486    2.3293 C   0  0  0  0  0  0
    3.2231   11.2252    1.3928 C   0  0  0  0  0  0
    4.6764   11.1689    1.5836 N   0  0  2  0  0  0
    5.0403   11.4356    2.9734 C   0  0  0  0  0  0
    9.0443    7.6252    6.6302 H   0  0  0  0  0  0
    6.0206   10.8306    5.3475 H   0  0  0  0  0  0
    4.4353   11.2898    5.9013 H   0  0  0  0  0  0
    4.8138    5.3222    8.8682 H   0  0  0  0  0  0
    6.4783    4.7444    8.9566 H   0  0  0  0  0  0
    0.6083    5.8696    8.0973 H   0  0  0  0  0  0
   -0.3840    5.3920   10.3030 H   0  0  0  0  0  0
    0.8809    5.9161   12.3629 H   0  0  0  0  0  0
    4.1264    7.4293   10.0061 H   0  0  0  0  0  0
    4.7477    9.3962    3.5156 H   0  0  0  0  0  0
    2.5198   11.3394    4.2047 H   0  0  0  0  0  0
    2.4367    9.6237    4.4074 H   0  0  0  0  0  0
    1.3972   10.4277    2.2473 H   0  0  0  0  0  0
    2.5984    9.2210    1.9879 H   0  0  0  0  0  0
    2.8829   12.2481    1.5621 H   0  0  0  0  0  0
    3.0038   10.9904    0.3506 H   0  0  0  0  0  0
    5.1159   11.8379    0.9549 H   0  0  0  0  0  0
    6.1293   11.4057    3.0343 H   0  0  0  0  0  0
    4.7578   12.4430    3.2836 H   0  0  0  0  0  0
  1  2  2  0  0  0
  1  4  1  0  0  0
  2  3  1  0  0  0
  2 26  1  0  0  0
  3  6  2  0  0  0
  4  5  2  0  0  0
  4 11  1  0  0  0
  5  6  1  0  0  0
  5  9  1  0  0  0
  6  7  1  0  0  0
  7  8  1  0  0  0
  7 10  1  0  0  0
  8  9  2  0  0  0
  9 12  1  0  0  0
 10 20  1  0  0  0
 10 27  1  0  0  0
 10 28  1  0  0  0
 11 29  1  0  0  0
 11 30  1  0  0  0
 12 13  1  0  0  0
 13 14  2  0  0  0
 13 18  1  0  0  0
 14 15  1  0  0  0
 14 31  1  0  0  0
 15 16  2  0  0  0
 15 32  1  0  0  0
 16 17  1  0  0  0
 16 33  1  0  0  0
 17 18  2  0  0  0
 17 19  1  0  0  0
 18 34  1  0  0  0
 20 21  1  0  0  0
 20 25  1  0  0  0
 20 35  1  0  0  0
 21 22  1  0  0  0
 21 36  1  0  0  0
 21 37  1  0  0  0
 22 23  1  0  0  0
 22 38  1  0  0  0
 22 39  1  0  0  0
 23 24  1  0  0  0
 23 40  1  0  0  0
 23 41  1  0  0  0
 24 25  1  0  0  0
 24 42  1  0  0  0
 25 43  1  0  0  0
 25 44  1  0  0  0
M  END
> <s_m_entry_id>
32026

> <s_m_entry_name>
dock_pv.289

> <s_m_Source_Path>
/home/csk/Desktop/cluster/DUD-E-result/src

> <s_m_Source_File>
dock_pv.maegz

> <i_m_Source_File_Index>
289

> <chembl_id>
CHEMBL4060191

> <chembl_pref_name>
None

> <i_lp_mmshare_version>
53161

> <r_lp_tautomer_probability>
1

> <s_lp_Force_Field>
OPLS_2005

> <r_lp_Energy>
20.428893

> <b_lp_Chiralities_Consistent>
1

> <s_lp_Variant>
CHEMBL267_lig2754-2

> <s_i_glide_gridfile>
glide-grid_3el8

> <i_i_glide_lignum>
3122

> <i_i_glide_rotatable_bonds>
4

> <r_i_docking_score>
-7.51215367796173

> <r_i_glide_ligand_efficiency>
-0.300486147118469

> <r_i_glide_ligand_efficiency_sa>
-0.878626823318915

> <r_i_glide_ligand_efficiency_ln>
-1.7806055427565

> <r_i_glide_gscore>
-7.51215367796173

> <r_i_glide_lipo>
-1.98010464976805

> <r_i_glide_hbond>
-0.414819986638893

> <r_i_glide_metal>
0

> <r_i_glide_rewards>
-2.8037148430152

> <r_i_glide_evdw>
-35.5202941894531

> <r_i_glide_ecoul>
-6.36114263534546

> <r_i_glide_erotb>
0.416671906234892

> <r_i_glide_esite>
0

> <r_i_glide_emodel>
-57.8006279366364

> <r_i_glide_energy>
-41.8814368247986

> <r_i_glide_einternal>
4.71310901641846

> <i_i_glide_confnum>
37

> <i_i_glide_posenum>
386

> <r_i_glide_eff_state_penalty>
0

> <s_user_duplicate_titles>
CHEMBL267_lig2754

> <i_f3d_flags>
0

> <s_m_subgroup_title>
dock_pv

> <s_m_subgroupid>
dock_pv

> <b_m_subgroup_collapsed>
1

$$$$
CHEMBL267_lig3580
                    3D
 Schrodinger Suite 2021-1.
 26 27  0  0  1  0            999 V2000
    5.6525    9.0340    5.9874 S   0  0  0  0  0  0
    8.1979    6.6374    7.5872 O   0  0  0  0  0  0
    7.7625   10.1823    4.7878 O   0  0  0  0  0  0
    0.5744    7.6245    6.4655 O   0  0  0  0  0  0
   -0.2020    6.3777    8.7883 O   0  0  0  0  0  0
    8.0838    8.3495    6.1282 N   0  0  0  0  0  0
    6.1068    7.6989    7.0605 C   0  0  0  0  0  0
    7.5373    7.4803    6.9832 C   0  0  0  0  0  0
    3.8748    6.9288    8.0853 C   0  0  0  0  0  0
    5.3428    6.9342    7.8757 C   0  0  0  0  0  0
    7.3578    9.2879    5.5255 C   0  0  0  0  0  0
    1.5516    7.2296    7.3629 C   0  0  0  0  0  0
    2.9350    7.4000    7.1550 C   0  0  0  0  0  0
    1.1248    6.6077    8.5434 C   0  0  0  0  0  0
    3.4069    6.3387    9.2605 C   0  0  0  0  0  0
    2.0457    6.1863    9.4964 C   0  0  0  0  0  0
    0.9554    8.1689    5.2056 C   0  0  0  0  0  0
   -0.7574    6.2375    8.0067 H   0  0  0  0  0  0
    9.0780    8.3106    5.9626 H   0  0  0  0  0  0
    5.8538    6.1790    8.4603 H   0  0  0  0  0  0
    3.2772    7.8330    6.2316 H   0  0  0  0  0  0
    4.1053    5.9577    9.9883 H   0  0  0  0  0  0
    1.7088    5.7060   10.4032 H   0  0  0  0  0  0
    0.0613    8.3856    4.6223 H   0  0  0  0  0  0
    1.5068    9.1027    5.3244 H   0  0  0  0  0  0
    1.5568    7.4652    4.6287 H   0  0  0  0  0  0
  1  7  1  0  0  0
  1 11  1  0  0  0
  2  8  2  0  0  0
  3 11  2  0  0  0
  4 12  1  0  0  0
  4 17  1  0  0  0
  5 14  1  0  0  0
  5 18  1  0  0  0
  6  8  1  0  0  0
  6 11  1  0  0  0
  6 19  1  0  0  0
  7  8  1  0  0  0
  7 10  2  3  0  0
  9 10  1  0  0  0
  9 13  1  0  0  0
  9 15  2  0  0  0
 10 20  1  0  0  0
 12 13  2  0  0  0
 12 14  1  0  0  0
 13 21  1  0  0  0
 14 16  2  0  0  0
 15 16  1  0  0  0
 15 22  1  0  0  0
 16 23  1  0  0  0
 17 24  1  0  0  0
 17 25  1  0  0  0
 17 26  1  0  0  0
M  END
> <s_m_entry_id>
32027

> <s_m_entry_name>
dock_pv.290

> <s_m_Source_Path>
/home/csk/Desktop/cluster/DUD-E-result/src

> <s_m_Source_File>
dock_pv.maegz

> <i_m_Source_File_Index>
290

> <chembl_id>
CHEMBL2003286

> <chembl_pref_name>
None

> <i_lp_mmshare_version>
53161

> <r_lp_tautomer_probability>
1

> <s_lp_Force_Field>
OPLS_2005

> <r_lp_Energy>
16.145588

> <b_lp_Chiralities_Consistent>
1

> <s_lp_Variant>
CHEMBL267_lig3580-2

> <s_i_glide_gridfile>
glide-grid_3el8

> <i_i_glide_lignum>
4315

> <i_i_glide_rotatable_bonds>
3

> <r_i_docking_score>
-7.51099137529028

> <r_i_glide_ligand_efficiency>
-0.441823022075899

> <r_i_glide_ligand_efficiency_sa>
-1.13605140191985

> <r_i_glide_ligand_efficiency_ln>
-1.95945038825893

> <r_i_glide_gscore>
-7.51099137529028

> <r_i_glide_lipo>
-1.693808869953

> <r_i_glide_hbond>
-0.304

> <r_i_glide_metal>
0

> <r_i_glide_rewards>
-3.01211146361251

> <r_i_glide_evdw>
-27.2965888977051

> <r_i_glide_ecoul>
-9.42559432983398

> <r_i_glide_erotb>
0.277597552635586

> <r_i_glide_esite>
0

> <r_i_glide_emodel>
-52.0588560846872

> <r_i_glide_energy>
-36.7221832275391

> <r_i_glide_einternal>
3.0151903629303

> <i_i_glide_confnum>
2

> <i_i_glide_posenum>
360

> <r_i_glide_eff_state_penalty>
0

> <s_user_duplicate_titles>
CHEMBL267_lig3580

> <i_f3d_flags>
0

> <s_m_subgroup_title>
dock_pv

> <s_m_subgroupid>
dock_pv

> <b_m_subgroup_collapsed>
1

$$$$
CHEMBL267_lig3850
                    3D
 Schrodinger Suite 2021-1.
 55 60  0  0  1  0            999 V2000
    1.7884    6.4022   11.8964 C   0  0  0  0  0  0
    0.5563    5.8380   11.5629 C   0  0  0  0  0  0
    0.1591    5.5634   10.2952 N   0  0  0  0  0  0
    2.7150    6.6873   10.8977 C   0  0  0  0  0  0
    2.3512    6.4176    9.5718 C   0  0  0  0  0  0
    1.0522    5.8684    9.3531 C   0  0  0  0  0  0
    0.8888    5.7099    8.0014 N   0  0  0  0  0  0
    2.0480    6.0891    7.3744 C   0  0  0  0  0  0
    2.9773    6.5512    8.2887 C   0  0  0  0  0  0
    4.3468    7.0295    7.9879 C   0  0  0  0  0  0
    4.4745    8.1218    7.1912 N   0  0  0  0  0  0
    5.7393    8.4496    6.7987 C   0  0  0  0  0  0
    6.8431    7.6685    7.1785 C   0  0  0  0  0  0
    6.5970    6.5516    7.9828 C   0  0  0  0  0  0
    5.3520    6.2222    8.4090 N   0  0  0  0  0  0
    8.1049    7.9655    6.7857 F   0  0  0  0  0  0
    5.9567    9.6006    6.0170 N   0  0  0  0  0  0
    4.9057   10.5013    5.5142 C   0  0  1  0  0  0
    5.5853   11.7018    4.7812 C   0  0  1  0  0  0
    6.3927   11.1432    3.5719 C   0  0  0  0  0  0
    5.4656   10.3003    2.6502 C   0  0  0  0  0  0
    3.9815   10.3617    3.1147 C   0  0  1  0  0  0
    3.8956    9.7622    4.5641 C   0  0  2  0  0  0
    2.0941    6.6370   13.1879 F   0  0  0  0  0  0
    2.4643    9.8179    5.1726 C   0  0  0  0  0  0
    1.4837    8.9758    4.5028 N   0  0  0  0  0  0
    0.7492    9.1597    3.3983 C   0  0  0  0  0  0
    0.1980    7.9559    3.1880 N   0  0  0  0  0  0
    0.6624    7.0276    4.0161 C   0  0  0  0  0  0
    1.5630    7.6405    4.7677 O   0  0  0  0  0  0
    0.5986   10.1830    2.7372 O   0  0  0  0  0  0
    0.3734    5.8375    4.1112 O   0  0  0  0  0  0
    4.4715   12.6215    4.2055 C   0  0  0  0  0  0
    3.5886   11.8651    3.1759 C   0  0  0  0  0  0
   -0.1620    5.6154   12.3371 H   0  0  0  0  0  0
    3.6853    7.0911   11.1420 H   0  0  0  0  0  0
    0.0729    5.3604    7.5148 H   0  0  0  0  0  0
    2.1442    5.9623    6.3099 H   0  0  0  0  0  0
    7.3913    5.8799    8.2719 H   0  0  0  0  0  0
    6.9016    9.7725    5.7051 H   0  0  0  0  0  0
    4.3907   10.9033    6.3879 H   0  0  0  0  0  0
    6.1981   12.2723    5.4733 H   0  0  0  0  0  0
    6.8144   11.9740    3.0014 H   0  0  0  0  0  0
    7.2516   10.5559    3.8967 H   0  0  0  0  0  0
    5.7971    9.2619    2.6614 H   0  0  0  0  0  0
    5.5520   10.6386    1.6168 H   0  0  0  0  0  0
    3.3446    9.8218    2.4130 H   0  0  0  0  0  0
    4.1711    8.7080    4.4900 H   0  0  0  0  0  0
    2.0907   10.8405    5.2049 H   0  0  0  0  0  0
    2.4835    9.5102    6.2178 H   0  0  0  0  0  0
   -0.4777    7.7737    2.4587 H   0  0  0  0  0  0
    3.8489   12.9945    5.0201 H   0  0  0  0  0  0
    4.9148   13.5076    3.7463 H   0  0  0  0  0  0
    3.7302   12.3063    2.1881 H   0  0  0  0  0  0
    2.5287   12.0043    3.3877 H   0  0  0  0  0  0
  1  2  2  0  0  0
  1  4  1  0  0  0
  1 24  1  0  0  0
  2  3  1  0  0  0
  2 35  1  0  0  0
  3  6  2  0  0  0
  4  5  2  0  0  0
  4 36  1  0  0  0
  5  6  1  0  0  0
  5  9  1  0  0  0
  6  7  1  0  0  0
  7  8  1  0  0  0
  7 37  1  0  0  0
  8  9  2  0  0  0
  8 38  1  0  0  0
  9 10  1  0  0  0
 10 11  2  0  0  0
 10 15  1  0  0  0
 11 12  1  0  0  0
 12 13  2  0  0  0
 12 17  1  0  0  0
 13 14  1  0  0  0
 13 16  1  0  0  0
 14 15  2  0  0  0
 14 39  1  0  0  0
 17 18  1  0  0  0
 17 40  1  0  0  0
 18 19  1  0  0  0
 18 23  1  0  0  0
 18 41  1  0  0  0
 19 20  1  0  0  0
 19 33  1  0  0  0
 19 42  1  0  0  0
 20 21  1  0  0  0
 20 43  1  0  0  0
 20 44  1  0  0  0
 21 22  1  0  0  0
 21 45  1  0  0  0
 21 46  1  0  0  0
 22 23  1  0  0  0
 22 34  1  0  0  0
 22 47  1  0  0  0
 23 25  1  0  0  0
 23 48  1  0  0  0
 25 26  1  0  0  0
 25 49  1  0  0  0
 25 50  1  0  0  0
 26 27  1  0  0  0
 26 30  1  0  0  0
 27 28  1  0  0  0
 27 31  2  0  0  0
 28 29  1  0  0  0
 28 51  1  0  0  0
 29 30  1  0  0  0
 29 32  2  0  0  0
 33 34  1  0  0  0
 33 52  1  0  0  0
 33 53  1  0  0  0
 34 54  1  0  0  0
 34 55  1  0  0  0
M  END
> <s_m_entry_id>
32028

> <s_m_entry_name>
dock_pv.291

> <s_m_Source_Path>
/home/csk/Desktop/cluster/DUD-E-result/src

> <s_m_Source_File>
dock_pv.maegz

> <i_m_Source_File_Index>
291

> <chembl_id>
CHEMBL3401978

> <chembl_pref_name>
None

> <i_lp_mmshare_version>
53161

> <r_lp_tautomer_probability>
0.999967947578132

> <s_lp_Force_Field>
OPLS_2005

> <r_lp_Energy>
42.817682

> <b_lp_Chiralities_Consistent>
1

> <s_lp_Variant>
CHEMBL267_lig3850-1

> <s_i_glide_gridfile>
glide-grid_3el8

> <i_i_glide_lignum>
4735

> <i_i_glide_rotatable_bonds>
5

> <r_i_docking_score>
-7.50760079417779

> <r_i_glide_ligand_efficiency>
-0.220811788064053

> <r_i_glide_ligand_efficiency_sa>
-0.715344473632634

> <r_i_glide_ligand_efficiency_ln>
-1.6586395965033

> <r_i_glide_gscore>
-7.50760079417779

> <r_i_glide_lipo>
-3.09945806065189

> <r_i_glide_hbond>
-0.273241081302469

> <r_i_glide_metal>
0

> <r_i_glide_rewards>
-1.84464471406445

> <r_i_glide_evdw>
-43.2562828063965

> <r_i_glide_ecoul>
-3.34858131408691

> <r_i_glide_erotb>
0.458248653007777

> <r_i_glide_esite>
-0.0834042537339015

> <r_i_glide_emodel>
-61.3628506930359

> <r_i_glide_energy>
-46.6048641204834

> <r_i_glide_einternal>
12.4176969528198

> <i_i_glide_confnum>
5

> <i_i_glide_posenum>
216

> <r_i_glide_eff_state_penalty>
0

> <s_user_duplicate_titles>
CHEMBL267_lig3850

> <i_f3d_flags>
0

> <s_m_subgroup_title>
dock_pv

> <s_m_subgroupid>
dock_pv

> <b_m_subgroup_collapsed>
1

$$$$
CHEMBL267_lig2552
                    3D
 Schrodinger Suite 2021-1.
 57 60  0  0  1  0            999 V2000
    7.7514    8.7304    5.9881 N   0  0  0  0  0  0
    8.4528    7.8369    6.7336 C   0  0  0  0  0  0
    7.9646    6.8656    7.5446 N   0  0  0  0  0  0
    6.6174    6.7950    7.6648 C   0  0  0  0  0  0
    6.1135    5.7200    8.3880 N   0  0  0  0  0  0
    6.4280    8.6430    6.1713 C   0  0  0  0  0  0
    5.7765    7.7220    7.0207 C   0  0  0  0  0  0
    4.3809    8.0324    6.9001 C   0  0  0  0  0  0
    4.2102    8.9628    5.9863 N   0  0  0  0  0  0
    5.4246    9.3770    5.5662 N   0  0  0  0  0  0
    3.2283    7.4397    7.6439 C   0  0  0  0  0  0
    3.3530    7.1425    9.0051 C   0  0  0  0  0  0
    2.3045    6.5364    9.6925 C   0  0  0  0  0  0
    1.1216    6.2248    9.0217 C   0  0  0  0  0  0
    0.9905    6.5230    7.6640 C   0  0  0  0  0  0
    2.0379    7.1324    6.9782 C   0  0  0  0  0  0
   -0.0073    5.5334    9.7670 C   0  0  0  0  0  0
    5.5452   10.4263    4.5504 C   0  0  0  0  0  0
    5.0279   11.8113    5.0128 C   0  0  0  0  0  0
    3.6074   11.9913    4.6856 N   0  0  2  0  0  0
    3.3549   13.1866    3.8645 C   0  0  0  0  0  0
    1.8573   13.3250    3.5030 C   0  0  0  0  0  0
    0.9266   13.3469    4.7455 C   0  0  0  0  0  0
    1.2505   12.0047    5.4496 C   0  0  0  0  0  0
    2.7316   11.9052    5.8599 C   0  0  0  0  0  0
    1.0669   14.5510    5.5954 N   0  0  0  0  0  0
    0.2682   14.4747    6.8205 C   0  0  0  0  0  0
    0.6552   15.7622    4.8815 C   0  0  0  0  0  0
    9.5271    7.8678    6.6243 H   0  0  0  0  0  0
    5.1141    5.6075    8.4779 H   0  0  0  0  0  0
    6.7574    5.0605    8.8035 H   0  0  0  0  0  0
    4.2614    7.3826    9.5385 H   0  0  0  0  0  0
    2.4186    6.3020   10.7415 H   0  0  0  0  0  0
    0.0830    6.2754    7.1337 H   0  0  0  0  0  0
    1.9316    7.3460    5.9240 H   0  0  0  0  0  0
    0.3893    4.7514   10.4154 H   0  0  0  0  0  0
   -0.5534    6.2393   10.3937 H   0  0  0  0  0  0
   -0.7093    5.0501    9.0865 H   0  0  0  0  0  0
    5.0352   10.0915    3.6455 H   0  0  0  0  0  0
    6.5981   10.5129    4.2799 H   0  0  0  0  0  0
    5.6241   12.5755    4.5098 H   0  0  0  0  0  0
    5.2215   11.9653    6.0766 H   0  0  0  0  0  0
    3.9475   13.1215    2.9506 H   0  0  0  0  0  0
    3.7046   14.0745    4.3934 H   0  0  0  0  0  0
    1.5635   12.5381    2.8066 H   0  0  0  0  0  0
    1.7271   14.2305    2.9136 H   0  0  0  0  0  0
   -0.0963   13.2566    4.3745 H   0  0  0  0  0  0
    0.6200   11.8604    6.3250 H   0  0  0  0  0  0
    0.9988   11.1589    4.8076 H   0  0  0  0  0  0
    2.8910   10.9701    6.3879 H   0  0  0  0  0  0
    2.9990   12.6979    6.5578 H   0  0  0  0  0  0
    0.3803   15.3857    7.4080 H   0  0  0  0  0  0
    0.5978   13.6640    7.4682 H   0  0  0  0  0  0
   -0.7926   14.3338    6.6055 H   0  0  0  0  0  0
    0.6690   16.6314    5.5401 H   0  0  0  0  0  0
    1.3304   15.9921    4.0582 H   0  0  0  0  0  0
   -0.3555   15.6696    4.4801 H   0  0  0  0  0  0
  1  6  1  0  0  0
  1  2  2  0  0  0
  2  3  1  0  0  0
  2 29  1  0  0  0
  3  4  2  0  0  0
  4  7  1  0  0  0
  4  5  1  0  0  0
  5 30  1  0  0  0
  5 31  1  0  0  0
  6  7  2  0  0  0
  6 10  1  0  0  0
  7  8  1  0  0  0
  8  9  2  0  0  0
  8 11  1  0  0  0
  9 10  1  0  0  0
 10 18  1  0  0  0
 11 12  2  0  0  0
 11 16  1  0  0  0
 12 13  1  0  0  0
 12 32  1  0  0  0
 13 14  2  0  0  0
 13 33  1  0  0  0
 14 15  1  0  0  0
 14 17  1  0  0  0
 15 16  2  0  0  0
 15 34  1  0  0  0
 16 35  1  0  0  0
 17 36  1  0  0  0
 17 37  1  0  0  0
 17 38  1  0  0  0
 18 19  1  0  0  0
 18 39  1  0  0  0
 18 40  1  0  0  0
 19 20  1  0  0  0
 19 41  1  0  0  0
 19 42  1  0  0  0
 20 21  1  0  0  0
 20 25  1  0  0  0
 21 22  1  0  0  0
 21 43  1  0  0  0
 21 44  1  0  0  0
 22 23  1  0  0  0
 22 45  1  0  0  0
 22 46  1  0  0  0
 23 24  1  0  0  0
 23 26  1  0  0  0
 23 47  1  0  0  0
 24 25  1  0  0  0
 24 48  1  0  0  0
 24 49  1  0  0  0
 25 50  1  0  0  0
 25 51  1  0  0  0
 26 27  1  0  0  0
 26 28  1  0  0  0
 27 52  1  0  0  0
 27 53  1  0  0  0
 27 54  1  0  0  0
 28 55  1  0  0  0
 28 56  1  0  0  0
 28 57  1  0  0  0
M  END
> <s_m_entry_id>
32029

> <s_m_entry_name>
dock_pv.292

> <s_m_Source_Path>
/home/csk/Desktop/cluster/DUD-E-result/src

> <s_m_Source_File>
dock_pv.maegz

> <i_m_Source_File_Index>
292

> <chembl_id>
CHEMBL3823212

> <chembl_pref_name>
None

> <i_lp_mmshare_version>
53161

> <r_lp_tautomer_probability>
1

> <s_lp_Force_Field>
OPLS_2005

> <r_lp_Energy>
31.349179

> <b_lp_Chiralities_Consistent>
1

> <s_lp_Variant>
CHEMBL267_lig2552-1

> <s_i_glide_gridfile>
glide-grid_3el8

> <i_i_glide_lignum>
2863

> <i_i_glide_rotatable_bonds>
5

> <r_i_docking_score>
-7.50744859307051

> <r_i_glide_ligand_efficiency>
-0.268123164038233

> <r_i_glide_ligand_efficiency_sa>
-0.814179842118568

> <r_i_glide_ligand_efficiency_ln>
-1.73293956354957

> <r_i_glide_gscore>
-7.50744859307051

> <r_i_glide_lipo>
-2.00421917693864

> <r_i_glide_hbond>
-0.371710799141358

> <r_i_glide_metal>
0

> <r_i_glide_rewards>
-2.74655559323829

> <r_i_glide_evdw>
-38.6074600219727

> <r_i_glide_ecoul>
-5.54380941390991

> <r_i_glide_erotb>
0.376981389432891

> <r_i_glide_esite>
0

> <r_i_glide_emodel>
-62.0233136419982

> <r_i_glide_energy>
-44.1512694358826

> <r_i_glide_einternal>
4.10743188858032

> <i_i_glide_confnum>
44

> <i_i_glide_posenum>
349

> <r_i_glide_eff_state_penalty>
0

> <s_user_duplicate_titles>
CHEMBL267_lig2552

> <i_f3d_flags>
0

> <s_m_subgroup_title>
dock_pv

> <s_m_subgroupid>
dock_pv

> <b_m_subgroup_collapsed>
1

$$$$
CHEMBL267_lig2732
                    3D
 Schrodinger Suite 2021-1.
 46 48  0  0  1  0            999 V2000
    0.2206    6.2697    4.4105 C   0  0  0  0  0  0
    0.3800    7.5159    5.2987 C   0  0  0  0  0  0
    0.9147    8.7286    4.5118 C   0  0  0  0  0  0
    1.1816    7.1941    6.4925 N   0  0  0  0  0  0
    0.5980    6.4440    7.4481 N   0  0  0  0  0  0
    1.4305    6.2514    8.4374 C   0  0  0  0  0  0
    1.0035    5.4613    9.6722 C   0  0  0  0  0  0
    0.2719    4.1597    9.3452 C   0  0  0  0  0  0
   -1.1098    4.1429    9.1880 C   0  0  0  0  0  0
   -1.7651    2.9929    8.7648 C   0  0  0  0  0  0
   -1.0530    1.8203    8.5159 C   0  0  0  0  0  0
   -1.8020    0.7504    7.9880 N   0  0  0  0  0  0
   -1.2603   -0.8829    7.5353 S   0  0  0  0  0  0
    0.1980   -0.9292    7.5880 O   0  0  0  0  0  0
   -1.9687   -1.2157    6.2961 O   0  0  0  0  0  0
   -1.8888   -1.9921    8.7880 C   0  0  0  0  0  0
   -1.0421   -2.6655    9.5881 C   0  0  0  0  0  0
    0.3239    1.8083    8.7880 C   0  0  0  0  0  0
    0.9836    2.9778    9.1752 C   0  0  0  0  0  0
    2.6686    6.8961    8.1274 C   0  0  0  0  0  0
    3.9241    7.0955    8.7121 C   0  0  0  0  0  0
    4.1980    6.6370    9.9880 N   0  0  0  0  0  0
    4.9099    7.7633    8.0654 N   0  0  0  0  0  0
    4.6155    8.2370    6.8287 C   0  0  0  0  0  0
    3.4317    8.1507    6.1678 N   0  0  0  0  0  0
    2.4934    7.4716    6.8441 C   0  0  0  0  0  0
   -0.4635    6.4724    3.5880 H   0  0  0  0  0  0
    1.1735    5.9460    3.9896 H   0  0  0  0  0  0
   -0.2020    5.4370    4.9713 H   0  0  0  0  0  0
   -0.6147    7.7871    5.6609 H   0  0  0  0  0  0
    0.2169    9.0152    3.7241 H   0  0  0  0  0  0
    1.0523    9.5971    5.1569 H   0  0  0  0  0  0
    1.8671    8.5101    4.0278 H   0  0  0  0  0  0
    0.3825    6.0792   10.3226 H   0  0  0  0  0  0
    1.8709    5.2044   10.2790 H   0  0  0  0  0  0
   -1.6899    5.0370    9.3223 H   0  0  0  0  0  0
   -2.8319    3.0324    8.5917 H   0  0  0  0  0  0
   -2.6975    1.0122    7.5743 H   0  0  0  0  0  0
   -2.9626   -2.0795    8.8458 H   0  0  0  0  0  0
    0.0306   -2.5517    9.5059 H   0  0  0  0  0  0
   -1.4020   -3.3438   10.3464 H   0  0  0  0  0  0
    0.9146    0.9140    8.7175 H   0  0  0  0  0  0
    2.0483    2.9869    9.3377 H   0  0  0  0  0  0
    3.6638    5.8638   10.3584 H   0  0  0  0  0  0
    5.1491    6.7441   10.3006 H   0  0  0  0  0  0
    5.4084    8.7657    6.3194 H   0  0  0  0  0  0
  1  2  1  0  0  0
  1 27  1  0  0  0
  1 28  1  0  0  0
  1 29  1  0  0  0
  2  3  1  0  0  0
  2  4  1  0  0  0
  2 30  1  0  0  0
  3 31  1  0  0  0
  3 32  1  0  0  0
  3 33  1  0  0  0
  4  5  1  0  0  0
  4 26  1  0  0  0
  5  6  2  0  0  0
  6  7  1  0  0  0
  6 20  1  0  0  0
  7  8  1  0  0  0
  7 34  1  0  0  0
  7 35  1  0  0  0
  8  9  2  0  0  0
  8 19  1  0  0  0
  9 10  1  0  0  0
  9 36  1  0  0  0
 10 11  2  0  0  0
 10 37  1  0  0  0
 11 12  1  0  0  0
 11 18  1  0  0  0
 12 13  1  0  0  0
 12 38  1  0  0  0
 13 14  2  0  0  0
 13 15  2  0  0  0
 13 16  1  0  0  0
 16 17  2  0  0  0
 16 39  1  0  0  0
 17 40  1  0  0  0
 17 41  1  0  0  0
 18 19  2  0  0  0
 18 42  1  0  0  0
 19 43  1  0  0  0
 20 21  2  0  0  0
 20 26  1  0  0  0
 21 22  1  0  0  0
 21 23  1  0  0  0
 22 44  1  0  0  0
 22 45  1  0  0  0
 23 24  2  0  0  0
 24 25  1  0  0  0
 24 46  1  0  0  0
 25 26  2  0  0  0
M  END
> <s_m_entry_id>
32030

> <s_m_entry_name>
dock_pv.293

> <s_m_Source_Path>
/home/csk/Desktop/cluster/DUD-E-result/src

> <s_m_Source_File>
dock_pv.maegz

> <i_m_Source_File_Index>
293

> <chembl_id>
CHEMBL3968877

> <chembl_pref_name>
None

> <i_lp_mmshare_version>
53161

> <r_lp_tautomer_probability>
1

> <s_lp_Force_Field>
OPLS_2005

> <r_lp_Energy>
3.594586

> <b_lp_Chiralities_Consistent>
1

> <s_lp_Variant>
CHEMBL267_lig2732-1

> <s_i_glide_gridfile>
glide-grid_3el8

> <i_i_glide_lignum>
3096

> <i_i_glide_rotatable_bonds>
6

> <r_i_docking_score>
-7.50110580292963

> <r_i_glide_ligand_efficiency>
-0.288504069343447

> <r_i_glide_ligand_efficiency_sa>
-0.854692170221267

> <r_i_glide_ligand_efficiency_ln>
-1.76161008468235

> <r_i_glide_gscore>
-7.50110580292963

> <r_i_glide_lipo>
-2.98936419208985

> <r_i_glide_hbond>
-0.232164535111038

> <r_i_glide_metal>
0

> <r_i_glide_rewards>
-2.00030389159998

> <r_i_glide_evdw>
-41.5519943237305

> <r_i_glide_ecoul>
-5.65157747268677

> <r_i_glide_erotb>
0.696179488506132

> <r_i_glide_esite>
-0.0501163355453635

> <r_i_glide_emodel>
-62.6281203838021

> <r_i_glide_energy>
-47.2035717964172

> <r_i_glide_einternal>
8.26289844512939

> <i_i_glide_confnum>
18

> <i_i_glide_posenum>
194

> <r_i_glide_eff_state_penalty>
0

> <s_user_duplicate_titles>
CHEMBL267_lig2732

> <i_f3d_flags>
0

> <s_m_subgroup_title>
dock_pv

> <s_m_subgroupid>
dock_pv

> <b_m_subgroup_collapsed>
1

$$$$
CHEMBL267_lig3398
                    3D
 Schrodinger Suite 2021-1.
 38 41  0  0  1  0            999 V2000
   -3.1376    3.8370    9.1874 Cl  0  0  0  0  0  0
   -0.0407   -0.2634    7.7391 Cl  0  0  0  0  0  0
    4.1250    7.7055    8.4246 O   0  0  0  0  0  0
    3.5593    7.0370   11.6802 O   0  0  0  0  0  0
    0.9980    6.6056    7.7294 N   0  0  0  0  0  0
    0.6148    5.7695   10.8971 N   0  0  0  0  0  0
    1.3989    9.0369    2.7880 N   0  0  0  0  0  0
    2.2226   10.0712    3.0342 N   0  0  0  0  0  0
    1.7911    6.7116    8.8590 C   0  0  0  0  0  0
    1.6170    6.3556   10.1602 C   0  0  0  0  0  0
    3.2048    7.2373    9.0944 C   0  0  0  0  0  0
    2.9536    6.9073   10.6165 C   0  0  0  0  0  0
    1.1112    7.2090    6.4685 C   0  0  0  0  0  0
    1.8989    8.9055    4.9464 C   0  0  0  0  0  0
    1.1600    8.2819    3.9142 C   0  0  0  0  0  0
    1.8641    8.3676    6.2406 C   0  0  0  0  0  0
   -0.6020    5.1877   10.3351 C   0  0  0  0  0  0
    0.3808    6.6321    5.4268 C   0  0  0  0  0  0
   -0.4303    3.8636    9.5880 C   0  0  0  0  0  0
    0.3853    7.1428    4.1298 C   0  0  0  0  0  0
    2.5248   10.0164    4.3061 C   0  0  0  0  0  0
   -1.5446    3.2138    9.0245 C   0  0  0  0  0  0
    0.8066    3.2172    9.5434 C   0  0  0  0  0  0
   -1.4063    1.9809    8.3880 C   0  0  0  0  0  0
   -0.1835    1.3288    8.3903 C   0  0  0  0  0  0
    0.8967    1.9358    9.0257 C   0  0  0  0  0  0
    0.1874    6.0018    7.7875 H   0  0  0  0  0  0
    0.6640    5.7541   11.9071 H   0  0  0  0  0  0
    1.0412    8.8618    1.8529 H   0  0  0  0  0  0
    2.4008    8.8578    7.0351 H   0  0  0  0  0  0
   -1.0020    5.9111    9.6282 H   0  0  0  0  0  0
   -1.3271    5.0369   11.1355 H   0  0  0  0  0  0
   -0.2160    5.7530    5.6206 H   0  0  0  0  0  0
   -0.1898    6.6844    3.3390 H   0  0  0  0  0  0
    3.1804   10.7501    4.7499 H   0  0  0  0  0  0
    1.6880    3.6479    9.9880 H   0  0  0  0  0  0
   -2.2739    1.4815    7.9880 H   0  0  0  0  0  0
    1.7980    1.3798    9.1880 H   0  0  0  0  0  0
  1 22  1  0  0  0
  2 25  1  0  0  0
  3 11  2  0  0  0
  4 12  2  0  0  0
  5  9  1  0  0  0
  5 13  1  0  0  0
  5 27  1  0  0  0
  6 10  1  0  0  0
  6 17  1  0  0  0
  6 28  1  0  0  0
  7  8  1  0  0  0
  7 15  1  0  0  0
  7 29  1  0  0  0
  8 21  2  0  0  0
  9 10  2  0  0  0
  9 11  1  0  0  0
 10 12  1  0  0  0
 11 12  1  0  0  0
 13 16  1  0  0  0
 13 18  2  0  0  0
 14 15  1  0  0  0
 14 16  2  0  0  0
 14 21  1  0  0  0
 15 20  2  0  0  0
 16 30  1  0  0  0
 17 19  1  0  0  0
 17 31  1  0  0  0
 17 32  1  0  0  0
 18 20  1  0  0  0
 18 33  1  0  0  0
 19 22  1  0  0  0
 19 23  2  0  0  0
 20 34  1  0  0  0
 21 35  1  0  0  0
 22 24  2  0  0  0
 23 26  1  0  0  0
 23 36  1  0  0  0
 24 25  1  0  0  0
 24 37  1  0  0  0
 25 26  2  0  0  0
 26 38  1  0  0  0
M  END
> <s_m_entry_id>
32031

> <s_m_entry_name>
dock_pv.294

> <s_m_Source_Path>
/home/csk/Desktop/cluster/DUD-E-result/src

> <s_m_Source_File>
dock_pv.maegz

> <i_m_Source_File_Index>
294

> <chembl_id>
CHEMBL1979554

> <chembl_pref_name>
None

> <i_lp_mmshare_version>
53161

> <r_lp_tautomer_probability>
1

> <s_lp_Force_Field>
OPLS_2005

> <r_lp_Energy>
53.532245

> <b_lp_Chiralities_Consistent>
1

> <s_lp_Variant>
CHEMBL267_lig3398-1

> <s_i_glide_gridfile>
glide-grid_3el8

> <i_i_glide_lignum>
4054

> <i_i_glide_rotatable_bonds>
5

> <r_i_docking_score>
-7.49230462125519

> <r_i_glide_ligand_efficiency>
-0.288165562355969

> <r_i_glide_ligand_efficiency_sa>
-0.853689344602823

> <r_i_glide_ligand_efficiency_ln>
-1.75954315604514

> <r_i_glide_gscore>
-7.49230462125519

> <r_i_glide_lipo>
-3.52099710927854

> <r_i_glide_hbond>
-0.32

> <r_i_glide_metal>
0

> <r_i_glide_rewards>
-1.51662464073085

> <r_i_glide_evdw>
-38.0165748596191

> <r_i_glide_ecoul>
-5.66631078720093

> <r_i_glide_erotb>
0.649315028997026

> <r_i_glide_esite>
-0.0332225391817286

> <r_i_glide_emodel>
-60.644293793203

> <r_i_glide_energy>
-43.6828856468201

> <r_i_glide_einternal>
3.70089316368103

> <i_i_glide_confnum>
1

> <i_i_glide_posenum>
278

> <r_i_glide_eff_state_penalty>
0

> <s_user_duplicate_titles>
CHEMBL267_lig3398

> <i_f3d_flags>
0

> <s_m_subgroup_title>
dock_pv

> <s_m_subgroupid>
dock_pv

> <b_m_subgroup_collapsed>
1

$$$$
CHEMBL267_lig1134
                    3D
 Schrodinger Suite 2021-1.
 47 50  0  0  1  0            999 V2000
    5.9573    9.7208    5.1850 C   0  0  0  0  0  0
    7.3150    9.4260    5.1880 C   0  0  0  0  0  0
    7.8161    8.3907    5.9667 C   0  0  0  0  0  0
    5.0533    9.0110    5.9873 C   0  0  0  0  0  0
    5.5559    7.9585    6.8226 C   0  0  0  0  0  0
    6.9502    7.6341    6.7813 C   0  0  0  0  0  0
    7.4758    6.5905    7.4841 N   0  0  0  0  0  0
    6.6055    5.8514    8.2114 C   0  0  0  0  0  0
    5.2959    6.0944    8.3876 N   0  0  0  0  0  0
    4.7745    7.1414    7.7035 C   0  0  0  0  0  0
    3.3961    7.3369    7.8552 N   0  0  0  0  0  0
    2.5219    6.6849    8.7339 C   0  0  0  0  0  0
    1.5513    5.8412    8.1934 C   0  0  0  0  0  0
    0.6535    5.1593    9.0129 C   0  0  0  0  0  0
    0.6911    5.3930   10.3964 C   0  0  0  0  0  0
    1.6568    6.2370   10.9455 C   0  0  0  0  0  0
    2.5863    6.8752   10.1232 C   0  0  0  0  0  0
    3.7953    7.8833   10.8507 Cl  0  0  0  0  0  0
   -0.2015    4.2750    8.3883 O   0  0  0  0  0  0
   -1.2304    3.6543    9.1513 C   0  0  0  0  0  0
    3.6971    9.2858    6.0253 O   0  0  0  0  0  0
    3.0378    9.9833    4.9675 C   0  0  0  0  0  0
    2.8129    9.0556    3.7515 C   0  0  0  0  0  0
    1.7980    7.9330    4.0706 C   0  0  0  0  0  0
    0.5944    8.4908    4.5872 O   0  0  0  0  0  0
    0.7673    9.2228    5.7965 C   0  0  0  0  0  0
    1.6720   10.4343    5.5126 C   0  0  0  0  0  0
    5.6314   10.5299    4.5523 H   0  0  0  0  0  0
    7.9873   10.0009    4.5673 H   0  0  0  0  0  0
    8.8702    8.1507    5.9432 H   0  0  0  0  0  0
    7.0169    5.0371    8.7857 H   0  0  0  0  0  0
    3.0120    8.0566    7.2571 H   0  0  0  0  0  0
    1.5129    5.6782    7.1265 H   0  0  0  0  0  0
   -0.0006    4.9028   11.0647 H   0  0  0  0  0  0
    1.6934    6.3836   12.0151 H   0  0  0  0  0  0
   -1.8251    3.0094    8.5043 H   0  0  0  0  0  0
   -1.9030    4.3913    9.5900 H   0  0  0  0  0  0
   -0.8158    3.0379    9.9463 H   0  0  0  0  0  0
    3.5682   10.8896    4.6774 H   0  0  0  0  0  0
    2.4041    9.6426    2.9282 H   0  0  0  0  0  0
    3.7552    8.6442    3.3895 H   0  0  0  0  0  0
    1.5631    7.3671    3.1677 H   0  0  0  0  0  0
    2.1978    7.2187    4.7922 H   0  0  0  0  0  0
   -0.2020    9.5482    6.1648 H   0  0  0  0  0  0
    1.1833    8.5845    6.5766 H   0  0  0  0  0  0
    1.7895   11.0704    6.3879 H   0  0  0  0  0  0
    1.1728   11.0483    4.7615 H   0  0  0  0  0  0
  1  2  1  0  0  0
  1  4  2  0  0  0
  1 28  1  0  0  0
  2  3  2  0  0  0
  2 29  1  0  0  0
  3  6  1  0  0  0
  3 30  1  0  0  0
  4  5  1  0  0  0
  4 21  1  0  0  0
  5 10  2  0  0  0
  5  6  1  0  0  0
  6  7  2  0  0  0
  7  8  1  0  0  0
  8  9  2  0  0  0
  8 31  1  0  0  0
  9 10  1  0  0  0
 10 11  1  0  0  0
 11 12  1  0  0  0
 11 32  1  0  0  0
 12 13  2  0  0  0
 12 17  1  0  0  0
 13 14  1  0  0  0
 13 33  1  0  0  0
 14 15  2  0  0  0
 14 19  1  0  0  0
 15 16  1  0  0  0
 15 34  1  0  0  0
 16 17  2  0  0  0
 16 35  1  0  0  0
 17 18  1  0  0  0
 19 20  1  0  0  0
 20 36  1  0  0  0
 20 37  1  0  0  0
 20 38  1  0  0  0
 21 22  1  0  0  0
 22 23  1  0  0  0
 22 27  1  0  0  0
 22 39  1  0  0  0
 23 24  1  0  0  0
 23 40  1  0  0  0
 23 41  1  0  0  0
 24 25  1  0  0  0
 24 42  1  0  0  0
 24 43  1  0  0  0
 25 26  1  0  0  0
 26 27  1  0  0  0
 26 44  1  0  0  0
 26 45  1  0  0  0
 27 46  1  0  0  0
 27 47  1  0  0  0
M  END
> <s_m_entry_id>
32033

> <s_m_entry_name>
dock_pv.296

> <s_m_Source_Path>
/home/csk/Desktop/cluster/DUD-E-result/src

> <s_m_Source_File>
dock_pv.maegz

> <i_m_Source_File_Index>
296

> <chembl_id>
CHEMBL385533

> <chembl_pref_name>
None

> <i_lp_mmshare_version>
53161

> <r_lp_tautomer_probability>
0.999978000241998

> <s_lp_Force_Field>
OPLS_2005

> <r_lp_Energy>
34.21538

> <b_lp_Chiralities_Consistent>
1

> <s_lp_Variant>
CHEMBL267_lig1134-1

> <s_i_glide_gridfile>
glide-grid_3el8

> <i_i_glide_lignum>
1277

> <i_i_glide_rotatable_bonds>
5

> <r_i_docking_score>
-7.48976197103412

> <r_i_glide_ligand_efficiency>
-0.277398591519782

> <r_i_glide_ligand_efficiency_sa>
-0.832195773645087

> <r_i_glide_ligand_efficiency_ln>
-1.74349310848029

> <r_i_glide_gscore>
-7.48976197103412

> <r_i_glide_lipo>
-3.71120832422087

> <r_i_glide_hbond>
-0.105737639641987

> <r_i_glide_metal>
0

> <r_i_glide_rewards>
-1.9778522702846

> <r_i_glide_evdw>
-39.2417869567871

> <r_i_glide_ecoul>
-1.70435392856598

> <r_i_glide_erotb>
0.522778700237591

> <r_i_glide_esite>
0

> <r_i_glide_emodel>
-56.8393544005383

> <r_i_glide_energy>
-40.9461408853531

> <r_i_glide_einternal>
4.53645420074463

> <i_i_glide_confnum>
11

> <i_i_glide_posenum>
257

> <r_i_glide_eff_state_penalty>
0

> <s_user_duplicate_titles>
CHEMBL267_lig1134,361357

> <i_f3d_flags>
0

> <s_m_subgroup_title>
dock_pv

> <s_m_subgroupid>
dock_pv

> <b_m_subgroup_collapsed>
1

$$$$
CHEMBL267_lig416
                    3D
 Schrodinger Suite 2021-1.
 38 41  0  0  1  0            999 V2000
    5.8344    8.3436    6.4985 C   0  0  0  0  0  0
    5.2897    7.4370    7.4579 C   0  0  0  0  0  0
    4.7970    9.1158    5.9876 N   0  0  0  0  0  0
    3.8898    7.7462    7.5903 C   0  0  0  0  0  0
    3.6497    8.7502    6.6690 C   0  0  0  0  0  0
    7.1246    8.3947    6.1355 N   0  0  0  0  0  0
    6.2018    6.4873    7.9705 C   0  0  0  0  0  0
    7.5038    6.4850    7.5882 N   0  0  0  0  0  0
    7.8955    7.4469    6.7214 C   0  0  0  0  0  0
    4.9215   10.1893    4.9777 C   0  0  2  0  0  0
    2.8827    7.1275    8.4939 C   0  0  0  0  0  0
    5.3377   10.6125    2.6548 N   0  0  1  0  0  0
    5.7977    5.4375    8.7879 N   0  0  0  0  0  0
    3.6227   10.6967    4.3207 C   0  0  0  0  0  0
    5.7943    9.8033    3.7722 C   0  0  0  0  0  0
    3.8944   10.6248    2.8161 C   0  0  0  0  0  0
    1.6626    6.6940    7.9685 C   0  0  0  0  0  0
    3.1538    6.9649    9.8552 C   0  0  0  0  0  0
    2.2062    6.3744   10.6879 C   0  0  0  0  0  0
    0.7217    6.0921    8.7993 C   0  0  0  0  0  0
    0.9959    5.9353   10.1557 C   0  0  0  0  0  0
    2.7171    9.2562    6.4750 H   0  0  0  0  0  0
    8.9393    7.4427    6.4391 H   0  0  0  0  0  0
    5.4113   10.9948    5.5281 H   0  0  0  0  0  0
    5.6867   11.5578    2.7514 H   0  0  0  0  0  0
    4.8345    5.3812    9.0900 H   0  0  0  0  0  0
    6.4883    4.7602    9.0885 H   0  0  0  0  0  0
    2.7448   10.0891    4.5312 H   0  0  0  0  0  0
    3.3986   11.7194    4.6270 H   0  0  0  0  0  0
    6.8585    9.9400    3.9698 H   0  0  0  0  0  0
    5.6531    8.7495    3.5197 H   0  0  0  0  0  0
    3.4414    9.7287    2.3886 H   0  0  0  0  0  0
    3.4760   11.4853    2.2914 H   0  0  0  0  0  0
    1.4493    6.8051    6.9153 H   0  0  0  0  0  0
    4.0951    7.2962   10.2703 H   0  0  0  0  0  0
    2.4174    6.2436   11.7392 H   0  0  0  0  0  0
   -0.2123    5.7391    8.3905 H   0  0  0  0  0  0
    0.2640    5.4666   10.7980 H   0  0  0  0  0  0
  1  2  2  0  0  0
  1  3  1  0  0  0
  1  6  1  0  0  0
  2  4  1  0  0  0
  2  7  1  0  0  0
  3  5  1  0  0  0
  3 10  1  0  0  0
  4 11  1  0  0  0
  4  5  2  0  0  0
  5 22  1  0  0  0
  6  9  2  0  0  0
  7 13  1  0  0  0
  7  8  2  0  0  0
  8  9  1  0  0  0
  9 23  1  0  0  0
 10 14  1  0  0  0
 10 15  1  0  0  0
 10 24  1  0  0  0
 11 17  2  0  0  0
 11 18  1  0  0  0
 12 15  1  0  0  0
 12 16  1  0  0  0
 12 25  1  0  0  0
 13 26  1  0  0  0
 13 27  1  0  0  0
 14 16  1  0  0  0
 14 28  1  0  0  0
 14 29  1  0  0  0
 15 30  1  0  0  0
 15 31  1  0  0  0
 16 32  1  0  0  0
 16 33  1  0  0  0
 17 20  1  0  0  0
 17 34  1  0  0  0
 18 19  2  0  0  0
 18 35  1  0  0  0
 19 21  1  0  0  0
 19 36  1  0  0  0
 20 21  2  0  0  0
 20 37  1  0  0  0
 21 38  1  0  0  0
M  END
> <s_m_entry_id>
32034

> <s_m_entry_name>
dock_pv.297

> <s_m_Source_Path>
/home/csk/Desktop/cluster/DUD-E-result/src

> <s_m_Source_File>
dock_pv.maegz

> <i_m_Source_File_Index>
297

> <chembl_id>
CHEMBL168829

> <chembl_pref_name>
None

> <i_lp_mmshare_version>
53161

> <r_lp_tautomer_probability>
1

> <s_lp_Force_Field>
OPLS_2005

> <r_lp_Energy>
34.28187

> <b_lp_Chiralities_Consistent>
1

> <s_lp_Variant>
CHEMBL267_lig416-1

> <s_i_glide_gridfile>
glide-grid_3el8

> <i_i_glide_lignum>
492

> <i_i_glide_rotatable_bonds>
2

> <r_i_docking_score>
-7.48756093936923

> <r_i_glide_ligand_efficiency>
-0.356550520922344

> <r_i_glide_ligand_efficiency_sa>
-0.983695851275643

> <r_i_glide_ligand_efficiency_ln>
-1.85128431221754

> <r_i_glide_gscore>
-7.48756093936923

> <r_i_glide_lipo>
-2.168339094146

> <r_i_glide_hbond>
-0.432609606271736

> <r_i_glide_metal>
0

> <r_i_glide_rewards>
-2.74060883788214

> <r_i_glide_evdw>
-33.1087875366211

> <r_i_glide_ecoul>
-6.35321664810181

> <r_i_glide_erotb>
0.462418472976978

> <r_i_glide_esite>
0

> <r_i_glide_emodel>
-54.791852112386

> <r_i_glide_energy>
-39.4620041847229

> <r_i_glide_einternal>
3.66605019569397

> <i_i_glide_confnum>
31

> <i_i_glide_posenum>
302

> <r_i_glide_eff_state_penalty>
0

> <s_user_duplicate_titles>
CHEMBL267_lig416

> <i_f3d_flags>
0

> <s_m_subgroup_title>
dock_pv

> <s_m_subgroupid>
dock_pv

> <b_m_subgroup_collapsed>
1

$$$$
CHEMBL267_lig3866
                    3D
 Schrodinger Suite 2021-1.
 49 52  0  0  1  0            999 V2000
    0.3428    6.1408    8.9862 C   0  0  0  0  0  0
    1.1471    5.8364   10.0821 C   0  0  0  0  0  0
    2.4932    5.9895   10.0529 N   0  0  0  0  0  0
    3.0341    6.4664    8.9039 C   0  0  0  0  0  0
    2.3289    6.8259    7.8014 N   0  0  0  0  0  0
    0.9801    6.6446    7.8489 C   0  0  0  0  0  0
    4.4312    6.4932    8.8791 N   0  0  0  0  0  0
    5.3673    7.0385    7.9880 C   0  0  0  0  0  0
    5.0956    8.1387    7.1627 C   0  0  0  0  0  0
    6.0939    8.6976    6.3536 C   0  0  0  0  0  0
    7.3749    8.1224    6.3647 C   0  0  0  0  0  0
    7.6519    7.0362    7.1877 C   0  0  0  0  0  0
    6.6500    6.4893    7.9878 C   0  0  0  0  0  0
    0.1981    6.9289    6.7238 N   0  0  0  0  0  0
    0.5794    7.6242    5.6113 C   0  0  0  0  0  0
    1.3242    8.8075    5.5304 C   0  0  0  0  0  0
    1.3975    9.1339    4.1909 C   0  0  0  0  0  0
    0.7048    8.1203    3.5792 N   0  0  0  0  0  0
    0.1968    7.2200    4.4236 N   0  0  0  0  0  0
    2.0561   10.2743    3.4484 C   0  0  0  0  0  0
    3.1382    9.9478    2.4586 C   0  0  0  0  0  0
    1.8070   10.4928    1.9748 C   0  0  0  0  0  0
    5.7388    9.8383    5.6040 N   0  0  0  0  0  0
    6.5338   10.6916    4.9196 C   0  0  0  0  0  0
    5.8314   11.9241    4.3229 C   0  0  0  0  0  0
    7.7514   10.5773    4.7880 O   0  0  0  0  0  0
    6.5389   12.5636    3.1026 C   0  0  0  0  0  0
    6.5974   11.4373    1.6749 S   0  0  0  0  0  0
   -0.7248    5.9792    9.0232 H   0  0  0  0  0  0
    0.7190    5.4428   10.9951 H   0  0  0  0  0  0
    4.8287    6.0641    9.7038 H   0  0  0  0  0  0
    4.1120    8.5845    7.1803 H   0  0  0  0  0  0
    8.1829    8.4975    5.7566 H   0  0  0  0  0  0
    8.6499    6.6332    7.1982 H   0  0  0  0  0  0
    6.8774    5.6383    8.6158 H   0  0  0  0  0  0
   -0.7512    6.5721    6.7890 H   0  0  0  0  0  0
    1.7483    9.3570    6.3557 H   0  0  0  0  0  0
    0.5691    8.0420    2.5771 H   0  0  0  0  0  0
    2.2055   11.1688    4.0554 H   0  0  0  0  0  0
    4.0055   10.5921    2.3579 H   0  0  0  0  0  0
    3.4005    8.8926    2.3894 H   0  0  0  0  0  0
    1.1210    9.8376    1.4402 H   0  0  0  0  0  0
    1.7568   11.5181    1.6090 H   0  0  0  0  0  0
    4.7565   10.0654    5.6288 H   0  0  0  0  0  0
    5.7896   12.6696    5.1170 H   0  0  0  0  0  0
    4.7976   11.6895    4.0789 H   0  0  0  0  0  0
    7.5565   12.8648    3.3555 H   0  0  0  0  0  0
    6.0170   13.4719    2.8008 H   0  0  0  0  0  0
    5.8321   12.1703    0.8558 H   0  0  0  0  0  0
  1  2  2  0  0  0
  1  6  1  0  0  0
  1 29  1  0  0  0
  2  3  1  0  0  0
  2 30  1  0  0  0
  3  4  2  0  0  0
  4  5  1  0  0  0
  4  7  1  0  0  0
  5  6  2  0  0  0
  6 14  1  0  0  0
  7  8  1  0  0  0
  7 31  1  0  0  0
  8  9  2  0  0  0
  8 13  1  0  0  0
  9 10  1  0  0  0
  9 32  1  0  0  0
 10 11  2  0  0  0
 10 23  1  0  0  0
 11 12  1  0  0  0
 11 33  1  0  0  0
 12 13  2  0  0  0
 12 34  1  0  0  0
 13 35  1  0  0  0
 14 15  1  0  0  0
 14 36  1  0  0  0
 15 16  1  0  0  0
 15 19  2  0  0  0
 16 17  2  0  0  0
 16 37  1  0  0  0
 17 18  1  0  0  0
 17 20  1  0  0  0
 18 19  1  0  0  0
 18 38  1  0  0  0
 20 21  1  0  0  0
 20 22  1  0  0  0
 20 39  1  0  0  0
 21 22  1  0  0  0
 21 40  1  0  0  0
 21 41  1  0  0  0
 22 42  1  0  0  0
 22 43  1  0  0  0
 23 24  1  0  0  0
 23 44  1  0  0  0
 24 25  1  0  0  0
 24 26  2  0  0  0
 25 27  1  0  0  0
 25 45  1  0  0  0
 25 46  1  0  0  0
 27 28  1  0  0  0
 27 47  1  0  0  0
 27 48  1  0  0  0
 28 49  1  0  0  0
M  END
> <s_m_entry_id>
32035

> <s_m_entry_name>
dock_pv.298

> <s_m_Source_Path>
/home/csk/Desktop/cluster/DUD-E-result/src

> <s_m_Source_File>
dock_pv.maegz

> <i_m_Source_File_Index>
298

> <chembl_id>
CHEMBL3617731

> <chembl_pref_name>
None

> <i_lp_mmshare_version>
53161

> <r_lp_tautomer_probability>
0.842599732729633

> <s_lp_Force_Field>
OPLS_2005

> <r_lp_Energy>
17.502854

> <b_lp_Chiralities_Consistent>
1

> <s_lp_Variant>
CHEMBL267_lig3866-1

> <s_i_glide_gridfile>
glide-grid_3el8

> <i_i_glide_lignum>
4759

> <i_i_glide_rotatable_bonds>
10

> <r_i_docking_score>
-7.48234356068057

> <r_i_glide_ligand_efficiency>
-0.267226555738592

> <r_i_glide_ligand_efficiency_sa>
-0.811457211246811

> <r_i_glide_ligand_efficiency_ln>
-1.72714458495819

> <r_i_glide_gscore>
-7.48234356068057

> <r_i_glide_lipo>
-2.49789381193888

> <r_i_glide_hbond>
-0.630267540801347

> <r_i_glide_metal>
0

> <r_i_glide_rewards>
-1.93758264496311

> <r_i_glide_evdw>
-43.3297271728516

> <r_i_glide_ecoul>
-8.55068111419678

> <r_i_glide_erotb>
1.12526113377165

> <r_i_glide_esite>
-0.0927721709767882

> <r_i_glide_emodel>
-72.119851531727

> <r_i_glide_energy>
-51.8804082870483

> <r_i_glide_einternal>
6.87748718261719

> <i_i_glide_confnum>
54

> <i_i_glide_posenum>
323

> <r_i_glide_eff_state_penalty>
0

> <s_user_duplicate_titles>
CHEMBL267_lig3866

> <i_f3d_flags>
0

> <s_m_subgroup_title>
dock_pv

> <s_m_subgroupid>
dock_pv

> <b_m_subgroup_collapsed>
1

$$$$
CHEMBL267_lig780
                    3D
 Schrodinger Suite 2021-1.
 59 61  0  0  1  0            999 V2000
   -3.0687   -1.1253    7.9077 P   0  0  0  0  0  0
    2.1093    8.1703    7.1373 C   0  0  0  0  0  0
    1.2407    8.7179    6.0312 C   0  0  0  0  0  0
    0.7467    4.3330    9.0379 C   0  0  0  0  0  0
    3.5154    8.2713    7.0892 C   0  0  0  0  0  0
    0.5559    5.2826    9.9739 N   0  0  0  0  0  0
   -4.6260   -1.4786    7.6602 O   0  0  0  0  0  0
   -2.6020   -0.5630    6.4611 O   0  0  0  0  0  0
    1.5034    7.5485    8.2374 C   0  0  0  0  0  0
   -3.1573    0.2365    8.7933 O   0  0  0  0  0  0
   -0.3438    3.3066    8.8720 C   0  0  0  0  0  0
   -2.2386   -2.2145    8.4853 O   0  0  0  0  0  0
    4.0935    8.8801    5.9881 O   0  0  0  0  0  0
    1.4513    9.8113    5.5132 O   0  0  0  0  0  0
    1.7892    4.2370    8.3880 O   0  0  0  0  0  0
    4.2709    7.7266    8.1432 C   0  0  0  0  0  0
   -1.6742    3.5471    9.2409 C   0  0  0  0  0  0
    0.0025    2.0449    8.3894 C   0  0  0  0  0  0
    0.2065    7.9594    5.6623 N   0  0  0  0  0  0
    2.2627    7.0181    9.2807 C   0  0  0  0  0  0
   -2.2189    1.2364    8.7880 C   0  0  0  0  0  0
    1.5855    6.2370   10.4069 C   0  0  0  0  0  0
    5.5025    9.1025    5.9281 C   0  0  0  0  0  0
    3.6520    7.1106    9.2277 C   0  0  0  0  0  0
   -0.9057    1.0042    8.3880 C   0  0  0  0  0  0
   -2.6085    2.5153    9.1880 C   0  0  0  0  0  0
    5.8108   10.2074    4.8961 C   0  0  0  0  0  0
    5.3588    9.8224    3.4678 C   0  0  0  0  0  0
    5.1466   11.5512    5.2837 C   0  0  0  0  0  0
    5.5306   12.6711    4.2972 C   0  0  0  0  0  0
    5.7549   10.9074    2.4443 C   0  0  0  0  0  0
    5.1906   12.2889    2.8400 C   0  0  0  0  0  0
   -0.3075    5.2672   10.4972 H   0  0  0  0  0  0
   -5.1276   -0.7325    7.2788 H   0  0  0  0  0  0
   -3.0348    0.3112    6.2545 H   0  0  0  0  0  0
    0.4291    7.4405    8.2793 H   0  0  0  0  0  0
    5.3488    7.7492    8.1340 H   0  0  0  0  0  0
   -1.9937    4.5205    9.5854 H   0  0  0  0  0  0
    0.9980    1.8370    8.0683 H   0  0  0  0  0  0
   -0.4128    8.2923    4.9389 H   0  0  0  0  0  0
    0.0795    7.0367    6.0497 H   0  0  0  0  0  0
    1.1270    6.9476   11.0943 H   0  0  0  0  0  0
    2.3308    5.6998   10.9971 H   0  0  0  0  0  0
    5.9051    9.4292    6.8873 H   0  0  0  0  0  0
    6.0100    8.1730    5.6649 H   0  0  0  0  0  0
    4.2574    6.6744   10.0101 H   0  0  0  0  0  0
   -0.5761    0.0260    8.0702 H   0  0  0  0  0  0
   -3.6329    2.6967    9.4775 H   0  0  0  0  0  0
    6.8914   10.3620    4.8741 H   0  0  0  0  0  0
    5.7981    8.8642    3.1880 H   0  0  0  0  0  0
    4.2812    9.6480    3.4467 H   0  0  0  0  0  0
    4.0617   11.4364    5.3311 H   0  0  0  0  0  0
    5.4382   11.8332    6.2967 H   0  0  0  0  0  0
    6.5980   12.8809    4.3801 H   0  0  0  0  0  0
    5.0204   13.5969    4.5669 H   0  0  0  0  0  0
    6.8422   10.9654    2.3730 H   0  0  0  0  0  0
    5.3981   10.6370    1.4498 H   0  0  0  0  0  0
    5.5638   13.0525    2.1559 H   0  0  0  0  0  0
    4.1063   12.2791    2.7168 H   0  0  0  0  0  0
  1  7  1  0  0  0
  1  8  1  0  0  0
  1 10  1  0  0  0
  1 12  2  0  0  0
  2  9  2  0  0  0
  2  3  1  0  0  0
  2  5  1  0  0  0
  3 14  2  0  0  0
  3 19  1  0  0  0
  4 11  1  0  0  0
  4  6  1  0  0  0
  4 15  2  0  0  0
  5 16  2  0  0  0
  5 13  1  0  0  0
  6 22  1  0  0  0
  6 33  1  0  0  0
  7 34  1  0  0  0
  8 35  1  0  0  0
  9 20  1  0  0  0
  9 36  1  0  0  0
 10 21  1  0  0  0
 11 17  1  0  0  0
 11 18  2  0  0  0
 13 23  1  0  0  0
 16 24  1  0  0  0
 16 37  1  0  0  0
 17 26  2  0  0  0
 17 38  1  0  0  0
 18 25  1  0  0  0
 18 39  1  0  0  0
 19 40  1  0  0  0
 19 41  1  0  0  0
 20 22  1  0  0  0
 20 24  2  0  0  0
 21 25  2  0  0  0
 21 26  1  0  0  0
 22 42  1  0  0  0
 22 43  1  0  0  0
 23 27  1  0  0  0
 23 44  1  0  0  0
 23 45  1  0  0  0
 24 46  1  0  0  0
 25 47  1  0  0  0
 26 48  1  0  0  0
 27 28  1  0  0  0
 27 29  1  0  0  0
 27 49  1  0  0  0
 28 31  1  0  0  0
 28 50  1  0  0  0
 28 51  1  0  0  0
 29 30  1  0  0  0
 29 52  1  0  0  0
 29 53  1  0  0  0
 30 32  1  0  0  0
 30 54  1  0  0  0
 30 55  1  0  0  0
 31 32  1  0  0  0
 31 56  1  0  0  0
 31 57  1  0  0  0
 32 58  1  0  0  0
 32 59  1  0  0  0
M  END
> <s_m_entry_id>
32036

> <s_m_entry_name>
dock_pv.299

> <s_m_Source_Path>
/home/csk/Desktop/cluster/DUD-E-result/src

> <s_m_Source_File>
dock_pv.maegz

> <i_m_Source_File_Index>
299

> <chembl_id>
CHEMBL1160313

> <chembl_pref_name>
None

> <i_lp_mmshare_version>
53161

> <r_lp_tautomer_probability>
1

> <s_lp_Force_Field>
OPLS_2005

> <r_lp_Energy>
25.15412

> <b_lp_Chiralities_Consistent>
1

> <s_lp_Variant>
CHEMBL267_lig780-1

> <s_i_glide_gridfile>
glide-grid_3el8

> <i_i_glide_lignum>
908

> <i_i_glide_rotatable_bonds>
12

> <r_i_docking_score>
-7.47877866126712

> <r_i_glide_ligand_efficiency>
-0.233711833164598

> <r_i_glide_ligand_efficiency_sa>
-0.741988818788618

> <r_i_glide_ligand_efficiency_ln>
-1.67470240606445

> <r_i_glide_gscore>
-7.47877866126712

> <r_i_glide_lipo>
-3.31545750814464

> <r_i_glide_hbond>
0

> <r_i_glide_metal>
0

> <r_i_glide_rewards>
-0.767577545060685

> <r_i_glide_evdw>
-50.6157417297363

> <r_i_glide_ecoul>
-11.040807723999

> <r_i_glide_erotb>
0.847792218068442

> <r_i_glide_esite>
-0.0566275810435722

> <r_i_glide_emodel>
-89.2238357277173

> <r_i_glide_energy>
-61.6565494537354

> <r_i_glide_einternal>
5.09728002548218

> <i_i_glide_confnum>
8

> <i_i_glide_posenum>
245

> <r_i_glide_eff_state_penalty>
0

> <s_user_duplicate_titles>
CHEMBL267_lig780

> <i_f3d_flags>
0

> <s_m_subgroup_title>
dock_pv

> <s_m_subgroupid>
dock_pv

> <b_m_subgroup_collapsed>
1

$$$$
CHEMBL267_lig2446
                    3D
 Schrodinger Suite 2021-1.
 40 43  0  0  1  0            999 V2000
    6.9285    9.3542    6.1633 C   0  0  0  0  0  0
    5.4727    8.9191    6.2513 C   0  0  0  0  0  0
    5.1156    7.9831    7.2268 C   0  0  0  0  0  0
    3.7752    7.5630    7.3618 C   0  0  0  0  0  0
    3.4417    6.6253    8.2916 N   0  0  0  0  0  0
    2.1492    6.2196    8.2971 C   0  0  0  0  0  0
    1.8676    5.1208    9.1210 N   0  0  0  0  0  0
    0.7422    4.2847    9.0771 C   0  0  0  0  0  0
   -0.5161    4.6953    9.5209 C   0  0  0  0  0  0
   -1.6131    3.8370    9.3832 C   0  0  0  0  0  0
   -1.4196    2.5928    8.7880 C   0  0  0  0  0  0
   -0.1997    2.1577    8.3879 N   0  0  0  0  0  0
    0.8539    2.9971    8.5534 C   0  0  0  0  0  0
    1.1732    6.7326    7.4990 N   0  0  0  0  0  0
    1.4943    7.6781    6.5978 N   0  0  0  0  0  0
    2.7891    8.0985    6.4874 C   0  0  0  0  0  0
    3.1707    9.0478    5.5052 C   0  0  0  0  0  0
    4.5047    9.4602    5.3843 C   0  0  0  0  0  0
    4.8658   10.4885    4.3634 C   0  0  0  0  0  0
    5.1460   10.1234    3.0372 C   0  0  0  0  0  0
    5.5101   11.0865    2.0873 C   0  0  0  0  0  0
    5.7980   10.7228    0.7942 O   0  0  0  0  0  0
    5.5891   12.4270    2.4585 C   0  0  0  0  0  0
    5.3165   12.8040    3.7730 C   0  0  0  0  0  0
    4.9569   11.8429    4.7188 C   0  0  0  0  0  0
    4.7027   12.2363    5.9880 F   0  0  0  0  0  0
    7.5612    8.8496    6.8937 H   0  0  0  0  0  0
    7.3272    9.1487    5.1698 H   0  0  0  0  0  0
    6.9980   10.4289    6.3328 H   0  0  0  0  0  0
    5.8583    7.5653    7.8911 H   0  0  0  0  0  0
    2.6986    4.7125    9.5240 H   0  0  0  0  0  0
   -0.6509    5.6808    9.9403 H   0  0  0  0  0  0
   -2.5986    4.1548    9.6904 H   0  0  0  0  0  0
   -2.2499    1.9182    8.6304 H   0  0  0  0  0  0
    1.7979    2.6371    8.1874 H   0  0  0  0  0  0
    2.4161    9.4545    4.8459 H   0  0  0  0  0  0
    5.0879    9.0844    2.7458 H   0  0  0  0  0  0
    5.8206   11.4655    0.1603 H   0  0  0  0  0  0
    5.8694   13.1768    1.7320 H   0  0  0  0  0  0
    5.3900   13.8431    4.0616 H   0  0  0  0  0  0
  1  2  1  0  0  0
  1 27  1  0  0  0
  1 28  1  0  0  0
  1 29  1  0  0  0
  2  3  2  0  0  0
  2 18  1  0  0  0
  3  4  1  0  0  0
  3 30  1  0  0  0
  4  5  2  0  0  0
  4 16  1  0  0  0
  5  6  1  0  0  0
  6  7  1  0  0  0
  6 14  2  0  0  0
  7  8  1  0  0  0
  7 31  1  0  0  0
  8  9  2  0  0  0
  8 13  1  0  0  0
  9 10  1  0  0  0
  9 32  1  0  0  0
 10 11  2  0  0  0
 10 33  1  0  0  0
 11 12  1  0  0  0
 11 34  1  0  0  0
 12 13  2  0  0  0
 13 35  1  0  0  0
 14 15  1  0  0  0
 15 16  2  0  0  0
 16 17  1  0  0  0
 17 18  2  0  0  0
 17 36  1  0  0  0
 18 19  1  0  0  0
 19 20  2  0  0  0
 19 25  1  0  0  0
 20 21  1  0  0  0
 20 37  1  0  0  0
 21 22  1  0  0  0
 21 23  2  0  0  0
 22 38  1  0  0  0
 23 24  1  0  0  0
 23 39  1  0  0  0
 24 25  2  0  0  0
 24 40  1  0  0  0
 25 26  1  0  0  0
M  END
> <s_m_entry_id>
32037

> <s_m_entry_name>
dock_pv.300

> <s_m_Source_Path>
/home/csk/Desktop/cluster/DUD-E-result/src

> <s_m_Source_File>
dock_pv.maegz

> <i_m_Source_File_Index>
300

> <chembl_id>
CHEMBL3651235

> <chembl_pref_name>
None

> <i_lp_mmshare_version>
53161

> <r_lp_tautomer_probability>
0.999999999997364

> <s_lp_Force_Field>
OPLS_2005

> <r_lp_Energy>
25.645665

> <b_lp_Chiralities_Consistent>
1

> <s_lp_Variant>
CHEMBL267_lig2446-1

> <s_i_glide_gridfile>
glide-grid_3el8

> <i_i_glide_lignum>
2750

> <i_i_glide_rotatable_bonds>
4

> <r_i_docking_score>
-7.47338589267993

> <r_i_glide_ligand_efficiency>
-0.287437918949228

> <r_i_glide_ligand_efficiency_sa>
-0.851533703873492

> <r_i_glide_ligand_efficiency_ln>
-1.75510015471665

> <r_i_glide_gscore>
-7.47338589267993

> <r_i_glide_lipo>
-2.75145472126594

> <r_i_glide_hbond>
-0.60268263224019

> <r_i_glide_metal>
0

> <r_i_glide_rewards>
-1.51957724812065

> <r_i_glide_evdw>
-31.7585506439209

> <r_i_glide_ecoul>
-9.8984432220459

> <r_i_glide_erotb>
0.473022724449781

> <r_i_glide_esite>
0

> <r_i_glide_emodel>
-54.4485063521585

> <r_i_glide_energy>
-41.6569938659668

> <r_i_glide_einternal>
12.3526611328125

> <i_i_glide_confnum>
4

> <i_i_glide_posenum>
243

> <r_i_glide_eff_state_penalty>
0

> <s_user_duplicate_titles>
CHEMBL267_lig2446

> <i_f3d_flags>
0

> <s_m_subgroup_title>
dock_pv

> <s_m_subgroupid>
dock_pv

> <b_m_subgroup_collapsed>
1

$$$$
CHEMBL267_lig3427
                    3D
 Schrodinger Suite 2021-1.
 41 43  0  0  1  0            999 V2000
    8.1982    6.6371    7.4963 O   0  0  0  0  0  0
    1.3952    3.3048    9.0618 O   0  0  0  0  0  0
    0.1878    4.2368   10.7879 O   0  0  0  0  0  0
    7.8312    8.2673    5.9440 N   0  0  0  0  0  0
    3.8479    6.9942    9.9644 N   0  0  0  0  0  0
    6.0432    7.7033    7.1669 C   0  0  0  0  0  0
    5.6725    8.7780    6.2377 C   0  0  0  0  0  0
    4.0244    7.0394    8.6108 C   0  0  0  0  0  0
    6.8113    9.0878    5.5236 C   0  0  0  0  0  0
    7.4560    7.4406    6.9303 C   0  0  0  0  0  0
    2.7489    6.9881    8.0349 C   0  0  0  0  0  0
    5.3943    7.0030    8.1262 C   0  0  0  0  0  0
    1.8211    6.8601    9.0963 C   0  0  0  0  0  0
    2.5330    6.9012   10.2922 C   0  0  0  0  0  0
    4.4949    9.4903    5.9878 C   0  0  0  0  0  0
    6.8252   10.0987    4.5626 C   0  0  0  0  0  0
    0.3214    6.6471    8.9634 C   0  0  0  0  0  0
    4.4833   10.4985    5.0198 C   0  0  0  0  0  0
    5.6471   10.8029    4.3083 C   0  0  0  0  0  0
    2.3930    6.9764    6.5640 C   0  0  0  0  0  0
    2.1191    6.7894   11.7410 C   0  0  0  0  0  0
   -0.0907    5.1850    8.6556 C   0  0  0  0  0  0
    0.5966    4.1256    9.5004 C   0  0  0  0  0  0
   -0.4750    4.9245   10.8779 H   0  0  0  0  0  0
    8.7702    8.2724    5.5739 H   0  0  0  0  0  0
    4.5981    6.9529   10.6393 H   0  0  0  0  0  0
    5.9661    6.2646    8.6769 H   0  0  0  0  0  0
    3.5967    9.3030    6.5543 H   0  0  0  0  0  0
    7.7235   10.3415    4.0148 H   0  0  0  0  0  0
   -0.0804    7.2893    8.1784 H   0  0  0  0  0  0
   -0.1942    6.9677    9.8688 H   0  0  0  0  0  0
    3.5757   11.0516    4.8300 H   0  0  0  0  0  0
    5.6355   11.5886    3.5662 H   0  0  0  0  0  0
    3.2595    7.0371    5.9108 H   0  0  0  0  0  0
    1.8418    6.0742    6.2975 H   0  0  0  0  0  0
    1.7268    7.8017    6.3125 H   0  0  0  0  0  0
    1.2817    7.4361   11.9816 H   0  0  0  0  0  0
    1.7962    5.7862   11.9880 H   0  0  0  0  0  0
    2.9235    7.0372   12.4352 H   0  0  0  0  0  0
    0.1580    4.9558    7.6195 H   0  0  0  0  0  0
   -1.1594    5.0374    8.7880 H   0  0  0  0  0  0
  1 10  2  0  0  0
  2 23  2  0  0  0
  3 23  1  0  0  0
  3 24  1  0  0  0
  4  9  1  0  0  0
  4 10  1  0  0  0
  4 25  1  0  0  0
  5  8  1  0  0  0
  5 14  1  0  0  0
  5 26  1  0  0  0
  6  7  1  0  0  0
  6 10  1  0  0  0
  6 12  2  3  0  0
  7  9  1  0  0  0
  7 15  2  0  0  0
  8 11  2  0  0  0
  8 12  1  0  0  0
  9 16  2  0  0  0
 11 13  1  0  0  0
 11 20  1  0  0  0
 12 27  1  0  0  0
 13 14  2  0  0  0
 13 17  1  0  0  0
 14 21  1  0  0  0
 15 18  1  0  0  0
 15 28  1  0  0  0
 16 19  1  0  0  0
 16 29  1  0  0  0
 17 22  1  0  0  0
 17 30  1  0  0  0
 17 31  1  0  0  0
 18 19  2  0  0  0
 18 32  1  0  0  0
 19 33  1  0  0  0
 20 34  1  0  0  0
 20 35  1  0  0  0
 20 36  1  0  0  0
 21 37  1  0  0  0
 21 38  1  0  0  0
 21 39  1  0  0  0
 22 23  1  0  0  0
 22 40  1  0  0  0
 22 41  1  0  0  0
M  END
> <s_m_entry_id>
32038

> <s_m_entry_name>
dock_pv.301

> <s_m_Source_Path>
/home/csk/Desktop/cluster/DUD-E-result/src

> <s_m_Source_File>
dock_pv.maegz

> <i_m_Source_File_Index>
301

> <chembl_id>
CHEMBL2007064

> <chembl_pref_name>
None

> <i_lp_mmshare_version>
53161

> <r_lp_tautomer_probability>
1

> <s_lp_Force_Field>
OPLS_2005

> <r_lp_Energy>
28.688211

> <b_lp_Chiralities_Consistent>
1

> <s_lp_Variant>
CHEMBL267_lig3427-2

> <s_i_glide_gridfile>
glide-grid_3el8

> <i_i_glide_lignum>
4093

> <i_i_glide_rotatable_bonds>
5

> <r_i_docking_score>
-7.47302525708041

> <r_i_glide_ligand_efficiency>
-0.324914141612192

> <r_i_glide_ligand_efficiency_sa>
-0.924012597651983

> <r_i_glide_ligand_efficiency_ln>
-1.80704526880868

> <r_i_glide_gscore>
-7.47302525708041

> <r_i_glide_lipo>
-2.64223216758669

> <r_i_glide_hbond>
-0.32

> <r_i_glide_metal>
0

> <r_i_glide_rewards>
-2.80800143304551

> <r_i_glide_evdw>
-34.0122985839844

> <r_i_glide_ecoul>
-5.14472818374634

> <r_i_glide_erotb>
0.769532500312959

> <r_i_glide_esite>
0

> <r_i_glide_emodel>
-54.3623183060638

> <r_i_glide_energy>
-39.1570267677307

> <r_i_glide_einternal>
5.5640115737915

> <i_i_glide_confnum>
69

> <i_i_glide_posenum>
151

> <r_i_glide_eff_state_penalty>
0

> <s_user_duplicate_titles>
CHEMBL267_lig3427

> <i_f3d_flags>
0

> <s_m_subgroup_title>
dock_pv

> <s_m_subgroupid>
dock_pv

> <b_m_subgroup_collapsed>
1

$$$$
CHEMBL267_lig2912
                    3D
 Schrodinger Suite 2021-1.
 48 51  0  0  1  0            999 V2000
    6.5533    6.8606    7.5882 N   0  0  0  0  0  0
    6.1978    5.7669    8.3104 C   0  0  0  0  0  0
    4.9665    5.4555    8.7880 N   0  0  0  0  0  0
    5.5719    7.7632    7.2959 C   0  0  0  0  0  0
    4.2696    7.5769    7.8010 C   0  0  0  0  0  0
    4.0451    6.3919    8.5356 C   0  0  0  0  0  0
    2.7078    6.4096    8.9061 N   0  0  0  0  0  0
    2.1168    7.5583    8.4968 N   0  0  0  0  0  0
    3.0035    8.2371    7.8080 C   0  0  0  0  0  0
    1.9862    5.4210    9.7257 C   0  0  0  0  0  0
    0.4448    5.3249    9.4423 C   0  0  1  0  0  0
   -0.1649    3.9380    9.1576 C   0  0  0  0  0  0
   -1.5604    3.8049    9.1881 C   0  0  0  0  0  0
   -2.1786    2.6247    8.7894 C   0  0  0  0  0  0
   -1.4019    1.5443    8.3880 C   0  0  0  0  0  0
   -0.0154    1.6386    8.3880 C   0  0  0  0  0  0
    0.6009    2.8310    8.7602 C   0  0  0  0  0  0
    5.8571    8.8652    6.4729 N   0  0  0  0  0  0
    7.1733    9.0342    5.8642 C   0  0  0  0  0  0
    7.2796   10.3171    5.0159 C   0  0  0  0  0  0
    8.6479   10.6057    4.3903 C   0  0  0  0  0  0
    9.7859    9.8434    4.7017 C   0  0  0  0  0  0
   11.0040   10.1336    4.0956 C   0  0  0  0  0  0
   11.0923   11.1808    3.1821 C   0  0  0  0  0  0
    9.9717   11.9464    2.8728 C   0  0  0  0  0  0
    8.7514   11.6600    3.4789 C   0  0  0  0  0  0
   -0.2020    5.9917   10.5143 O   0  0  0  0  0  0
    6.9786    5.0444    8.5050 H   0  0  0  0  0  0
    2.7458    9.1825    7.3551 H   0  0  0  0  0  0
    2.1783    5.6785   10.7685 H   0  0  0  0  0  0
    2.5050    4.4755    9.6050 H   0  0  0  0  0  0
    0.2045    5.8928    8.5425 H   0  0  0  0  0  0
   -2.1919    4.6370    9.4573 H   0  0  0  0  0  0
   -3.2567    2.5485    8.7866 H   0  0  0  0  0  0
   -1.8876    0.6290    8.0804 H   0  0  0  0  0  0
    0.5799    0.7889    8.0869 H   0  0  0  0  0  0
    1.6740    2.8672    8.6857 H   0  0  0  0  0  0
    5.0811    9.3902    6.1003 H   0  0  0  0  0  0
    7.9043    9.0340    6.6739 H   0  0  0  0  0  0
    7.3675    8.1570    5.2447 H   0  0  0  0  0  0
    6.5426   10.2679    4.2118 H   0  0  0  0  0  0
    6.9984   11.1740    5.6279 H   0  0  0  0  0  0
    9.7473    9.0179    5.3975 H   0  0  0  0  0  0
   11.8786    9.5425    4.3300 H   0  0  0  0  0  0
   12.0394   11.3992    2.7106 H   0  0  0  0  0  0
   10.0464   12.7584    2.1630 H   0  0  0  0  0  0
    7.8838   12.2549    3.2323 H   0  0  0  0  0  0
   -1.1618    5.9664   10.3878 H   0  0  0  0  0  0
  1  2  1  0  0  0
  1  4  2  0  0  0
  2  3  2  0  0  0
  2 28  1  0  0  0
  3  6  1  0  0  0
  4  5  1  0  0  0
  4 18  1  0  0  0
  5  9  1  0  0  0
  5  6  2  0  0  0
  6  7  1  0  0  0
  7  8  1  0  0  0
  7 10  1  0  0  0
  8  9  2  0  0  0
  9 29  1  0  0  0
 10 11  1  0  0  0
 10 30  1  0  0  0
 10 31  1  0  0  0
 11 12  1  0  0  0
 11 27  1  0  0  0
 11 32  1  0  0  0
 12 13  2  0  0  0
 12 17  1  0  0  0
 13 14  1  0  0  0
 13 33  1  0  0  0
 14 15  2  0  0  0
 14 34  1  0  0  0
 15 16  1  0  0  0
 15 35  1  0  0  0
 16 17  2  0  0  0
 16 36  1  0  0  0
 17 37  1  0  0  0
 18 19  1  0  0  0
 18 38  1  0  0  0
 19 20  1  0  0  0
 19 39  1  0  0  0
 19 40  1  0  0  0
 20 21  1  0  0  0
 20 41  1  0  0  0
 20 42  1  0  0  0
 21 22  2  0  0  0
 21 26  1  0  0  0
 22 23  1  0  0  0
 22 43  1  0  0  0
 23 24  2  0  0  0
 23 44  1  0  0  0
 24 25  1  0  0  0
 24 45  1  0  0  0
 25 26  2  0  0  0
 25 46  1  0  0  0
 26 47  1  0  0  0
 27 48  1  0  0  0
M  END
> <s_m_entry_id>
32039

> <s_m_entry_name>
dock_pv.302

> <s_m_Source_Path>
/home/csk/Desktop/cluster/DUD-E-result/src

> <s_m_Source_File>
dock_pv.maegz

> <i_m_Source_File_Index>
302

> <chembl_id>
CHEMBL378603

> <chembl_pref_name>
None

> <i_lp_mmshare_version>
53161

> <r_lp_tautomer_probability>
1

> <s_lp_Force_Field>
OPLS_2005

> <r_lp_Energy>
7.739652

> <b_lp_Chiralities_Consistent>
1

> <s_lp_Variant>
CHEMBL267_lig2912-2

> <s_i_glide_gridfile>
glide-grid_3el8

> <i_i_glide_lignum>
3302

> <i_i_glide_rotatable_bonds>
8

> <r_i_docking_score>
-7.47132131622686

> <r_i_glide_ligand_efficiency>
-0.276715604304699

> <r_i_glide_ligand_efficiency_sa>
-0.830146812002087

> <r_i_glide_ligand_efficiency_ln>
-1.73920042805912

> <r_i_glide_gscore>
-7.47132131622686

> <r_i_glide_lipo>
-3.53724091690669

> <r_i_glide_hbond>
-0.16

> <r_i_glide_metal>
0

> <r_i_glide_rewards>
-1.77474891117477

> <r_i_glide_evdw>
-40.3152008056641

> <r_i_glide_ecoul>
-5.82525587081909

> <r_i_glide_erotb>
0.890216932760657

> <r_i_glide_esite>
0

> <r_i_glide_emodel>
-59.2932274117332

> <r_i_glide_energy>
-46.1404566764832

> <r_i_glide_einternal>
14.8239831924438

> <i_i_glide_confnum>
6

> <i_i_glide_posenum>
139

> <r_i_glide_eff_state_penalty>
0

> <s_user_duplicate_titles>
CHEMBL267_lig2912

> <i_f3d_flags>
0

> <s_m_subgroup_title>
dock_pv

> <s_m_subgroupid>
dock_pv

> <b_m_subgroup_collapsed>
1

$$$$
CHEMBL267_lig3217
                    3D
 Schrodinger Suite 2021-1.
 42 45  0  0  1  0            999 V2000
    4.4919    7.8267    8.4046 O   0  0  0  0  0  0
    4.0401    7.4370   11.7216 O   0  0  0  0  0  0
   -0.2712    0.6050    7.9881 O   0  0  0  0  0  0
    1.3106    6.7669    7.9279 N   0  0  0  0  0  0
    1.0901    6.0963   11.1549 N   0  0  0  0  0  0
    1.6326    8.7584    2.7881 N   0  0  0  0  0  0
    2.5060    9.7726    2.9210 N   0  0  0  0  0  0
    2.1581    6.9275    9.0098 C   0  0  0  0  0  0
    2.0496    6.6365   10.3341 C   0  0  0  0  0  0
    3.5915    7.4317    9.1447 C   0  0  0  0  0  0
    3.3984    7.2185   10.6948 C   0  0  0  0  0  0
    1.3872    7.2664    6.6198 C   0  0  0  0  0  0
    2.1903    8.7920    4.9345 C   0  0  0  0  0  0
    1.3924    8.1159    3.9822 C   0  0  0  0  0  0
    2.1747    8.3698    6.2702 C   0  0  0  0  0  0
    0.5931    6.6385    5.6570 C   0  0  0  0  0  0
    0.5737    7.0375    4.3205 C   0  0  0  0  0  0
   -0.2126    5.6157   10.7113 C   0  0  0  0  0  0
    2.8442    9.8139    4.1839 C   0  0  0  0  0  0
   -0.2086    4.3389    9.8641 C   0  0  0  0  0  0
    0.9617    3.6314    9.5875 C   0  0  0  0  0  0
   -1.4297    3.8374    9.3977 C   0  0  0  0  0  0
   -0.3227    1.8850    8.5035 C   0  0  0  0  0  0
    0.8916    2.4214    8.9165 C   0  0  0  0  0  0
   -1.4926    2.6266    8.7108 C   0  0  0  0  0  0
   -1.4783   -0.1054    7.7359 C   0  0  0  0  0  0
    0.5146    6.1563    8.0582 H   0  0  0  0  0  0
    1.2238    6.0900   12.1571 H   0  0  0  0  0  0
    1.2289    8.5354    1.8808 H   0  0  0  0  0  0
    2.7575    8.9031    7.0016 H   0  0  0  0  0  0
   -0.0409    5.8132    5.9472 H   0  0  0  0  0  0
   -0.0475    6.5368    3.5916 H   0  0  0  0  0  0
   -0.6570    6.4125   10.1187 H   0  0  0  0  0  0
   -0.8507    5.4609   11.5828 H   0  0  0  0  0  0
    3.5442   10.5522    4.5448 H   0  0  0  0  0  0
    1.9246    3.9757    9.9320 H   0  0  0  0  0  0
   -2.3473    4.3743    9.5853 H   0  0  0  0  0  0
    1.7860    1.8458    8.7890 H   0  0  0  0  0  0
   -2.4555    2.2540    8.3911 H   0  0  0  0  0  0
   -1.2375   -1.1552    7.5688 H   0  0  0  0  0  0
   -1.9735    0.2529    6.8352 H   0  0  0  0  0  0
   -2.1727   -0.0617    8.5765 H   0  0  0  0  0  0
  1 10  2  0  0  0
  2 11  2  0  0  0
  3 23  1  0  0  0
  3 26  1  0  0  0
  4  8  1  0  0  0
  4 12  1  0  0  0
  4 27  1  0  0  0
  5  9  1  0  0  0
  5 18  1  0  0  0
  5 28  1  0  0  0
  6  7  1  0  0  0
  6 14  1  0  0  0
  6 29  1  0  0  0
  7 19  2  0  0  0
  8  9  2  0  0  0
  8 10  1  0  0  0
  9 11  1  0  0  0
 10 11  1  0  0  0
 12 15  1  0  0  0
 12 16  2  0  0  0
 13 14  1  0  0  0
 13 15  2  0  0  0
 13 19  1  0  0  0
 14 17  2  0  0  0
 15 30  1  0  0  0
 16 17  1  0  0  0
 16 31  1  0  0  0
 17 32  1  0  0  0
 18 20  1  0  0  0
 18 33  1  0  0  0
 18 34  1  0  0  0
 19 35  1  0  0  0
 20 21  2  0  0  0
 20 22  1  0  0  0
 21 24  1  0  0  0
 21 36  1  0  0  0
 22 25  2  0  0  0
 22 37  1  0  0  0
 23 24  2  0  0  0
 23 25  1  0  0  0
 24 38  1  0  0  0
 25 39  1  0  0  0
 26 40  1  0  0  0
 26 41  1  0  0  0
 26 42  1  0  0  0
M  END
> <s_m_entry_id>
32040

> <s_m_entry_name>
dock_pv.303

> <s_m_Source_Path>
/home/csk/Desktop/cluster/DUD-E-result/src

> <s_m_Source_File>
dock_pv.maegz

> <i_m_Source_File_Index>
303

> <chembl_id>
CHEMBL1992536

> <chembl_pref_name>
None

> <i_lp_mmshare_version>
53161

> <r_lp_tautomer_probability>
1

> <s_lp_Force_Field>
OPLS_2005

> <r_lp_Energy>
52.826037

> <b_lp_Chiralities_Consistent>
1

> <s_lp_Variant>
CHEMBL267_lig3217-1

> <s_i_glide_gridfile>
glide-grid_3el8

> <i_i_glide_lignum>
3760

> <i_i_glide_rotatable_bonds>
6

> <r_i_docking_score>
-7.46946665010208

> <r_i_glide_ligand_efficiency>
-0.28728717885008

> <r_i_glide_ligand_efficiency_sa>
-0.851087136922899

> <r_i_glide_ligand_efficiency_ln>
-1.75417973345733

> <r_i_glide_gscore>
-7.46946665010208

> <r_i_glide_lipo>
-3.19390712811539

> <r_i_glide_hbond>
-0.32

> <r_i_glide_metal>
0

> <r_i_glide_rewards>
-1.78065008534084

> <r_i_glide_evdw>
-40.3022956848145

> <r_i_glide_ecoul>
-6.01856279373169

> <r_i_glide_erotb>
0.78431635227386

> <r_i_glide_esite>
-0.0413265856192324

> <r_i_glide_emodel>
-64.9523039860405

> <r_i_glide_energy>
-46.3208584785461

> <r_i_glide_einternal>
4.57115793228149

> <i_i_glide_confnum>
10

> <i_i_glide_posenum>
387

> <r_i_glide_eff_state_penalty>
0

> <s_user_duplicate_titles>
CHEMBL267_lig3217

> <i_f3d_flags>
0

> <s_m_subgroup_title>
dock_pv

> <s_m_subgroupid>
dock_pv

> <b_m_subgroup_collapsed>
1

$$$$
CHEMBL267_lig307
                    3D
 Schrodinger Suite 2021-1.
 45 47  0  0  1  0            999 V2000
    3.1596    7.9031    7.8232 C   0  0  0  0  0  0
    3.3217    6.8512    8.7459 C   0  0  0  0  0  0
    4.1765    8.3519    7.0356 N   0  0  0  0  0  0
    6.3786    8.3203    6.3689 N   0  0  0  0  0  0
    5.3968    7.7793    7.1383 C   0  0  0  0  0  0
    1.8924    8.5172    7.7553 N   0  0  0  0  0  0
    2.2468    6.4162    9.6955 C   0  0  0  0  0  0
    1.3621    9.4059    6.8865 C   0  0  0  0  0  0
    5.6214    6.6667    7.9885 C   0  0  0  0  0  0
    4.5584    6.2060    8.7887 C   0  0  0  0  0  0
    7.5870    7.7212    6.4530 C   0  0  0  0  0  0
    7.9108    6.6370    7.1920 N   0  0  0  0  0  0
    2.1616    9.8535    5.8963 N   0  0  0  0  0  0
    6.9195    6.1233    7.9550 C   0  0  0  0  0  0
    1.0740    5.7894    9.2348 C   0  0  0  0  0  0
    2.3846    6.6295   11.0822 C   0  0  0  0  0  0
    0.1983    9.7601    7.0490 O   0  0  0  0  0  0
    1.8428   10.6194    4.6854 C   0  0  0  0  0  0
    8.5974    8.2674    5.6915 N   0  0  0  0  0  0
    3.7975    7.3837   11.7558 Cl  0  0  0  0  0  0
    0.8364    5.4378    7.5635 Cl  0  0  0  0  0  0
    0.1983    5.6617   11.4797 C   0  0  0  0  0  0
    0.0605    5.4260   10.1179 C   0  0  0  0  0  0
    1.3680    6.2434   11.9586 C   0  0  0  0  0  0
    1.0004    9.7607    3.7169 C   0  0  0  0  0  0
    3.1813   10.9444    3.9905 C   0  0  0  0  0  0
    1.1423   11.9612    5.0191 C   0  0  0  0  0  0
    1.2523    8.1770    8.4544 H   0  0  0  0  0  0
    4.7236    5.3899    9.4718 H   0  0  0  0  0  0
    3.1198    9.5340    5.9410 H   0  0  0  0  0  0
    7.1592    5.2613    8.5648 H   0  0  0  0  0  0
    8.3476    9.0132    5.0642 H   0  0  0  0  0  0
    9.4065    7.6705    5.5221 H   0  0  0  0  0  0
   -0.5995    5.4000   12.1587 H   0  0  0  0  0  0
   -0.8500    4.9728    9.7482 H   0  0  0  0  0  0
    1.4790    6.4181   13.0183 H   0  0  0  0  0  0
    0.1300    9.3395    4.2101 H   0  0  0  0  0  0
    0.6565   10.3383    2.8574 H   0  0  0  0  0  0
    1.5710    8.9142    3.3307 H   0  0  0  0  0  0
    3.8255   11.5619    4.6188 H   0  0  0  0  0  0
    3.7395   10.0398    3.7480 H   0  0  0  0  0  0
    3.0240   11.4849    3.0554 H   0  0  0  0  0  0
    1.7664   12.5852    5.6565 H   0  0  0  0  0  0
    0.9182   12.5317    4.1171 H   0  0  0  0  0  0
    0.1984   11.8239    5.5460 H   0  0  0  0  0  0
  1  2  1  0  0  0
  1  3  2  0  0  0
  1  6  1  0  0  0
  2  7  1  0  0  0
  2 10  2  0  0  0
  3  5  1  0  0  0
  4  5  2  0  0  0
  4 11  1  0  0  0
  5  9  1  0  0  0
  6  8  1  0  0  0
  6 28  1  0  0  0
  7 15  1  0  0  0
  7 16  2  0  0  0
  8 13  1  0  0  0
  8 17  2  0  0  0
  9 14  2  0  0  0
  9 10  1  0  0  0
 10 29  1  0  0  0
 11 19  1  0  0  0
 11 12  2  0  0  0
 12 14  1  0  0  0
 13 18  1  0  0  0
 13 30  1  0  0  0
 14 31  1  0  0  0
 15 21  1  0  0  0
 15 23  2  0  0  0
 16 20  1  0  0  0
 16 24  1  0  0  0
 18 25  1  0  0  0
 18 26  1  0  0  0
 18 27  1  0  0  0
 19 32  1  0  0  0
 19 33  1  0  0  0
 22 24  2  0  0  0
 22 23  1  0  0  0
 22 34  1  0  0  0
 23 35  1  0  0  0
 24 36  1  0  0  0
 25 37  1  0  0  0
 25 38  1  0  0  0
 25 39  1  0  0  0
 26 40  1  0  0  0
 26 41  1  0  0  0
 26 42  1  0  0  0
 27 43  1  0  0  0
 27 44  1  0  0  0
 27 45  1  0  0  0
M  END
> <s_m_entry_id>
32041

> <s_m_entry_name>
dock_pv.304

> <s_m_Source_Path>
/home/csk/Desktop/cluster/DUD-E-result/src

> <s_m_Source_File>
dock_pv.maegz

> <i_m_Source_File_Index>
304

> <chembl_id>
CHEMBL57366

> <chembl_pref_name>
None

> <i_lp_mmshare_version>
53161

> <r_lp_tautomer_probability>
1

> <s_lp_Force_Field>
OPLS_2005

> <r_lp_Energy>
16.619764

> <b_lp_Chiralities_Consistent>
1

> <s_lp_Variant>
CHEMBL267_lig307-1

> <s_i_glide_gridfile>
glide-grid_3el8

> <i_i_glide_lignum>
373

> <i_i_glide_rotatable_bonds>
5

> <r_i_docking_score>
-7.46626396382549

> <r_i_glide_ligand_efficiency>
-0.2765282949565

> <r_i_glide_ligand_efficiency_sa>
-0.829584883958107

> <r_i_glide_ligand_efficiency_ln>
-1.73802315979705

> <r_i_glide_gscore>
-7.46626396382549

> <r_i_glide_lipo>
-2.37665149717424

> <r_i_glide_hbond>
-0.584712267541186

> <r_i_glide_metal>
0

> <r_i_glide_rewards>
-1.7873993691647

> <r_i_glide_evdw>
-38.9021644592285

> <r_i_glide_ecoul>
-7.38257122039795

> <r_i_glide_erotb>
0.334993076075759

> <r_i_glide_esite>
0

> <r_i_glide_emodel>
-63.5387898838012

> <r_i_glide_energy>
-46.2847356796265

> <r_i_glide_einternal>
1.72517466545105

> <i_i_glide_confnum>
2

> <i_i_glide_posenum>
284

> <r_i_glide_eff_state_penalty>
0

> <s_user_duplicate_titles>
CHEMBL267_lig307,88576

> <i_f3d_flags>
0

> <s_m_subgroup_title>
dock_pv

> <s_m_subgroupid>
dock_pv

> <b_m_subgroup_collapsed>
1

$$$$
CHEMBL267_lig1761
                    3D
 Schrodinger Suite 2021-1.
 46 49  0  0  1  0            999 V2000
    0.9218    6.3522    8.2098 N   0  0  0  0  0  0
    1.6511    7.3328    7.6028 C   0  0  0  0  0  0
    2.6812    8.0248    8.1762 N   0  0  0  0  0  0
    1.1808    6.0595    9.5116 C   0  0  0  0  0  0
    2.2028    6.7288   10.1942 C   0  0  0  0  0  0
    2.9148    7.6821    9.4429 C   0  0  0  0  0  0
    3.8825    8.1312   10.2993 N   0  0  0  0  0  0
    3.7281    7.4370   11.4764 C   0  0  0  0  0  0
    2.6907    6.6370   11.4741 N   0  0  0  0  0  0
    0.4371    5.0705   10.1569 N   0  0  0  0  0  0
   -0.1070    3.9405    9.5450 C   0  0  0  0  0  0
    0.7351    2.8960    9.1715 C   0  0  0  0  0  0
    0.1980    1.7413    8.6094 C   0  0  0  0  0  0
   -1.1801    1.6421    8.3880 C   0  0  0  0  0  0
   -2.0158    2.6928    8.7715 C   0  0  0  0  0  0
   -1.4802    3.8370    9.3506 C   0  0  0  0  0  0
    1.3767    7.5980    6.2570 N   0  0  0  0  0  0
    0.1980    7.0255    5.5706 C   0  0  0  0  0  0
    0.3180    7.0009    4.0336 C   0  0  0  0  0  0
    0.5727    8.3326    3.5071 N   0  0  0  0  0  0
    1.8150    8.8382    4.0677 C   0  0  0  0  0  0
    1.7794    8.8698    5.6141 C   0  0  0  0  0  0
   -1.8020    0.5380    7.7891 N   0  0  0  0  0  0
   -1.3467   -0.7114    7.5881 C   0  0  0  0  0  0
   -2.2828   -1.6140    6.7967 C   0  0  0  0  0  0
   -0.2729   -1.1542    7.9880 O   0  0  0  0  0  0
    4.6124    8.8040   10.1261 H   0  0  0  0  0  0
    4.3964    7.6087   12.3089 H   0  0  0  0  0  0
    0.6975    4.9426   11.1231 H   0  0  0  0  0  0
    1.7980    2.9643    9.3456 H   0  0  0  0  0  0
    0.8530    0.9188    8.3880 H   0  0  0  0  0  0
   -3.0835    2.6347    8.6136 H   0  0  0  0  0  0
   -2.1427    4.6370    9.6297 H   0  0  0  0  0  0
    0.0071    6.0064    5.9088 H   0  0  0  0  0  0
   -0.6790    7.6189    5.8345 H   0  0  0  0  0  0
   -0.6024    6.6217    3.5880 H   0  0  0  0  0  0
    1.1046    6.3142    3.7152 H   0  0  0  0  0  0
    0.6163    8.2898    2.4931 H   0  0  0  0  0  0
    1.9903    9.8386    3.6709 H   0  0  0  0  0  0
    2.6491    8.2370    3.7104 H   0  0  0  0  0  0
    1.0642    9.6380    5.9119 H   0  0  0  0  0  0
    2.7614    9.1876    5.9649 H   0  0  0  0  0  0
   -2.7228    0.7518    7.4038 H   0  0  0  0  0  0
   -3.2814   -1.6118    7.2342 H   0  0  0  0  0  0
   -1.9123   -2.6372    6.7880 H   0  0  0  0  0  0
   -2.3550   -1.2667    5.7659 H   0  0  0  0  0  0
  1  2  2  0  0  0
  1  4  1  0  0  0
  2  3  1  0  0  0
  2 17  1  0  0  0
  3  6  2  0  0  0
  4  5  2  0  0  0
  4 10  1  0  0  0
  5  9  1  0  0  0
  5  6  1  0  0  0
  6  7  1  0  0  0
  7  8  1  0  0  0
  7 27  1  0  0  0
  8  9  2  0  0  0
  8 28  1  0  0  0
 10 11  1  0  0  0
 10 29  1  0  0  0
 11 16  1  0  0  0
 11 12  2  0  0  0
 12 13  1  0  0  0
 12 30  1  0  0  0
 13 14  2  0  0  0
 13 31  1  0  0  0
 14 15  1  0  0  0
 14 23  1  0  0  0
 15 16  2  0  0  0
 15 32  1  0  0  0
 16 33  1  0  0  0
 17 18  1  0  0  0
 17 22  1  0  0  0
 18 19  1  0  0  0
 18 34  1  0  0  0
 18 35  1  0  0  0
 19 20  1  0  0  0
 19 36  1  0  0  0
 19 37  1  0  0  0
 20 21  1  0  0  0
 20 38  1  0  0  0
 21 22  1  0  0  0
 21 39  1  0  0  0
 21 40  1  0  0  0
 22 41  1  0  0  0
 22 42  1  0  0  0
 23 24  1  0  0  0
 23 43  1  0  0  0
 24 25  1  0  0  0
 24 26  2  0  0  0
 25 44  1  0  0  0
 25 45  1  0  0  0
 25 46  1  0  0  0
M  END
> <s_m_entry_id>
32042

> <s_m_entry_name>
dock_pv.305

> <s_m_Source_Path>
/home/csk/Desktop/cluster/DUD-E-result/src

> <s_m_Source_File>
dock_pv.maegz

> <i_m_Source_File_Index>
305

> <chembl_id>
CHEMBL1173311

> <chembl_pref_name>
None

> <i_lp_mmshare_version>
53161

> <r_lp_tautomer_probability>
0.95558173703543

> <s_lp_Force_Field>
OPLS_2005

> <r_lp_Energy>
41.223994

> <b_lp_Chiralities_Consistent>
1

> <s_lp_Variant>
CHEMBL267_lig1761-1

> <s_i_glide_gridfile>
glide-grid_3el8

> <i_i_glide_lignum>
2000

> <i_i_glide_rotatable_bonds>
5

> <r_i_docking_score>
-7.46480773108454

> <r_i_glide_ligand_efficiency>
-0.287107989657098

> <r_i_glide_ligand_efficiency_sa>
-0.850556289643764

> <r_i_glide_ligand_efficiency_ln>
-1.75308560161322

> <r_i_glide_gscore>
-7.46480773108454

> <r_i_glide_lipo>
-2.53351617950339

> <r_i_glide_hbond>
-0.432058002651455

> <r_i_glide_metal>
0

> <r_i_glide_rewards>
-2.34814279173386

> <r_i_glide_evdw>
-45.5721893310547

> <r_i_glide_ecoul>
-3.0367157459259

> <r_i_glide_erotb>
0.614725730538085

> <r_i_glide_esite>
-0.0316996592922947

> <r_i_glide_emodel>
-64.0717824711217

> <r_i_glide_energy>
-48.6089050769806

> <r_i_glide_einternal>
11.7410898208618

> <i_i_glide_confnum>
2

> <i_i_glide_posenum>
30

> <r_i_glide_eff_state_penalty>
0

> <s_user_duplicate_titles>
CHEMBL267_lig1761

> <i_f3d_flags>
0

> <s_m_subgroup_title>
dock_pv

> <s_m_subgroupid>
dock_pv

> <b_m_subgroup_collapsed>
1

$$$$
CHEMBL267_lig624
                    3D
 Schrodinger Suite 2021-1.
 69 71  0  0  1  0            999 V2000
    1.2415   10.6455    5.8645 C   0  0  0  0  0  0
    1.2413    9.2822    5.7599 N   0  0  0  0  0  0
    2.0233   11.4401    4.7885 C   0  0  1  0  0  0
   13.0201   10.9133    1.2917 P   0  0  0  0  0  0
    3.4641   11.2273    4.9751 N   0  0  0  0  0  0
    4.4114   12.1251    4.6555 C   0  0  0  0  0  0
    5.8823   11.6383    4.6144 C   0  0  1  0  0  0
    0.8038    4.0221    8.9426 C   0  0  0  0  0  0
    5.9974   10.1660    4.5669 N   0  0  0  0  0  0
    0.4135    8.5190    6.7100 C   0  0  0  0  0  0
    1.3486    5.4012    8.7042 C   0  0  0  0  0  0
    6.3328    9.3877    5.6105 C   0  0  0  0  0  0
   12.0085   10.6211    2.5271 O   0  0  0  0  0  0
   13.4837   12.3186    1.1519 O   0  0  0  0  0  0
    0.5980   11.2660    6.7144 O   0  0  0  0  0  0
    4.1500   13.2971    4.3885 O   0  0  0  0  0  0
    0.6966    6.3075    7.8557 C   0  0  0  0  0  0
    2.1977    9.9179    2.3744 S   0  0  0  0  0  0
    6.6750   12.3571    3.4737 C   0  0  0  0  0  0
    1.3975    3.1574    9.5880 O   0  0  0  0  0  0
    1.1839    7.5973    7.6477 C   0  0  0  0  0  0
    6.5980    9.8271    6.7274 O   0  0  0  0  0  0
   14.1933    9.8372    1.5879 O   0  0  0  0  0  0
   12.2511   10.2953    0.0027 O   0  0  0  0  0  0
    1.5456   11.3254    3.3193 C   0  0  0  0  0  0
   10.7424   11.1036    2.7157 C   0  0  0  0  0  0
    8.1245   11.9221    3.2392 C   0  0  0  0  0  0
   -0.4189    3.8317    8.3885 O   0  0  0  0  0  0
    1.9662    8.4927    4.7511 C   0  0  0  0  0  0
    8.8628   11.2391    4.2107 C   0  0  0  0  0  0
    8.7266   12.2346    2.0158 C   0  0  0  0  0  0
   10.0341   11.8317    1.7537 C   0  0  0  0  0  0
   10.1543   10.8121    3.9399 C   0  0  0  0  0  0
    2.5349    5.8170    9.3279 C   0  0  0  0  0  0
    1.4101    8.5949    3.3245 C   0  0  0  0  0  0
    3.0410    7.1016    9.1160 C   0  0  0  0  0  0
    6.4161    7.8896    5.3584 C   0  0  0  0  0  0
    2.3686    7.9920    8.2773 C   0  0  0  0  0  0
   -1.1249    2.6080    8.5468 C   0  0  0  0  0  0
    1.8195   12.4796    5.0598 H   0  0  0  0  0  0
    3.7649   10.2847    5.1746 H   0  0  0  0  0  0
    6.2848   11.9899    5.5626 H   0  0  0  0  0  0
    5.8042    9.7463    3.6696 H   0  0  0  0  0  0
   -0.2169    9.1580    7.3259 H   0  0  0  0  0  0
   -0.2840    7.9229    6.1201 H   0  0  0  0  0  0
   -0.2020    6.0146    7.3384 H   0  0  0  0  0  0
    6.6874   13.4337    3.6566 H   0  0  0  0  0  0
    6.1372   12.2155    2.5331 H   0  0  0  0  0  0
   13.9376    9.1252    2.2258 H   0  0  0  0  0  0
   11.7486    9.4719    0.1470 H   0  0  0  0  0  0
    0.4586   11.3206    3.2501 H   0  0  0  0  0  0
    1.8610   12.2191    2.7808 H   0  0  0  0  0  0
    3.0287    8.7315    4.7416 H   0  0  0  0  0  0
    1.9457    7.4533    5.0815 H   0  0  0  0  0  0
    8.4552   11.0366    5.1876 H   0  0  0  0  0  0
    8.1783   12.7810    1.2615 H   0  0  0  0  0  0
   10.4786   12.0725    0.8002 H   0  0  0  0  0  0
   10.7121   10.2652    4.6871 H   0  0  0  0  0  0
    3.0717    5.1492    9.9876 H   0  0  0  0  0  0
    1.6409    7.6724    2.7897 H   0  0  0  0  0  0
    0.3228    8.6890    3.3107 H   0  0  0  0  0  0
    3.9551    7.4048    9.6075 H   0  0  0  0  0  0
    5.4210    7.4464    5.4022 H   0  0  0  0  0  0
    6.8651    7.6821    4.3883 H   0  0  0  0  0  0
    7.0383    7.4191    6.1196 H   0  0  0  0  0  0
    2.7687    8.9849    8.1203 H   0  0  0  0  0  0
   -2.0375    2.6249    7.9503 H   0  0  0  0  0  0
   -0.5230    1.7531    8.2303 H   0  0  0  0  0  0
   -1.4144    2.4684    9.5870 H   0  0  0  0  0  0
  1  2  1  0  0  0
  1  3  1  0  0  0
  1 15  2  0  0  0
  2 10  1  0  0  0
  2 29  1  0  0  0
  3  5  1  0  0  0
  3 25  1  0  0  0
  3 40  1  0  0  0
  4 13  1  0  0  0
  4 14  2  0  0  0
  4 23  1  0  0  0
  4 24  1  0  0  0
  5  6  1  0  0  0
  5 41  1  0  0  0
  6  7  1  0  0  0
  6 16  2  0  0  0
  7  9  1  0  0  0
  7 19  1  0  0  0
  7 42  1  0  0  0
  8 11  1  0  0  0
  8 20  2  0  0  0
  8 28  1  0  0  0
  9 12  1  0  0  0
  9 43  1  0  0  0
 10 21  1  0  0  0
 10 44  1  0  0  0
 10 45  1  0  0  0
 11 17  1  0  0  0
 11 34  2  0  0  0
 12 22  2  0  0  0
 12 37  1  0  0  0
 13 26  1  0  0  0
 17 21  2  0  0  0
 17 46  1  0  0  0
 18 25  1  0  0  0
 18 35  1  0  0  0
 19 27  1  0  0  0
 19 47  1  0  0  0
 19 48  1  0  0  0
 21 38  1  0  0  0
 23 49  1  0  0  0
 24 50  1  0  0  0
 25 51  1  0  0  0
 25 52  1  0  0  0
 26 32  1  0  0  0
 26 33  2  0  0  0
 27 30  2  0  0  0
 27 31  1  0  0  0
 28 39  1  0  0  0
 29 35  1  0  0  0
 29 53  1  0  0  0
 29 54  1  0  0  0
 30 33  1  0  0  0
 30 55  1  0  0  0
 31 32  2  0  0  0
 31 56  1  0  0  0
 32 57  1  0  0  0
 33 58  1  0  0  0
 34 36  1  0  0  0
 34 59  1  0  0  0
 35 60  1  0  0  0
 35 61  1  0  0  0
 36 38  2  0  0  0
 36 62  1  0  0  0
 37 63  1  0  0  0
 37 64  1  0  0  0
 37 65  1  0  0  0
 38 66  1  0  0  0
 39 67  1  0  0  0
 39 68  1  0  0  0
 39 69  1  0  0  0
M  END
> <s_m_entry_id>
32043

> <s_m_entry_name>
dock_pv.306

> <s_m_Source_Path>
/home/csk/Desktop/cluster/DUD-E-result/src

> <s_m_Source_File>
dock_pv.maegz

> <i_m_Source_File_Index>
306

> <chembl_id>
CHEMBL410119

> <chembl_pref_name>
None

> <i_lp_mmshare_version>
53161

> <r_lp_tautomer_probability>
1

> <s_lp_Force_Field>
OPLS_2005

> <r_lp_Energy>
20.672226

> <b_lp_Chiralities_Consistent>
1

> <s_lp_Variant>
CHEMBL267_lig624-1

> <s_i_glide_gridfile>
glide-grid_3el8

> <i_i_glide_lignum>
735

> <i_i_glide_rotatable_bonds>
15

> <r_i_docking_score>
-7.46434630177975

> <r_i_glide_ligand_efficiency>
-0.191393494917429

> <r_i_glide_ligand_efficiency_sa>
-0.649055809289842

> <r_i_glide_ligand_efficiency_ln>
-1.60056773517179

> <r_i_glide_gscore>
-7.46434630177975

> <r_i_glide_lipo>
-2.46992713565779

> <r_i_glide_hbond>
-0.169851316934888

> <r_i_glide_metal>
0

> <r_i_glide_rewards>
-1.21228268544426

> <r_i_glide_evdw>
-49.1226654052734

> <r_i_glide_ecoul>
-11.6096363067627

> <r_i_glide_erotb>
0.585293552535265

> <r_i_glide_esite>
0

> <r_i_glide_emodel>
-80.9029421912285

> <r_i_glide_energy>
-60.7323017120361

> <r_i_glide_einternal>
10.8348417282104

> <i_i_glide_confnum>
1

> <i_i_glide_posenum>
33

> <r_i_glide_eff_state_penalty>
0

> <s_user_duplicate_titles>
CHEMBL267_lig624,105227

> <i_f3d_flags>
0

> <s_m_subgroup_title>
dock_pv

> <s_m_subgroupid>
dock_pv

> <b_m_subgroup_collapsed>
1

$$$$
CHEMBL267_lig522
                    3D
 Schrodinger Suite 2021-1.
 24 26  0  0  1  0            999 V2000
    5.9559    7.4398    7.2073 C   0  0  0  0  0  0
    5.2484    8.3343    6.4699 C   0  0  0  0  0  0
    3.8890    8.4208    6.5523 N   0  0  0  0  0  0
    5.8123    9.2056    5.5855 N   0  0  0  0  0  0
    7.4021    7.3924    7.0213 C   0  0  0  0  0  0
    5.2773    6.4721    8.1890 C   0  0  0  0  0  0
    7.8579    8.2732    6.1060 N   0  0  0  0  0  0
    7.0867    9.1648    5.4184 C   0  0  0  0  0  0
    3.1054    7.5911    7.3650 C   0  0  0  0  0  0
    3.7461    6.6371    8.1846 C   0  0  0  0  0  0
    8.1852    6.6368    7.5880 O   0  0  0  0  0  0
    1.7132    7.6942    7.3286 C   0  0  0  0  0  0
    2.9389    5.8035    8.9675 C   0  0  0  0  0  0
    0.9348    6.8406    8.1084 C   0  0  0  0  0  0
    1.5478    5.9007    8.9334 C   0  0  0  0  0  0
    3.4444    9.0961    5.9529 H   0  0  0  0  0  0
    5.6527    6.6370    9.1880 H   0  0  0  0  0  0
    5.5331    5.4393    7.9471 H   0  0  0  0  0  0
    7.5886    9.8341    4.7250 H   0  0  0  0  0  0
    8.8495    8.2139    5.9424 H   0  0  0  0  0  0
    1.2323    8.4149    6.6836 H   0  0  0  0  0  0
    3.3975    5.0538    9.5958 H   0  0  0  0  0  0
   -0.1436    6.8931    8.0641 H   0  0  0  0  0  0
    0.9447    5.2363    9.5360 H   0  0  0  0  0  0
  1  6  1  0  0  0
  1  2  2  0  0  0
  1  5  1  0  0  0
  2  3  1  0  0  0
  2  4  1  0  0  0
  3  9  1  0  0  0
  3 16  1  0  0  0
  4  8  2  0  0  0
  5  7  1  0  0  0
  5 11  2  0  0  0
  6 10  1  0  0  0
  6 17  1  0  0  0
  6 18  1  0  0  0
  7  8  1  0  0  0
  7 20  1  0  0  0
  8 19  1  0  0  0
  9 10  2  0  0  0
  9 12  1  0  0  0
 10 13  1  0  0  0
 12 14  2  0  0  0
 12 21  1  0  0  0
 13 15  2  0  0  0
 13 22  1  0  0  0
 14 15  1  0  0  0
 14 23  1  0  0  0
 15 24  1  0  0  0
M  END
> <s_m_entry_id>
32044

> <s_m_entry_name>
dock_pv.307

> <s_m_Source_Path>
/home/csk/Desktop/cluster/DUD-E-result/src

> <s_m_Source_File>
dock_pv.maegz

> <i_m_Source_File_Index>
307

> <chembl_id>
CHEMBL6796

> <chembl_pref_name>
None

> <i_lp_mmshare_version>
53161

> <r_lp_tautomer_probability>
0.994035648421939

> <s_lp_Force_Field>
OPLS_2005

> <r_lp_Energy>
18.274816

> <b_lp_Chiralities_Consistent>
1

> <s_lp_Variant>
CHEMBL267_lig522-1

> <s_i_glide_gridfile>
glide-grid_3el8

> <i_i_glide_lignum>
616

> <i_i_glide_rotatable_bonds>
0

> <r_i_docking_score>
-7.46124269412325

> <r_i_glide_ligand_efficiency>
-0.497416179608217

> <r_i_glide_ligand_efficiency_sa>
-1.22673378700977

> <r_i_glide_ligand_efficiency_ln>
-2.01217413181337

> <r_i_glide_gscore>
-7.46124269412325

> <r_i_glide_lipo>
-1.87399493831394

> <r_i_glide_hbond>
-0.32

> <r_i_glide_metal>
0

> <r_i_glide_rewards>
-3.19354222564268

> <r_i_glide_evdw>
-24.6978816986084

> <r_i_glide_ecoul>
-5.59207630157471

> <r_i_glide_erotb>
0

> <r_i_glide_esite>
0

> <r_i_glide_emodel>
-44.5424978308457

> <r_i_glide_energy>
-30.2899580001831

> <r_i_glide_einternal>
0

> <i_i_glide_confnum>
1

> <i_i_glide_posenum>
104

> <r_i_glide_eff_state_penalty>
0

> <s_user_duplicate_titles>
CHEMBL267_lig522

> <i_f3d_flags>
0

> <s_m_subgroup_title>
dock_pv

> <s_m_subgroupid>
dock_pv

> <b_m_subgroup_collapsed>
1

$$$$
CHEMBL267_lig679
                    3D
 Schrodinger Suite 2021-1.
 44 47  0  0  1  0            999 V2000
    2.7576    7.7494    8.0615 N   0  0  0  0  0  0
    4.1196    7.4041    8.0151 C   0  0  0  0  0  0
    2.0687    6.6174    8.5578 C   0  0  0  0  0  0
    4.2655    6.1082    8.5683 C   0  0  0  0  0  0
    3.0160    5.6675    8.9785 C   0  0  0  0  0  0
    5.2524    8.0817    7.5208 C   0  0  0  0  0  0
    0.7019    6.2736    8.6093 C   0  0  0  0  0  0
    2.1546    8.9800    7.6114 C   0  0  0  0  0  0
    5.5111    5.4731    8.5695 C   0  0  0  0  0  0
    6.4719    7.4141    7.4893 C   0  0  0  0  0  0
    2.5979    4.4799    9.5870 C   0  0  0  0  0  0
    6.5917    6.1217    7.9881 C   0  0  0  0  0  0
    0.3127    5.0343    9.1388 C   0  0  0  0  0  0
    1.1404    9.4285    8.1513 O   0  0  0  0  0  0
    1.2576    4.1442    9.5909 C   0  0  0  0  0  0
    2.7394    9.7288    6.3885 C   0  0  0  0  0  0
   -0.2020    7.0539    7.9869 O   0  0  0  0  0  0
    7.5612    8.0448    6.9458 O   0  0  0  0  0  0
    7.7887    5.4726    7.9880 O   0  0  0  0  0  0
    3.0730    8.8749    5.1378 C   0  0  0  0  0  0
   -0.9991    4.6369    9.2355 O   0  0  0  0  0  0
    1.8867    8.0660    4.6458 C   0  0  0  0  0  0
    1.1200    8.5360    3.5872 C   0  0  0  0  0  0
    1.5513    6.8661    5.2748 C   0  0  0  0  0  0
    0.3418    6.2555    5.0000 C   0  0  0  0  0  0
   -0.0200    7.8371    3.2261 C   0  0  0  0  0  0
   -0.4457    6.7439    3.9787 C   0  0  0  0  0  0
    5.2128    9.0635    7.0984 H   0  0  0  0  0  0
    5.6185    4.4758    8.9705 H   0  0  0  0  0  0
    3.3179    3.7851    9.9878 H   0  0  0  0  0  0
    0.9465    3.1942   10.0023 H   0  0  0  0  0  0
    1.9847   10.4553    6.0817 H   0  0  0  0  0  0
    3.5860   10.3357    6.6952 H   0  0  0  0  0  0
   -0.9535    6.5335    7.6569 H   0  0  0  0  0  0
    8.3174    7.4517    6.9188 H   0  0  0  0  0  0
    7.7499    4.6669    8.5215 H   0  0  0  0  0  0
    3.4132    9.5333    4.3368 H   0  0  0  0  0  0
    3.9202    8.2150    5.3024 H   0  0  0  0  0  0
   -1.6473    5.3511    9.2877 H   0  0  0  0  0  0
    1.3941    9.4323    3.0495 H   0  0  0  0  0  0
    2.1900    6.4330    6.0220 H   0  0  0  0  0  0
   -0.0042    5.4368    5.5967 H   0  0  0  0  0  0
   -0.6019    8.1866    2.3871 H   0  0  0  0  0  0
   -1.3786    6.2557    3.7371 H   0  0  0  0  0  0
  1  2  1  0  0  0
  1  3  1  0  0  0
  1  8  1  0  0  0
  2  4  1  0  0  0
  2  6  2  0  0  0
  3  5  1  0  0  0
  3  7  2  0  0  0
  4  9  2  0  0  0
  4  5  1  0  0  0
  5 11  2  0  0  0
  6 10  1  0  0  0
  6 28  1  0  0  0
  7 13  1  0  0  0
  7 17  1  0  0  0
  8 14  2  0  0  0
  8 16  1  0  0  0
  9 12  1  0  0  0
  9 29  1  0  0  0
 10 12  2  0  0  0
 10 18  1  0  0  0
 11 15  1  0  0  0
 11 30  1  0  0  0
 12 19  1  0  0  0
 13 15  2  0  0  0
 13 21  1  0  0  0
 15 31  1  0  0  0
 16 20  1  0  0  0
 16 32  1  0  0  0
 16 33  1  0  0  0
 17 34  1  0  0  0
 18 35  1  0  0  0
 19 36  1  0  0  0
 20 22  1  0  0  0
 20 37  1  0  0  0
 20 38  1  0  0  0
 21 39  1  0  0  0
 22 23  2  0  0  0
 22 24  1  0  0  0
 23 26  1  0  0  0
 23 40  1  0  0  0
 24 25  2  0  0  0
 24 41  1  0  0  0
 25 27  1  0  0  0
 25 42  1  0  0  0
 26 27  2  0  0  0
 26 43  1  0  0  0
 27 44  1  0  0  0
M  END
> <s_m_entry_id>
32045

> <s_m_entry_name>
dock_pv.308

> <s_m_Source_Path>
/home/csk/Desktop/cluster/DUD-E-result/src

> <s_m_Source_File>
dock_pv.maegz

> <i_m_Source_File_Index>
308

> <chembl_id>
CHEMBL72338

> <chembl_pref_name>
None

> <i_lp_mmshare_version>
53161

> <r_lp_tautomer_probability>
1

> <s_lp_Force_Field>
OPLS_2005

> <r_lp_Energy>
28.557857

> <b_lp_Chiralities_Consistent>
1

> <s_lp_Variant>
CHEMBL267_lig679-1

> <s_i_glide_gridfile>
glide-grid_3el8

> <i_i_glide_lignum>
798

> <i_i_glide_rotatable_bonds>
8

> <r_i_docking_score>
-7.45218862644821

> <r_i_glide_ligand_efficiency>
-0.276006986164749

> <r_i_glide_ligand_efficiency_sa>
-0.828020957584572

> <r_i_glide_ligand_efficiency_ln>
-1.73474665330569

> <r_i_glide_gscore>
-7.45218862644821

> <r_i_glide_lipo>
-3.01210487507264

> <r_i_glide_hbond>
0

> <r_i_glide_metal>
0

> <r_i_glide_rewards>
-1.52347729690542

> <r_i_glide_evdw>
-15.3325300216675

> <r_i_glide_ecoul>
-17.2434692382812

> <r_i_glide_erotb>
0.436540432355404

> <r_i_glide_esite>
0

> <r_i_glide_emodel>
-32.8334902004147

> <r_i_glide_energy>
-32.5759992599487

> <r_i_glide_einternal>
6.70945167541504

> <i_i_glide_confnum>
4

> <i_i_glide_posenum>
102

> <r_i_glide_eff_state_penalty>
0

> <s_user_duplicate_titles>
CHEMBL267_lig679,113333

> <i_f3d_flags>
0

> <s_m_subgroup_title>
dock_pv

> <s_m_subgroupid>
dock_pv

> <b_m_subgroup_collapsed>
1

$$$$
CHEMBL267_lig3900
                    3D
 Schrodinger Suite 2021-1.
 54 57  0  0  1  0            999 V2000
    3.7260    9.4690    5.1714 N   0  0  0  0  0  0
    4.4318    8.8581    6.1466 C   0  0  0  0  0  0
    3.9993    7.8419    6.9358 N   0  0  0  0  0  0
    2.4666    9.0370    4.9091 C   0  0  0  0  0  0
    1.9060    8.0079    5.6876 C   0  0  0  0  0  0
    2.7467    7.4593    6.6766 C   0  0  0  0  0  0
    2.0432    6.4226    7.2554 N   0  0  0  0  0  0
    0.8129    6.3085    6.7077 N   0  0  0  0  0  0
    0.6973    7.2490    5.7974 C   0  0  0  0  0  0
    1.7534    9.5707    3.8237 N   0  0  0  0  0  0
    2.1180   10.3789    2.7233 C   0  0  0  0  0  0
    3.4316   10.8273    2.5064 C   0  0  0  0  0  0
    3.7670   11.5623    1.3748 C   0  0  0  0  0  0
    2.7913   11.8737    0.4331 C   0  0  0  0  0  0
    1.4772   11.4575    0.6370 C   0  0  0  0  0  0
    1.1363   10.7192    1.7735 C   0  0  0  0  0  0
    5.0677   11.9456    1.1880 O   0  0  0  0  0  0
    2.5658    5.4084    8.1738 C   0  0  0  0  0  0
    1.7182    5.1502    9.4500 C   0  0  2  0  0  0
    0.5466    4.1753    9.2251 C   0  0  0  0  0  0
    0.7945    2.9237    8.6543 C   0  0  0  0  0  0
   -0.2439    2.0362    8.3880 C   0  0  0  0  0  0
   -1.5497    2.3933    8.7068 C   0  0  0  0  0  0
   -1.8110    3.6125    9.3199 C   0  0  0  0  0  0
   -0.7654    4.4933    9.5880 C   0  0  0  0  0  0
    1.3516    6.4607   10.1804 C   0  0  0  0  0  0
    5.7281    9.3559    6.3151 N   0  0  0  0  0  0
    6.7165    8.6899    7.1593 C   0  0  0  0  0  0
    7.6353    7.7631    6.3626 C   0  0  0  0  0  0
    8.5980    7.1535    7.1880 O   0  0  0  0  0  0
   -0.5169   10.2370    1.9603 Cl  0  0  0  0  0  0
   -0.2108    7.3437    5.2178 H   0  0  0  0  0  0
    0.8178    9.2016    3.7445 H   0  0  0  0  0  0
    4.2393   10.6008    3.1774 H   0  0  0  0  0  0
    3.0510   12.4322   -0.4556 H   0  0  0  0  0  0
    0.7212   11.7031   -0.0944 H   0  0  0  0  0  0
    5.2547   12.2370    0.2708 H   0  0  0  0  0  0
    3.5689    5.7112    8.4791 H   0  0  0  0  0  0
    2.7114    4.5027    7.5880 H   0  0  0  0  0  0
    2.3931    4.6370   10.1319 H   0  0  0  0  0  0
    1.7980    2.6370    8.3977 H   0  0  0  0  0  0
   -0.0355    1.0684    7.9575 H   0  0  0  0  0  0
   -2.3631    1.7138    8.4941 H   0  0  0  0  0  0
   -2.8236    3.8856    9.5782 H   0  0  0  0  0  0
   -1.0020    5.4370   10.0503 H   0  0  0  0  0  0
    0.9133    6.2643   11.1600 H   0  0  0  0  0  0
    2.2310    7.0859   10.3398 H   0  0  0  0  0  0
    0.6335    7.0370    9.5987 H   0  0  0  0  0  0
    6.0369   10.0428    5.6443 H   0  0  0  0  0  0
    7.3112    9.4370    7.6818 H   0  0  0  0  0  0
    6.2468    8.1301    7.9696 H   0  0  0  0  0  0
    7.0516    7.0370    5.7986 H   0  0  0  0  0  0
    8.1052    8.3227    5.5522 H   0  0  0  0  0  0
    9.3853    7.0369    6.6415 H   0  0  0  0  0  0
  1  2  2  0  0  0
  1  4  1  0  0  0
  2  3  1  0  0  0
  2 27  1  0  0  0
  3  6  2  0  0  0
  4  5  2  0  0  0
  4 10  1  0  0  0
  5  6  1  0  0  0
  5  9  1  0  0  0
  6  7  1  0  0  0
  7  8  1  0  0  0
  7 18  1  0  0  0
  8  9  2  0  0  0
  9 32  1  0  0  0
 10 11  1  0  0  0
 10 33  1  0  0  0
 11 12  2  0  0  0
 11 16  1  0  0  0
 12 13  1  0  0  0
 12 34  1  0  0  0
 13 14  2  0  0  0
 13 17  1  0  0  0
 14 15  1  0  0  0
 14 35  1  0  0  0
 15 16  2  0  0  0
 15 36  1  0  0  0
 16 31  1  0  0  0
 17 37  1  0  0  0
 18 19  1  0  0  0
 18 38  1  0  0  0
 18 39  1  0  0  0
 19 20  1  0  0  0
 19 26  1  0  0  0
 19 40  1  0  0  0
 20 21  2  0  0  0
 20 25  1  0  0  0
 21 22  1  0  0  0
 21 41  1  0  0  0
 22 23  2  0  0  0
 22 42  1  0  0  0
 23 24  1  0  0  0
 23 43  1  0  0  0
 24 25  2  0  0  0
 24 44  1  0  0  0
 25 45  1  0  0  0
 26 46  1  0  0  0
 26 47  1  0  0  0
 26 48  1  0  0  0
 27 28  1  0  0  0
 27 49  1  0  0  0
 28 29  1  0  0  0
 28 50  1  0  0  0
 28 51  1  0  0  0
 29 30  1  0  0  0
 29 52  1  0  0  0
 29 53  1  0  0  0
 30 54  1  0  0  0
M  END
> <s_m_entry_id>
32046

> <s_m_entry_name>
dock_pv.309

> <s_m_Source_Path>
/home/csk/Desktop/cluster/DUD-E-result/src

> <s_m_Source_File>
dock_pv.maegz

> <i_m_Source_File_Index>
309

> <chembl_id>
CHEMBL4294817

> <chembl_pref_name>
None

> <i_lp_mmshare_version>
53161

> <r_lp_tautomer_probability>
0.99999558864179

> <s_lp_Force_Field>
OPLS_2005

> <r_lp_Energy>
11.22278

> <b_lp_Chiralities_Consistent>
1

> <s_lp_Variant>
CHEMBL267_lig3900-1

> <s_i_glide_gridfile>
glide-grid_3el8

> <i_i_glide_lignum>
4823

> <i_i_glide_rotatable_bonds>
10

> <r_i_docking_score>
-7.45168139744254

> <r_i_glide_ligand_efficiency>
-0.24037681927234

> <r_i_glide_ligand_efficiency_sa>
-0.75511508848116

> <r_i_glide_ligand_efficiency_ln>
-1.68058252173233

> <r_i_glide_gscore>
-7.45168139744254

> <r_i_glide_lipo>
-2.97706913544288

> <r_i_glide_hbond>
-0.694221531888387

> <r_i_glide_metal>
0

> <r_i_glide_rewards>
-1.07674978299003

> <r_i_glide_evdw>
-40.0384330749512

> <r_i_glide_ecoul>
-10.2023820877075

> <r_i_glide_erotb>
0.828638019782437

> <r_i_glide_esite>
0

> <r_i_glide_emodel>
-67.0099113777335

> <r_i_glide_energy>
-50.2408151626587

> <r_i_glide_einternal>
10.6453323364258

> <i_i_glide_confnum>
89

> <i_i_glide_posenum>
399

> <r_i_glide_eff_state_penalty>
0

> <s_user_duplicate_titles>
CHEMBL267_lig3900

> <i_f3d_flags>
0

> <s_m_subgroup_title>
dock_pv

> <s_m_subgroupid>
dock_pv

> <b_m_subgroup_collapsed>
1

$$$$
CHEMBL267_lig1020
                    3D
 Schrodinger Suite 2021-1.
 50 52  0  0  1  0            999 V2000
    6.2992    9.7034    5.5469 C   0  0  0  0  0  0
    7.6094    9.2120    5.5303 C   0  0  0  0  0  0
    7.9131    8.0550    6.2608 C   0  0  0  0  0  0
    5.3096    9.0640    6.2908 C   0  0  0  0  0  0
    5.5848    7.8910    7.0292 C   0  0  0  0  0  0
    6.9182    7.3800    7.0014 C   0  0  0  0  0  0
    7.2600    6.2313    7.6462 N   0  0  0  0  0  0
    6.2734    5.6095    8.3399 C   0  0  0  0  0  0
    4.9939    6.0213    8.4765 N   0  0  0  0  0  0
    4.6440    7.1468    7.8164 C   0  0  0  0  0  0
    3.2826    7.4489    7.9723 N   0  0  0  0  0  0
    2.3653    7.7415    6.9495 C   0  0  0  0  0  0
    1.9402    9.0569    6.7650 C   0  0  0  0  0  0
    1.0563    9.3841    5.7406 C   0  0  0  0  0  0
    0.5581    8.3823    4.9131 C   0  0  0  0  0  0
    0.9172    7.0532    5.1233 C   0  0  0  0  0  0
    1.8245    6.7305    6.1404 C   0  0  0  0  0  0
    8.5446    9.9142    4.7873 O   0  0  0  0  0  0
    5.9309   10.9596    4.7620 C   0  0  0  0  0  0
    9.9266    9.5919    4.9010 C   0  0  0  0  0  0
    0.2173    5.8367    4.1179 Cl  0  0  0  0  0  0
    2.1885    5.4432    6.3402 F   0  0  0  0  0  0
    5.4671   10.6447    3.4020 N   0  0  2  0  0  0
    5.7234   11.6738    2.3424 C   0  0  2  0  0  0
    7.2120   12.0092    2.1256 C   0  0  0  0  0  0
    4.8881   12.9725    2.5462 C   0  0  0  0  0  0
    4.3546   13.5134    1.4485 N   0  0  0  0  0  0
    4.7341   13.4749    3.6603 O   0  0  0  0  0  0
    4.1066   10.1055    3.3932 C   0  0  0  0  0  0
    8.9098    7.6451    6.2647 H   0  0  0  0  0  0
    4.3245    9.4876    6.3009 H   0  0  0  0  0  0
    6.5239    4.6577    8.7789 H   0  0  0  0  0  0
    2.8922    6.7955    8.6364 H   0  0  0  0  0  0
    2.3293    9.8370    7.3940 H   0  0  0  0  0  0
    0.7585   10.4113    5.5867 H   0  0  0  0  0  0
   -0.1331    8.6356    4.1220 H   0  0  0  0  0  0
    6.8071   11.6055    4.7276 H   0  0  0  0  0  0
    5.1780   11.5346    5.3048 H   0  0  0  0  0  0
   10.5144   10.3728    4.4217 H   0  0  0  0  0  0
   10.2577    9.5245    5.9374 H   0  0  0  0  0  0
   10.1539    8.6584    4.3933 H   0  0  0  0  0  0
    5.3943   11.2346    1.3970 H   0  0  0  0  0  0
    7.3479   12.6212    1.2315 H   0  0  0  0  0  0
    7.6456   12.5640    2.9606 H   0  0  0  0  0  0
    7.8034   11.1016    1.9868 H   0  0  0  0  0  0
    3.8120   14.3579    1.5281 H   0  0  0  0  0  0
    4.5532   13.1220    0.5335 H   0  0  0  0  0  0
    3.7687    9.8949    2.3819 H   0  0  0  0  0  0
    4.0454    9.1696    3.9430 H   0  0  0  0  0  0
    3.3993   10.8073    3.8378 H   0  0  0  0  0  0
  1  2  1  0  0  0
  1 19  1  0  0  0
  1  4  2  0  0  0
  2 18  1  0  0  0
  2  3  2  0  0  0
  3  6  1  0  0  0
  3 30  1  0  0  0
  4  5  1  0  0  0
  4 31  1  0  0  0
  5 10  2  0  0  0
  5  6  1  0  0  0
  6  7  2  0  0  0
  7  8  1  0  0  0
  8  9  2  0  0  0
  8 32  1  0  0  0
  9 10  1  0  0  0
 10 11  1  0  0  0
 11 12  1  0  0  0
 11 33  1  0  0  0
 12 17  2  0  0  0
 12 13  1  0  0  0
 13 14  2  0  0  0
 13 34  1  0  0  0
 14 15  1  0  0  0
 14 35  1  0  0  0
 15 16  2  0  0  0
 15 36  1  0  0  0
 16 17  1  0  0  0
 16 21  1  0  0  0
 17 22  1  0  0  0
 18 20  1  0  0  0
 19 23  1  0  0  0
 19 37  1  0  0  0
 19 38  1  0  0  0
 20 39  1  0  0  0
 20 40  1  0  0  0
 20 41  1  0  0  0
 23 24  1  0  0  0
 23 29  1  0  0  0
 24 25  1  0  0  0
 24 26  1  0  0  0
 24 42  1  0  0  0
 25 43  1  0  0  0
 25 44  1  0  0  0
 25 45  1  0  0  0
 26 27  1  0  0  0
 26 28  2  0  0  0
 27 46  1  0  0  0
 27 47  1  0  0  0
 29 48  1  0  0  0
 29 49  1  0  0  0
 29 50  1  0  0  0
M  END
> <s_m_entry_id>
32047

> <s_m_entry_name>
dock_pv.310

> <s_m_Source_Path>
/home/csk/Desktop/cluster/DUD-E-result/src

> <s_m_Source_File>
dock_pv.maegz

> <i_m_Source_File_Index>
310

> <chembl_id>
CHEMBL208118

> <chembl_pref_name>
None

> <i_lp_mmshare_version>
53161

> <r_lp_tautomer_probability>
0.999978000241998

> <s_lp_Force_Field>
OPLS_2005

> <r_lp_Energy>
21.323737

> <b_lp_Chiralities_Consistent>
1

> <s_lp_Variant>
CHEMBL267_lig1020-1

> <s_i_glide_gridfile>
glide-grid_3el8

> <i_i_glide_lignum>
1159

> <i_i_glide_rotatable_bonds>
7

> <r_i_docking_score>
-7.44693375603464

> <r_i_glide_ligand_efficiency>
-0.256790819173608

> <r_i_glide_ligand_efficiency_sa>
-0.788942753543194

> <r_i_glide_ligand_efficiency_ln>
-1.70515899218526

> <r_i_glide_gscore>
-7.44693375603464

> <r_i_glide_lipo>
-3.5034484655925

> <r_i_glide_hbond>
-0.0922876557796817

> <r_i_glide_metal>
0

> <r_i_glide_rewards>
-1.82591486826702

> <r_i_glide_evdw>
-35.666748046875

> <r_i_glide_ecoul>
-5.07799816131592

> <r_i_glide_erotb>
0.566089554587947

> <r_i_glide_esite>
-0.0463351944422547

> <r_i_glide_emodel>
-50.8096401032065

> <r_i_glide_energy>
-40.7447462081909

> <r_i_glide_einternal>
14.3910522460938

> <i_i_glide_confnum>
8

> <i_i_glide_posenum>
221

> <r_i_glide_eff_state_penalty>
0

> <s_user_duplicate_titles>
CHEMBL267_lig1020

> <i_f3d_flags>
0

> <s_m_subgroup_title>
dock_pv

> <s_m_subgroupid>
dock_pv

> <b_m_subgroup_collapsed>
1

$$$$
CHEMBL267_lig3875
                    3D
 Schrodinger Suite 2021-1.
 45 48  0  0  1  0            999 V2000
    0.2935    6.1410    8.7890 C   0  0  0  0  0  0
    1.0576    5.9732    9.9424 C   0  0  0  0  0  0
    2.3950    6.1918    9.9585 N   0  0  0  0  0  0
    2.9656    6.5855    8.7927 C   0  0  0  0  0  0
    2.2977    6.7972    7.6255 N   0  0  0  0  0  0
    0.9554    6.5635    7.6316 C   0  0  0  0  0  0
    4.3594    6.6928    8.8362 N   0  0  0  0  0  0
    5.3126    7.1501    7.9148 C   0  0  0  0  0  0
    5.0375    8.1317    6.9523 C   0  0  0  0  0  0
    6.0373    8.5789    6.0806 C   0  0  0  0  0  0
    7.3251    8.0301    6.1778 C   0  0  0  0  0  0
    7.6024    7.0537    7.1314 C   0  0  0  0  0  0
    6.5976    6.6095    7.9875 C   0  0  0  0  0  0
    0.2034    6.7065    6.4543 N   0  0  0  0  0  0
    0.5996    7.2883    5.2751 C   0  0  0  0  0  0
    1.4259    8.4044    5.0777 C   0  0  0  0  0  0
    1.4683    8.6363    3.7157 C   0  0  0  0  0  0
    0.6941    7.6345    3.1969 N   0  0  0  0  0  0
    0.1520    6.8340    4.1254 N   0  0  0  0  0  0
    2.1290    9.6883    2.8615 C   0  0  0  0  0  0
    1.2790   10.6417    2.0632 C   0  0  0  0  0  0
    2.0683   11.1414    3.2576 C   0  0  0  0  0  0
    5.6723    9.5310    5.1116 N   0  0  0  0  0  0
    6.4655   10.4359    4.4995 C   0  0  0  0  0  0
    5.8059   11.2698    3.4080 C   0  0  0  0  0  0
    7.6515   10.6324    4.7652 O   0  0  0  0  0  0
   -0.7672    5.9378    8.7965 H   0  0  0  0  0  0
    0.6043    5.6483   10.8683 H   0  0  0  0  0  0
    4.7376    6.3652    9.7127 H   0  0  0  0  0  0
    4.0478    8.5578    6.8921 H   0  0  0  0  0  0
    8.1164    8.3299    5.5064 H   0  0  0  0  0  0
    8.5951    6.6343    7.1837 H   0  0  0  0  0  0
    6.8183    5.8308    8.7058 H   0  0  0  0  0  0
   -0.7526    6.3793    6.5628 H   0  0  0  0  0  0
    1.9090    8.9864    5.8463 H   0  0  0  0  0  0
    0.5086    7.5209    2.2035 H   0  0  0  0  0  0
    3.0512    9.3484    2.3904 H   0  0  0  0  0  0
    1.6043   10.9009    1.0571 H   0  0  0  0  0  0
    0.1947   10.5558    2.1376 H   0  0  0  0  0  0
    1.5414   11.4116    4.1717 H   0  0  0  0  0  0
    2.9355   11.7766    3.0812 H   0  0  0  0  0  0
    4.6892    9.5614    4.8881 H   0  0  0  0  0  0
    5.0196   10.7079    2.9063 H   0  0  0  0  0  0
    6.5418   11.5579    2.6568 H   0  0  0  0  0  0
    5.3782   12.1775    3.8323 H   0  0  0  0  0  0
  1  2  2  0  0  0
  1  6  1  0  0  0
  1 27  1  0  0  0
  2  3  1  0  0  0
  2 28  1  0  0  0
  3  4  2  0  0  0
  4  5  1  0  0  0
  4  7  1  0  0  0
  5  6  2  0  0  0
  6 14  1  0  0  0
  7  8  1  0  0  0
  7 29  1  0  0  0
  8  9  2  0  0  0
  8 13  1  0  0  0
  9 10  1  0  0  0
  9 30  1  0  0  0
 10 11  2  0  0  0
 10 23  1  0  0  0
 11 12  1  0  0  0
 11 31  1  0  0  0
 12 13  2  0  0  0
 12 32  1  0  0  0
 13 33  1  0  0  0
 14 15  1  0  0  0
 14 34  1  0  0  0
 15 16  1  0  0  0
 15 19  2  0  0  0
 16 17  2  0  0  0
 16 35  1  0  0  0
 17 18  1  0  0  0
 17 20  1  0  0  0
 18 19  1  0  0  0
 18 36  1  0  0  0
 20 21  1  0  0  0
 20 22  1  0  0  0
 20 37  1  0  0  0
 21 22  1  0  0  0
 21 38  1  0  0  0
 21 39  1  0  0  0
 22 40  1  0  0  0
 22 41  1  0  0  0
 23 24  1  0  0  0
 23 42  1  0  0  0
 24 25  1  0  0  0
 24 26  2  0  0  0
 25 43  1  0  0  0
 25 44  1  0  0  0
 25 45  1  0  0  0
M  END
> <s_m_entry_id>
32048

> <s_m_entry_name>
dock_pv.311

> <s_m_Source_Path>
/home/csk/Desktop/cluster/DUD-E-result/src

> <s_m_Source_File>
dock_pv.maegz

> <i_m_Source_File_Index>
311

> <chembl_id>
CHEMBL3617730

> <chembl_pref_name>
None

> <i_lp_mmshare_version>
53161

> <r_lp_tautomer_probability>
0.842599732729633

> <s_lp_Force_Field>
OPLS_2005

> <r_lp_Energy>
13.889076

> <b_lp_Chiralities_Consistent>
1

> <s_lp_Variant>
CHEMBL267_lig3875-1

> <s_i_glide_gridfile>
glide-grid_3el8

> <i_i_glide_lignum>
4783

> <i_i_glide_rotatable_bonds>
7

> <r_i_docking_score>
-7.44621644862191

> <r_i_glide_ligand_efficiency>
-0.286392940331612

> <r_i_glide_ligand_efficiency_sa>
-0.848437958830597

> <r_i_glide_ligand_efficiency_ln>
-1.74871949992984

> <r_i_glide_gscore>
-7.44621644862191

> <r_i_glide_lipo>
-2.27386033671928

> <r_i_glide_hbond>
-0.608

> <r_i_glide_metal>
0

> <r_i_glide_rewards>
-2.19510176910155

> <r_i_glide_evdw>
-40.6755828857422

> <r_i_glide_ecoul>
-7.97976589202881

> <r_i_glide_erotb>
0.93623309753545

> <r_i_glide_esite>
-0.0747434122451026

> <r_i_glide_emodel>
-67.547380499557

> <r_i_glide_energy>
-48.655348777771

> <r_i_glide_einternal>
5.30682373046875

> <i_i_glide_confnum>
17

> <i_i_glide_posenum>
280

> <r_i_glide_eff_state_penalty>
0

> <s_user_duplicate_titles>
CHEMBL267_lig3875,CHEMBL267_lig3875

> <i_f3d_flags>
0

> <s_m_subgroup_title>
dock_pv

> <s_m_subgroupid>
dock_pv

> <b_m_subgroup_collapsed>
1

$$$$
CHEMBL267_lig1859
                    3D
 Schrodinger Suite 2021-1.
 44 47  0  0  1  0            999 V2000
    7.7996    7.0191    7.2951 N   0  0  0  0  0  0
    8.1686    7.9768    6.4066 C   0  0  0  0  0  0
    7.3669    8.8568    5.7509 N   0  0  0  0  0  0
    6.4786    6.9363    7.5880 C   0  0  0  0  0  0
    5.5484    7.8291    7.0233 C   0  0  0  0  0  0
    6.0739    8.7450    6.0869 C   0  0  0  0  0  0
    4.9840    9.4498    5.6006 N   0  0  0  0  0  0
    3.8382    9.0366    6.1902 N   0  0  0  0  0  0
    4.1404    8.1024    7.0639 C   0  0  0  0  0  0
    3.1012    7.4829    7.9353 C   0  0  0  0  0  0
    3.3339    7.3433    9.3078 C   0  0  0  0  0  0
    2.3770    6.7546   10.1540 C   0  0  0  0  0  0
    1.1824    6.2790    9.5862 C   0  0  0  0  0  0
    0.9493    6.4113    8.2176 C   0  0  0  0  0  0
    1.8996    7.0149    7.3966 C   0  0  0  0  0  0
    6.0753    5.8721    8.3880 N   0  0  0  0  0  0
    0.1979    5.6922   10.3825 N   0  0  0  0  0  0
    2.5368    6.6371   11.5263 O   0  0  0  0  0  0
    4.9349   10.5255    4.6034 C   0  0  0  0  0  0
    5.7549   11.7640    5.0168 C   0  0  0  0  0  0
    6.3123   12.3121    3.7021 C   0  0  0  0  0  0
    6.6166   11.0563    2.8849 C   0  0  0  0  0  0
    5.4725   10.0885    3.2196 C   0  0  0  0  0  0
    3.7373    7.0976   12.1385 C   0  0  0  0  0  0
    9.2241    8.0389    6.1842 H   0  0  0  0  0  0
    4.2599    7.7250    9.7082 H   0  0  0  0  0  0
    0.0281    6.0495    7.7852 H   0  0  0  0  0  0
    1.7051    7.1094    6.3381 H   0  0  0  0  0  0
    5.0949    5.7557    8.6001 H   0  0  0  0  0  0
    6.7674    5.2237    8.7372 H   0  0  0  0  0  0
    0.3533    5.6626   11.3807 H   0  0  0  0  0  0
   -0.7156    5.4832    9.9977 H   0  0  0  0  0  0
    3.8823   10.7939    4.4833 H   0  0  0  0  0  0
    5.1605   12.5034    5.5550 H   0  0  0  0  0  0
    6.5973   11.4807    5.6503 H   0  0  0  0  0  0
    5.5602   12.9194    3.1946 H   0  0  0  0  0  0
    7.1944   12.9360    3.8524 H   0  0  0  0  0  0
    6.6857   11.2678    1.8165 H   0  0  0  0  0  0
    7.5723   10.6367    3.2013 H   0  0  0  0  0  0
    5.8016    9.0474    3.1892 H   0  0  0  0  0  0
    4.6811   10.1815    2.4726 H   0  0  0  0  0  0
    3.7277    6.8416   13.1970 H   0  0  0  0  0  0
    4.6171    6.6371   11.6992 H   0  0  0  0  0  0
    3.8415    8.1794   12.0554 H   0  0  0  0  0  0
  1  2  2  0  0  0
  1  4  1  0  0  0
  2  3  1  0  0  0
  2 25  1  0  0  0
  3  6  2  0  0  0
  4  5  2  0  0  0
  4 16  1  0  0  0
  5  9  1  0  0  0
  5  6  1  0  0  0
  6  7  1  0  0  0
  7  8  1  0  0  0
  7 19  1  0  0  0
  8  9  2  0  0  0
  9 10  1  0  0  0
 10 15  1  0  0  0
 10 11  2  0  0  0
 11 12  1  0  0  0
 11 26  1  0  0  0
 12 13  2  0  0  0
 12 18  1  0  0  0
 13 14  1  0  0  0
 13 17  1  0  0  0
 14 15  2  0  0  0
 14 27  1  0  0  0
 15 28  1  0  0  0
 16 29  1  0  0  0
 16 30  1  0  0  0
 17 31  1  0  0  0
 17 32  1  0  0  0
 18 24  1  0  0  0
 19 20  1  0  0  0
 19 23  1  0  0  0
 19 33  1  0  0  0
 20 21  1  0  0  0
 20 34  1  0  0  0
 20 35  1  0  0  0
 21 22  1  0  0  0
 21 36  1  0  0  0
 21 37  1  0  0  0
 22 23  1  0  0  0
 22 38  1  0  0  0
 22 39  1  0  0  0
 23 40  1  0  0  0
 23 41  1  0  0  0
 24 42  1  0  0  0
 24 43  1  0  0  0
 24 44  1  0  0  0
M  END
> <s_m_entry_id>
32049

> <s_m_entry_name>
dock_pv.312

> <s_m_Source_Path>
/home/csk/Desktop/cluster/DUD-E-result/src

> <s_m_Source_File>
dock_pv.maegz

> <i_m_Source_File_Index>
312

> <chembl_id>
CHEMBL1241581

> <chembl_pref_name>
None

> <i_lp_mmshare_version>
53161

> <r_lp_tautomer_probability>
1

> <s_lp_Force_Field>
OPLS_2005

> <r_lp_Energy>
36.493632

> <b_lp_Chiralities_Consistent>
1

> <s_lp_Variant>
CHEMBL267_lig1859-1

> <s_i_glide_gridfile>
glide-grid_3el8

> <i_i_glide_lignum>
2127

> <i_i_glide_rotatable_bonds>
3

> <r_i_docking_score>
-7.44417903421615

> <r_i_glide_ligand_efficiency>
-0.310174126425673

> <r_i_glide_ligand_efficiency_sa>
-0.894697000168007

> <r_i_glide_ligand_efficiency_ln>
-1.78173363400543

> <r_i_glide_gscore>
-7.44417903421615

> <r_i_glide_lipo>
-2.14073262960121

> <r_i_glide_hbond>
-0.0684252099895056

> <r_i_glide_metal>
0

> <r_i_glide_rewards>
-2.77431450535626

> <r_i_glide_evdw>
-39.8657531738281

> <r_i_glide_ecoul>
-4.77721691131592

> <r_i_glide_erotb>
0.249163506119612

> <r_i_glide_esite>
0

> <r_i_glide_emodel>
-62.9154092969052

> <r_i_glide_energy>
-44.642970085144

> <r_i_glide_einternal>
2.28435516357422

> <i_i_glide_confnum>
29

> <i_i_glide_posenum>
363

> <r_i_glide_eff_state_penalty>
0

> <s_user_duplicate_titles>
CHEMBL267_lig1859

> <i_f3d_flags>
0

> <s_m_subgroup_title>
dock_pv

> <s_m_subgroupid>
dock_pv

> <b_m_subgroup_collapsed>
1

$$$$
CHEMBL267_lig694
                    3D
 Schrodinger Suite 2021-1.
 48 50  0  0  1  0            999 V2000
    3.1354    7.8073    7.7661 C   0  0  0  0  0  0
    4.1764    8.3136    7.0513 N   0  0  0  0  0  0
    6.3924    8.3233    6.4542 N   0  0  0  0  0  0
    5.3966    7.7504    7.1775 C   0  0  0  0  0  0
    1.8566    8.3980    7.6787 N   0  0  0  0  0  0
    3.2790    6.7130    8.6385 C   0  0  0  0  0  0
    1.3625    9.3670    6.8806 C   0  0  0  0  0  0
    5.6104    6.6104    7.9958 C   0  0  0  0  0  0
    7.6002    7.7295    6.5468 C   0  0  0  0  0  0
    4.5279    6.0965    8.7351 C   0  0  0  0  0  0
    2.1556    6.2095    9.4731 C   0  0  0  0  0  0
    7.9243    6.6370    7.2739 N   0  0  0  0  0  0
    2.1945    9.8898    5.9574 N   0  0  0  0  0  0
    6.9173    6.0855    7.9880 C   0  0  0  0  0  0
    0.1981    9.7221    7.0296 O   0  0  0  0  0  0
    2.1153    6.4315   10.8630 C   0  0  0  0  0  0
    1.9028   10.6885    4.7627 C   0  0  0  0  0  0
    8.5979    8.2801    5.7769 N   0  0  0  0  0  0
    1.0876    5.5479    8.8546 C   0  0  0  0  0  0
    3.2549    7.1452   11.5882 C   0  0  0  0  0  0
    1.0997    9.8516    3.7426 C   0  0  0  0  0  0
    3.2578   11.0569    4.1229 C   0  0  0  0  0  0
    1.1645   12.0019    5.1152 C   0  0  0  0  0  0
    0.9986    6.0133   11.5967 C   0  0  0  0  0  0
   -0.0117    5.1204    9.5951 C   0  0  0  0  0  0
   -0.0550    5.3561   10.9666 C   0  0  0  0  0  0
    1.1935    7.9932    8.3213 H   0  0  0  0  0  0
    4.6717    5.2354    9.3688 H   0  0  0  0  0  0
    3.1597    9.6039    6.0453 H   0  0  0  0  0  0
    7.1524    5.2064    8.5712 H   0  0  0  0  0  0
    8.3349    9.0251    5.1540 H   0  0  0  0  0  0
    9.4057    7.6894    5.5880 H   0  0  0  0  0  0
    1.1022    5.3753    7.7881 H   0  0  0  0  0  0
    3.0771    7.2276   12.6623 H   0  0  0  0  0  0
    4.2052    6.6370   11.4535 H   0  0  0  0  0  0
    3.3980    8.1441   11.1771 H   0  0  0  0  0  0
    0.1978    9.4364    4.1855 H   0  0  0  0  0  0
    0.8026   10.4434    2.8757 H   0  0  0  0  0  0
    1.6801    9.0042    3.3740 H   0  0  0  0  0  0
    3.8760   11.6486    4.7990 H   0  0  0  0  0  0
    3.8321   10.1681    3.8550 H   0  0  0  0  0  0
    3.1243   11.6406    3.2116 H   0  0  0  0  0  0
    1.7464   12.6114    5.8073 H   0  0  0  0  0  0
    0.9812   12.6053    4.2263 H   0  0  0  0  0  0
    0.1984   11.8240    5.5857 H   0  0  0  0  0  0
    0.9466    6.1919   12.6612 H   0  0  0  0  0  0
   -0.8397    4.6249    9.1081 H   0  0  0  0  0  0
   -0.9163    5.0392   11.5380 H   0  0  0  0  0  0
  1  2  2  0  0  0
  1  5  1  0  0  0
  1  6  1  0  0  0
  2  4  1  0  0  0
  3  4  2  0  0  0
  3  9  1  0  0  0
  4  8  1  0  0  0
  5  7  1  0  0  0
  5 27  1  0  0  0
  6 10  2  0  0  0
  6 11  1  0  0  0
  7 13  1  0  0  0
  7 15  2  0  0  0
  8 10  1  0  0  0
  8 14  2  0  0  0
  9 18  1  0  0  0
  9 12  2  0  0  0
 10 28  1  0  0  0
 11 16  1  0  0  0
 11 19  2  0  0  0
 12 14  1  0  0  0
 13 17  1  0  0  0
 13 29  1  0  0  0
 14 30  1  0  0  0
 16 20  1  0  0  0
 16 24  2  0  0  0
 17 21  1  0  0  0
 17 22  1  0  0  0
 17 23  1  0  0  0
 18 31  1  0  0  0
 18 32  1  0  0  0
 19 25  1  0  0  0
 19 33  1  0  0  0
 20 34  1  0  0  0
 20 35  1  0  0  0
 20 36  1  0  0  0
 21 37  1  0  0  0
 21 38  1  0  0  0
 21 39  1  0  0  0
 22 40  1  0  0  0
 22 41  1  0  0  0
 22 42  1  0  0  0
 23 43  1  0  0  0
 23 44  1  0  0  0
 23 45  1  0  0  0
 24 26  1  0  0  0
 24 46  1  0  0  0
 25 26  2  0  0  0
 25 47  1  0  0  0
 26 48  1  0  0  0
M  END
> <s_m_entry_id>
32050

> <s_m_entry_name>
dock_pv.313

> <s_m_Source_Path>
/home/csk/Desktop/cluster/DUD-E-result/src

> <s_m_Source_File>
dock_pv.maegz

> <i_m_Source_File_Index>
313

> <chembl_id>
CHEMBL78393

> <chembl_pref_name>
None

> <i_lp_mmshare_version>
53161

> <r_lp_tautomer_probability>
1

> <s_lp_Force_Field>
OPLS_2005

> <r_lp_Energy>
18.180844

> <b_lp_Chiralities_Consistent>
1

> <s_lp_Variant>
CHEMBL267_lig694-1

> <s_i_glide_gridfile>
glide-grid_3el8

> <i_i_glide_lignum>
813

> <i_i_glide_rotatable_bonds>
5

> <r_i_docking_score>
-7.44256729172627

> <r_i_glide_ligand_efficiency>
-0.286252588143318

> <r_i_glide_ligand_efficiency_sa>
-0.848022166025035

> <r_i_glide_ligand_efficiency_ln>
-1.74786250740676

> <r_i_glide_gscore>
-7.44256729172627

> <r_i_glide_lipo>
-2.11116112046295

> <r_i_glide_hbond>
-0.596821751074638

> <r_i_glide_metal>
0

> <r_i_glide_rewards>
-2.20350562065586

> <r_i_glide_evdw>
-37.0333213806152

> <r_i_glide_ecoul>
-7.42697286605835

> <r_i_glide_erotb>
0.434633199406692

> <r_i_glide_esite>
0

> <r_i_glide_emodel>
-60.9092031642456

> <r_i_glide_energy>
-44.4602942466736

> <r_i_glide_einternal>
1.8179829120636

> <i_i_glide_confnum>
7

> <i_i_glide_posenum>
249

> <r_i_glide_eff_state_penalty>
0

> <s_user_duplicate_titles>
CHEMBL267_lig694,127708

> <i_f3d_flags>
0

> <s_m_subgroup_title>
dock_pv

> <s_m_subgroupid>
dock_pv

> <b_m_subgroup_collapsed>
1

$$$$
CHEMBL267_lig2752
                    3D
 Schrodinger Suite 2021-1.
 57 61  0  0  1  0            999 V2000
    2.4956   10.4900    5.2502 C   0  0  0  0  0  0
    2.0235    9.1708    5.3132 C   0  0  0  0  0  0
    1.2158    8.6779    4.2802 C   0  0  0  0  0  0
    0.8701    9.4360    3.1647 C   0  0  0  0  0  0
    2.3745    8.2695    6.4489 C   0  0  0  0  0  0
    3.6933    8.0006    6.9183 C   0  0  0  0  0  0
    3.8799    7.1774    7.9874 N   0  0  0  0  0  0
    2.8361    6.5843    8.5919 C   0  0  0  0  0  0
    1.5247    6.7343    8.1469 C   0  0  0  0  0  0
    1.3103    7.6034    7.0815 C   0  0  0  0  0  0
    0.4259    6.0602    8.6985 N   0  0  0  0  0  0
    0.6084    4.9974    9.6871 C   0  0  1  0  0  0
    0.3233    5.4755   11.1296 C   0  0  0  0  0  0
   -0.1793    3.7724    9.2351 C   0  0  0  0  0  0
    1.3747    6.2896   11.6216 O   0  0  0  0  0  0
    2.2189   11.2642    4.1106 C   0  0  0  0  0  0
    1.4003   10.7229    3.0917 C   0  0  0  0  0  0
    1.3036   11.7096    2.1354 N   0  0  0  0  0  0
    2.0163   12.7990    2.4679 N   0  0  0  0  0  0
    2.5832   12.5613    3.6251 C   0  0  0  0  0  0
    3.5042   13.5862    4.2407 C   0  0  0  0  0  0
   -1.5757    3.7672    9.2540 C   0  0  0  0  0  0
   -2.2738    2.6466    8.8172 C   0  0  0  0  0  0
   -1.5780    1.5204    8.3881 C   0  0  0  0  0  0
   -0.1882    1.5058    8.3880 C   0  0  0  0  0  0
    0.5116    2.6396    8.7881 C   0  0  0  0  0  0
    4.9960    8.5162    6.3274 C   0  0  0  0  0  0
    5.0783    8.9042    4.9765 C   0  0  0  0  0  0
    6.2382    9.4384    4.4230 C   0  0  0  0  0  0
    7.3946    9.5142    5.1880 C   0  0  0  0  0  0
    7.3837    9.0363    6.4854 C   0  0  0  0  0  0
    6.2068    8.5881    7.0669 C   0  0  0  0  0  0
    6.3096    8.2374    8.3865 O   0  0  0  0  0  0
    8.5289   10.0388    4.6746 F   0  0  0  0  0  0
    3.1224   10.8836    6.0365 H   0  0  0  0  0  0
    0.8460    7.6631    4.3319 H   0  0  0  0  0  0
    0.2409    9.0281    2.3879 H   0  0  0  0  0  0
    3.1091    5.9748    9.4376 H   0  0  0  0  0  0
    0.2993    7.7584    6.7320 H   0  0  0  0  0  0
   -0.3459    5.8903    8.0602 H   0  0  0  0  0  0
    1.6348    4.6376    9.6946 H   0  0  0  0  0  0
   -0.6019    6.0509   11.1696 H   0  0  0  0  0  0
    0.2001    4.6370   11.8042 H   0  0  0  0  0  0
    2.1431    5.7399   11.7973 H   0  0  0  0  0  0
    0.8007   11.6757    1.2603 H   0  0  0  0  0  0
    3.9158   13.2430    5.1882 H   0  0  0  0  0  0
    4.3549   13.7997    3.5925 H   0  0  0  0  0  0
    2.9927   14.5324    4.4172 H   0  0  0  0  0  0
   -2.1218    4.6370    9.5858 H   0  0  0  0  0  0
   -3.3548    2.6477    8.8079 H   0  0  0  0  0  0
   -2.1290    0.6539    8.0511 H   0  0  0  0  0  0
    0.3419    0.6223    8.0630 H   0  0  0  0  0  0
    1.5909    2.6277    8.7677 H   0  0  0  0  0  0
    4.2412    8.7939    4.3091 H   0  0  0  0  0  0
    6.2465    9.7697    3.3954 H   0  0  0  0  0  0
    8.2907    9.0369    7.0655 H   0  0  0  0  0  0
    5.4797    7.8699    8.7052 H   0  0  0  0  0  0
  1 16  1  0  0  0
  1  2  2  0  0  0
  1 35  1  0  0  0
  2  3  1  0  0  0
  2  5  1  0  0  0
  3  4  2  0  0  0
  3 36  1  0  0  0
  4 17  1  0  0  0
  4 37  1  0  0  0
  5  6  2  0  0  0
  5 10  1  0  0  0
  6  7  1  0  0  0
  6 27  1  0  0  0
  7  8  2  0  0  0
  8  9  1  0  0  0
  8 38  1  0  0  0
  9 10  2  0  0  0
  9 11  1  0  0  0
 10 39  1  0  0  0
 11 12  1  0  0  0
 11 40  1  0  0  0
 12 13  1  0  0  0
 12 14  1  0  0  0
 12 41  1  0  0  0
 13 15  1  0  0  0
 13 42  1  0  0  0
 13 43  1  0  0  0
 14 22  2  0  0  0
 14 26  1  0  0  0
 15 44  1  0  0  0
 16 17  2  0  0  0
 16 20  1  0  0  0
 17 18  1  0  0  0
 18 19  1  0  0  0
 18 45  1  0  0  0
 19 20  2  0  0  0
 20 21  1  0  0  0
 21 46  1  0  0  0
 21 47  1  0  0  0
 21 48  1  0  0  0
 22 23  1  0  0  0
 22 49  1  0  0  0
 23 24  2  0  0  0
 23 50  1  0  0  0
 24 25  1  0  0  0
 24 51  1  0  0  0
 25 26  2  0  0  0
 25 52  1  0  0  0
 26 53  1  0  0  0
 27 28  2  0  0  0
 27 32  1  0  0  0
 28 29  1  0  0  0
 28 54  1  0  0  0
 29 30  2  0  0  0
 29 55  1  0  0  0
 30 31  1  0  0  0
 30 34  1  0  0  0
 31 32  2  0  0  0
 31 56  1  0  0  0
 32 33  1  0  0  0
 33 57  1  0  0  0
M  END
> <s_m_entry_id>
32051

> <s_m_entry_name>
dock_pv.314

> <s_m_Source_Path>
/home/csk/Desktop/cluster/DUD-E-result/src

> <s_m_Source_File>
dock_pv.maegz

> <i_m_Source_File_Index>
314

> <chembl_id>
CHEMBL4075917

> <chembl_pref_name>
None

> <i_lp_mmshare_version>
53161

> <r_lp_tautomer_probability>
0.980392156860161

> <s_lp_Force_Field>
OPLS_2005

> <r_lp_Energy>
34.46931

> <b_lp_Chiralities_Consistent>
1

> <s_lp_Variant>
CHEMBL267_lig2752-1

> <s_i_glide_gridfile>
glide-grid_3el8

> <i_i_glide_lignum>
3118

> <i_i_glide_rotatable_bonds>
8

> <r_i_docking_score>
-7.43576594024792

> <r_i_glide_ligand_efficiency>
-0.218698998242586

> <r_i_glide_ligand_efficiency_sa>
-0.708499854801437

> <r_i_glide_ligand_efficiency_ln>
-1.64276926237078

> <r_i_glide_gscore>
-7.43576594024792

> <r_i_glide_lipo>
-4.17353874562928

> <r_i_glide_hbond>
-0.294232875882716

> <r_i_glide_metal>
0

> <r_i_glide_rewards>
-0.517977675507291

> <r_i_glide_evdw>
-41.7377090454102

> <r_i_glide_ecoul>
-6.30952072143555

> <r_i_glide_erotb>
0.583296917257204

> <r_i_glide_esite>
0

> <r_i_glide_emodel>
-61.3346435018739

> <r_i_glide_energy>
-48.0472297668457

> <r_i_glide_einternal>
16.0782680511475

> <i_i_glide_confnum>
6

> <i_i_glide_posenum>
158

> <r_i_glide_eff_state_penalty>
0

> <s_user_duplicate_titles>
CHEMBL267_lig2752

> <i_f3d_flags>
0

> <s_m_subgroup_title>
dock_pv

> <s_m_subgroupid>
dock_pv

> <b_m_subgroup_collapsed>
1

$$$$
CHEMBL267_lig3650
                    3D
 Schrodinger Suite 2021-1.
 34 36  0  0  1  0            999 V2000
   -0.3323   -0.6407    7.8735 Cl  0  0  0  0  0  0
   -3.3677   -0.2002    8.8048 Cl  0  0  0  0  0  0
    2.9104    9.0361    6.7066 O   0  0  0  0  0  0
   -0.3618    8.3436    6.7658 O   0  0  0  0  0  0
    3.4786    6.3407    8.6766 N   0  0  0  0  0  0
    0.2029    5.5693    8.3522 N   0  0  0  0  0  0
    7.5480    6.6715    7.5880 N   0  0  0  0  0  0
    2.3624    6.9266    8.0886 C   0  0  0  0  0  0
    1.0391    6.5968    7.9864 C   0  0  0  0  0  0
    2.2007    8.1650    7.2052 C   0  0  0  0  0  0
    0.6680    7.8333    7.2011 C   0  0  0  0  0  0
    4.8403    6.5066    8.3625 C   0  0  0  0  0  0
    0.6283    4.3374    8.9854 C   0  0  0  0  0  0
   -0.4211    3.2456    8.8378 C   0  0  0  0  0  0
   -0.0218    1.9862    8.3904 C   0  0  0  0  0  0
   -0.9065    0.9088    8.3871 C   0  0  0  0  0  0
   -1.7515    3.4384    9.2228 C   0  0  0  0  0  0
    5.6663    5.3789    8.3881 C   0  0  0  0  0  0
    5.4114    7.7290    7.9878 C   0  0  0  0  0  0
   -2.2316    1.1055    8.7880 C   0  0  0  0  0  0
   -2.6541    2.3764    9.1880 C   0  0  0  0  0  0
    6.9981    5.4986    7.9880 C   0  0  0  0  0  0
    6.7515    7.7692    7.5941 C   0  0  0  0  0  0
    3.3245    5.5056    9.2244 H   0  0  0  0  0  0
   -0.7739    5.5767    8.0514 H   0  0  0  0  0  0
    0.8141    4.5163   10.0454 H   0  0  0  0  0  0
    1.5713    4.0122    8.5423 H   0  0  0  0  0  0
    0.9980    1.8370    8.0931 H   0  0  0  0  0  0
   -2.0836    4.4051    9.5736 H   0  0  0  0  0  0
    5.2864    4.4141    8.6880 H   0  0  0  0  0  0
    4.8415    8.6370    8.0100 H   0  0  0  0  0  0
   -3.6805    2.5336    9.4857 H   0  0  0  0  0  0
    7.6467    4.6369    7.9885 H   0  0  0  0  0  0
    7.2114    8.6994    7.2925 H   0  0  0  0  0  0
  1 16  1  0  0  0
  2 20  1  0  0  0
  3 10  2  0  0  0
  4 11  2  0  0  0
  5  8  1  0  0  0
  5 12  1  0  0  0
  5 24  1  0  0  0
  6  9  1  0  0  0
  6 13  1  0  0  0
  6 25  1  0  0  0
  7 22  2  0  0  0
  7 23  1  0  0  0
  8  9  2  0  0  0
  8 10  1  0  0  0
  9 11  1  0  0  0
 10 11  1  0  0  0
 12 18  2  0  0  0
 12 19  1  0  0  0
 13 14  1  0  0  0
 13 26  1  0  0  0
 13 27  1  0  0  0
 14 15  1  0  0  0
 14 17  2  0  0  0
 15 16  2  0  0  0
 15 28  1  0  0  0
 16 20  1  0  0  0
 17 21  1  0  0  0
 17 29  1  0  0  0
 18 22  1  0  0  0
 18 30  1  0  0  0
 19 23  2  0  0  0
 19 31  1  0  0  0
 20 21  2  0  0  0
 21 32  1  0  0  0
 22 33  1  0  0  0
 23 34  1  0  0  0
M  END
> <s_m_entry_id>
32052

> <s_m_entry_name>
dock_pv.315

> <s_m_Source_Path>
/home/csk/Desktop/cluster/DUD-E-result/src

> <s_m_Source_File>
dock_pv.maegz

> <i_m_Source_File_Index>
315

> <chembl_id>
CHEMBL1975900

> <chembl_pref_name>
None

> <i_lp_mmshare_version>
53161

> <r_lp_tautomer_probability>
1

> <s_lp_Force_Field>
OPLS_2005

> <r_lp_Energy>
51.802746

> <b_lp_Chiralities_Consistent>
1

> <s_lp_Variant>
CHEMBL267_lig3650-1

> <s_i_glide_gridfile>
glide-grid_3el8

> <i_i_glide_lignum>
4420

> <i_i_glide_rotatable_bonds>
5

> <r_i_docking_score>
-7.43390012711924

> <r_i_glide_ligand_efficiency>
-0.323213049005184

> <r_i_glide_ligand_efficiency_sa>
-0.9191749165623

> <r_i_glide_ligand_efficiency_ln>
-1.797584457617

> <r_i_glide_gscore>
-7.43390012711924

> <r_i_glide_lipo>
-3.49341152123924

> <r_i_glide_hbond>
-0.452189325115716

> <r_i_glide_metal>
0

> <r_i_glide_rewards>
-1.65267083589253

> <r_i_glide_evdw>
-37.544979095459

> <r_i_glide_ecoul>
-4.81221008300781

> <r_i_glide_erotb>
0.785006948783365

> <r_i_glide_esite>
-0.0215549264309915

> <r_i_glide_emodel>
-58.2326014806154

> <r_i_glide_energy>
-42.3571891784668

> <r_i_glide_einternal>
4.47641754150391

> <i_i_glide_confnum>
10

> <i_i_glide_posenum>
326

> <r_i_glide_eff_state_penalty>
0

> <s_user_duplicate_titles>
CHEMBL267_lig3650

> <i_f3d_flags>
0

> <s_m_subgroup_title>
dock_pv

> <s_m_subgroupid>
dock_pv

> <b_m_subgroup_collapsed>
1

$$$$
CHEMBL267_lig3731
                    3D
 Schrodinger Suite 2021-1.
 27 29  0  0  1  0            999 V2000
    5.4038    9.0443    5.5161 C   0  0  0  0  0  0
    6.8858    9.4533    5.7459 C   0  0  0  0  0  0
    7.7049    8.2994    6.1804 N   0  0  0  0  0  0
    7.3555    7.4127    7.1459 C   0  0  0  0  0  0
    5.0101    8.1443    6.6629 C   0  0  0  0  0  0
    5.9333    7.4590    7.4423 C   0  0  0  0  0  0
    5.1642    6.7557    8.3879 C   0  0  0  0  0  0
    3.8204    7.0981    8.2566 C   0  0  0  0  0  0
    3.7567    7.9610    7.1895 N   0  0  0  0  0  0
    2.6374    6.6676    9.0463 C   0  0  0  0  0  0
    2.7078    6.6532   10.4432 C   0  0  0  0  0  0
    1.5905    6.2382   11.1703 C   0  0  0  0  0  0
    0.4387    5.8315   10.5829 N   0  0  0  0  0  0
    0.3874    5.8374    9.2272 C   0  0  0  0  0  0
    1.4509    6.2560    8.4248 C   0  0  0  0  0  0
    8.1978    6.6370    7.5879 O   0  0  0  0  0  0
    4.7692    9.9273    5.4353 H   0  0  0  0  0  0
    5.3120    8.5138    4.5678 H   0  0  0  0  0  0
    6.9475   10.2311    6.5086 H   0  0  0  0  0  0
    7.3099    9.8758    4.8328 H   0  0  0  0  0  0
    8.6230    8.1671    5.7798 H   0  0  0  0  0  0
    5.5459    6.0526    9.1100 H   0  0  0  0  0  0
    2.9104    8.3855    6.8373 H   0  0  0  0  0  0
    3.6069    6.9596   10.9585 H   0  0  0  0  0  0
    1.6030    6.2374   12.2514 H   0  0  0  0  0  0
   -0.5352    5.4896    8.7904 H   0  0  0  0  0  0
    1.3644    6.2337    7.3487 H   0  0  0  0  0  0
  1  5  1  0  0  0
  1  2  1  0  0  0
  1 17  1  0  0  0
  1 18  1  0  0  0
  2  3  1  0  0  0
  2 19  1  0  0  0
  2 20  1  0  0  0
  3  4  1  0  0  0
  3 21  1  0  0  0
  4  6  1  0  0  0
  4 16  2  0  0  0
  5  9  1  0  0  0
  5  6  2  0  0  0
  6  7  1  0  0  0
  7  8  2  0  0  0
  7 22  1  0  0  0
  8  9  1  0  0  0
  8 10  1  0  0  0
  9 23  1  0  0  0
 10 11  2  0  0  0
 10 15  1  0  0  0
 11 12  1  0  0  0
 11 24  1  0  0  0
 12 13  2  0  0  0
 12 25  1  0  0  0
 13 14  1  0  0  0
 14 15  2  0  0  0
 14 26  1  0  0  0
 15 27  1  0  0  0
M  END
> <s_m_entry_id>
32054

> <s_m_entry_name>
dock_pv.317

> <s_m_Source_Path>
/home/csk/Desktop/cluster/DUD-E-result/src

> <s_m_Source_File>
dock_pv.maegz

> <i_m_Source_File_Index>
317

> <chembl_id>
CHEMBL225519

> <chembl_pref_name>
None

> <i_lp_mmshare_version>
53161

> <r_lp_tautomer_probability>
1

> <s_lp_Force_Field>
OPLS_2005

> <r_lp_Energy>
13.581071

> <b_lp_Chiralities_Consistent>
1

> <s_lp_Variant>
CHEMBL267_lig3731-1

> <s_i_glide_gridfile>
glide-grid_3el8

> <i_i_glide_lignum>
4551

> <i_i_glide_rotatable_bonds>
1

> <r_i_docking_score>
-7.43140184532272

> <r_i_glide_ligand_efficiency>
-0.46446261533267

> <r_i_glide_ligand_efficiency_sa>
-1.17037245081206

> <r_i_glide_ligand_efficiency_ln>
-1.9698415047243

> <r_i_glide_gscore>
-7.43140184532272

> <r_i_glide_lipo>
-1.97251548140088

> <r_i_glide_hbond>
-0.32

> <r_i_glide_metal>
0

> <r_i_glide_rewards>
-3.29596486366306

> <r_i_glide_evdw>
-30.0567302703857

> <r_i_glide_ecoul>
-4.71260690689087

> <r_i_glide_erotb>
0.366806049294127

> <r_i_glide_esite>
0

> <r_i_glide_emodel>
-49.117894516713

> <r_i_glide_energy>
-34.7693371772766

> <r_i_glide_einternal>
1.92266488075256

> <i_i_glide_confnum>
1

> <i_i_glide_posenum>
206

> <r_i_glide_eff_state_penalty>
0

> <s_user_duplicate_titles>
CHEMBL267_lig3731

> <i_f3d_flags>
0

> <s_m_subgroup_title>
dock_pv

> <s_m_subgroupid>
dock_pv

> <b_m_subgroup_collapsed>
1

$$$$
CHEMBL267_lig3186
                    3D
 Schrodinger Suite 2021-1.
 27 29  0  0  1  0            999 V2000
    0.1778    5.0379   10.5647 Br  0  0  0  0  0  0
    7.9475    7.6975    6.7733 N   0  0  0  0  0  0
    7.8014    6.6378    7.5861 N   0  0  0  0  0  0
    6.0265    5.4370    8.5026 N   0  0  0  0  0  0
    5.7638    7.5698    7.2190 C   0  0  0  0  0  0
    4.4069    7.9704    7.1631 C   0  0  0  0  0  0
    6.7389    8.2971    6.4853 C   0  0  0  0  0  0
    6.5263    6.5125    7.8247 C   0  0  0  0  0  0
    3.3588    7.3058    7.9799 C   0  0  0  0  0  0
    4.0864    9.0348    6.3129 C   0  0  0  0  0  0
    6.4104    9.3795    5.6656 C   0  0  0  0  0  0
    5.0601    9.7159    5.5854 C   0  0  0  0  0  0
    2.1827    6.8291    7.3887 C   0  0  0  0  0  0
    3.5443    7.1480    9.3578 C   0  0  0  0  0  0
    1.4467    5.9889    9.5209 C   0  0  0  0  0  0
    1.2252    6.1701    8.1568 C   0  0  0  0  0  0
    2.5959    6.4824   10.1280 C   0  0  0  0  0  0
    8.8608    7.9422    6.4161 H   0  0  0  0  0  0
    5.0716    5.4245    8.8367 H   0  0  0  0  0  0
    6.6361    4.7127    8.8636 H   0  0  0  0  0  0
    3.0602    9.3639    6.2338 H   0  0  0  0  0  0
    7.1583    9.9225    5.1045 H   0  0  0  0  0  0
    4.7609   10.5396    4.9532 H   0  0  0  0  0  0
    2.0211    6.9483    6.3278 H   0  0  0  0  0  0
    4.4408    7.5185    9.8318 H   0  0  0  0  0  0
    0.3232    5.7903    7.6967 H   0  0  0  0  0  0
    2.7640    6.3335   11.1868 H   0  0  0  0  0  0
  1 15  1  0  0  0
  2  3  1  0  0  0
  2  7  1  0  0  0
  2 18  1  0  0  0
  3  8  2  0  0  0
  4  8  1  0  0  0
  4 19  1  0  0  0
  4 20  1  0  0  0
  5  6  2  0  0  0
  5  7  1  0  0  0
  5  8  1  0  0  0
  6  9  1  0  0  0
  6 10  1  0  0  0
  7 11  2  0  0  0
  9 13  2  0  0  0
  9 14  1  0  0  0
 10 12  2  0  0  0
 10 21  1  0  0  0
 11 12  1  0  0  0
 11 22  1  0  0  0
 12 23  1  0  0  0
 13 16  1  0  0  0
 13 24  1  0  0  0
 14 17  2  0  0  0
 14 25  1  0  0  0
 15 16  2  0  0  0
 15 17  1  0  0  0
 16 26  1  0  0  0
 17 27  1  0  0  0
M  END
> <s_m_entry_id>
32055

> <s_m_entry_name>
dock_pv.318

> <s_m_Source_Path>
/home/csk/Desktop/cluster/DUD-E-result/src

> <s_m_Source_File>
dock_pv.maegz

> <i_m_Source_File_Index>
318

> <chembl_id>
CHEMBL1990346

> <chembl_pref_name>
None

> <i_lp_mmshare_version>
53161

> <r_lp_tautomer_probability>
1

> <s_lp_Force_Field>
OPLS_2005

> <r_lp_Energy>
14.233839

> <b_lp_Chiralities_Consistent>
1

> <s_lp_Variant>
CHEMBL267_lig3186-1

> <s_i_glide_gridfile>
glide-grid_3el8

> <i_i_glide_lignum>
3715

> <i_i_glide_rotatable_bonds>
1

> <r_i_docking_score>
-7.42957636310086

> <r_i_glide_ligand_efficiency>
-0.437033903711815

> <r_i_glide_ligand_efficiency_sa>
-1.12373723004643

> <r_i_glide_ligand_efficiency_ln>
-1.9382110246019

> <r_i_glide_gscore>
-7.42957636310086

> <r_i_glide_lipo>
-2.54057207638101

> <r_i_glide_hbond>
-0.532498827262089

> <r_i_glide_metal>
0

> <r_i_glide_rewards>
-2.39781560606061

> <r_i_glide_evdw>
-29.8829574584961

> <r_i_glide_ecoul>
-4.1192364692688

> <r_i_glide_erotb>
0.153343489917966

> <r_i_glide_esite>
0

> <r_i_glide_emodel>
-48.8066741442022

> <r_i_glide_energy>
-34.0021939277649

> <r_i_glide_einternal>
0.0446196421980858

> <i_i_glide_confnum>
2

> <i_i_glide_posenum>
15

> <r_i_glide_eff_state_penalty>
0

> <s_user_duplicate_titles>
CHEMBL267_lig3186

> <i_f3d_flags>
0

> <s_m_subgroup_title>
dock_pv

> <s_m_subgroupid>
dock_pv

> <b_m_subgroup_collapsed>
1

$$$$
CHEMBL267_lig702
                    3D
 Schrodinger Suite 2021-1.
 45 47  0  0  1  0            999 V2000
    3.1146    7.8458    7.7883 C   0  0  0  0  0  0
    3.2502    6.7656    8.6828 C   0  0  0  0  0  0
    4.1573    8.3363    7.0631 N   0  0  0  0  0  0
    6.3749    8.3294    6.4519 N   0  0  0  0  0  0
    5.3752    7.7684    7.1856 C   0  0  0  0  0  0
    1.8427    8.4453    7.6896 N   0  0  0  0  0  0
    2.1138    6.2648    9.5170 C   0  0  0  0  0  0
    1.3574    9.4076    6.8798 C   0  0  0  0  0  0
    5.5827    6.6367    8.0154 C   0  0  0  0  0  0
    4.5012    6.1518    8.7845 C   0  0  0  0  0  0
    7.5816    7.7298    6.5454 C   0  0  0  0  0  0
    7.8938    6.6369    7.2733 N   0  0  0  0  0  0
    2.1898    9.9102    5.9457 N   0  0  0  0  0  0
    6.8821    6.0937    7.9880 C   0  0  0  0  0  0
    1.0120    5.6342    8.9209 C   0  0  0  0  0  0
    2.1023    6.4532   10.9074 C   0  0  0  0  0  0
    0.1980    9.7772    7.0307 O   0  0  0  0  0  0
    1.8975   10.7042    4.7479 C   0  0  0  0  0  0
    8.5980    8.2709    5.7884 N   0  0  0  0  0  0
    0.9853    5.4374    7.5865 F   0  0  0  0  0  0
    3.1540    7.0370   11.5272 F   0  0  0  0  0  0
   -0.0856    5.4371   11.0603 C   0  0  0  0  0  0
   -0.0758    5.2186    9.6857 C   0  0  0  0  0  0
    0.9980    6.0618   11.6689 C   0  0  0  0  0  0
    1.0914    9.8625    3.7330 C   0  0  0  0  0  0
    3.2511   11.0722    4.1046 C   0  0  0  0  0  0
    1.1618   12.0213    5.0937 C   0  0  0  0  0  0
    1.1723    8.0521    8.3294 H   0  0  0  0  0  0
    4.6470    5.3090    9.4414 H   0  0  0  0  0  0
    3.1534    9.6156    6.0290 H   0  0  0  0  0  0
    7.1124    5.2176    8.5786 H   0  0  0  0  0  0
    8.3448    9.0177    5.1628 H   0  0  0  0  0  0
    9.3888    7.6623    5.5881 H   0  0  0  0  0  0
   -0.9416    5.1358   11.6472 H   0  0  0  0  0  0
   -0.9260    4.7508    9.2084 H   0  0  0  0  0  0
    0.9927    6.2340   12.7351 H   0  0  0  0  0  0
    0.1979    9.4369    4.1843 H   0  0  0  0  0  0
    0.7786   10.4536    2.8712 H   0  0  0  0  0  0
    1.6758    9.0222    3.3538 H   0  0  0  0  0  0
    3.8704   11.6649    4.7798 H   0  0  0  0  0  0
    3.8265   10.1846    3.8354 H   0  0  0  0  0  0
    3.1163   11.6566    3.1929 H   0  0  0  0  0  0
    1.7465   12.6330    5.7819 H   0  0  0  0  0  0
    0.9740   12.6214    4.2019 H   0  0  0  0  0  0
    0.1980   11.8449    5.5679 H   0  0  0  0  0  0
  1  2  1  0  0  0
  1  3  2  0  0  0
  1  6  1  0  0  0
  2  7  1  0  0  0
  2 10  2  0  0  0
  3  5  1  0  0  0
  4  5  2  0  0  0
  4 11  1  0  0  0
  5  9  1  0  0  0
  6  8  1  0  0  0
  6 28  1  0  0  0
  7 15  1  0  0  0
  7 16  2  0  0  0
  8 13  1  0  0  0
  8 17  2  0  0  0
  9 14  2  0  0  0
  9 10  1  0  0  0
 10 29  1  0  0  0
 11 19  1  0  0  0
 11 12  2  0  0  0
 12 14  1  0  0  0
 13 18  1  0  0  0
 13 30  1  0  0  0
 14 31  1  0  0  0
 15 20  1  0  0  0
 15 23  2  0  0  0
 16 21  1  0  0  0
 16 24  1  0  0  0
 18 25  1  0  0  0
 18 26  1  0  0  0
 18 27  1  0  0  0
 19 32  1  0  0  0
 19 33  1  0  0  0
 22 24  2  0  0  0
 22 23  1  0  0  0
 22 34  1  0  0  0
 23 35  1  0  0  0
 24 36  1  0  0  0
 25 37  1  0  0  0
 25 38  1  0  0  0
 25 39  1  0  0  0
 26 40  1  0  0  0
 26 41  1  0  0  0
 26 42  1  0  0  0
 27 43  1  0  0  0
 27 44  1  0  0  0
 27 45  1  0  0  0
M  END
> <s_m_entry_id>
32056

> <s_m_entry_name>
dock_pv.319

> <s_m_Source_Path>
/home/csk/Desktop/cluster/DUD-E-result/src

> <s_m_Source_File>
dock_pv.maegz

> <i_m_Source_File_Index>
319

> <chembl_id>
CHEMBL77781

> <chembl_pref_name>
None

> <i_lp_mmshare_version>
53161

> <r_lp_tautomer_probability>
1

> <s_lp_Force_Field>
OPLS_2005

> <r_lp_Energy>
16.661171

> <b_lp_Chiralities_Consistent>
1

> <s_lp_Variant>
CHEMBL267_lig702-1

> <s_i_glide_gridfile>
glide-grid_3el8

> <i_i_glide_lignum>
821

> <i_i_glide_rotatable_bonds>
5

> <r_i_docking_score>
-7.42518780899226

> <r_i_glide_ligand_efficiency>
-0.275006955888602

> <r_i_glide_ligand_efficiency_sa>
-0.825020866759428

> <r_i_glide_ligand_efficiency_ln>
-1.72846130814521

> <r_i_glide_gscore>
-7.42518780899226

> <r_i_glide_lipo>
-2.02411968645352

> <r_i_glide_hbond>
-0.58126796749444

> <r_i_glide_metal>
0

> <r_i_glide_rewards>
-2.26593636884303

> <r_i_glide_evdw>
-36.473705291748

> <r_i_glide_ecoul>
-7.46784782409668

> <r_i_glide_erotb>
0.389998652000641

> <r_i_glide_esite>
0

> <r_i_glide_emodel>
-60.2792181046899

> <r_i_glide_energy>
-43.9415531158447

> <r_i_glide_einternal>
1.83352959156036

> <i_i_glide_confnum>
7

> <i_i_glide_posenum>
236

> <r_i_glide_eff_state_penalty>
0

> <s_user_duplicate_titles>
CHEMBL267_lig702,128049

> <i_f3d_flags>
0

> <s_m_subgroup_title>
dock_pv

> <s_m_subgroupid>
dock_pv

> <b_m_subgroup_collapsed>
1

$$$$
CHEMBL267_lig1757
                    3D
 Schrodinger Suite 2021-1.
 41 44  0  0  1  0            999 V2000
    4.5489    7.4097    8.1013 N   0  0  0  0  0  0
    4.8303    8.2369    7.0647 C   0  0  0  0  0  0
    3.9388    8.7052    6.1419 N   0  0  0  0  0  0
    3.2731    7.0253    8.2922 C   0  0  0  0  0  0
    2.2558    7.4667    7.4182 C   0  0  0  0  0  0
    2.6880    8.2913    6.3547 C   0  0  0  0  0  0
    1.5503    8.5574    5.6318 N   0  0  0  0  0  0
    0.5193    7.9207    6.2844 C   0  0  0  0  0  0
    0.8947    7.2790    7.3629 N   0  0  0  0  0  0
    3.0962    6.2369    9.4256 N   0  0  0  0  0  0
    1.9101    5.7837    9.9843 C   0  0  0  0  0  0
    1.5649    6.2371   11.2531 C   0  0  0  0  0  0
    0.3640    5.8370   11.8220 C   0  0  0  0  0  0
   -0.4801    4.9867   11.1221 C   0  0  0  0  0  0
   -0.1421    4.4985    9.8540 C   0  0  0  0  0  0
    1.0777    4.8993    9.2968 C   0  0  0  0  0  0
    6.1263    8.7425    7.0428 N   0  0  0  0  0  0
    7.2689    8.1534    7.7645 C   0  0  0  0  0  0
    8.3226    7.5934    6.7995 C   0  0  0  0  0  0
    8.8245    8.6350    5.9149 N   0  0  0  0  0  0
    7.7006    9.2137    5.1880 C   0  0  0  0  0  0
    6.6162    9.7762    6.1188 C   0  0  0  0  0  0
   -1.0553    3.5932    9.1192 N   0  3  0  0  0  0
   -2.1971    3.4370    9.5427 O   0  0  0  0  0  0
   -0.6278    3.0370    8.1108 O   0  5  0  0  0  0
    1.4443    9.0979    4.7861 H   0  0  0  0  0  0
   -0.4897    7.9782    5.8968 H   0  0  0  0  0  0
    3.9387    6.0312    9.9448 H   0  0  0  0  0  0
    2.2144    6.9138   11.7899 H   0  0  0  0  0  0
    0.0708    6.2142   12.7880 H   0  0  0  0  0  0
   -1.4048    4.6861   11.5859 H   0  0  0  0  0  0
    1.3689    4.5552    8.3145 H   0  0  0  0  0  0
    6.9496    7.3213    8.3881 H   0  0  0  0  0  0
    7.6956    8.8887    8.4480 H   0  0  0  0  0  0
    9.1619    7.1666    7.3486 H   0  0  0  0  0  0
    7.9089    6.7722    6.2105 H   0  0  0  0  0  0
    9.4809    8.1958    5.2755 H   0  0  0  0  0  0
    8.0761    9.9880    4.5192 H   0  0  0  0  0  0
    7.2524    8.4519    4.5489 H   0  0  0  0  0  0
    6.9878   10.6262    6.6922 H   0  0  0  0  0  0
    5.8120   10.1794    5.5041 H   0  0  0  0  0  0
  1  2  2  0  0  0
  1  4  1  0  0  0
  2  3  1  0  0  0
  2 17  1  0  0  0
  3  6  2  0  0  0
  4  5  2  0  0  0
  4 10  1  0  0  0
  5  9  1  0  0  0
  5  6  1  0  0  0
  6  7  1  0  0  0
  7  8  1  0  0  0
  7 26  1  0  0  0
  8  9  2  0  0  0
  8 27  1  0  0  0
 10 11  1  0  0  0
 10 28  1  0  0  0
 11 12  2  0  0  0
 11 16  1  0  0  0
 12 13  1  0  0  0
 12 29  1  0  0  0
 13 14  2  0  0  0
 13 30  1  0  0  0
 14 15  1  0  0  0
 14 31  1  0  0  0
 15 16  2  0  0  0
 15 23  1  0  0  0
 16 32  1  0  0  0
 17 18  1  0  0  0
 17 22  1  0  0  0
 18 19  1  0  0  0
 18 33  1  0  0  0
 18 34  1  0  0  0
 19 20  1  0  0  0
 19 35  1  0  0  0
 19 36  1  0  0  0
 20 21  1  0  0  0
 20 37  1  0  0  0
 21 22  1  0  0  0
 21 38  1  0  0  0
 21 39  1  0  0  0
 22 40  1  0  0  0
 22 41  1  0  0  0
 23 24  2  0  0  0
 23 25  1  0  0  0
M  CHG  2  23   1  25  -1
M  END
> <s_m_entry_id>
32057

> <s_m_entry_name>
dock_pv.320

> <s_m_Source_Path>
/home/csk/Desktop/cluster/DUD-E-result/src

> <s_m_Source_File>
dock_pv.maegz

> <i_m_Source_File_Index>
320

> <chembl_id>
CHEMBL1172710

> <chembl_pref_name>
None

> <i_lp_mmshare_version>
53161

> <r_lp_tautomer_probability>
0.95558173703543

> <s_lp_Force_Field>
OPLS_2005

> <r_lp_Energy>
37.607748

> <b_lp_Chiralities_Consistent>
1

> <s_lp_Variant>
CHEMBL267_lig1757-1

> <s_i_glide_gridfile>
glide-grid_3el8

> <i_i_glide_lignum>
1992

> <i_i_glide_rotatable_bonds>
4

> <r_i_docking_score>
-7.42387567179464

> <r_i_glide_ligand_efficiency>
-0.296955026871786

> <r_i_glide_ligand_efficiency_sa>
-0.868301765092928

> <r_i_glide_ligand_efficiency_ln>
-1.75968100981653

> <r_i_glide_gscore>
-7.42387567179464

> <r_i_glide_lipo>
-2.62044017754732

> <r_i_glide_hbond>
-0.284735495734251

> <r_i_glide_metal>
0

> <r_i_glide_rewards>
-2.43575909229281

> <r_i_glide_evdw>
-39.0252571105957

> <r_i_glide_ecoul>
-4.14745712280273

> <r_i_glide_erotb>
0.490440517729937

> <r_i_glide_esite>
0

> <r_i_glide_emodel>
-60.0670780434018

> <r_i_glide_energy>
-43.1727142333984

> <r_i_glide_einternal>
5.3561954498291

> <i_i_glide_confnum>
6

> <i_i_glide_posenum>
131

> <r_i_glide_eff_state_penalty>
0

> <s_user_duplicate_titles>
CHEMBL267_lig1757,CHEMBL267_lig1757,650955

> <i_f3d_flags>
0

> <s_m_subgroup_title>
dock_pv

> <s_m_subgroupid>
dock_pv

> <b_m_subgroup_collapsed>
1

$$$$
CHEMBL267_lig1910
                    3D
 Schrodinger Suite 2021-1.
 38 41  0  0  1  0            999 V2000
    7.7653    7.0871    7.4227 N   0  0  0  0  0  0
    8.2387    8.0460    6.5860 C   0  0  0  0  0  0
    7.5326    8.9658    5.8796 N   0  0  0  0  0  0
    6.4183    7.0369    7.5877 C   0  0  0  0  0  0
    5.5731    7.9449    6.9243 C   0  0  0  0  0  0
    6.2135    8.8779    6.0793 C   0  0  0  0  0  0
    5.2083    9.6457    5.5218 N   0  0  0  0  0  0
    3.9910    9.2320    5.9479 N   0  0  0  0  0  0
    4.1777    8.2369    6.7878 C   0  0  0  0  0  0
    3.0429    7.5467    7.4441 C   0  0  0  0  0  0
    3.0323    7.3779    8.8286 C   0  0  0  0  0  0
    0.9939    6.2700    7.2326 C   0  0  0  0  0  0
    2.0182    7.0189    6.6573 C   0  0  0  0  0  0
    5.9124    6.0153    8.3879 N   0  0  0  0  0  0
    0.9680    6.0678    8.6305 C   0  0  0  0  0  0
    1.9872    6.6552    9.4438 C   0  0  0  0  0  0
    1.9522    6.5379   10.8014 N   0  0  0  0  0  0
    0.9198    5.8371   11.3348 C   0  0  0  0  0  0
   -0.0406    5.2170   10.5399 C   0  0  0  0  0  0
   -0.0311    5.3273    9.1885 N   0  0  0  0  0  0
    5.3319   10.7991    4.6188 C   0  0  0  0  0  0
    4.8956   12.0906    5.3432 C   0  0  0  0  0  0
    4.5580   10.5543    3.3078 C   0  0  0  0  0  0
    9.3086    8.0870    6.4540 H   0  0  0  0  0  0
    3.8126    7.8010    9.4462 H   0  0  0  0  0  0
    0.2044    5.8504    6.6230 H   0  0  0  0  0  0
    2.0333    7.1613    5.5867 H   0  0  0  0  0  0
    4.9138    5.9373    8.5212 H   0  0  0  0  0  0
    6.5548    5.3631    8.8150 H   0  0  0  0  0  0
    0.8871    5.7650   12.4084 H   0  0  0  0  0  0
   -0.8445    4.6390   10.9696 H   0  0  0  0  0  0
    6.3892   10.8957    4.3667 H   0  0  0  0  0  0
    5.0613   12.9658    4.7145 H   0  0  0  0  0  0
    3.8358   12.0664    5.6007 H   0  0  0  0  0  0
    5.4586   12.2397    6.2654 H   0  0  0  0  0  0
    4.7077   11.3754    2.6063 H   0  0  0  0  0  0
    4.8895    9.6395    2.8138 H   0  0  0  0  0  0
    3.4847   10.4683    3.4825 H   0  0  0  0  0  0
  1  2  2  0  0  0
  1  4  1  0  0  0
  2  3  1  0  0  0
  2 24  1  0  0  0
  3  6  2  0  0  0
  4 14  1  0  0  0
  4  5  2  0  0  0
  5  9  1  0  0  0
  5  6  1  0  0  0
  6  7  1  0  0  0
  7  8  1  0  0  0
  7 21  1  0  0  0
  8  9  2  0  0  0
  9 10  1  0  0  0
 10 13  1  0  0  0
 10 11  2  0  0  0
 11 16  1  0  0  0
 11 25  1  0  0  0
 12 15  1  0  0  0
 12 13  2  0  0  0
 12 26  1  0  0  0
 13 27  1  0  0  0
 14 28  1  0  0  0
 14 29  1  0  0  0
 15 16  1  0  0  0
 15 20  2  0  0  0
 16 17  2  0  0  0
 17 18  1  0  0  0
 18 19  2  0  0  0
 18 30  1  0  0  0
 19 20  1  0  0  0
 19 31  1  0  0  0
 21 22  1  0  0  0
 21 23  1  0  0  0
 21 32  1  0  0  0
 22 33  1  0  0  0
 22 34  1  0  0  0
 22 35  1  0  0  0
 23 36  1  0  0  0
 23 37  1  0  0  0
 23 38  1  0  0  0
M  END
> <s_m_entry_id>
32058

> <s_m_entry_name>
dock_pv.321

> <s_m_Source_Path>
/home/csk/Desktop/cluster/DUD-E-result/src

> <s_m_Source_File>
dock_pv.maegz

> <i_m_Source_File_Index>
321

> <chembl_id>
CHEMBL1241774

> <chembl_pref_name>
None

> <i_lp_mmshare_version>
53161

> <r_lp_tautomer_probability>
1

> <s_lp_Force_Field>
OPLS_2005

> <r_lp_Energy>
21.761883

> <b_lp_Chiralities_Consistent>
1

> <s_lp_Variant>
CHEMBL267_lig1910-1

> <s_i_glide_gridfile>
glide-grid_3el8

> <i_i_glide_lignum>
2185

> <i_i_glide_rotatable_bonds>
2

> <r_i_docking_score>
-7.42316448879401

> <r_i_glide_ligand_efficiency>
-0.322746282121479

> <r_i_glide_ligand_efficiency_sa>
-0.91784749363583

> <r_i_glide_ligand_efficiency_ln>
-1.79498848292457

> <r_i_glide_gscore>
-7.42316448879401

> <r_i_glide_lipo>
-2.29055982464108

> <r_i_glide_hbond>
0

> <r_i_glide_metal>
0

> <r_i_glide_rewards>
-3.08497149298154

> <r_i_glide_evdw>
-38.4266967773438

> <r_i_glide_ecoul>
-2.16169929504395

> <r_i_glide_erotb>
0.197956561952387

> <r_i_glide_esite>
0

> <r_i_glide_emodel>
-57.3867530765961

> <r_i_glide_energy>
-40.5883960723877

> <r_i_glide_einternal>
2.18217539787292

> <i_i_glide_confnum>
2

> <i_i_glide_posenum>
36

> <r_i_glide_eff_state_penalty>
0

> <s_user_duplicate_titles>
CHEMBL267_lig1910

> <i_f3d_flags>
0

> <s_m_subgroup_title>
dock_pv

> <s_m_subgroupid>
dock_pv

> <b_m_subgroup_collapsed>
1

$$$$
CHEMBL267_lig26
                    3D
 Schrodinger Suite 2021-1.
 42 44  0  0  1  0            999 V2000
    6.8167    5.8143    7.9880 C   0  0  0  0  0  0
    5.5432    5.7175    8.5544 C   0  0  0  0  0  0
    4.6070    6.7496    8.3880 C   0  0  0  0  0  0
    4.9716    7.8424    7.5922 C   0  0  0  0  0  0
    6.2356    7.9359    6.9929 C   0  0  0  0  0  0
    7.1703    6.9292    7.2273 C   0  0  0  0  0  0
    6.6126    9.0142    6.1752 N   0  0  0  0  0  0
    5.8442    9.9391    5.4576 C   0  0  0  0  0  0
    4.5225    9.7009    5.2617 N   0  0  0  0  0  0
    3.7958   10.6664    4.6435 C   0  0  0  0  0  0
    4.3853   11.8488    4.1916 C   0  0  0  0  0  0
    5.7620   11.9855    4.3880 C   0  0  0  0  0  0
    6.5057   11.0370    5.0169 N   0  0  0  0  0  0
    3.2274    6.7142    9.0128 C   0  0  0  0  0  0
    2.9980    5.8370    9.9880 N   0  0  0  0  0  0
    2.3332    7.4725    8.6440 O   0  0  0  0  0  0
    2.4206   10.4672    4.4763 N   0  0  0  0  0  0
    1.7108    9.2701    4.6592 C   0  0  0  0  0  0
    1.7425    8.2407    3.7002 C   0  0  0  0  0  0
    0.9980    7.0756    3.9168 C   0  0  0  0  0  0
    0.2209    6.9358    5.0654 C   0  0  0  0  0  0
    0.1875    7.9594    6.0095 C   0  0  0  0  0  0
    0.9330    9.1201    5.8090 C   0  0  0  0  0  0
   -0.6020    7.8370    7.1212 O   0  0  0  0  0  0
    2.5679    8.3657    2.4243 C   0  0  0  0  0  0
    7.5268    5.0170    8.1443 H   0  0  0  0  0  0
    5.3062    4.8376    9.1348 H   0  0  0  0  0  0
    4.2554    8.6370    7.4553 H   0  0  0  0  0  0
    8.1547    6.9854    6.7847 H   0  0  0  0  0  0
    7.5982    9.2251    6.1749 H   0  0  0  0  0  0
    3.8123   12.6183    3.6963 H   0  0  0  0  0  0
    6.2864   12.8685    4.0500 H   0  0  0  0  0  0
    2.0728    5.7979   10.3848 H   0  0  0  0  0  0
    3.7487    5.3128   10.4328 H   0  0  0  0  0  0
    1.8935   11.2464    4.1149 H   0  0  0  0  0  0
    1.0110    6.2784    3.1880 H   0  0  0  0  0  0
   -0.3598    6.0366    5.2114 H   0  0  0  0  0  0
    0.9000    9.9068    6.5471 H   0  0  0  0  0  0
   -1.1047    7.0038    7.1294 H   0  0  0  0  0  0
    2.5980    7.4370    1.8530 H   0  0  0  0  0  0
    2.1637    9.1552    1.7906 H   0  0  0  0  0  0
    3.5954    8.6370    2.6680 H   0  0  0  0  0  0
  1  6  1  0  0  0
  1  2  2  0  0  0
  1 26  1  0  0  0
  2  3  1  0  0  0
  2 27  1  0  0  0
  3 14  1  0  0  0
  3  4  2  0  0  0
  4  5  1  0  0  0
  4 28  1  0  0  0
  5  7  1  0  0  0
  5  6  2  0  0  0
  6 29  1  0  0  0
  7  8  1  0  0  0
  7 30  1  0  0  0
  8 13  1  0  0  0
  8  9  2  0  0  0
  9 10  1  0  0  0
 10 17  1  0  0  0
 10 11  2  0  0  0
 11 12  1  0  0  0
 11 31  1  0  0  0
 12 13  2  0  0  0
 12 32  1  0  0  0
 14 15  1  0  0  0
 14 16  2  0  0  0
 15 33  1  0  0  0
 15 34  1  0  0  0
 17 18  1  0  0  0
 17 35  1  0  0  0
 18 19  2  0  0  0
 18 23  1  0  0  0
 19 20  1  0  0  0
 19 25  1  0  0  0
 20 21  2  0  0  0
 20 36  1  0  0  0
 21 22  1  0  0  0
 21 37  1  0  0  0
 22 23  2  0  0  0
 22 24  1  0  0  0
 23 38  1  0  0  0
 24 39  1  0  0  0
 25 40  1  0  0  0
 25 41  1  0  0  0
 25 42  1  0  0  0
M  END
> <s_m_entry_id>
32059

> <s_m_entry_name>
dock_pv.322

> <s_m_Source_Path>
/home/csk/Desktop/cluster/DUD-E-result/src

> <s_m_Source_File>
dock_pv.maegz

> <i_m_Source_File_Index>
322

> <chembl_id>
CHEMBL249097

> <chembl_pref_name>
None

> <i_lp_mmshare_version>
53161

> <r_lp_tautomer_probability>
0.999999624730965

> <s_lp_Force_Field>
OPLS_2005

> <r_lp_Energy>
9.403193

> <b_lp_Chiralities_Consistent>
1

> <s_lp_Variant>
CHEMBL267_lig26-1

> <s_i_glide_gridfile>
glide-grid_3el8

> <i_i_glide_lignum>
33

> <i_i_glide_rotatable_bonds>
6

> <r_i_docking_score>
-7.41923446454284

> <r_i_glide_ligand_efficiency>
-0.296769378581713

> <r_i_glide_ligand_efficiency_sa>
-0.86775892620027

> <r_i_glide_ligand_efficiency_ln>
-1.7585809046121

> <r_i_glide_gscore>
-7.41923446454284

> <r_i_glide_lipo>
-2.53462469475853

> <r_i_glide_hbond>
-0.304

> <r_i_glide_metal>
0

> <r_i_glide_rewards>
-1.67359718071555

> <r_i_glide_evdw>
-34.3505096435547

> <r_i_glide_ecoul>
-12.2813034057617

> <r_i_glide_erotb>
0.671222591772614

> <r_i_glide_esite>
-0.0185141877993685

> <r_i_glide_emodel>
-64.4747357845095

> <r_i_glide_energy>
-46.6318130493164

> <r_i_glide_einternal>
5.84490776062012

> <i_i_glide_confnum>
11

> <i_i_glide_posenum>
197

> <r_i_glide_eff_state_penalty>
0

> <s_user_duplicate_titles>
CHEMBL267_lig26

> <i_f3d_flags>
0

> <s_m_subgroup_title>
dock_pv

> <s_m_subgroupid>
dock_pv

> <b_m_subgroup_collapsed>
1

$$$$
CHEMBL267_lig3437
                    3D
 Schrodinger Suite 2021-1.
 30 33  0  0  1  0            999 V2000
    4.8914    9.0035    5.8964 C   0  0  0  0  0  0
    4.9462    8.2372    7.0418 C   0  0  0  0  0  0
    3.5905    9.0327    5.4446 N   0  0  0  0  0  0
    6.0095    9.7499    5.2551 C   0  0  0  0  0  0
    3.6023    7.7885    7.3090 C   0  0  0  0  0  0
    2.7707    8.2953    6.2667 C   0  0  0  0  0  0
    7.8386    8.2660    6.0988 N   0  0  0  0  0  0
    7.3728    9.3901    5.3905 C   0  0  0  0  0  0
    7.4386    7.5610    7.1742 C   0  0  0  0  0  0
    6.1678    8.0174    7.9084 C   0  0  0  0  0  0
    5.6098   10.8060    4.4882 N   0  0  0  0  0  0
    3.0065    7.0192    8.3234 C   0  0  0  0  0  0
    8.1100    6.6194    7.5875 O   0  0  0  0  0  0
    1.3972    8.0359    6.2044 C   0  0  0  0  0  0
    1.6355    6.7676    8.2705 C   0  0  0  0  0  0
    0.8542    7.2584    7.2274 C   0  0  0  0  0  0
    0.8185    5.7405    9.6466 Br  0  0  0  0  0  0
    8.3123   10.2363    4.7874 C   0  0  0  0  0  0
    6.5479   11.5594    3.8684 C   0  0  0  0  0  0
    7.9101   11.3118    3.9950 C   0  0  0  0  0  0
    3.3272    9.5422    4.6138 H   0  0  0  0  0  0
    8.7357    7.9231    5.7826 H   0  0  0  0  0  0
    6.4150    8.9196    8.4687 H   0  0  0  0  0  0
    5.9461    7.2585    8.6583 H   0  0  0  0  0  0
    3.5965    6.6213    9.1355 H   0  0  0  0  0  0
    0.7758    8.4165    5.4055 H   0  0  0  0  0  0
   -0.2014    7.0268    7.2102 H   0  0  0  0  0  0
    9.3679   10.0288    4.8878 H   0  0  0  0  0  0
    6.1905   12.3861    3.2690 H   0  0  0  0  0  0
    8.6370   11.9416    3.5036 H   0  0  0  0  0  0
  1  2  2  0  0  0
  1  3  1  0  0  0
  1  4  1  0  0  0
  2  5  1  0  0  0
  2 10  1  0  0  0
  3  6  1  0  0  0
  3 21  1  0  0  0
  4  8  1  0  0  0
  4 11  2  0  0  0
  5 12  1  0  0  0
  5  6  2  0  0  0
  6 14  1  0  0  0
  7  8  1  0  0  0
  7  9  1  0  0  0
  7 22  1  0  0  0
  8 18  2  0  0  0
  9 10  1  0  0  0
  9 13  2  0  0  0
 10 23  1  0  0  0
 10 24  1  0  0  0
 11 19  1  0  0  0
 12 15  2  0  0  0
 12 25  1  0  0  0
 14 16  2  0  0  0
 14 26  1  0  0  0
 15 17  1  0  0  0
 15 16  1  0  0  0
 16 27  1  0  0  0
 18 20  1  0  0  0
 18 28  1  0  0  0
 19 20  2  0  0  0
 19 29  1  0  0  0
 20 30  1  0  0  0
M  END
> <s_m_entry_id>
32060

> <s_m_entry_name>
dock_pv.323

> <s_m_Source_Path>
/home/csk/Desktop/cluster/DUD-E-result/src

> <s_m_Source_File>
dock_pv.maegz

> <i_m_Source_File_Index>
323

> <chembl_id>
CHEMBL336961

> <chembl_pref_name>
AZAKENPAULLONE

> <i_lp_mmshare_version>
53161

> <r_lp_tautomer_probability>
1

> <s_lp_Force_Field>
OPLS_2005

> <r_lp_Energy>
16.585841

> <b_lp_Chiralities_Consistent>
1

> <s_lp_Variant>
CHEMBL267_lig3437-1

> <s_i_glide_gridfile>
glide-grid_3el8

> <i_i_glide_lignum>
4113

> <i_i_glide_rotatable_bonds>
0

> <r_i_docking_score>
-7.41782154403125

> <r_i_glide_ligand_efficiency>
-0.370891077201562

> <r_i_glide_ligand_efficiency_sa>
-1.00675327278846

> <r_i_glide_ligand_efficiency_ln>
-1.85643607634239

> <r_i_glide_gscore>
-7.41782154403125

> <r_i_glide_lipo>
-2.46166551836055

> <r_i_glide_hbond>
-0.394419802381672

> <r_i_glide_metal>
0

> <r_i_glide_rewards>
-2.22994651515151

> <r_i_glide_evdw>
-31.1899852752686

> <r_i_glide_ecoul>
-5.1486029624939

> <r_i_glide_erotb>
0

> <r_i_glide_esite>
0

> <r_i_glide_emodel>
-52.4792975125095

> <r_i_glide_energy>
-36.3385882377625

> <r_i_glide_einternal>
0

> <i_i_glide_confnum>
1

> <i_i_glide_posenum>
324

> <r_i_glide_eff_state_penalty>
0

> <s_user_duplicate_titles>
CHEMBL267_lig3437

> <i_f3d_flags>
0

> <s_m_subgroup_title>
dock_pv

> <s_m_subgroupid>
dock_pv

> <b_m_subgroup_collapsed>
1

$$$$
CHEMBL267_lig3067
                    3D
 Schrodinger Suite 2021-1.
 46 49  0  0  1  0            999 V2000
    0.1985    5.8375   10.9709 C   0  0  0  0  0  0
    1.2607    6.2141   11.7862 C   0  0  0  0  0  0
    2.4660    6.6372   11.2354 C   0  0  0  0  0  0
    0.2798    5.9868    9.5893 C   0  0  0  0  0  0
    1.4713    6.4914    8.9983 C   0  0  0  0  0  0
    2.5929    6.7860    9.8375 C   0  0  0  0  0  0
    3.7796    7.2304    9.3340 N   0  0  0  0  0  0
    3.8493    7.4057    7.9944 C   0  0  0  0  0  0
    2.8373    7.2030    7.1232 N   0  0  0  0  0  0
    1.6518    6.7596    7.6120 C   0  0  0  0  0  0
    5.4364    7.8365    7.3250 S   0  0  0  0  0  0
    0.5981    6.5993    6.6897 N   0  0  0  0  0  0
    0.5442    7.1985    5.4566 C   0  0  0  0  0  0
    0.9311    8.5008    5.1148 C   0  0  0  0  0  0
    0.7401    8.6397    3.7587 C   0  0  0  0  0  0
    0.1980    7.4369    3.4014 N   0  0  0  0  0  0
    0.0524    6.5726    4.4137 N   0  0  0  0  0  0
    0.9963    9.7648    2.7880 C   0  0  0  0  0  0
    5.1205    8.9750    5.9899 C   0  0  0  0  0  0
    3.9934    9.7983    5.9879 C   0  0  0  0  0  0
    3.7941   10.7190    4.9686 C   0  0  0  0  0  0
    4.7286   10.8357    3.9426 C   0  0  0  0  0  0
    5.8569   10.0002    3.9322 C   0  0  0  0  0  0
    6.0531    9.0788    4.9593 C   0  0  0  0  0  0
    4.4484   11.8167    2.9775 N   0  0  0  0  0  0
    5.2822   12.3984    2.0964 C   0  0  0  0  0  0
    4.6512   13.4862    1.2309 C   0  0  0  0  0  0
    6.4767   12.1358    1.9777 O   0  0  0  0  0  0
   -0.7158    5.4713   11.4166 H   0  0  0  0  0  0
    1.1655    6.1250   12.8574 H   0  0  0  0  0  0
    3.3074    6.8689   11.8732 H   0  0  0  0  0  0
   -0.5747    5.7356    8.9768 H   0  0  0  0  0  0
   -0.2482    6.1887    7.0655 H   0  0  0  0  0  0
    1.3240    9.2430    5.7871 H   0  0  0  0  0  0
   -0.0969    7.2154    2.4585 H   0  0  0  0  0  0
    1.1716   10.7107    3.2977 H   0  0  0  0  0  0
    1.8696    9.5625    2.1673 H   0  0  0  0  0  0
    0.1526    9.9151    2.1136 H   0  0  0  0  0  0
    3.2823    9.7586    6.7972 H   0  0  0  0  0  0
    2.9209   11.3543    4.9997 H   0  0  0  0  0  0
    6.5942   10.0523    3.1469 H   0  0  0  0  0  0
    6.9311    8.4490    4.9552 H   0  0  0  0  0  0
    3.5121   12.1861    3.0044 H   0  0  0  0  0  0
    3.9888   14.1241    1.8155 H   0  0  0  0  0  0
    4.0787   13.0378    0.4181 H   0  0  0  0  0  0
    5.4260   14.1145    0.7898 H   0  0  0  0  0  0
  1  2  2  0  0  0
  1  4  1  0  0  0
  1 29  1  0  0  0
  2  3  1  0  0  0
  2 30  1  0  0  0
  3  6  2  0  0  0
  3 31  1  0  0  0
  4  5  2  0  0  0
  4 32  1  0  0  0
  5 10  1  0  0  0
  5  6  1  0  0  0
  6  7  1  0  0  0
  7  8  2  0  0  0
  8  9  1  0  0  0
  8 11  1  0  0  0
  9 10  2  0  0  0
 10 12  1  0  0  0
 11 19  1  0  0  0
 12 13  1  0  0  0
 12 33  1  0  0  0
 13 17  2  0  0  0
 13 14  1  0  0  0
 14 15  2  0  0  0
 14 34  1  0  0  0
 15 18  1  0  0  0
 15 16  1  0  0  0
 16 35  1  0  0  0
 16 17  1  0  0  0
 18 36  1  0  0  0
 18 37  1  0  0  0
 18 38  1  0  0  0
 19 20  2  0  0  0
 19 24  1  0  0  0
 20 21  1  0  0  0
 20 39  1  0  0  0
 21 22  2  0  0  0
 21 40  1  0  0  0
 22 23  1  0  0  0
 22 25  1  0  0  0
 23 24  2  0  0  0
 23 41  1  0  0  0
 24 42  1  0  0  0
 25 26  1  0  0  0
 25 43  1  0  0  0
 26 27  1  0  0  0
 26 28  2  0  0  0
 27 44  1  0  0  0
 27 45  1  0  0  0
 27 46  1  0  0  0
M  END
> <s_m_entry_id>
32061

> <s_m_entry_name>
dock_pv.324

> <s_m_Source_Path>
/home/csk/Desktop/cluster/DUD-E-result/src

> <s_m_Source_File>
dock_pv.maegz

> <i_m_Source_File_Index>
324

> <chembl_id>
CHEMBL484950

> <chembl_pref_name>
None

> <i_lp_mmshare_version>
53161

> <r_lp_tautomer_probability>
0.842597081383926

> <s_lp_Force_Field>
OPLS_2005

> <r_lp_Energy>
16.419347

> <b_lp_Chiralities_Consistent>
1

> <s_lp_Variant>
CHEMBL267_lig3067-1

> <s_i_glide_gridfile>
glide-grid_3el8

> <i_i_glide_lignum>
3524

> <i_i_glide_rotatable_bonds>
6

> <r_i_docking_score>
-7.41183199987465

> <r_i_glide_ligand_efficiency>
-0.264708285709809

> <r_i_glide_ligand_efficiency_sa>
-0.803810260257698

> <r_i_glide_ligand_efficiency_ln>
-1.7108684464148

> <r_i_glide_gscore>
-7.41183199987465

> <r_i_glide_lipo>
-2.67436596894705

> <r_i_glide_hbond>
-0.533775025369699

> <r_i_glide_metal>
0

> <r_i_glide_rewards>
-1.83873097933559

> <r_i_glide_evdw>
-42.7254867553711

> <r_i_glide_ecoul>
-5.33310079574585

> <r_i_glide_erotb>
0.63966252879682

> <r_i_glide_esite>
-0.0683830978887092

> <r_i_glide_emodel>
-67.190287611107

> <r_i_glide_energy>
-48.0585875511169

> <r_i_glide_einternal>
6.60603761672974

> <i_i_glide_confnum>
7

> <i_i_glide_posenum>
57

> <r_i_glide_eff_state_penalty>
0

> <s_user_duplicate_titles>
CHEMBL267_lig3067

> <i_f3d_flags>
0

> <s_m_subgroup_title>
dock_pv

> <s_m_subgroupid>
dock_pv

> <b_m_subgroup_collapsed>
1

$$$$
CHEMBL267_lig3536
                    3D
 Schrodinger Suite 2021-1.
 43 46  0  0  1  0            999 V2000
    6.3618    5.5894    8.3879 N   0  0  0  0  0  0
    2.7013    8.2150    7.1423 N   0  0  0  0  0  0
    8.0008    6.9145    7.1933 N   0  0  0  0  0  0
    0.9988    9.5835    6.1699 N   0  0  0  0  0  0
    0.3654    7.8369    7.5856 N   0  0  0  0  0  0
    0.7056    9.3935    3.1973 N   0  0  0  0  0  0
    4.4737    6.7940    7.9883 C   0  0  0  0  0  0
    5.5972    7.4443    7.3468 C   0  0  0  0  0  0
    3.0224    7.1569    7.9323 C   0  0  0  0  0  0
    6.7590    6.6610    7.6185 C   0  0  0  0  0  0
    5.0122    5.6815    8.6189 C   0  0  0  0  0  0
    1.3820    8.5118    6.9916 C   0  0  0  0  0  0
    5.7843    8.5855    6.5421 C   0  0  0  0  0  0
    2.0340    6.4088    8.5850 C   0  0  0  0  0  0
    1.9373   10.2425    5.2523 C   0  0  1  0  0  0
    0.7062    6.7853    8.3757 C   0  0  0  0  0  0
    7.0684    8.8690    6.0755 C   0  0  0  0  0  0
    8.1244    8.0262    6.4221 C   0  0  0  0  0  0
    1.9946    9.5216    3.8691 C   0  0  2  0  0  0
    1.5932   11.7425    5.1372 C   0  0  0  0  0  0
    3.0182   10.2704    2.9856 C   0  0  0  0  0  0
    2.6166   12.4674    4.2412 C   0  0  0  0  0  0
    2.7392   11.7858    2.8633 C   0  0  0  0  0  0
    6.9311    4.8362    8.7559 H   0  0  0  0  0  0
    0.0158    9.6583    5.9538 H   0  0  0  0  0  0
    0.8118    8.9308    2.2999 H   0  0  0  0  0  0
    0.0948    8.8031    3.7442 H   0  0  0  0  0  0
    4.5230    4.9046    9.1881 H   0  0  0  0  0  0
    4.9584    9.2284    6.2805 H   0  0  0  0  0  0
    2.2743    5.5584    9.2058 H   0  0  0  0  0  0
    2.9352   10.1851    5.6862 H   0  0  0  0  0  0
   -0.1066    6.2353    8.8312 H   0  0  0  0  0  0
    7.2459    9.7343    5.4530 H   0  0  0  0  0  0
    9.1224    8.2367    6.0637 H   0  0  0  0  0  0
    2.3861    8.5219    4.0686 H   0  0  0  0  0  0
    0.5979   11.8687    4.7151 H   0  0  0  0  0  0
    1.5751   12.2071    6.1232 H   0  0  0  0  0  0
    4.0279   10.0965    3.3599 H   0  0  0  0  0  0
    3.0070    9.8347    1.9879 H   0  0  0  0  0  0
    3.5915   12.4780    4.7323 H   0  0  0  0  0  0
    2.3292   13.5115    4.1142 H   0  0  0  0  0  0
    3.5271   12.2640    2.2804 H   0  0  0  0  0  0
    1.8143   11.9366    2.3037 H   0  0  0  0  0  0
  1 10  1  0  0  0
  1 11  1  0  0  0
  1 24  1  0  0  0
  2  9  2  0  0  0
  2 12  1  0  0  0
  3 10  2  0  0  0
  3 18  1  0  0  0
  4 12  1  0  0  0
  4 15  1  0  0  0
  4 25  1  0  0  0
  5 12  2  0  0  0
  5 16  1  0  0  0
  6 19  1  0  0  0
  6 26  1  0  0  0
  6 27  1  0  0  0
  7  8  1  0  0  0
  7  9  1  0  0  0
  7 11  2  0  0  0
  8 10  1  0  0  0
  8 13  2  0  0  0
  9 14  1  0  0  0
 11 28  1  0  0  0
 13 17  1  0  0  0
 13 29  1  0  0  0
 14 16  2  0  0  0
 14 30  1  0  0  0
 15 19  1  0  0  0
 15 20  1  0  0  0
 15 31  1  0  0  0
 16 32  1  0  0  0
 17 18  2  0  0  0
 17 33  1  0  0  0
 18 34  1  0  0  0
 19 21  1  0  0  0
 19 35  1  0  0  0
 20 22  1  0  0  0
 20 36  1  0  0  0
 20 37  1  0  0  0
 21 23  1  0  0  0
 21 38  1  0  0  0
 21 39  1  0  0  0
 22 23  1  0  0  0
 22 40  1  0  0  0
 22 41  1  0  0  0
 23 42  1  0  0  0
 23 43  1  0  0  0
M  END
> <s_m_entry_id>
32062

> <s_m_entry_name>
dock_pv.325

> <s_m_Source_Path>
/home/csk/Desktop/cluster/DUD-E-result/src

> <s_m_Source_File>
dock_pv.maegz

> <i_m_Source_File_Index>
325

> <chembl_id>
CHEMBL1995813

> <chembl_pref_name>
None

> <i_lp_mmshare_version>
53161

> <r_lp_tautomer_probability>
0.999998420164496

> <s_lp_Force_Field>
OPLS_2005

> <r_lp_Energy>
13.420806

> <b_lp_Chiralities_Consistent>
1

> <s_lp_Variant>
CHEMBL267_lig3536-2

> <s_i_glide_gridfile>
glide-grid_3el8

> <i_i_glide_lignum>
4254

> <i_i_glide_rotatable_bonds>
3

> <r_i_docking_score>
-7.41043913980853

> <r_i_glide_ligand_efficiency>
-0.322193006078632

> <r_i_glide_ligand_efficiency_sa>
-0.916274050168479

> <r_i_glide_ligand_efficiency_ln>
-1.7919113781528

> <r_i_glide_gscore>
-7.41043913980853

> <r_i_glide_lipo>
-1.83261621551023

> <r_i_glide_hbond>
-0.769688612509088

> <r_i_glide_metal>
0

> <r_i_glide_rewards>
-2.56383029248291

> <r_i_glide_evdw>
-31.4497032165527

> <r_i_glide_ecoul>
-7.20237922668457

> <r_i_glide_erotb>
0.408538025524016

> <r_i_glide_esite>
0

> <r_i_glide_emodel>
-55.3598519682108

> <r_i_glide_energy>
-38.6520824432373

> <r_i_glide_einternal>
2.22978472709656

> <i_i_glide_confnum>
12

> <i_i_glide_posenum>
373

> <r_i_glide_eff_state_penalty>
0

> <s_user_duplicate_titles>
CHEMBL267_lig3536

> <i_f3d_flags>
0

> <s_m_subgroup_title>
dock_pv

> <s_m_subgroupid>
dock_pv

> <b_m_subgroup_collapsed>
1

$$$$
CHEMBL267_lig3075
                    3D
 Schrodinger Suite 2021-1.
 39 42  0  0  1  0            999 V2000
    0.1970    5.8374   10.8035 C   0  0  0  0  0  0
    1.2165    6.1694   11.6867 C   0  0  0  0  0  0
    2.4369    6.6373   11.2135 C   0  0  0  0  0  0
    0.3395    6.0472    9.4346 C   0  0  0  0  0  0
    1.5565    6.5731    8.9199 C   0  0  0  0  0  0
    2.6267    6.8436    9.8299 C   0  0  0  0  0  0
    3.8357    7.2991    9.4068 N   0  0  0  0  0  0
    3.9889    7.5013    8.0796 C   0  0  0  0  0  0
    3.0280    7.3342    7.1411 N   0  0  0  0  0  0
    1.8170    6.8737    7.5500 C   0  0  0  0  0  0
    5.6498    7.8372    7.5517 S   0  0  0  0  0  0
    5.5788    9.0371    6.2378 C   0  0  0  0  0  0
    6.7292    9.2314    5.4719 C   0  0  0  0  0  0
    6.7367   10.1787    4.4511 C   0  0  0  0  0  0
    5.5896   10.9226    4.1887 C   0  0  0  0  0  0
    4.4400   10.7407    4.9526 C   0  0  0  0  0  0
    4.4366    9.8027    5.9810 C   0  0  0  0  0  0
    0.8251    6.6960    6.5636 N   0  0  0  0  0  0
    0.8020    7.2961    5.3278 C   0  0  0  0  0  0
    1.1932    8.5990    4.9882 C   0  0  0  0  0  0
    1.0022    8.7411    3.6304 C   0  0  0  0  0  0
    0.4705    7.5369    3.2620 N   0  0  0  0  0  0
    0.3232    6.6703    4.2760 N   0  0  0  0  0  0
    1.2515    9.8677    2.6603 C   0  0  0  0  0  0
    5.5962   12.0839    2.9136 Cl  0  0  0  0  0  0
   -0.7340    5.4448   11.1882 H   0  0  0  0  0  0
    1.0714    6.0214   12.7471 H   0  0  0  0  0  0
    3.2466    6.8454   11.8992 H   0  0  0  0  0  0
   -0.4855    5.8159    8.7766 H   0  0  0  0  0  0
    7.6207    8.6531    5.6702 H   0  0  0  0  0  0
    7.6297   10.3324    3.8641 H   0  0  0  0  0  0
    3.5578   11.3319    4.7560 H   0  0  0  0  0  0
    3.5546    9.7128    6.5919 H   0  0  0  0  0  0
   -0.0115    6.2365    6.8941 H   0  0  0  0  0  0
    1.5805    9.3439    5.6616 H   0  0  0  0  0  0
    0.1961    7.3191    2.3085 H   0  0  0  0  0  0
    1.6109   10.7664    3.1610 H   0  0  0  0  0  0
    0.3443   10.1388    2.1196 H   0  0  0  0  0  0
    1.9974    9.5931    1.9139 H   0  0  0  0  0  0
  1  2  2  0  0  0
  1  4  1  0  0  0
  1 26  1  0  0  0
  2  3  1  0  0  0
  2 27  1  0  0  0
  3  6  2  0  0  0
  3 28  1  0  0  0
  4  5  2  0  0  0
  4 29  1  0  0  0
  5  6  1  0  0  0
  5 10  1  0  0  0
  6  7  1  0  0  0
  7  8  2  0  0  0
  8  9  1  0  0  0
  8 11  1  0  0  0
  9 10  2  0  0  0
 10 18  1  0  0  0
 11 12  1  0  0  0
 12 13  2  0  0  0
 12 17  1  0  0  0
 13 14  1  0  0  0
 13 30  1  0  0  0
 14 15  2  0  0  0
 14 31  1  0  0  0
 15 16  1  0  0  0
 15 25  1  0  0  0
 16 17  2  0  0  0
 16 32  1  0  0  0
 17 33  1  0  0  0
 18 19  1  0  0  0
 18 34  1  0  0  0
 19 20  1  0  0  0
 19 23  2  0  0  0
 20 21  2  0  0  0
 20 35  1  0  0  0
 21 22  1  0  0  0
 21 24  1  0  0  0
 22 23  1  0  0  0
 22 36  1  0  0  0
 24 37  1  0  0  0
 24 38  1  0  0  0
 24 39  1  0  0  0
M  END
> <s_m_entry_id>
32063

> <s_m_entry_name>
dock_pv.326

> <s_m_Source_Path>
/home/csk/Desktop/cluster/DUD-E-result/src

> <s_m_Source_File>
dock_pv.maegz

> <i_m_Source_File_Index>
326

> <chembl_id>
CHEMBL562157

> <chembl_pref_name>
None

> <i_lp_mmshare_version>
53161

> <r_lp_tautomer_probability>
0.842584379834229

> <s_lp_Force_Field>
OPLS_2005

> <r_lp_Energy>
10.54125

> <b_lp_Chiralities_Consistent>
1

> <s_lp_Variant>
CHEMBL267_lig3075-1

> <s_i_glide_gridfile>
glide-grid_3el8

> <i_i_glide_lignum>
3538

> <i_i_glide_rotatable_bonds>
4

> <r_i_docking_score>
-7.40903049580803

> <r_i_glide_ligand_efficiency>
-0.296361219832321

> <r_i_glide_ligand_efficiency_sa>
-0.866565462778321

> <r_i_glide_ligand_efficiency_ln>
-1.75616225823368

> <r_i_glide_gscore>
-7.40903049580803

> <r_i_glide_lipo>
-2.6625299716561

> <r_i_glide_hbond>
-0.443770795762031

> <r_i_glide_metal>
0

> <r_i_glide_rewards>
-2.02531707424883

> <r_i_glide_evdw>
-40.7820472717285

> <r_i_glide_ecoul>
-5.03386974334717

> <r_i_glide_erotb>
0.56942445199645

> <r_i_glide_esite>
-0.0526542810490196

> <r_i_glide_emodel>
-64.6063701311639

> <r_i_glide_energy>
-45.8159170150757

> <r_i_glide_einternal>
3.76486873626709

> <i_i_glide_confnum>
19

> <i_i_glide_posenum>
290

> <r_i_glide_eff_state_penalty>
0

> <s_user_duplicate_titles>
CHEMBL267_lig3075,557806

> <i_f3d_flags>
0

> <s_m_subgroup_title>
dock_pv

> <s_m_subgroupid>
dock_pv

> <b_m_subgroup_collapsed>
1

$$$$
CHEMBL267_lig1173
                    3D
 Schrodinger Suite 2021-1.
 31 33  0  0  1  0            999 V2000
    3.2778    6.9351    8.4502 C   0  0  0  0  0  0
    2.9834    7.9354    7.5199 C   0  0  0  0  0  0
    3.9795    8.5199    6.7366 C   0  0  0  0  0  0
    4.5885    6.4795    8.5894 C   0  0  0  0  0  0
    5.6205    7.0373    7.8076 C   0  0  0  0  0  0
    5.3283    8.0807    6.8793 C   0  0  0  0  0  0
    6.3358    8.6293    6.1409 N   0  0  0  0  0  0
    7.5666    8.1065    6.3373 C   0  0  0  0  0  0
    7.8736    7.0969    7.1880 N   0  0  0  0  0  0
    6.8908    6.5597    7.9245 N   0  0  0  0  0  0
    8.6011    8.6369    5.5878 N   0  0  0  0  0  0
    3.6314    9.6133    5.7344 C   0  0  0  0  0  0
    2.2016    6.3473    9.2776 C   0  0  0  0  0  0
    2.1643    6.5093   10.6739 C   0  0  0  0  0  0
    1.1079    5.9691   11.4107 C   0  0  0  0  0  0
    0.1310    5.2059   10.7783 C   0  0  0  0  0  0
    0.1865    5.0040    9.4025 C   0  0  0  0  0  0
    1.2008    5.5926    8.6552 C   0  0  0  0  0  0
    3.4142    7.3616   11.5177 Cl  0  0  0  0  0  0
   -0.7629    4.2367    8.7891 O   0  0  0  0  0  0
    1.9624    8.2718    7.4153 H   0  0  0  0  0  0
    4.8205    5.6959    9.2969 H   0  0  0  0  0  0
    9.4752    8.1231    5.5762 H   0  0  0  0  0  0
    8.3999    9.3633    4.9169 H   0  0  0  0  0  0
    2.5645    9.8400    5.7257 H   0  0  0  0  0  0
    4.1685   10.5320    5.9742 H   0  0  0  0  0  0
    3.9183    9.3080    4.7265 H   0  0  0  0  0  0
    1.0662    6.1128   12.4804 H   0  0  0  0  0  0
   -0.6721    4.7701   11.3499 H   0  0  0  0  0  0
    1.2274    5.4401    7.5861 H   0  0  0  0  0  0
   -1.3616    4.7834    8.2577 H   0  0  0  0  0  0
  1 13  1  0  0  0
  1  2  2  0  0  0
  1  4  1  0  0  0
  2  3  1  0  0  0
  2 21  1  0  0  0
  3 12  1  0  0  0
  3  6  2  0  0  0
  4  5  2  0  0  0
  4 22  1  0  0  0
  5 10  1  0  0  0
  5  6  1  0  0  0
  6  7  1  0  0  0
  7  8  2  0  0  0
  8 11  1  0  0  0
  8  9  1  0  0  0
  9 10  2  0  0  0
 11 23  1  0  0  0
 11 24  1  0  0  0
 12 25  1  0  0  0
 12 26  1  0  0  0
 12 27  1  0  0  0
 13 14  2  0  0  0
 13 18  1  0  0  0
 14 15  1  0  0  0
 14 19  1  0  0  0
 15 16  2  0  0  0
 15 28  1  0  0  0
 16 17  1  0  0  0
 16 29  1  0  0  0
 17 18  2  0  0  0
 17 20  1  0  0  0
 18 30  1  0  0  0
 20 31  1  0  0  0
M  END
> <s_m_entry_id>
32064

> <s_m_entry_name>
dock_pv.327

> <s_m_Source_Path>
/home/csk/Desktop/cluster/DUD-E-result/src

> <s_m_Source_File>
dock_pv.maegz

> <i_m_Source_File_Index>
327

> <chembl_id>
CHEMBL218317

> <chembl_pref_name>
None

> <i_lp_mmshare_version>
53161

> <r_lp_tautomer_probability>
0.999999999997365

> <s_lp_Force_Field>
OPLS_2005

> <r_lp_Energy>
22.814074

> <b_lp_Chiralities_Consistent>
1

> <s_lp_Variant>
CHEMBL267_lig1173-1

> <s_i_glide_gridfile>
glide-grid_3el8

> <i_i_glide_lignum>
1320

> <i_i_glide_rotatable_bonds>
2

> <r_i_docking_score>
-7.40827041431009

> <r_i_glide_ligand_efficiency>
-0.370413520715504

> <r_i_glide_ligand_efficiency_sa>
-1.00545698505108

> <r_i_glide_ligand_efficiency_ln>
-1.85404574359053

> <r_i_glide_gscore>
-7.40827041431009

> <r_i_glide_lipo>
-2.37679125819705

> <r_i_glide_hbond>
-0.569138504529186

> <r_i_glide_metal>
0

> <r_i_glide_rewards>
-2.04820095450904

> <r_i_glide_evdw>
-32.5023460388184

> <r_i_glide_ecoul>
-6.73324394226074

> <r_i_glide_erotb>
0.220964196205222

> <r_i_glide_esite>
0

> <r_i_glide_emodel>
-53.712765059967

> <r_i_glide_energy>
-39.2355899810791

> <r_i_glide_einternal>
4.78213739395142

> <i_i_glide_confnum>
4

> <i_i_glide_posenum>
284

> <r_i_glide_eff_state_penalty>
0

> <s_user_duplicate_titles>
CHEMBL267_lig1173

> <i_f3d_flags>
0

> <s_m_subgroup_title>
dock_pv

> <s_m_subgroupid>
dock_pv

> <b_m_subgroup_collapsed>
1

$$$$
CHEMBL267_lig651
                    3D
 Schrodinger Suite 2021-1.
 40 43  0  0  1  0            999 V2000
    5.4389   10.5428    5.2565 N   0  0  0  0  0  0
    7.6531   10.2918    4.7877 C   0  0  0  0  0  0
    6.5028   11.1067    4.5406 C   0  0  0  0  0  0
    5.8909    9.4161    5.9374 C   0  0  0  0  0  0
    7.2624    9.2424    5.6380 C   0  0  0  0  0  0
    8.8934   10.6400    4.2123 C   0  0  0  0  0  0
    6.5992   12.2533    3.7192 C   0  0  0  0  0  0
    5.2238    8.5371    6.8036 C   0  0  0  0  0  0
    7.9554    8.1609    6.2088 C   0  0  0  0  0  0
    7.8400   12.5362    3.1327 C   0  0  0  0  0  0
    8.9573   11.7554    3.3880 C   0  0  0  0  0  0
    5.9429    7.5002    7.3832 C   0  0  0  0  0  0
   -0.6018    6.1811    3.9882 N   0  0  0  0  0  0
    7.2872    7.3017    7.0740 C   0  0  0  0  0  0
    4.0623   11.0596    5.3678 C   0  0  0  0  0  0
    0.1457    7.0358    4.1768 C   0  0  0  0  0  0
   10.4896    9.6379    4.5037 Br  0  0  0  0  0  0
    5.5335   13.0956    3.5239 O   0  0  0  0  0  0
    1.0829    8.1065    4.4332 C   0  0  0  0  0  0
    2.9728   10.0502    5.0231 C   0  0  0  0  0  0
    7.9912   13.5957    2.2724 O   0  0  0  0  0  0
    5.2776    6.6858    8.2678 O   0  0  0  0  0  0
    7.9717    6.2371    7.5882 O   0  0  0  0  0  0
    1.2064    8.5688    5.7391 C   0  0  0  0  0  0
    1.8663    8.6371    3.4060 C   0  0  0  0  0  0
    2.1443    9.5452    6.0294 C   0  0  0  0  0  0
    2.8167    9.6110    3.7049 C   0  0  0  0  0  0
    4.1939    8.6551    7.0796 H   0  0  0  0  0  0
    8.9962    7.9793    5.9930 H   0  0  0  0  0  0
    9.8994   12.0164    2.9276 H   0  0  0  0  0  0
    3.9110   11.9184    4.7248 H   0  0  0  0  0  0
    3.9381   11.4309    6.3857 H   0  0  0  0  0  0
    5.7985   13.9766    3.2465 H   0  0  0  0  0  0
    7.1906   13.8362    1.8010 H   0  0  0  0  0  0
    5.8388    6.1530    8.8319 H   0  0  0  0  0  0
    7.3982    5.5709    7.9740 H   0  0  0  0  0  0
    0.6049    8.1557    6.5380 H   0  0  0  0  0  0
    1.7654    8.2815    2.3886 H   0  0  0  0  0  0
    2.2613    9.8372    7.0598 H   0  0  0  0  0  0
    3.4468   10.0034    2.9194 H   0  0  0  0  0  0
  1  3  1  0  0  0
  1  4  1  0  0  0
  1 15  1  0  0  0
  2  3  2  0  0  0
  2  6  1  0  0  0
  2  5  1  0  0  0
  3  7  1  0  0  0
  4  5  2  0  0  0
  4  8  1  0  0  0
  5  9  1  0  0  0
  6 17  1  0  0  0
  6 11  2  0  0  0
  7 10  2  0  0  0
  7 18  1  0  0  0
  8 12  2  0  0  0
  8 28  1  0  0  0
  9 14  2  0  0  0
  9 29  1  0  0  0
 10 11  1  0  0  0
 10 21  1  0  0  0
 11 30  1  0  0  0
 12 14  1  0  0  0
 12 22  1  0  0  0
 13 16  3  0  0  0
 14 23  1  0  0  0
 15 20  1  0  0  0
 15 31  1  0  0  0
 15 32  1  0  0  0
 16 19  1  0  0  0
 18 33  1  0  0  0
 19 25  2  0  0  0
 19 24  1  0  0  0
 20 26  1  0  0  0
 20 27  2  0  0  0
 21 34  1  0  0  0
 22 35  1  0  0  0
 23 36  1  0  0  0
 24 26  2  0  0  0
 24 37  1  0  0  0
 25 27  1  0  0  0
 25 38  1  0  0  0
 26 39  1  0  0  0
 27 40  1  0  0  0
M  END
> <s_m_entry_id>
32065

> <s_m_entry_name>
dock_pv.328

> <s_m_Source_Path>
/home/csk/Desktop/cluster/DUD-E-result/src

> <s_m_Source_File>
dock_pv.maegz

> <i_m_Source_File_Index>
328

> <chembl_id>
CHEMBL304808

> <chembl_pref_name>
None

> <i_lp_mmshare_version>
53161

> <r_lp_tautomer_probability>
1

> <s_lp_Force_Field>
OPLS_2005

> <r_lp_Energy>
18.17984

> <b_lp_Chiralities_Consistent>
1

> <s_lp_Variant>
CHEMBL267_lig651-1

> <s_i_glide_gridfile>
glide-grid_3el8

> <i_i_glide_lignum>
770

> <i_i_glide_rotatable_bonds>
6

> <r_i_docking_score>
-7.4066837779998

> <r_i_glide_ligand_efficiency>
-0.2743216214074

> <r_i_glide_ligand_efficiency_sa>
-0.822964863318081

> <r_i_glide_ligand_efficiency_ln>
-1.72415387479296

> <r_i_glide_gscore>
-7.4066837779998

> <r_i_glide_lipo>
-3.37634274629238

> <r_i_glide_hbond>
0

> <r_i_glide_metal>
0

> <r_i_glide_rewards>
-1.69346972165178

> <r_i_glide_evdw>
-38.1407928466797

> <r_i_glide_ecoul>
-4.32815027236938

> <r_i_glide_erotb>
0.219390873133752

> <r_i_glide_esite>
0

> <r_i_glide_emodel>
-58.1477226375027

> <r_i_glide_energy>
-42.4689431190491

> <r_i_glide_einternal>
8.24249458312988

> <i_i_glide_confnum>
2

> <i_i_glide_posenum>
109

> <r_i_glide_eff_state_penalty>
0

> <s_user_duplicate_titles>
CHEMBL267_lig651,113400

> <i_f3d_flags>
0

> <s_m_subgroup_title>
dock_pv

> <s_m_subgroupid>
dock_pv

> <b_m_subgroup_collapsed>
1

$$$$
CHEMBL267_lig3334
                    3D
 Schrodinger Suite 2021-1.
 44 47  0  0  1  0            999 V2000
    3.2792    7.9946    8.8765 O   0  0  0  0  0  0
    3.0344   13.4150    4.3880 O   0  0  0  0  0  0
    4.1626   13.5894    1.8667 O   0  0  0  0  0  0
    6.1751    6.0666    8.2193 N   0  0  0  0  0  0
    7.3424    6.2943    7.5890 N   0  0  0  0  0  0
    3.3665    5.7046    8.8018 N   0  0  0  0  0  0
    5.7526    7.9058    7.0847 C   0  0  0  0  0  0
    5.1612    6.9785    7.9882 C   0  0  0  0  0  0
    7.0918    7.4484    6.9110 C   0  0  0  0  0  0
    6.1654    9.6882    5.4861 C   0  0  0  0  0  0
    5.3048    9.0353    6.3825 C   0  0  0  0  0  0
    5.6567   10.7614    4.5738 C   0  0  0  0  0  0
    3.8675    6.9441    8.6139 C   0  0  0  0  0  0
    7.9774    8.1621    6.1010 C   0  0  0  0  0  0
    7.4986    9.2691    5.4062 C   0  0  0  0  0  0
    4.6185   11.6257    4.9542 C   0  0  0  0  0  0
    4.0859   12.5765    4.0631 C   0  0  0  0  0  0
    6.1752   10.8918    3.2771 C   0  0  0  0  0  0
    4.6424   12.6846    2.7798 C   0  0  0  0  0  0
    5.6821   11.8451    2.3915 C   0  0  0  0  0  0
    2.1109    5.3831    9.3410 C   0  0  0  0  0  0
    1.5402    6.0939   10.4070 C   0  0  0  0  0  0
    1.4457    4.2793    8.8015 C   0  0  0  0  0  0
    0.3007    5.7075   10.9100 C   0  0  0  0  0  0
    0.2005    3.9056    9.2960 C   0  0  0  0  0  0
    2.1322   13.0141    5.4138 C   0  0  0  0  0  0
   -0.3650    4.6243   10.3448 C   0  0  0  0  0  0
    4.5818   13.5024    1.0054 H   0  0  0  0  0  0
    6.0798    5.2777    8.8441 H   0  0  0  0  0  0
    3.8967    4.9258    8.4476 H   0  0  0  0  0  0
    4.2721    9.3374    6.4704 H   0  0  0  0  0  0
    8.9993    7.8384    5.9847 H   0  0  0  0  0  0
    8.1889    9.7909    4.7603 H   0  0  0  0  0  0
    4.2172   11.5445    5.9515 H   0  0  0  0  0  0
    6.9616   10.2394    2.9317 H   0  0  0  0  0  0
    6.0993   11.9183    1.3964 H   0  0  0  0  0  0
    2.0561    6.9286   10.8587 H   0  0  0  0  0  0
    1.8771    3.7150    7.9886 H   0  0  0  0  0  0
   -0.1493    6.2369   11.7362 H   0  0  0  0  0  0
   -0.3246    3.0606    8.8743 H   0  0  0  0  0  0
    1.2882   13.7025    5.4359 H   0  0  0  0  0  0
    1.7383   12.0124    5.2330 H   0  0  0  0  0  0
    2.5968   13.0364    6.3979 H   0  0  0  0  0  0
   -1.3331    4.3357   10.7298 H   0  0  0  0  0  0
  1 13  2  0  0  0
  2 17  1  0  0  0
  2 26  1  0  0  0
  3 19  1  0  0  0
  3 28  1  0  0  0
  4 29  1  0  0  0
  4  5  1  0  0  0
  4  8  1  0  0  0
  5  9  2  0  0  0
  6 13  1  0  0  0
  6 21  1  0  0  0
  6 30  1  0  0  0
  7 11  1  0  0  0
  7  9  1  0  0  0
  7  8  2  0  0  0
  8 13  1  0  0  0
  9 14  1  0  0  0
 10 15  1  0  0  0
 10 12  1  0  0  0
 10 11  2  0  0  0
 11 31  1  0  0  0
 12 16  1  0  0  0
 12 18  2  0  0  0
 14 32  1  0  0  0
 14 15  2  0  0  0
 15 33  1  0  0  0
 16 17  2  0  0  0
 16 34  1  0  0  0
 17 19  1  0  0  0
 18 20  1  0  0  0
 18 35  1  0  0  0
 19 20  2  0  0  0
 20 36  1  0  0  0
 21 22  2  0  0  0
 21 23  1  0  0  0
 22 24  1  0  0  0
 22 37  1  0  0  0
 23 25  2  0  0  0
 23 38  1  0  0  0
 24 27  2  0  0  0
 24 39  1  0  0  0
 25 27  1  0  0  0
 25 40  1  0  0  0
 26 41  1  0  0  0
 26 42  1  0  0  0
 26 43  1  0  0  0
 27 44  1  0  0  0
M  END
> <s_m_entry_id>
32067

> <s_m_entry_name>
dock_pv.330

> <s_m_Source_Path>
/home/csk/Desktop/cluster/DUD-E-result/src

> <s_m_Source_File>
dock_pv.maegz

> <i_m_Source_File_Index>
330

> <chembl_id>
CHEMBL2007002

> <chembl_pref_name>
None

> <i_lp_mmshare_version>
53161

> <r_lp_tautomer_probability>
0.0196078431372549

> <s_lp_Force_Field>
OPLS_2005

> <r_lp_Energy>
47.353475

> <b_lp_Chiralities_Consistent>
1

> <s_lp_Variant>
CHEMBL267_lig3334-2

> <s_i_glide_gridfile>
glide-grid_3el8

> <i_i_glide_lignum>
3937

> <i_i_glide_rotatable_bonds>
6

> <r_i_docking_score>
-7.39898293713248

> <r_i_glide_ligand_efficiency>
-0.274036405078981

> <r_i_glide_ligand_efficiency_sa>
-0.822109214333763

> <r_i_glide_ligand_efficiency_ln>
-1.72236124599733

> <r_i_glide_gscore>
-7.39898293713248

> <r_i_glide_lipo>
-3.52188196770783

> <r_i_glide_hbond>
-0.0752492073187562

> <r_i_glide_metal>
0

> <r_i_glide_rewards>
-1.92529491647092

> <r_i_glide_evdw>
-41.388011932373

> <r_i_glide_ecoul>
-2.67180442810059

> <r_i_glide_erotb>
0.593614415198765

> <r_i_glide_esite>
0

> <r_i_glide_emodel>
-60.6517359589392

> <r_i_glide_energy>
-44.0598163604736

> <r_i_glide_einternal>
6.19388675689697

> <i_i_glide_confnum>
12

> <i_i_glide_posenum>
92

> <r_i_glide_eff_state_penalty>
0

> <s_user_duplicate_titles>
CHEMBL267_lig3334,CHEMBL267_lig3334

> <i_f3d_flags>
0

> <s_m_subgroup_title>
dock_pv

> <s_m_subgroupid>
dock_pv

> <b_m_subgroup_collapsed>
1

$$$$
CHEMBL267_lig3076
                    3D
 Schrodinger Suite 2021-1.
 39 42  0  0  1  0            999 V2000
    0.1981    5.8394   10.7848 C   0  0  0  0  0  0
    1.2651    6.1790   11.6098 C   0  0  0  0  0  0
    2.4629    6.6374   11.0710 C   0  0  0  0  0  0
    0.2731    6.0313    9.4079 C   0  0  0  0  0  0
    1.4671    6.5410    8.8275 C   0  0  0  0  0  0
    2.5879    6.8180    9.6759 C   0  0  0  0  0  0
    3.7788    7.2618    9.1833 N   0  0  0  0  0  0
    3.8560    7.4471    7.8462 C   0  0  0  0  0  0
    2.8468    7.2637    6.9674 N   0  0  0  0  0  0
    1.6551    6.8215    7.4435 C   0  0  0  0  0  0
    5.4543    7.8418    7.1835 S   0  0  0  0  0  0
    5.2080    9.1747    6.0152 C   0  0  0  0  0  0
    6.2436    9.5037    5.1358 C   0  0  0  0  0  0
    6.1046   10.5675    4.2372 C   0  0  0  0  0  0
    4.9164   11.3080    4.2128 C   0  0  0  0  0  0
    3.8845   10.9863    5.0918 C   0  0  0  0  0  0
    4.0312    9.9304    5.9880 C   0  0  0  0  0  0
    0.6107    6.6646    6.5075 N   0  0  0  0  0  0
    0.5841    7.2688    5.2742 C   0  0  0  0  0  0
    0.9699    8.5774    4.9500 C   0  0  0  0  0  0
    0.8297    8.7166    3.5880 C   0  0  0  0  0  0
    0.3095    7.5116    3.2065 N   0  0  0  0  0  0
    0.1343    6.6420    4.2122 N   0  0  0  0  0  0
    1.1127    9.8421    2.6268 C   0  0  0  0  0  0
    7.4153   10.9671    3.1823 Cl  0  0  0  0  0  0
    4.6980   12.6330    3.1244 Cl  0  0  0  0  0  0
   -0.7137    5.4566   11.2219 H   0  0  0  0  0  0
    1.1726    6.0477   12.6785 H   0  0  0  0  0  0
    3.3055    6.8500   11.7140 H   0  0  0  0  0  0
   -0.5841    5.7987    8.7897 H   0  0  0  0  0  0
    7.1651    8.9398    5.1617 H   0  0  0  0  0  0
    2.9727   11.5640    5.0900 H   0  0  0  0  0  0
    3.2363    9.7448    6.6910 H   0  0  0  0  0  0
   -0.2307    6.2267    6.8635 H   0  0  0  0  0  0
    1.3304    9.3239    5.6362 H   0  0  0  0  0  0
    0.0656    7.2939    2.2449 H   0  0  0  0  0  0
    1.8802    9.5632    1.9037 H   0  0  0  0  0  0
    1.4601   10.7413    3.1363 H   0  0  0  0  0  0
    0.2221   10.1146    2.0600 H   0  0  0  0  0  0
  1  2  2  0  0  0
  1  4  1  0  0  0
  1 27  1  0  0  0
  2  3  1  0  0  0
  2 28  1  0  0  0
  3  6  2  0  0  0
  3 29  1  0  0  0
  4  5  2  0  0  0
  4 30  1  0  0  0
  5  6  1  0  0  0
  5 10  1  0  0  0
  6  7  1  0  0  0
  7  8  2  0  0  0
  8  9  1  0  0  0
  8 11  1  0  0  0
  9 10  2  0  0  0
 10 18  1  0  0  0
 11 12  1  0  0  0
 12 13  2  0  0  0
 12 17  1  0  0  0
 13 14  1  0  0  0
 13 31  1  0  0  0
 14 15  2  0  0  0
 14 25  1  0  0  0
 15 16  1  0  0  0
 15 26  1  0  0  0
 16 17  2  0  0  0
 16 32  1  0  0  0
 17 33  1  0  0  0
 18 19  1  0  0  0
 18 34  1  0  0  0
 19 20  1  0  0  0
 19 23  2  0  0  0
 20 21  2  0  0  0
 20 35  1  0  0  0
 21 22  1  0  0  0
 21 24  1  0  0  0
 22 23  1  0  0  0
 22 36  1  0  0  0
 24 37  1  0  0  0
 24 38  1  0  0  0
 24 39  1  0  0  0
M  END
> <s_m_entry_id>
32068

> <s_m_entry_name>
dock_pv.331

> <s_m_Source_Path>
/home/csk/Desktop/cluster/DUD-E-result/src

> <s_m_Source_File>
dock_pv.maegz

> <i_m_Source_File_Index>
331

> <chembl_id>
CHEMBL552385

> <chembl_pref_name>
None

> <i_lp_mmshare_version>
53161

> <r_lp_tautomer_probability>
0.842584379834229

> <s_lp_Force_Field>
OPLS_2005

> <r_lp_Energy>
9.900038

> <b_lp_Chiralities_Consistent>
1

> <s_lp_Variant>
CHEMBL267_lig3076-1

> <s_i_glide_gridfile>
glide-grid_3el8

> <i_i_glide_lignum>
3540

> <i_i_glide_rotatable_bonds>
4

> <r_i_docking_score>
-7.39412042542095

> <r_i_glide_ligand_efficiency>
-0.284389247131575

> <r_i_glide_ligand_efficiency_sa>
-0.842502025609639

> <r_i_glide_ligand_efficiency_ln>
-1.73648491982209

> <r_i_glide_gscore>
-7.39412042542095

> <r_i_glide_lipo>
-2.59791523497325

> <r_i_glide_hbond>
-0.571172032956381

> <r_i_glide_metal>
0

> <r_i_glide_rewards>
-1.79012593355521

> <r_i_glide_evdw>
-39.6338691711426

> <r_i_glide_ecoul>
-5.86013793945312

> <r_i_glide_erotb>
0.484966193221582

> <r_i_glide_esite>
-0.0591592676825855

> <r_i_glide_emodel>
-64.4096039838213

> <r_i_glide_energy>
-45.4940071105957

> <r_i_glide_einternal>
3.40769982337952

> <i_i_glide_confnum>
16

> <i_i_glide_posenum>
272

> <r_i_glide_eff_state_penalty>
0

> <s_user_duplicate_titles>
CHEMBL267_lig3076

> <i_f3d_flags>
0

> <s_m_subgroup_title>
dock_pv

> <s_m_subgroupid>
dock_pv

> <b_m_subgroup_collapsed>
1

$$$$
CHEMBL267_lig469
                    3D
 Schrodinger Suite 2021-1.
 40 42  0  0  1  0            999 V2000
    3.0804    7.9318    7.8869 C   0  0  0  0  0  0
    3.2730    6.8614    8.7771 C   0  0  0  0  0  0
    1.8285    8.5796    7.8879 N   0  0  0  0  0  0
    4.0719    8.4010    7.0837 N   0  0  0  0  0  0
    2.2216    6.4040    9.7279 C   0  0  0  0  0  0
    5.2983    7.8369    7.1472 C   0  0  0  0  0  0
    4.5189    6.2333    8.7903 C   0  0  0  0  0  0
    1.2263    9.3271    6.9417 C   0  0  0  0  0  0
    5.5640    6.7236    7.9887 C   0  0  0  0  0  0
    6.3352    8.3652    6.3542 C   0  0  0  0  0  0
    7.8660    6.6888    7.2044 N   0  0  0  0  0  0
    7.5830    7.7606    6.4227 C   0  0  0  0  0  0
    1.0513    5.7723    9.2656 C   0  0  0  0  0  0
    2.3717    6.6298   11.1092 C   0  0  0  0  0  0
    6.8680    6.1918    7.9720 C   0  0  0  0  0  0
    0.1397    9.8381    7.1883 O   0  0  0  0  0  0
    1.8549    9.4491    5.7574 N   0  0  0  0  0  0
    8.5980    8.2564    5.6283 N   0  0  0  0  0  0
    0.8020    5.4379    7.5878 Cl  0  0  0  0  0  0
    3.7903    7.3915   11.7645 Cl  0  0  0  0  0  0
    0.1978    5.6421   11.5180 C   0  0  0  0  0  0
    0.0507    5.3984   10.1580 C   0  0  0  0  0  0
    1.3595    6.2440   11.9889 C   0  0  0  0  0  0
    1.2809    9.9033    4.4985 C   0  0  0  0  0  0
    0.5974    8.7670    3.7243 C   0  0  0  0  0  0
    1.2786    8.3973    8.7117 H   0  0  0  0  0  0
    4.7087    5.4074    9.4593 H   0  0  0  0  0  0
    6.1465    9.2118    5.7107 H   0  0  0  0  0  0
    7.1083    5.3398    8.5935 H   0  0  0  0  0  0
    2.8209    9.1532    5.7237 H   0  0  0  0  0  0
    8.4099    9.0215    5.0012 H   0  0  0  0  0  0
    9.4190    7.6636    5.5028 H   0  0  0  0  0  0
   -0.5955    5.3756   12.2020 H   0  0  0  0  0  0
   -0.8577    4.9376    9.7929 H   0  0  0  0  0  0
    1.4716    6.4304   13.0473 H   0  0  0  0  0  0
    0.5986   10.7359    4.6702 H   0  0  0  0  0  0
    2.0901   10.3089    3.8911 H   0  0  0  0  0  0
    0.1560    9.1386    2.8005 H   0  0  0  0  0  0
    1.3077    7.9882    3.4468 H   0  0  0  0  0  0
   -0.2018    8.3065    4.3056 H   0  0  0  0  0  0
  1  2  1  0  0  0
  1  3  1  0  0  0
  1  4  2  0  0  0
  2  5  1  0  0  0
  2  7  2  0  0  0
  3  8  1  0  0  0
  3 26  1  0  0  0
  4  6  1  0  0  0
  5 13  2  0  0  0
  5 14  1  0  0  0
  6  9  1  0  0  0
  6 10  2  0  0  0
  7  9  1  0  0  0
  7 27  1  0  0  0
  8 16  2  0  0  0
  8 17  1  0  0  0
  9 15  2  0  0  0
 10 12  1  0  0  0
 10 28  1  0  0  0
 11 12  2  0  0  0
 11 15  1  0  0  0
 12 18  1  0  0  0
 13 19  1  0  0  0
 13 22  1  0  0  0
 14 20  1  0  0  0
 14 23  2  0  0  0
 15 29  1  0  0  0
 17 24  1  0  0  0
 17 30  1  0  0  0
 18 31  1  0  0  0
 18 32  1  0  0  0
 21 23  1  0  0  0
 21 22  2  0  0  0
 21 33  1  0  0  0
 22 34  1  0  0  0
 23 35  1  0  0  0
 24 25  1  0  0  0
 24 36  1  0  0  0
 24 37  1  0  0  0
 25 38  1  0  0  0
 25 39  1  0  0  0
 25 40  1  0  0  0
M  END
> <s_m_entry_id>
32069

> <s_m_entry_name>
dock_pv.332

> <s_m_Source_Path>
/home/csk/Desktop/cluster/DUD-E-result/src

> <s_m_Source_File>
dock_pv.maegz

> <i_m_Source_File_Index>
332

> <chembl_id>
CHEMBL422797

> <chembl_pref_name>
None

> <i_lp_mmshare_version>
53161

> <r_lp_tautomer_probability>
1

> <s_lp_Force_Field>
OPLS_2005

> <r_lp_Energy>
8.695397

> <b_lp_Chiralities_Consistent>
1

> <s_lp_Variant>
CHEMBL267_lig469-1

> <s_i_glide_gridfile>
glide-grid_3el8

> <i_i_glide_lignum>
561

> <i_i_glide_rotatable_bonds>
5

> <r_i_docking_score>
-7.39383349043968

> <r_i_glide_ligand_efficiency>
-0.295753339617587

> <r_i_glide_ligand_efficiency_sa>
-0.864788010249637

> <r_i_glide_ligand_efficiency_ln>
-1.75256011254388

> <r_i_glide_gscore>
-7.39383349043968

> <r_i_glide_lipo>
-3.12892444941247

> <r_i_glide_hbond>
-0.546342323785058

> <r_i_glide_metal>
0

> <r_i_glide_rewards>
-1.16969516429197

> <r_i_glide_evdw>
-38.192138671875

> <r_i_glide_ecoul>
-6.81413316726685

> <r_i_glide_erotb>
0.382855355733601

> <r_i_glide_esite>
0

> <r_i_glide_emodel>
-60.9753501261395

> <r_i_glide_energy>
-45.0062718391418

> <r_i_glide_einternal>
1.82682132720947

> <i_i_glide_confnum>
18

> <i_i_glide_posenum>
352

> <r_i_glide_eff_state_penalty>
0

> <s_user_duplicate_titles>
CHEMBL267_lig469,221502

> <i_f3d_flags>
0

> <s_m_subgroup_title>
dock_pv

> <s_m_subgroupid>
dock_pv

> <b_m_subgroup_collapsed>
1

$$$$
CHEMBL267_lig3468
                    3D
 Schrodinger Suite 2021-1.
 36 39  0  0  1  0            999 V2000
    5.8160    9.4195    5.6725 C   0  0  0  0  0  0
    7.2009    9.3273    5.5119 C   0  0  0  0  0  0
    7.9434    8.3190    6.1304 C   0  0  0  0  0  0
    5.1401    8.5201    6.5037 C   0  0  0  0  0  0
    5.8609    7.5039    7.1415 C   0  0  0  0  0  0
    7.2703    7.3941    6.9426 C   0  0  0  0  0  0
    6.7211    5.7374    8.1515 N   0  0  0  0  0  0
    5.5424    6.4178    7.9911 C   0  0  0  0  0  0
    5.0295   10.4596    4.9516 C   0  0  0  0  0  0
    3.8936   10.1137    4.3719 N   0  0  0  0  0  0
    5.3443   11.8143    4.8229 C   0  0  0  0  0  0
    4.0656   12.6416    3.9803 S   0  0  0  0  0  0
    3.2440   11.1249    3.8565 C   0  0  0  0  0  0
    1.2118    9.8663    2.9838 C   0  0  0  0  0  0
    0.9969    8.8806    4.1418 C   0  0  0  0  0  0
    0.6195    7.5732    3.8226 C   0  0  0  0  0  0
    0.4253    6.6320    4.8288 C   0  0  0  0  0  0
    0.5939    7.0019    6.1611 C   0  0  0  0  0  0
    0.9188    8.3134    6.4971 C   0  0  0  0  0  0
    1.1032    9.2562    5.4903 C   0  0  0  0  0  0
    7.7978    6.3116    7.5877 N   0  0  0  0  0  0
    1.9904   11.0678    3.2948 N   0  0  0  0  0  0
    7.7085   10.0336    4.8724 H   0  0  0  0  0  0
    9.0075    8.2436    5.9672 H   0  0  0  0  0  0
    4.0686    8.5893    6.6331 H   0  0  0  0  0  0
    4.6284    6.0460    8.4327 H   0  0  0  0  0  0
    6.1993   12.3524    5.1983 H   0  0  0  0  0  0
    1.7009    9.3479    2.1555 H   0  0  0  0  0  0
    0.2320   10.1696    2.6147 H   0  0  0  0  0  0
    0.4912    7.2818    2.7884 H   0  0  0  0  0  0
    0.1414    5.6210    4.5770 H   0  0  0  0  0  0
    0.4387    6.2696    6.9394 H   0  0  0  0  0  0
    1.0283    8.5971    7.5338 H   0  0  0  0  0  0
    1.3504   10.2717    5.7640 H   0  0  0  0  0  0
    6.8122    4.8916    8.7002 H   0  0  0  0  0  0
    1.6428   11.8822    2.8097 H   0  0  0  0  0  0
  1  2  1  0  0  0
  1  9  1  0  0  0
  1  4  2  0  0  0
  2  3  2  0  0  0
  2 23  1  0  0  0
  3  6  1  0  0  0
  3 24  1  0  0  0
  4 25  1  0  0  0
  4  5  1  0  0  0
  5  6  1  0  0  0
  5  8  2  0  0  0
  6 21  2  0  0  0
  7 35  1  0  0  0
  7 21  1  0  0  0
  7  8  1  0  0  0
  8 26  1  0  0  0
  9 10  1  0  0  0
  9 11  2  0  0  0
 10 13  2  0  0  0
 11 12  1  0  0  0
 11 27  1  0  0  0
 12 13  1  0  0  0
 13 22  1  0  0  0
 14 15  1  0  0  0
 14 22  1  0  0  0
 14 28  1  0  0  0
 14 29  1  0  0  0
 15 16  2  0  0  0
 15 20  1  0  0  0
 16 17  1  0  0  0
 16 30  1  0  0  0
 17 18  2  0  0  0
 17 31  1  0  0  0
 18 19  1  0  0  0
 18 32  1  0  0  0
 19 20  2  0  0  0
 19 33  1  0  0  0
 20 34  1  0  0  0
 22 36  1  0  0  0
M  END
> <s_m_entry_id>
32070

> <s_m_entry_name>
dock_pv.333

> <s_m_Source_Path>
/home/csk/Desktop/cluster/DUD-E-result/src

> <s_m_Source_File>
dock_pv.maegz

> <i_m_Source_File_Index>
333

> <chembl_id>
CHEMBL1682546

> <chembl_pref_name>
None

> <i_lp_mmshare_version>
53161

> <r_lp_tautomer_probability>
0.0196078431372549

> <s_lp_Force_Field>
OPLS_2005

> <r_lp_Energy>
21.464582

> <b_lp_Chiralities_Consistent>
1

> <s_lp_Variant>
CHEMBL267_lig3468-2

> <s_i_glide_gridfile>
glide-grid_3el8

> <i_i_glide_lignum>
4164

> <i_i_glide_rotatable_bonds>
4

> <r_i_docking_score>
-7.39175677189636

> <r_i_glide_ligand_efficiency>
-0.335988944177107

> <r_i_glide_ligand_efficiency_sa>
-0.941454235279607

> <r_i_glide_ligand_efficiency_ln>
-1.80681497593077

> <r_i_glide_gscore>
-7.39175677189636

> <r_i_glide_lipo>
-2.93465093612605

> <r_i_glide_hbond>
-0.535166387414932

> <r_i_glide_metal>
0

> <r_i_glide_rewards>
-2.15676307575758

> <r_i_glide_evdw>
-32.0918464660645

> <r_i_glide_ecoul>
-4.74359941482544

> <r_i_glide_erotb>
0.550955862929236

> <r_i_glide_esite>
0

> <r_i_glide_emodel>
-53.6122127908868

> <r_i_glide_energy>
-36.8354458808899

> <r_i_glide_einternal>
2.27225375175476

> <i_i_glide_confnum>
9

> <i_i_glide_posenum>
185

> <r_i_glide_eff_state_penalty>
0

> <s_user_duplicate_titles>
CHEMBL267_lig3468,CHEMBL267_lig3468

> <i_f3d_flags>
0

> <s_m_subgroup_title>
dock_pv

> <s_m_subgroupid>
dock_pv

> <b_m_subgroup_collapsed>
1

$$$$
CHEMBL267_lig3381
                    3D
 Schrodinger Suite 2021-1.
 44 47  0  0  1  0            999 V2000
    1.8202    6.0377    5.5667 C   0  0  0  0  0  0
    0.7542    6.9115    6.0145 N   0  0  0  0  0  0
   -0.1223    7.3347    4.9211 C   0  0  0  0  0  0
    0.6421    7.4400    7.2575 C   0  0  0  0  0  0
   -0.1985    8.2900    7.5405 O   0  0  0  0  0  0
    1.5088    6.9679    8.3142 C   0  0  0  0  0  0
    2.8954    7.1018    8.5469 C   0  0  0  0  0  0
    3.1730    6.5740    9.7306 N   0  0  0  0  0  0
    2.0394    6.0248   10.2792 N   0  0  0  0  0  0
    1.0581    6.2549    9.4110 N   0  0  0  0  0  0
   -0.2676    5.7095    9.7006 C   0  0  0  0  0  0
   -0.5200    4.2623    9.2807 C   0  0  0  0  0  0
    0.5121    3.3731    8.9653 C   0  0  0  0  0  0
    0.2031    2.0830    8.5447 C   0  0  0  0  0  0
   -1.1245    1.6876    8.3985 C   0  0  0  0  0  0
   -2.1503    2.5446    8.7875 C   0  0  0  0  0  0
   -1.8451    3.8286    9.2194 C   0  0  0  0  0  0
    4.0103    7.6945    7.7242 C   0  0  0  0  0  0
    3.7614    8.6124    6.6970 C   0  0  0  0  0  0
    4.7802    9.0901    5.8722 C   0  0  0  0  0  0
    6.0902    8.6444    6.0932 C   0  0  0  0  0  0
    7.2091    8.9618    5.3747 N   0  0  0  0  0  0
    8.1757    8.2593    5.9904 N   0  0  0  0  0  0
    7.7702    7.5370    7.0840 C   0  0  0  0  0  0
    6.3700    7.7454    7.1649 C   0  0  0  0  0  0
    5.3296    7.2840    7.9803 C   0  0  0  0  0  0
    2.6295    6.6497    5.1886 H   0  0  0  0  0  0
    2.1968    5.3835    6.3531 H   0  0  0  0  0  0
    1.4769    5.4370    4.7327 H   0  0  0  0  0  0
   -1.0018    7.8501    5.2951 H   0  0  0  0  0  0
    0.4028    7.9967    4.2307 H   0  0  0  0  0  0
   -0.4823    6.4725    4.3564 H   0  0  0  0  0  0
   -0.4695    5.8174   10.7675 H   0  0  0  0  0  0
   -1.0027    6.3285    9.1875 H   0  0  0  0  0  0
    1.5491    3.6627    9.0530 H   0  0  0  0  0  0
    0.9971    1.3752    8.3861 H   0  0  0  0  0  0
   -1.3598    0.6878    8.0638 H   0  0  0  0  0  0
   -3.1799    2.2233    8.7264 H   0  0  0  0  0  0
   -2.6534    4.4966    9.4679 H   0  0  0  0  0  0
    2.7566    8.9570    6.5098 H   0  0  0  0  0  0
    4.5590    9.7795    5.0703 H   0  0  0  0  0  0
    9.1291    8.2750    5.6524 H   0  0  0  0  0  0
    8.4800    6.9552    7.6497 H   0  0  0  0  0  0
    5.5468    6.5802    8.7699 H   0  0  0  0  0  0
  1  2  1  0  0  0
  1 27  1  0  0  0
  1 28  1  0  0  0
  1 29  1  0  0  0
  2  3  1  0  0  0
  2  4  1  0  0  0
  3 30  1  0  0  0
  3 31  1  0  0  0
  3 32  1  0  0  0
  4  5  2  0  0  0
  4  6  1  0  0  0
  6  7  2  0  0  0
  6 10  1  0  0  0
  7  8  1  0  0  0
  7 18  1  0  0  0
  8  9  2  0  0  0
  9 10  1  0  0  0
 10 11  1  0  0  0
 11 12  1  0  0  0
 11 33  1  0  0  0
 11 34  1  0  0  0
 12 13  2  0  0  0
 12 17  1  0  0  0
 13 14  1  0  0  0
 13 35  1  0  0  0
 14 15  2  0  0  0
 14 36  1  0  0  0
 15 16  1  0  0  0
 15 37  1  0  0  0
 16 17  2  0  0  0
 16 38  1  0  0  0
 17 39  1  0  0  0
 18 19  1  0  0  0
 18 26  2  0  0  0
 19 20  2  0  0  0
 19 40  1  0  0  0
 20 21  1  0  0  0
 20 41  1  0  0  0
 21 22  2  0  0  0
 21 25  1  0  0  0
 22 23  1  0  0  0
 23 42  1  0  0  0
 23 24  1  0  0  0
 24 25  2  0  0  0
 24 43  1  0  0  0
 25 26  1  0  0  0
 26 44  1  0  0  0
M  END
> <s_m_entry_id>
32071

> <s_m_entry_name>
dock_pv.334

> <s_m_Source_Path>
/home/csk/Desktop/cluster/DUD-E-result/src

> <s_m_Source_File>
dock_pv.maegz

> <i_m_Source_File_Index>
334

> <chembl_id>
CHEMBL1996111

> <chembl_pref_name>
None

> <i_lp_mmshare_version>
53161

> <r_lp_tautomer_probability>
0.0196078431372549

> <s_lp_Force_Field>
OPLS_2005

> <r_lp_Energy>
38.648114

> <b_lp_Chiralities_Consistent>
1

> <s_lp_Variant>
CHEMBL267_lig3381-2

> <s_i_glide_gridfile>
glide-grid_3el8

> <i_i_glide_lignum>
4022

> <i_i_glide_rotatable_bonds>
5

> <r_i_docking_score>
-7.38526715550354

> <r_i_glide_ligand_efficiency>
-0.284048736750136

> <r_i_glide_ligand_efficiency_sa>
-0.84149326494447

> <r_i_glide_ligand_efficiency_ln>
-1.73440575843193

> <r_i_glide_gscore>
-7.38526715550354

> <r_i_glide_lipo>
-3.67077185280573

> <r_i_glide_hbond>
-0.202305644043464

> <r_i_glide_metal>
0

> <r_i_glide_rewards>
-1.35899371815136

> <r_i_glide_evdw>
-38.836856842041

> <r_i_glide_ecoul>
-5.63438653945923

> <r_i_glide_erotb>
0.633804882517952

> <r_i_glide_esite>
0

> <r_i_glide_emodel>
-60.5820774351823

> <r_i_glide_energy>
-44.4712433815002

> <r_i_glide_einternal>
6.59250736236572

> <i_i_glide_confnum>
46

> <i_i_glide_posenum>
121

> <r_i_glide_eff_state_penalty>
0

> <s_user_duplicate_titles>
CHEMBL267_lig3381,CHEMBL267_lig3381

> <i_f3d_flags>
0

> <s_m_subgroup_title>
dock_pv

> <s_m_subgroupid>
dock_pv

> <b_m_subgroup_collapsed>
1

$$$$
CHEMBL267_lig1758
                    3D
 Schrodinger Suite 2021-1.
 44 47  0  0  1  0            999 V2000
    0.6883    6.2156    7.9164 N   0  0  0  0  0  0
    1.5976    7.1048    7.4268 C   0  0  0  0  0  0
    2.6000    7.6839    8.1506 N   0  0  0  0  0  0
    0.7608    5.8353    9.2128 C   0  0  0  0  0  0
    1.7817    6.3733    9.9956 C   0  0  0  0  0  0
    2.6973    7.2894    9.4220 C   0  0  0  0  0  0
    3.6380    7.6928   10.3328 N   0  0  0  0  0  0
    3.3251    7.0370   11.4234 C   0  0  0  0  0  0
    2.1980    6.2560   11.2990 N   0  0  0  0  0  0
   -0.2403    4.9941    9.7016 N   0  0  0  0  0  0
   -0.6215    3.7476    9.1880 C   0  0  0  0  0  0
    0.3249    2.8108    8.7653 C   0  0  0  0  0  0
   -0.0927    1.5341    8.3880 C   0  0  0  0  0  0
   -1.4371    1.1908    8.3957 C   0  0  0  0  0  0
   -2.3826    2.1404    8.7880 C   0  0  0  0  0  0
   -1.9759    3.4127    9.1880 C   0  0  0  0  0  0
    1.4135    7.5288    6.1085 N   0  0  0  0  0  0
    2.3762    8.4307    5.4335 C   0  0  0  0  0  0
    1.9044    9.0199    4.0776 C   0  0  0  0  0  0
    1.3980    7.9820    3.1880 N   0  0  0  0  0  0
    0.2786    7.3436    3.8613 C   0  0  0  0  0  0
    0.7570    6.6325    5.1341 C   0  0  0  0  0  0
   -1.9093   -0.5121    8.0490 S   0  0  0  0  0  0
   -2.2020   -0.5630    6.3364 N   0  0  0  0  0  0
   -0.7430   -1.3629    8.3042 O   0  0  0  0  0  0
   -3.1852   -0.7642    8.7275 O   0  0  0  0  0  0
    1.8214    5.6833   12.0412 H   0  0  0  0  0  0
    3.8563    7.0697   12.3657 H   0  0  0  0  0  0
   -1.0626    5.5178    9.9806 H   0  0  0  0  0  0
    1.3779    3.0504    8.7783 H   0  0  0  0  0  0
    0.5980    0.7665    8.1042 H   0  0  0  0  0  0
   -3.4330    1.8837    8.8056 H   0  0  0  0  0  0
   -2.7153    4.1304    9.5131 H   0  0  0  0  0  0
    3.2935    7.8725    5.2493 H   0  0  0  0  0  0
    2.6170    9.2676    6.0901 H   0  0  0  0  0  0
    1.1398    9.7830    4.2347 H   0  0  0  0  0  0
    2.7273    9.5321    3.5779 H   0  0  0  0  0  0
    1.0875    8.3550    2.2947 H   0  0  0  0  0  0
   -0.4936    8.0745    4.0984 H   0  0  0  0  0  0
   -0.1981    6.6370    3.1880 H   0  0  0  0  0  0
   -0.1090    6.1371    5.5752 H   0  0  0  0  0  0
    1.4690    5.8587    4.8414 H   0  0  0  0  0  0
   -2.9464    0.1082    6.0865 H   0  0  0  0  0  0
   -1.3503   -0.4060    5.7943 H   0  0  0  0  0  0
  1  2  2  0  0  0
  1  4  1  0  0  0
  2 17  1  0  0  0
  2  3  1  0  0  0
  3  6  2  0  0  0
  4 10  1  0  0  0
  4  5  2  0  0  0
  5  9  1  0  0  0
  5  6  1  0  0  0
  6  7  1  0  0  0
  7  8  2  0  0  0
  8  9  1  0  0  0
  8 28  1  0  0  0
  9 27  1  0  0  0
 10 11  1  0  0  0
 10 29  1  0  0  0
 11 16  1  0  0  0
 11 12  2  0  0  0
 12 13  1  0  0  0
 12 30  1  0  0  0
 13 14  2  0  0  0
 13 31  1  0  0  0
 14 15  1  0  0  0
 14 23  1  0  0  0
 15 16  2  0  0  0
 15 32  1  0  0  0
 16 33  1  0  0  0
 17 18  1  0  0  0
 17 22  1  0  0  0
 18 19  1  0  0  0
 18 34  1  0  0  0
 18 35  1  0  0  0
 19 20  1  0  0  0
 19 36  1  0  0  0
 19 37  1  0  0  0
 20 21  1  0  0  0
 20 38  1  0  0  0
 21 22  1  0  0  0
 21 39  1  0  0  0
 21 40  1  0  0  0
 22 41  1  0  0  0
 22 42  1  0  0  0
 23 24  1  0  0  0
 23 25  2  0  0  0
 23 26  2  0  0  0
 24 43  1  0  0  0
 24 44  1  0  0  0
M  END
> <s_m_entry_id>
32072

> <s_m_entry_name>
dock_pv.335

> <s_m_Source_Path>
/home/csk/Desktop/cluster/DUD-E-result/src

> <s_m_Source_File>
dock_pv.maegz

> <i_m_Source_File_Index>
335

> <chembl_id>
CHEMBL1172711

> <chembl_pref_name>
None

> <i_lp_mmshare_version>
53161

> <r_lp_tautomer_probability>
0.0419191988452545

> <s_lp_Force_Field>
OPLS_2005

> <r_lp_Energy>
39.739898

> <b_lp_Chiralities_Consistent>
1

> <s_lp_Variant>
CHEMBL267_lig1758-2

> <s_i_glide_gridfile>
glide-grid_3el8

> <i_i_glide_lignum>
1995

> <i_i_glide_rotatable_bonds>
4

> <r_i_docking_score>
-7.38170889556316

> <r_i_glide_ligand_efficiency>
-0.283911880598583

> <r_i_glide_ligand_efficiency_sa>
-0.841087829133997

> <r_i_glide_ligand_efficiency_ln>
-1.73357011276054

> <r_i_glide_gscore>
-7.38170889556316

> <r_i_glide_lipo>
-2.24420115881101

> <r_i_glide_hbond>
-0.478912304823274

> <r_i_glide_metal>
0

> <r_i_glide_rewards>
-1.54014968944727

> <r_i_glide_evdw>
-46.6999435424805

> <r_i_glide_ecoul>
-7.18710136413574

> <r_i_glide_erotb>
0.413772414729439

> <r_i_glide_esite>
-0.119155775466658

> <r_i_glide_emodel>
-72.0284892338778

> <r_i_glide_energy>
-53.8870449066162

> <r_i_glide_einternal>
11.0326013565063

> <i_i_glide_confnum>
7

> <i_i_glide_posenum>
50

> <r_i_glide_eff_state_penalty>
0

> <s_user_duplicate_titles>
CHEMBL267_lig1758

> <i_f3d_flags>
0

> <s_m_subgroup_title>
dock_pv

> <s_m_subgroupid>
dock_pv

> <b_m_subgroup_collapsed>
1

$$$$
CHEMBL267_lig487
                    3D
 Schrodinger Suite 2021-1.
 59 63  0  0  1  0            999 V2000
    2.8916    8.6998    5.7259 C   0  0  0  0  0  0
    2.5647    8.1559    7.0187 C   0  0  0  0  0  0
    3.7977    7.6056   10.5314 N   0  0  0  0  0  0
    4.1359    9.2894    5.3933 N   0  0  0  0  0  0
    1.8066    7.0290    9.5263 C   0  0  0  0  0  0
    1.7978    6.5945   10.8480 N   0  0  0  0  0  0
    3.0659    7.6463    9.3808 C   0  0  0  0  0  0
    0.9214    6.9996    8.4447 C   0  0  0  0  0  0
    1.2780    7.5559    7.1950 C   0  0  0  0  0  0
    3.0133    6.9891   11.3682 C   0  0  0  0  0  0
    1.8780    8.6892    4.7402 C   0  0  0  0  0  0
    3.4143    8.2064    8.1556 C   0  0  0  0  0  0
    5.4902    8.9709    5.6109 C   0  0  0  0  0  0
    0.3547    7.5097    6.2020 N   0  0  0  0  0  0
    2.0439    9.2998    3.4218 C   0  0  0  0  0  0
    2.1823    9.7903    2.3848 N   0  0  0  0  0  0
    5.8932    7.8370    6.3262 C   0  0  0  0  0  0
   -0.3524    4.4581    9.8346 N   0  0  0  0  0  0
    0.6581    8.0774    5.0171 C   0  0  0  0  0  0
    6.4757    9.7917    5.0329 C   0  0  0  0  0  0
    0.7588    5.9407   11.6529 C   0  0  0  0  0  0
   -0.5845    1.7826    8.7838 O   0  0  0  0  0  0
    7.8243    9.4676    5.1913 C   0  0  0  0  0  0
   -0.4956    5.4369   10.9231 C   0  0  0  0  0  0
    7.2455    7.5428    6.5460 C   0  0  0  0  0  0
    8.1995    8.3655    5.9559 C   0  0  0  0  0  0
    7.7024    6.4753    7.2985 O   0  0  0  0  0  0
    0.7207    3.4749    9.9900 C   0  0  0  0  0  0
   -1.6623    3.8365    9.5874 C   0  0  0  0  0  0
   -1.5893    2.7469    8.5113 C   0  0  0  0  0  0
    0.7043    2.3662    8.9167 C   0  0  0  0  0  0
    6.1152   11.0313    4.2188 C   0  0  0  0  0  0
    6.7834    5.7608    8.1280 C   0  0  0  0  0  0
    4.0454    9.9469    4.6323 H   0  0  0  0  0  0
   -0.0588    6.5574    8.5248 H   0  0  0  0  0  0
    3.2525    6.7692   12.3989 H   0  0  0  0  0  0
    4.3755    8.6732    8.0807 H   0  0  0  0  0  0
    5.1495    7.1556    6.6984 H   0  0  0  0  0  0
   -0.1301    8.0332    4.2764 H   0  0  0  0  0  0
    1.1914    5.1133   12.1936 H   0  0  0  0  0  0
    0.4547    6.6375   12.4300 H   0  0  0  0  0  0
    8.5924   10.0856    4.7490 H   0  0  0  0  0  0
   -1.1534    5.0330   11.6945 H   0  0  0  0  0  0
   -1.0018    6.3115   10.5285 H   0  0  0  0  0  0
    9.2492    8.1535    6.0967 H   0  0  0  0  0  0
    1.6868    3.9789    9.9869 H   0  0  0  0  0  0
    0.5980    3.0369   10.9754 H   0  0  0  0  0  0
   -2.0630    3.4075   10.5065 H   0  0  0  0  0  0
   -2.3712    4.6039    9.2729 H   0  0  0  0  0  0
   -2.5540    2.2544    8.3884 H   0  0  0  0  0  0
   -1.3485    3.2401    7.5878 H   0  0  0  0  0  0
    1.3967    1.5758    9.2021 H   0  0  0  0  0  0
    1.0513    2.7556    7.9614 H   0  0  0  0  0  0
    5.5198   11.7184    4.8214 H   0  0  0  0  0  0
    6.9953   11.5726    3.8684 H   0  0  0  0  0  0
    5.5178   10.7543    3.3492 H   0  0  0  0  0  0
    7.3319    5.0407    8.7353 H   0  0  0  0  0  0
    6.0430    5.1813    7.5881 H   0  0  0  0  0  0
    6.2416    6.4361    8.7879 H   0  0  0  0  0  0
  1  2  1  0  0  0
  1  4  1  0  0  0
  1 11  2  0  0  0
  2  9  1  0  0  0
  2 12  2  0  0  0
  3  7  1  0  0  0
  3 10  2  0  0  0
  4 13  1  0  0  0
  4 34  1  0  0  0
  5  7  2  0  0  0
  5  6  1  0  0  0
  5  8  1  0  0  0
  6 21  1  0  0  0
  6 10  1  0  0  0
  7 12  1  0  0  0
  8  9  2  0  0  0
  8 35  1  0  0  0
  9 14  1  0  0  0
 10 36  1  0  0  0
 11 15  1  0  0  0
 11 19  1  0  0  0
 12 37  1  0  0  0
 13 17  2  0  0  0
 13 20  1  0  0  0
 14 19  2  0  0  0
 15 16  3  0  0  0
 17 25  1  0  0  0
 17 38  1  0  0  0
 18 24  1  0  0  0
 18 28  1  0  0  0
 18 29  1  0  0  0
 19 39  1  0  0  0
 20 23  2  0  0  0
 20 32  1  0  0  0
 21 24  1  0  0  0
 21 40  1  0  0  0
 21 41  1  0  0  0
 22 30  1  0  0  0
 22 31  1  0  0  0
 23 26  1  0  0  0
 23 42  1  0  0  0
 24 43  1  0  0  0
 24 44  1  0  0  0
 25 27  1  0  0  0
 25 26  2  0  0  0
 26 45  1  0  0  0
 27 33  1  0  0  0
 28 31  1  0  0  0
 28 46  1  0  0  0
 28 47  1  0  0  0
 29 30  1  0  0  0
 29 48  1  0  0  0
 29 49  1  0  0  0
 30 50  1  0  0  0
 30 51  1  0  0  0
 31 52  1  0  0  0
 31 53  1  0  0  0
 32 54  1  0  0  0
 32 55  1  0  0  0
 32 56  1  0  0  0
 33 57  1  0  0  0
 33 58  1  0  0  0
 33 59  1  0  0  0
M  END
> <s_m_entry_id>
32073

> <s_m_entry_name>
dock_pv.336

> <s_m_Source_Path>
/home/csk/Desktop/cluster/DUD-E-result/src

> <s_m_Source_File>
dock_pv.maegz

> <i_m_Source_File_Index>
336

> <chembl_id>
CHEMBL92729

> <chembl_pref_name>
None

> <i_lp_mmshare_version>
53161

> <r_lp_tautomer_probability>
1

> <s_lp_Force_Field>
OPLS_2005

> <r_lp_Energy>
49.982386

> <b_lp_Chiralities_Consistent>
1

> <s_lp_Variant>
CHEMBL267_lig487-1

> <s_i_glide_gridfile>
glide-grid_3el8

> <i_i_glide_lignum>
579

> <i_i_glide_rotatable_bonds>
6

> <r_i_docking_score>
-7.38063552519951

> <r_i_glide_ligand_efficiency>
-0.223655621975743

> <r_i_glide_ligand_efficiency_sa>
-0.717383084747652

> <r_i_glide_ligand_efficiency_ln>
-1.64141512591884

> <r_i_glide_gscore>
-7.38063552519951

> <r_i_glide_lipo>
-4.03569635943377

> <r_i_glide_hbond>
-0.249995867227777

> <r_i_glide_metal>
0

> <r_i_glide_rewards>
-1.03478436903789

> <r_i_glide_evdw>
-45.6364059448242

> <r_i_glide_ecoul>
-1.92405736446381

> <r_i_glide_erotb>
0.510269972410704

> <r_i_glide_esite>
0

> <r_i_glide_emodel>
-56.7694843872304

> <r_i_glide_energy>
-47.560463309288

> <r_i_glide_einternal>
16.6131439208984

> <i_i_glide_confnum>
4

> <i_i_glide_posenum>
37

> <r_i_glide_eff_state_penalty>
0

> <s_user_duplicate_titles>
CHEMBL267_lig487

> <i_f3d_flags>
0

> <s_m_subgroup_title>
dock_pv

> <s_m_subgroupid>
dock_pv

> <b_m_subgroup_collapsed>
1

$$$$
CHEMBL267_lig463
                    3D
 Schrodinger Suite 2021-1.
 46 48  0  0  1  0            999 V2000
    3.0843    7.9058    7.8506 C   0  0  0  0  0  0
    3.2845    6.8532    8.7639 C   0  0  0  0  0  0
    1.8096    8.5066    7.8056 N   0  0  0  0  0  0
    4.0790    8.3767    7.0556 N   0  0  0  0  0  0
    2.2285    6.4036    9.7205 C   0  0  0  0  0  0
    1.2836    9.4369    6.9788 C   0  0  0  0  0  0
    5.3108    7.8340    7.1357 C   0  0  0  0  0  0
    4.5414    6.2443    8.7980 C   0  0  0  0  0  0
    5.5842    6.7314    7.9883 C   0  0  0  0  0  0
    6.3415    8.3655    6.3359 C   0  0  0  0  0  0
    7.8846    6.7023    7.1882 N   0  0  0  0  0  0
    7.5922    7.7669    6.4027 C   0  0  0  0  0  0
    2.0745    9.9062    5.9886 N   0  0  0  0  0  0
    1.0518    5.7763    9.2666 C   0  0  0  0  0  0
    2.3798    6.6335   11.1025 C   0  0  0  0  0  0
    6.8927    6.2065    7.9650 C   0  0  0  0  0  0
    0.1385    9.8206    7.1841 O   0  0  0  0  0  0
    1.7798   10.7814    4.8502 C   0  0  0  0  0  0
    8.5980    8.2558    5.5917 N   0  0  0  0  0  0
    0.7932    5.4373    7.5899 Cl  0  0  0  0  0  0
    3.7974    7.3966   11.7542 Cl  0  0  0  0  0  0
    0.1984    5.6709   11.5231 C   0  0  0  0  0  0
    0.0495    5.4159   10.1640 C   0  0  0  0  0  0
    1.3668    6.2661   11.9885 C   0  0  0  0  0  0
    1.0099    9.9895    3.7749 C   0  0  0  0  0  0
    3.1343   11.2189    4.2521 C   0  0  0  0  0  0
    1.0155   12.0597    5.2686 C   0  0  0  0  0  0
    1.1718    8.1422    8.4935 H   0  0  0  0  0  0
    4.7371    5.4350    9.4830 H   0  0  0  0  0  0
    6.1439    9.2045    5.6837 H   0  0  0  0  0  0
    3.0183    9.5425    5.9966 H   0  0  0  0  0  0
    7.1401    5.3558    8.5866 H   0  0  0  0  0  0
    8.4084    9.0256    4.9706 H   0  0  0  0  0  0
    9.4175    7.6646    5.4552 H   0  0  0  0  0  0
   -0.5961    5.4172   12.2107 H   0  0  0  0  0  0
   -0.8632    4.9591    9.8039 H   0  0  0  0  0  0
    1.4817    6.4661   13.0445 H   0  0  0  0  0  0
    0.1950    9.4263    4.2158 H   0  0  0  0  0  0
    0.5978   10.6376    3.0004 H   0  0  0  0  0  0
    1.6454    9.2560    3.2787 H   0  0  0  0  0  0
    3.7416   11.7642    4.9790 H   0  0  0  0  0  0
    3.7262   10.3653    3.9156 H   0  0  0  0  0  0
    2.9978   11.8737    3.3886 H   0  0  0  0  0  0
    1.5614   12.6194    6.0284 H   0  0  0  0  0  0
    0.8585   12.7272    4.4232 H   0  0  0  0  0  0
    0.0352   11.8412    5.6854 H   0  0  0  0  0  0
  1  2  1  0  0  0
  1  3  1  0  0  0
  1  4  2  0  0  0
  2  5  1  0  0  0
  2  8  2  0  0  0
  3  6  1  0  0  0
  3 28  1  0  0  0
  4  7  1  0  0  0
  5 14  1  0  0  0
  5 15  2  0  0  0
  6 13  1  0  0  0
  6 17  2  0  0  0
  7  9  1  0  0  0
  7 10  2  0  0  0
  8  9  1  0  0  0
  8 29  1  0  0  0
  9 16  2  0  0  0
 10 12  1  0  0  0
 10 30  1  0  0  0
 11 12  2  0  0  0
 11 16  1  0  0  0
 12 19  1  0  0  0
 13 18  1  0  0  0
 13 31  1  0  0  0
 14 20  1  0  0  0
 14 23  2  0  0  0
 15 21  1  0  0  0
 15 24  1  0  0  0
 16 32  1  0  0  0
 18 25  1  0  0  0
 18 26  1  0  0  0
 18 27  1  0  0  0
 19 33  1  0  0  0
 19 34  1  0  0  0
 22 24  2  0  0  0
 22 23  1  0  0  0
 22 35  1  0  0  0
 23 36  1  0  0  0
 24 37  1  0  0  0
 25 38  1  0  0  0
 25 39  1  0  0  0
 25 40  1  0  0  0
 26 41  1  0  0  0
 26 42  1  0  0  0
 26 43  1  0  0  0
 27 44  1  0  0  0
 27 45  1  0  0  0
 27 46  1  0  0  0
M  END
> <s_m_entry_id>
32074

> <s_m_entry_name>
dock_pv.337

> <s_m_Source_Path>
/home/csk/Desktop/cluster/DUD-E-result/src

> <s_m_Source_File>
dock_pv.maegz

> <i_m_Source_File_Index>
337

> <chembl_id>
CHEMBL132358

> <chembl_pref_name>
None

> <i_lp_mmshare_version>
53161

> <r_lp_tautomer_probability>
1

> <s_lp_Force_Field>
OPLS_2005

> <r_lp_Energy>
10.49749

> <b_lp_Chiralities_Consistent>
1

> <s_lp_Variant>
CHEMBL267_lig463-1

> <s_i_glide_gridfile>
glide-grid_3el8

> <i_i_glide_lignum>
555

> <i_i_glide_rotatable_bonds>
5

> <r_i_docking_score>
-7.37832383753593

> <r_i_glide_ligand_efficiency>
-0.273271253242072

> <r_i_glide_ligand_efficiency_sa>
-0.819813758825557

> <r_i_glide_ligand_efficiency_ln>
-1.71755214820313

> <r_i_glide_gscore>
-7.37832383753593

> <r_i_glide_lipo>
-3.24872173006095

> <r_i_glide_hbond>
-0.550224339470461

> <r_i_glide_metal>
0

> <r_i_glide_rewards>
-1.00521162086874

> <r_i_glide_evdw>
-38.3725776672363

> <r_i_glide_ecoul>
-6.61337995529175

> <r_i_glide_erotb>
0.336469729519792

> <r_i_glide_esite>
0

> <r_i_glide_emodel>
-60.3931543419573

> <r_i_glide_energy>
-44.9859576225281

> <r_i_glide_einternal>
1.51705038547516

> <i_i_glide_confnum>
4

> <i_i_glide_posenum>
159

> <r_i_glide_eff_state_penalty>
0

> <s_user_duplicate_titles>
CHEMBL267_lig463,221501

> <i_f3d_flags>
0

> <s_m_subgroup_title>
dock_pv

> <s_m_subgroupid>
dock_pv

> <b_m_subgroup_collapsed>
1

$$$$
CHEMBL267_lig3421
                    3D
 Schrodinger Suite 2021-1.
 44 47  0  0  1  0            999 V2000
    7.9819    6.8445    7.4741 O   0  0  0  0  0  0
    2.9181   12.3743    2.7218 O   0  0  0  0  0  0
   -2.4969    1.6575    8.7880 O   0  0  0  0  0  0
    0.2334    8.0781    6.6006 N   0  0  0  0  0  0
    0.1981    7.0070    7.3820 N   0  0  0  0  0  0
    1.6124    5.3718    8.4721 N   0  0  0  0  0  0
    2.3394    7.4798    7.2129 C   0  0  0  0  0  0
    1.5110    8.3520    6.4425 C   0  0  0  0  0  0
    1.4324    6.5576    7.7729 C   0  0  0  0  0  0
    3.8471    7.4371    7.3288 C   0  0  0  0  0  0
    1.8775    9.4377    5.4759 C   0  0  0  0  0  0
    4.4329    6.7155    8.3779 C   0  0  0  0  0  0
    4.6932    7.9903    6.3555 C   0  0  0  0  0  0
    0.6280    4.4037    8.7367 C   0  0  0  0  0  0
    2.7856   10.4423    5.8185 C   0  0  0  0  0  0
    1.3172    9.4313    4.1920 C   0  0  0  0  0  0
    5.8003    6.4719    8.3880 C   0  0  0  0  0  0
    6.0766    7.8377    6.4287 C   0  0  0  0  0  0
    6.6291    7.0605    7.4402 C   0  0  0  0  0  0
    3.1289   11.4290    4.8987 C   0  0  0  0  0  0
    1.6622   10.4132    3.2664 C   0  0  0  0  0  0
    2.5669   11.4095    3.6257 C   0  0  0  0  0  0
    0.8542    3.0725    8.3880 C   0  0  0  0  0  0
   -0.6025    4.7554    9.2750 C   0  0  0  0  0  0
   -1.4588    2.5517    8.7882 C   0  0  0  0  0  0
   -0.1895    2.1496    8.3880 C   0  0  0  0  0  0
   -1.6522    3.8370    9.2839 C   0  0  0  0  0  0
    8.4364    7.2780    6.7462 H   0  0  0  0  0  0
    2.5342   12.2366    1.8530 H   0  0  0  0  0  0
   -3.0727    1.7163    8.0084 H   0  0  0  0  0  0
   -0.6734    6.5153    7.5673 H   0  0  0  0  0  0
    2.5401    4.9756    8.4846 H   0  0  0  0  0  0
    3.8413    6.2823    9.1682 H   0  0  0  0  0  0
    4.2999    8.4878    5.4869 H   0  0  0  0  0  0
    3.2571   10.4349    6.7878 H   0  0  0  0  0  0
    0.6197    8.6569    3.9040 H   0  0  0  0  0  0
    6.2126    5.8373    9.1586 H   0  0  0  0  0  0
    6.7028    8.2705    5.6627 H   0  0  0  0  0  0
    3.8401   12.1970    5.1655 H   0  0  0  0  0  0
    1.2278   10.3897    2.2777 H   0  0  0  0  0  0
    1.8008    2.7661    7.9888 H   0  0  0  0  0  0
   -0.7898    5.7641    9.6110 H   0  0  0  0  0  0
   -0.0196    1.1348    8.0586 H   0  0  0  0  0  0
   -2.6229    4.1418    9.6436 H   0  0  0  0  0  0
  1 19  1  0  0  0
  1 28  1  0  0  0
  2 22  1  0  0  0
  2 29  1  0  0  0
  3 25  1  0  0  0
  3 30  1  0  0  0
  4  5  1  0  0  0
  4  8  2  0  0  0
  5  9  1  0  0  0
  5 31  1  0  0  0
  6  9  1  0  0  0
  6 14  1  0  0  0
  6 32  1  0  0  0
  7  8  1  0  0  0
  7  9  2  0  0  0
  7 10  1  0  0  0
  8 11  1  0  0  0
 10 12  2  0  0  0
 10 13  1  0  0  0
 11 15  2  0  0  0
 11 16  1  0  0  0
 12 17  1  0  0  0
 12 33  1  0  0  0
 13 18  2  0  0  0
 13 34  1  0  0  0
 14 23  2  0  0  0
 14 24  1  0  0  0
 15 20  1  0  0  0
 15 35  1  0  0  0
 16 21  2  0  0  0
 16 36  1  0  0  0
 17 19  2  0  0  0
 17 37  1  0  0  0
 18 19  1  0  0  0
 18 38  1  0  0  0
 20 22  2  0  0  0
 20 39  1  0  0  0
 21 22  1  0  0  0
 21 40  1  0  0  0
 23 26  1  0  0  0
 23 41  1  0  0  0
 24 27  2  0  0  0
 24 42  1  0  0  0
 25 26  2  0  0  0
 25 27  1  0  0  0
 26 43  1  0  0  0
 27 44  1  0  0  0
M  END
> <s_m_entry_id>
32075

> <s_m_entry_name>
dock_pv.338

> <s_m_Source_Path>
/home/csk/Desktop/cluster/DUD-E-result/src

> <s_m_Source_File>
dock_pv.maegz

> <i_m_Source_File_Index>
338

> <chembl_id>
CHEMBL1969042

> <chembl_pref_name>
None

> <i_lp_mmshare_version>
53161

> <r_lp_tautomer_probability>
0.157399999843178

> <s_lp_Force_Field>
OPLS_2005

> <r_lp_Energy>
22.114744

> <b_lp_Chiralities_Consistent>
1

> <s_lp_Variant>
CHEMBL267_lig3421-2

> <s_i_glide_gridfile>
glide-grid_3el8

> <i_i_glide_lignum>
4084

> <i_i_glide_rotatable_bonds>
7

> <r_i_docking_score>
-7.37728628795428

> <r_i_glide_ligand_efficiency>
-0.273232825479788

> <r_i_glide_ligand_efficiency_sa>
-0.819698475538834

> <r_i_glide_ligand_efficiency_ln>
-1.71731062376586

> <r_i_glide_gscore>
-7.37728628795428

> <r_i_glide_lipo>
-3.04278258252429

> <r_i_glide_hbond>
-0.646912556160775

> <r_i_glide_metal>
0

> <r_i_glide_rewards>
-1.19327398337385

> <r_i_glide_evdw>
-31.3714637756348

> <r_i_glide_ecoul>
-9.86624622344971

> <r_i_glide_erotb>
0.593614415198765

> <r_i_glide_esite>
-0.0394214587949422

> <r_i_glide_emodel>
-47.7869705249704

> <r_i_glide_energy>
-41.2377099990845

> <r_i_glide_einternal>
11.5233745574951

> <i_i_glide_confnum>
11

> <i_i_glide_posenum>
180

> <r_i_glide_eff_state_penalty>
0

> <s_user_duplicate_titles>
CHEMBL267_lig3421

> <i_f3d_flags>
0

> <s_m_subgroup_title>
dock_pv

> <s_m_subgroupid>
dock_pv

> <b_m_subgroup_collapsed>
1

$$$$
CHEMBL267_lig3886
                    3D
 Schrodinger Suite 2021-1.
 44 47  0  0  1  0            999 V2000
    1.7506    7.5146    6.0432 C   0  0  0  0  0  0
    1.0511    7.0619    7.1143 N   0  0  0  0  0  0
    1.7567    7.0478    8.2522 C   0  0  0  0  0  0
    3.1259    7.4342    8.3813 C   0  0  0  0  0  0
    3.7640    7.8360    7.1776 C   0  0  0  0  0  0
    3.0362    7.9227    6.0328 N   0  0  0  0  0  0
    1.3014    6.6366    9.4969 N   0  0  0  0  0  0
    3.4518    7.2836    9.7756 C   0  0  0  0  0  0
    2.3315    6.7743   10.4006 C   0  0  0  0  0  0
    5.1431    8.0306    7.0404 N   0  0  0  0  0  0
    6.1328    7.8346    8.1134 C   0  0  0  0  0  0
    7.5244    7.4057    7.5863 C   0  0  0  0  0  0
    7.9956    8.3118    6.6083 O   0  0  0  0  0  0
    7.1220    8.3769    5.4962 C   0  0  0  0  0  0
    5.7213    8.8396    5.9447 C   0  0  0  0  0  0
    0.9636    7.5096    4.4635 S   0  0  0  0  0  0
   -0.6096    6.6380    4.6486 C   0  0  0  0  0  0
    0.0006    6.0345    9.7969 C   0  0  0  0  0  0
   -0.1358    4.5694    9.3981 C   0  0  0  0  0  0
   -1.4025    4.0220    9.1892 C   0  0  0  0  0  0
   -1.5536    2.7054    8.7720 C   0  0  0  0  0  0
   -0.4210    1.9244    8.5719 C   0  0  0  0  0  0
    0.8382    2.4471    8.8435 C   0  0  0  0  0  0
    0.9910    3.7625    9.2431 C   0  0  0  0  0  0
   -0.5461    0.6397    8.1700 F   0  0  0  0  0  0
    4.3776    7.4962   10.2853 H   0  0  0  0  0  0
    2.1835    6.4845   11.4315 H   0  0  0  0  0  0
    6.2041    8.7341    8.7239 H   0  0  0  0  0  0
    5.8050    7.0291    8.7721 H   0  0  0  0  0  0
    7.4932    6.3880    7.1913 H   0  0  0  0  0  0
    8.2574    7.4011    8.3879 H   0  0  0  0  0  0
    7.0754    7.4169    4.9798 H   0  0  0  0  0  0
    7.5304    9.0970    4.7897 H   0  0  0  0  0  0
    5.0886    8.8075    5.0575 H   0  0  0  0  0  0
    5.7491    9.8847    6.2578 H   0  0  0  0  0  0
   -1.0895    6.5303    3.6773 H   0  0  0  0  0  0
   -0.4389    5.6464    5.0627 H   0  0  0  0  0  0
   -1.2735    7.1841    5.3157 H   0  0  0  0  0  0
   -0.7500    6.6158    9.2589 H   0  0  0  0  0  0
   -0.2103    6.1429   10.8620 H   0  0  0  0  0  0
   -2.2826    4.6369    9.3092 H   0  0  0  0  0  0
   -2.5366    2.2955    8.5840 H   0  0  0  0  0  0
    1.7097    1.8367    8.7881 H   0  0  0  0  0  0
    1.9865    4.1337    9.4394 H   0  0  0  0  0  0
  1  2  1  0  0  0
  1  6  2  0  0  0
  1 16  1  0  0  0
  2  3  2  0  0  0
  3  4  1  0  0  0
  3  7  1  0  0  0
  4  5  2  0  0  0
  4  8  1  0  0  0
  5  6  1  0  0  0
  5 10  1  0  0  0
  7  9  1  0  0  0
  7 18  1  0  0  0
  8  9  2  0  0  0
  8 26  1  0  0  0
  9 27  1  0  0  0
 10 11  1  0  0  0
 10 15  1  0  0  0
 11 12  1  0  0  0
 11 28  1  0  0  0
 11 29  1  0  0  0
 12 13  1  0  0  0
 12 30  1  0  0  0
 12 31  1  0  0  0
 13 14  1  0  0  0
 14 15  1  0  0  0
 14 32  1  0  0  0
 14 33  1  0  0  0
 15 34  1  0  0  0
 15 35  1  0  0  0
 16 17  1  0  0  0
 17 36  1  0  0  0
 17 37  1  0  0  0
 17 38  1  0  0  0
 18 19  1  0  0  0
 18 39  1  0  0  0
 18 40  1  0  0  0
 19 20  1  0  0  0
 19 24  2  0  0  0
 20 21  2  0  0  0
 20 41  1  0  0  0
 21 22  1  0  0  0
 21 42  1  0  0  0
 22 23  2  0  0  0
 22 25  1  0  0  0
 23 24  1  0  0  0
 23 43  1  0  0  0
 24 44  1  0  0  0
M  END
> <s_m_entry_id>
32076

> <s_m_entry_name>
dock_pv.339

> <s_m_Source_Path>
/home/csk/Desktop/cluster/DUD-E-result/src

> <s_m_Source_File>
dock_pv.maegz

> <i_m_Source_File_Index>
339

> <chembl_id>
CHEMBL4100526

> <chembl_pref_name>
None

> <i_lp_mmshare_version>
53161

> <r_lp_tautomer_probability>
1

> <s_lp_Force_Field>
OPLS_2005

> <r_lp_Energy>
19.846759

> <b_lp_Chiralities_Consistent>
1

> <s_lp_Variant>
CHEMBL267_lig3886-1

> <s_i_glide_gridfile>
glide-grid_3el8

> <i_i_glide_lignum>
4799

> <i_i_glide_rotatable_bonds>
4

> <r_i_docking_score>
-7.37283802409057

> <r_i_glide_ligand_efficiency>
-0.294913520963623

> <r_i_glide_ligand_efficiency_sa>
-0.862332365611199

> <r_i_glide_ligand_efficiency_ln>
-1.74758355783579

> <r_i_glide_gscore>
-7.37283802409057

> <r_i_glide_lipo>
-3.60478241861526

> <r_i_glide_hbond>
0

> <r_i_glide_metal>
0

> <r_i_glide_rewards>
-2.20236981600019

> <r_i_glide_evdw>
-38.1407051086426

> <r_i_glide_ecoul>
-0.706352591514587

> <r_i_glide_erotb>
0.447302354684192

> <r_i_glide_esite>
0

> <r_i_glide_emodel>
-54.5120438185708

> <r_i_glide_energy>
-38.8470577001572

> <r_i_glide_einternal>
1.52910947799683

> <i_i_glide_confnum>
21

> <i_i_glide_posenum>
150

> <r_i_glide_eff_state_penalty>
0

> <s_user_duplicate_titles>
CHEMBL267_lig3886

> <i_f3d_flags>
0

> <s_m_subgroup_title>
dock_pv

> <s_m_subgroupid>
dock_pv

> <b_m_subgroup_collapsed>
1

$$$$
CHEMBL267_lig2763
                    3D
 Schrodinger Suite 2021-1.
 38 40  0  0  1  0            999 V2000
    8.1959    6.6399    7.5862 N   0  0  0  0  0  0
    8.6753    7.6836    6.8643 C   0  0  0  0  0  0
    7.9811    8.6369    6.1965 N   0  0  0  0  0  0
    6.8496    6.5640    7.6992 C   0  0  0  0  0  0
    6.0239    7.5353    7.1167 C   0  0  0  0  0  0
    6.6598    8.5432    6.3553 C   0  0  0  0  0  0
    5.6485    9.3546    5.8439 N   0  0  0  0  0  0
    4.4482    8.8956    6.2668 N   0  0  0  0  0  0
    4.6462    7.8370    7.0222 C   0  0  0  0  0  0
    5.6718   10.5976    5.0202 C   0  0  0  0  0  0
    4.7351   10.4235    3.7963 C   0  0  0  0  0  0
    7.0880   10.9312    4.5000 C   0  0  0  0  0  0
    5.1779   11.7738    5.8995 C   0  0  0  0  0  0
    6.3182    5.4765    8.3880 N   0  0  0  0  0  0
    3.6331    7.1281    7.6228 O   0  0  0  0  0  0
    2.3381    7.4503    7.3187 C   0  0  0  0  0  0
    1.6008    6.6389    6.4563 C   0  0  0  0  0  0
    0.3247    7.0333    6.0597 C   0  0  0  0  0  0
   -0.2020    8.2370    6.5239 C   0  0  0  0  0  0
    0.5397    9.0520    7.3788 C   0  0  0  0  0  0
    1.7944    8.6381    7.8057 C   0  0  0  0  0  0
   -0.1559   10.7237    7.9693 Br  0  0  0  0  0  0
    9.7524    7.7412    6.7871 H   0  0  0  0  0  0
    3.6980   10.2601    4.0918 H   0  0  0  0  0  0
    4.7476   11.3039    3.1528 H   0  0  0  0  0  0
    5.0327    9.5688    3.1856 H   0  0  0  0  0  0
    7.8044   11.0412    5.3121 H   0  0  0  0  0  0
    7.4650   10.1592    3.8336 H   0  0  0  0  0  0
    7.0986   11.8673    3.9399 H   0  0  0  0  0  0
    5.7977   11.8805    6.7877 H   0  0  0  0  0  0
    5.2094   12.7225    5.3613 H   0  0  0  0  0  0
    4.1513   11.6267    6.2390 H   0  0  0  0  0  0
    5.3156    5.4182    8.5029 H   0  0  0  0  0  0
    6.9402    4.7975    8.8117 H   0  0  0  0  0  0
    2.0285    5.7224    6.0774 H   0  0  0  0  0  0
   -0.2554    6.4114    5.3943 H   0  0  0  0  0  0
   -1.1923    8.5331    6.2200 H   0  0  0  0  0  0
    2.3807    9.2649    8.4611 H   0  0  0  0  0  0
  1  2  2  0  0  0
  1  4  1  0  0  0
  2  3  1  0  0  0
  2 23  1  0  0  0
  3  6  2  0  0  0
  4  5  2  0  0  0
  4 14  1  0  0  0
  5  6  1  0  0  0
  5  9  1  0  0  0
  6  7  1  0  0  0
  7  8  1  0  0  0
  7 10  1  0  0  0
  8  9  2  0  0  0
  9 15  1  0  0  0
 10 11  1  0  0  0
 10 12  1  0  0  0
 10 13  1  0  0  0
 11 24  1  0  0  0
 11 25  1  0  0  0
 11 26  1  0  0  0
 12 27  1  0  0  0
 12 28  1  0  0  0
 12 29  1  0  0  0
 13 30  1  0  0  0
 13 31  1  0  0  0
 13 32  1  0  0  0
 14 33  1  0  0  0
 14 34  1  0  0  0
 15 16  1  0  0  0
 16 17  2  0  0  0
 16 21  1  0  0  0
 17 18  1  0  0  0
 17 35  1  0  0  0
 18 19  2  0  0  0
 18 36  1  0  0  0
 19 20  1  0  0  0
 19 37  1  0  0  0
 20 21  2  0  0  0
 20 22  1  0  0  0
 21 38  1  0  0  0
M  END
> <s_m_entry_id>
32077

> <s_m_entry_name>
dock_pv.340

> <s_m_Source_Path>
/home/csk/Desktop/cluster/DUD-E-result/src

> <s_m_Source_File>
dock_pv.maegz

> <i_m_Source_File_Index>
340

> <chembl_id>
CHEMBL4102392

> <chembl_pref_name>
None

> <i_lp_mmshare_version>
53161

> <r_lp_tautomer_probability>
1

> <s_lp_Force_Field>
OPLS_2005

> <r_lp_Energy>
19.772822

> <b_lp_Chiralities_Consistent>
1

> <s_lp_Variant>
CHEMBL267_lig2763-1

> <s_i_glide_gridfile>
glide-grid_3el8

> <i_i_glide_lignum>
3131

> <i_i_glide_rotatable_bonds>
3

> <r_i_docking_score>
-7.36958472082947

> <r_i_glide_ligand_efficiency>
-0.334981123674067

> <r_i_glide_ligand_efficiency_sa>
-0.938630282594757

> <r_i_glide_ligand_efficiency_ln>
-1.80139531790481

> <r_i_glide_gscore>
-7.36958472082947

> <r_i_glide_lipo>
-1.93058544612046

> <r_i_glide_hbond>
-0.608

> <r_i_glide_metal>
0

> <r_i_glide_rewards>
-2.68639623117706

> <r_i_glide_evdw>
-28.2109260559082

> <r_i_glide_ecoul>
-6.25946474075317

> <r_i_glide_erotb>
0.204862970376424

> <r_i_glide_esite>
0

> <r_i_glide_emodel>
-49.6803562192852

> <r_i_glide_energy>
-34.4703907966614

> <r_i_glide_einternal>
1.50703847408295

> <i_i_glide_confnum>
1

> <i_i_glide_posenum>
223

> <r_i_glide_eff_state_penalty>
0

> <s_user_duplicate_titles>
CHEMBL267_lig2763

> <i_f3d_flags>
0

> <s_m_subgroup_title>
dock_pv

> <s_m_subgroupid>
dock_pv

> <b_m_subgroup_collapsed>
1

$$$$
CHEMBL267_lig2550
                    3D
 Schrodinger Suite 2021-1.
 48 51  0  0  1  0            999 V2000
    7.4149    8.8937    5.8604 N   0  0  0  0  0  0
    8.1596    7.9952    6.5557 C   0  0  0  0  0  0
    7.7208    7.0259    7.3990 N   0  0  0  0  0  0
    6.3798    6.9416    7.5880 C   0  0  0  0  0  0
    6.1031    8.7792    6.0941 C   0  0  0  0  0  0
    5.4960    7.8372    6.9557 C   0  0  0  0  0  0
    4.0895    8.1203    6.8688 C   0  0  0  0  0  0
    3.8780    9.0972    6.0144 N   0  0  0  0  0  0
    5.0722    9.5298    5.5626 N   0  0  0  0  0  0
    5.9238    5.8983    8.3880 N   0  0  0  0  0  0
    2.9509    7.4811    7.5880 C   0  0  0  0  0  0
    3.0248    7.2142    8.9613 C   0  0  0  0  0  0
    0.6917    6.5452    7.4562 N   0  0  0  0  0  0
    1.7850    7.1263    6.8962 C   0  0  0  0  0  0
    0.7889    6.3175    8.7685 C   0  0  0  0  0  0
    1.9125    6.6267    9.5869 C   0  0  0  0  0  0
    1.5701    6.2370   10.9226 C   0  0  0  0  0  0
    0.2856    5.7238   10.8761 C   0  0  0  0  0  0
   -0.1781    5.7671    9.5828 N   0  0  0  0  0  0
    5.1311   10.6192    4.5886 C   0  0  0  0  0  0
    5.0791   10.0803    3.1432 C   0  0  0  0  0  0
    6.1966   10.5153    2.4145 O   0  0  0  0  0  0
    3.8647   10.4236    2.5348 O   0  0  0  0  0  0
    2.7246    9.6517    2.8964 C   0  0  0  0  0  0
    6.1664   11.8059    1.7944 C   0  0  0  0  0  0
    6.3317   12.9767    2.7755 C   0  0  0  0  0  0
    1.5631   10.0489    1.9850 C   0  0  0  0  0  0
    9.2279    8.0703    6.4183 H   0  0  0  0  0  0
    4.9306    5.7688    8.5156 H   0  0  0  0  0  0
    6.5949    5.2570    8.7873 H   0  0  0  0  0  0
    3.8987    7.4838    9.5362 H   0  0  0  0  0  0
    1.7098    7.3125    5.8341 H   0  0  0  0  0  0
    2.1780    6.3260   11.8111 H   0  0  0  0  0  0
   -0.3543    5.3407   11.6593 H   0  0  0  0  0  0
   -1.1083    5.4602    9.3216 H   0  0  0  0  0  0
    4.3046   11.3075    4.7734 H   0  0  0  0  0  0
    6.0850   11.1152    4.7693 H   0  0  0  0  0  0
    5.1758    8.9910    3.1499 H   0  0  0  0  0  0
    2.9240    8.5838    2.7921 H   0  0  0  0  0  0
    2.4466    9.8431    3.9317 H   0  0  0  0  0  0
    6.9975   11.8283    1.0882 H   0  0  0  0  0  0
    5.2684   11.9342    1.1880 H   0  0  0  0  0  0
    6.4537   13.9149    2.2338 H   0  0  0  0  0  0
    5.4589   13.0894    3.4174 H   0  0  0  0  0  0
    7.2110   12.8427    3.4059 H   0  0  0  0  0  0
    0.6605    9.4923    2.2396 H   0  0  0  0  0  0
    1.3386   11.1115    2.0744 H   0  0  0  0  0  0
    1.7958    9.8420    0.9402 H   0  0  0  0  0  0
  1  5  1  0  0  0
  1  2  2  0  0  0
  2  3  1  0  0  0
  2 28  1  0  0  0
  3  4  2  0  0  0
  4  6  1  0  0  0
  4 10  1  0  0  0
  5  6  2  0  0  0
  5  9  1  0  0  0
  6  7  1  0  0  0
  7  8  2  0  0  0
  7 11  1  0  0  0
  8  9  1  0  0  0
  9 20  1  0  0  0
 10 29  1  0  0  0
 10 30  1  0  0  0
 11 12  2  0  0  0
 11 14  1  0  0  0
 12 16  1  0  0  0
 12 31  1  0  0  0
 13 15  1  0  0  0
 13 14  2  0  0  0
 14 32  1  0  0  0
 15 16  2  0  0  0
 15 19  1  0  0  0
 16 17  1  0  0  0
 17 18  2  0  0  0
 17 33  1  0  0  0
 18 19  1  0  0  0
 18 34  1  0  0  0
 19 35  1  0  0  0
 20 21  1  0  0  0
 20 36  1  0  0  0
 20 37  1  0  0  0
 21 22  1  0  0  0
 21 23  1  0  0  0
 21 38  1  0  0  0
 22 25  1  0  0  0
 23 24  1  0  0  0
 24 27  1  0  0  0
 24 39  1  0  0  0
 24 40  1  0  0  0
 25 26  1  0  0  0
 25 41  1  0  0  0
 25 42  1  0  0  0
 26 43  1  0  0  0
 26 44  1  0  0  0
 26 45  1  0  0  0
 27 46  1  0  0  0
 27 47  1  0  0  0
 27 48  1  0  0  0
M  END
> <s_m_entry_id>
32078

> <s_m_entry_name>
dock_pv.341

> <s_m_Source_Path>
/home/csk/Desktop/cluster/DUD-E-result/src

> <s_m_Source_File>
dock_pv.maegz

> <i_m_Source_File_Index>
341

> <chembl_id>
CHEMBL3799221

> <chembl_pref_name>
None

> <i_lp_mmshare_version>
53161

> <r_lp_tautomer_probability>
0.999998432528457

> <s_lp_Force_Field>
OPLS_2005

> <r_lp_Energy>
9.196139

> <b_lp_Chiralities_Consistent>
1

> <s_lp_Variant>
CHEMBL267_lig2550-1

> <s_i_glide_gridfile>
glide-grid_3el8

> <i_i_glide_lignum>
2861

> <i_i_glide_rotatable_bonds>
7

> <r_i_docking_score>
-7.36834741795855

> <r_i_glide_ligand_efficiency>
-0.272901756220687

> <r_i_glide_ligand_efficiency_sa>
-0.818705267762622

> <r_i_glide_ligand_efficiency_ln>
-1.71522980219965

> <r_i_glide_gscore>
-7.36834741795855

> <r_i_glide_lipo>
-1.77507021423326

> <r_i_glide_hbond>
-0.103319465153126

> <r_i_glide_metal>
0

> <r_i_glide_rewards>
-3.03903057154915

> <r_i_glide_evdw>
-41.2275009155273

> <r_i_glide_ecoul>
-6.96643447875977

> <r_i_glide_erotb>
0.713341659974988

> <r_i_glide_esite>
-0.0579286094076742

> <r_i_glide_emodel>
-68.0062274218822

> <r_i_glide_energy>
-48.1939353942871

> <r_i_glide_einternal>
4.55349779129028

> <i_i_glide_confnum>
31

> <i_i_glide_posenum>
172

> <r_i_glide_eff_state_penalty>
0

> <s_user_duplicate_titles>
CHEMBL267_lig2550

> <i_f3d_flags>
0

> <s_m_subgroup_title>
dock_pv

> <s_m_subgroupid>
dock_pv

> <b_m_subgroup_collapsed>
1

$$$$
CHEMBL267_lig2513
                    3D
 Schrodinger Suite 2021-1.
 41 44  0  0  1  0            999 V2000
   -0.2020    9.1122    6.7880 O   0  0  0  0  0  0
    0.5130    7.9741    6.2056 S   0  0  0  0  0  0
   -0.2020    6.9160    5.4873 O   0  0  0  0  0  0
    5.3980    7.1156    7.9880 N   0  0  0  0  0  0
    6.5362    6.3799    7.9880 C   0  0  0  0  0  0
    7.6860    6.6370    7.3145 N   0  0  0  0  0  0
    5.3863    8.2370    7.2216 C   0  0  0  0  0  0
    6.4965    8.6274    6.4531 C   0  0  0  0  0  0
    7.6125    7.7492    6.5744 C   0  0  0  0  0  0
    8.5980    8.2417    5.7713 N   0  0  0  0  0  0
    8.1815    9.4122    5.1880 C   0  0  0  0  0  0
    6.8620    9.6840    5.5203 C   0  0  0  0  0  0
    6.0814   10.8124    4.9702 C   0  0  0  0  0  0
    4.6019   10.8746    5.1608 C   0  0  0  0  0  0
    6.6652   11.7278    4.3880 O   0  0  0  0  0  0
    3.8021    9.7562    4.9053 C   0  0  0  0  0  0
    2.4255    9.7788    5.1482 C   0  0  0  0  0  0
    1.8173   10.9927    5.4798 C   0  0  0  0  0  0
    2.5858   12.1526    5.5880 C   0  0  0  0  0  0
    3.9742   12.0908    5.4573 C   0  0  0  0  0  0
    4.3684    8.6370    4.4119 F   0  0  0  0  0  0
    1.7037    8.5813    5.0327 N   0  0  0  0  0  0
    1.3693    7.2021    7.5765 C   0  0  0  0  0  0
    2.1262    7.9735    8.4636 C   0  0  0  0  0  0
    2.7056    7.3838    9.5873 C   0  0  0  0  0  0
    2.5434    6.0199    9.8241 C   0  0  0  0  0  0
    1.7873    5.2460    8.9451 C   0  0  0  0  0  0
    1.1930    5.8378    7.8307 C   0  0  0  0  0  0
    2.2824    9.2996    8.2652 F   0  0  0  0  0  0
    6.5281    5.4883    8.6003 H   0  0  0  0  0  0
    4.4735    8.8066    7.2233 H   0  0  0  0  0  0
    9.4956    7.8022    5.5880 H   0  0  0  0  0  0
    8.8503    9.9375    4.5188 H   0  0  0  0  0  0
    0.7491   11.0535    5.6235 H   0  0  0  0  0  0
    2.1071   13.0930    5.8174 H   0  0  0  0  0  0
    4.5587   12.9928    5.5826 H   0  0  0  0  0  0
    1.9970    7.9243    4.3254 H   0  0  0  0  0  0
    3.2880    7.9831   10.2713 H   0  0  0  0  0  0
    2.9980    5.5647   10.6920 H   0  0  0  0  0  0
    1.6462    4.1922    9.1386 H   0  0  0  0  0  0
    0.5649    5.2402    7.1880 H   0  0  0  0  0  0
  1  2  2  0  0  0
  2  3  2  0  0  0
  2 22  1  0  0  0
  2 23  1  0  0  0
  4  5  2  0  0  0
  4  7  1  0  0  0
  5  6  1  0  0  0
  5 30  1  0  0  0
  6  9  2  0  0  0
  7  8  2  0  0  0
  7 31  1  0  0  0
  8  9  1  0  0  0
  8 12  1  0  0  0
  9 10  1  0  0  0
 10 11  1  0  0  0
 10 32  1  0  0  0
 11 12  2  0  0  0
 11 33  1  0  0  0
 12 13  1  0  0  0
 13 14  1  0  0  0
 13 15  2  0  0  0
 14 16  2  0  0  0
 14 20  1  0  0  0
 16 17  1  0  0  0
 16 21  1  0  0  0
 17 18  2  0  0  0
 17 22  1  0  0  0
 18 19  1  0  0  0
 18 34  1  0  0  0
 19 20  2  0  0  0
 19 35  1  0  0  0
 20 36  1  0  0  0
 22 37  1  0  0  0
 23 24  2  0  0  0
 23 28  1  0  0  0
 24 25  1  0  0  0
 24 29  1  0  0  0
 25 26  2  0  0  0
 25 38  1  0  0  0
 26 27  1  0  0  0
 26 39  1  0  0  0
 27 28  2  0  0  0
 27 40  1  0  0  0
 28 41  1  0  0  0
M  END
> <s_m_entry_id>
32079

> <s_m_entry_name>
dock_pv.342

> <s_m_Source_Path>
/home/csk/Desktop/cluster/DUD-E-result/src

> <s_m_Source_File>
dock_pv.maegz

> <i_m_Source_File_Index>
342

> <chembl_id>
CHEMBL3731654

> <chembl_pref_name>
None

> <i_lp_mmshare_version>
53161

> <r_lp_tautomer_probability>
1

> <s_lp_Force_Field>
OPLS_2005

> <r_lp_Energy>
13.889837

> <b_lp_Chiralities_Consistent>
1

> <s_lp_Variant>
CHEMBL267_lig2513-1

> <s_i_glide_gridfile>
glide-grid_3el8

> <i_i_glide_lignum>
2818

> <i_i_glide_rotatable_bonds>
5

> <r_i_docking_score>
-7.35751771917254

> <r_i_glide_ligand_efficiency>
-0.253707507557674

> <r_i_glide_ligand_efficiency_sa>
-0.779469843397358

> <r_i_glide_ligand_efficiency_ln>
-1.6846849871389

> <r_i_glide_gscore>
-7.35751771917254

> <r_i_glide_lipo>
-2.37137804161078

> <r_i_glide_hbond>
-0.457291729335362

> <r_i_glide_metal>
0

> <r_i_glide_rewards>
-2.10083784550274

> <r_i_glide_evdw>
-39.1614532470703

> <r_i_glide_ecoul>
-5.44583511352539

> <r_i_glide_erotb>
0.402289950743026

> <r_i_glide_esite>
-0.0553521240843556

> <r_i_glide_emodel>
-62.2948864412575

> <r_i_glide_energy>
-44.6072883605957

> <r_i_glide_einternal>
5.79128408432007

> <i_i_glide_confnum>
115

> <i_i_glide_posenum>
314

> <r_i_glide_eff_state_penalty>
0

> <s_user_duplicate_titles>
CHEMBL267_lig2513

> <i_f3d_flags>
0

> <s_m_subgroup_title>
dock_pv

> <s_m_subgroupid>
dock_pv

> <b_m_subgroup_collapsed>
1

$$$$
CHEMBL267_lig3601
                    3D
 Schrodinger Suite 2021-1.
 51 54  0  0  1  0            999 V2000
    0.2269    7.8551    8.0605 F   0  0  0  0  0  0
    2.0444    9.0144    8.1807 F   0  0  0  0  0  0
    0.1976    9.9807    7.6251 F   0  0  0  0  0  0
    6.4351    9.4359    5.2590 O   0  0  0  0  0  0
    4.1977    7.2535   10.0200 N   0  0  0  0  0  0
    0.9978    6.0727   11.4397 N   0  0  0  0  0  0
    0.2007    5.3488   10.6369 N   0  0  0  0  0  0
    7.5485    6.6356    7.2884 N   0  0  0  0  0  0
    5.5857   10.2900    2.4565 N   0  0  0  0  0  0
    1.9530    5.7468    9.3382 C   0  0  0  0  0  0
    2.0789    6.3152   10.6422 C   0  0  0  0  0  0
    4.0781    6.7258    8.7775 C   0  0  0  0  0  0
    0.6975    5.0739    9.3836 C   0  0  0  0  0  0
    2.9740    5.9544    8.3885 C   0  0  0  0  0  0
    5.2255    7.0369    7.8820 C   0  0  0  0  0  0
    3.2353    7.0371   10.9461 C   0  0  0  0  0  0
    5.1746    8.0705    6.9341 C   0  0  0  0  0  0
    6.3224    8.4138    6.1863 C   0  0  0  0  0  0
    6.4288    6.3304    7.9884 C   0  0  0  0  0  0
    1.1780    8.5868    6.0431 C   0  0  0  0  0  0
    0.9046    8.8594    7.5103 C   0  0  0  0  0  0
    2.3137    9.2193    3.9980 C   0  0  0  0  0  0
   -0.0637    4.2368    8.3867 C   0  0  0  0  0  0
    1.9729    9.4830    5.3247 C   0  0  0  0  0  0
    7.4781    7.6651    6.4117 C   0  0  0  0  0  0
    0.6660    7.4488    5.4048 C   0  0  0  0  0  0
    3.2855   10.1262    3.2564 C   0  0  0  0  0  0
    1.7980    8.0806    3.3746 C   0  0  0  0  0  0
    4.7586    9.7339    3.5179 C   0  0  2  0  0  0
    5.3035   10.2204    4.8862 C   0  0  0  0  0  0
    0.9705    7.2011    4.0696 C   0  0  0  0  0  0
   -0.7175    5.0538   10.9443 H   0  0  0  0  0  0
    5.3920   11.2769    2.3444 H   0  0  0  0  0  0
    6.5492   10.2318    2.7557 H   0  0  0  0  0  0
    2.8887    5.5460    7.3971 H   0  0  0  0  0  0
    3.3980    7.4542   11.9286 H   0  0  0  0  0  0
    4.2452    8.6037    6.8300 H   0  0  0  0  0  0
    6.5227    5.5184    8.6976 H   0  0  0  0  0  0
   -0.2017    4.7773    7.4520 H   0  0  0  0  0  0
    0.4629    3.3104    8.1555 H   0  0  0  0  0  0
   -1.0569    3.9612    8.7437 H   0  0  0  0  0  0
    2.3523   10.3671    5.8162 H   0  0  0  0  0  0
    8.3855    7.8865    5.8683 H   0  0  0  0  0  0
    0.0390    6.7472    5.9362 H   0  0  0  0  0  0
    3.0503   10.0601    2.1921 H   0  0  0  0  0  0
    3.1015   11.1689    3.5197 H   0  0  0  0  0  0
    2.0658    7.8502    2.3599 H   0  0  0  0  0  0
    4.8503    8.6454    3.4618 H   0  0  0  0  0  0
    5.6351   11.2576    4.8123 H   0  0  0  0  0  0
    4.5410   10.2615    5.6559 H   0  0  0  0  0  0
    0.5810    6.3188    3.5813 H   0  0  0  0  0  0
  1 21  1  0  0  0
  2 21  1  0  0  0
  3 21  1  0  0  0
  4 18  1  0  0  0
  4 30  1  0  0  0
  5 16  2  0  0  0
  5 12  1  0  0  0
  6  7  1  0  0  0
  6 11  2  0  0  0
  7 13  1  0  0  0
  7 32  1  0  0  0
  8 19  1  0  0  0
  8 25  2  0  0  0
  9 29  1  0  0  0
  9 33  1  0  0  0
  9 34  1  0  0  0
 10 14  1  0  0  0
 10 13  2  0  0  0
 10 11  1  0  0  0
 11 16  1  0  0  0
 12 15  1  0  0  0
 12 14  2  0  0  0
 13 23  1  0  0  0
 14 35  1  0  0  0
 15 17  1  0  0  0
 15 19  2  0  0  0
 16 36  1  0  0  0
 17 18  2  0  0  0
 17 37  1  0  0  0
 18 25  1  0  0  0
 19 38  1  0  0  0
 20 21  1  0  0  0
 20 24  2  0  0  0
 20 26  1  0  0  0
 22 24  1  0  0  0
 22 27  1  0  0  0
 22 28  2  0  0  0
 23 39  1  0  0  0
 23 40  1  0  0  0
 23 41  1  0  0  0
 24 42  1  0  0  0
 25 43  1  0  0  0
 26 31  2  0  0  0
 26 44  1  0  0  0
 27 29  1  0  0  0
 27 45  1  0  0  0
 27 46  1  0  0  0
 28 31  1  0  0  0
 28 47  1  0  0  0
 29 30  1  0  0  0
 29 48  1  0  0  0
 30 49  1  0  0  0
 30 50  1  0  0  0
 31 51  1  0  0  0
M  END
> <s_m_entry_id>
32080

> <s_m_entry_name>
dock_pv.343

> <s_m_Source_Path>
/home/csk/Desktop/cluster/DUD-E-result/src

> <s_m_Source_File>
dock_pv.maegz

> <i_m_Source_File_Index>
343

> <chembl_id>
CHEMBL1998159

> <chembl_pref_name>
None

> <i_lp_mmshare_version>
53161

> <r_lp_tautomer_probability>
0.0448800538560646

> <s_lp_Force_Field>
OPLS_2005

> <r_lp_Energy>
40.770312

> <b_lp_Chiralities_Consistent>
1

> <s_lp_Variant>
CHEMBL267_lig3601-3

> <s_i_glide_gridfile>
glide-grid_3el8

> <i_i_glide_lignum>
4343

> <i_i_glide_rotatable_bonds>
7

> <r_i_docking_score>
-7.35649190856612

> <r_i_glide_ligand_efficiency>
-0.237306190598907

> <r_i_glide_ligand_efficiency_sa>
-0.7454690749868

> <r_i_glide_ligand_efficiency_ln>
-1.65911437478321

> <r_i_glide_gscore>
-7.35649190856612

> <r_i_glide_lipo>
-3.39776319396836

> <r_i_glide_hbond>
-0.121987713105125

> <r_i_glide_metal>
0

> <r_i_glide_rewards>
-1.46616537576984

> <r_i_glide_evdw>
-43.6772804260254

> <r_i_glide_ecoul>
-4.79679107666016

> <r_i_glide_erotb>
0.652081160339691

> <r_i_glide_esite>
-0.119274103262191

> <r_i_glide_emodel>
-66.4937151372178

> <r_i_glide_energy>
-48.4740715026855

> <r_i_glide_einternal>
8.63247013092041

> <i_i_glide_confnum>
11

> <i_i_glide_posenum>
369

> <r_i_glide_eff_state_penalty>
0

> <s_user_duplicate_titles>
CHEMBL267_lig3601,CHEMBL267_lig3601

> <i_f3d_flags>
0

> <s_m_subgroup_title>
dock_pv

> <s_m_subgroupid>
dock_pv

> <b_m_subgroup_collapsed>
1

$$$$
CHEMBL267_lig3445
                    3D
 Schrodinger Suite 2021-1.
 47 50  0  0  1  0            999 V2000
    5.1888   11.3043    1.6968 C   0  0  0  0  0  0
    4.4932   11.9859    2.8862 C   0  0  0  0  0  0
    5.2763   11.8979    4.2168 C   0  0  0  0  0  0
    5.4446   10.4771    4.7799 C   0  0  0  0  0  0
    4.5605    9.6371    4.6082 O   0  0  0  0  0  0
    6.5958   10.2492    5.4401 N   0  0  0  0  0  0
    6.9258    9.0689    6.0811 C   0  0  0  0  0  0
    8.1988    8.5578    6.0732 N   0  0  0  0  0  0
    8.3712    7.4371    6.7882 N   0  0  0  0  0  0
    7.1139    7.1572    7.2337 C   0  0  0  0  0  0
    6.7238    6.0458    7.9880 C   0  0  0  0  0  0
    5.3956    5.9493    8.3878 C   0  0  0  0  0  0
    4.4447    6.9134    8.0381 C   0  0  0  0  0  0
    4.8172    8.0147    7.2584 C   0  0  0  0  0  0
    6.1541    8.1452    6.8467 C   0  0  0  0  0  0
    3.0291    6.7110    8.4733 C   0  0  0  0  0  0
    2.5486    5.8241    9.4287 C   0  0  0  0  0  0
    1.1921    5.9831    9.4159 N   0  0  0  0  0  0
    0.1994    5.2489   10.1796 C   0  0  0  0  0  0
   -0.3435    4.0002    9.4894 C   0  0  0  0  0  0
    0.5105    3.0375    8.9378 C   0  0  0  0  0  0
   -0.0267    1.8729    8.3883 C   0  0  0  0  0  0
   -1.4020    1.6734    8.3879 C   0  0  0  0  0  0
   -2.2557    2.6388    8.9012 C   0  0  0  0  0  0
   -1.7228    3.7941    9.4566 C   0  0  0  0  0  0
    0.8308    6.9056    8.5195 N   0  0  0  0  0  0
    2.0035    7.3699    7.9491 N   0  0  0  0  0  0
    4.5978   11.4224    0.7889 H   0  0  0  0  0  0
    5.3174   10.2365    1.8683 H   0  0  0  0  0  0
    6.1713   11.7375    1.5066 H   0  0  0  0  0  0
    4.3384   13.0372    2.6396 H   0  0  0  0  0  0
    3.4930   11.5678    3.0119 H   0  0  0  0  0  0
    6.2455   12.3854    4.1010 H   0  0  0  0  0  0
    4.7428   12.4719    4.9750 H   0  0  0  0  0  0
    7.2949   10.9751    5.4250 H   0  0  0  0  0  0
    8.9750    8.9874    5.5917 H   0  0  0  0  0  0
    7.4319    5.2829    8.2764 H   0  0  0  0  0  0
    5.1065    5.0900    8.9748 H   0  0  0  0  0  0
    4.0836    8.7543    6.9748 H   0  0  0  0  0  0
    3.0223    5.1028   10.0772 H   0  0  0  0  0  0
    0.6456    4.9642   11.1325 H   0  0  0  0  0  0
   -0.6021    5.9439   10.4268 H   0  0  0  0  0  0
    1.5817    3.1725    8.9566 H   0  0  0  0  0  0
    0.5980    1.1012    7.9755 H   0  0  0  0  0  0
   -1.8183    0.7727    7.9598 H   0  0  0  0  0  0
   -3.3257    2.4885    8.8700 H   0  0  0  0  0  0
   -2.3933    4.5294    9.8574 H   0  0  0  0  0  0
  1  2  1  0  0  0
  1 28  1  0  0  0
  1 29  1  0  0  0
  1 30  1  0  0  0
  2  3  1  0  0  0
  2 31  1  0  0  0
  2 32  1  0  0  0
  3  4  1  0  0  0
  3 33  1  0  0  0
  3 34  1  0  0  0
  4  5  2  0  0  0
  4  6  1  0  0  0
  6 35  1  0  0  0
  6  7  1  0  0  0
  7 15  2  0  0  0
  7  8  1  0  0  0
  8 36  1  0  0  0
  8  9  1  0  0  0
  9 10  2  0  0  0
 10 11  1  0  0  0
 10 15  1  0  0  0
 11 37  1  0  0  0
 11 12  2  0  0  0
 12 38  1  0  0  0
 12 13  1  0  0  0
 13 16  1  0  0  0
 13 14  2  0  0  0
 14 39  1  0  0  0
 14 15  1  0  0  0
 16 17  2  0  0  0
 16 27  1  0  0  0
 17 18  1  0  0  0
 17 40  1  0  0  0
 18 19  1  0  0  0
 18 26  1  0  0  0
 19 20  1  0  0  0
 19 41  1  0  0  0
 19 42  1  0  0  0
 20 21  2  0  0  0
 20 25  1  0  0  0
 21 22  1  0  0  0
 21 43  1  0  0  0
 22 23  2  0  0  0
 22 44  1  0  0  0
 23 24  1  0  0  0
 23 45  1  0  0  0
 24 25  2  0  0  0
 24 46  1  0  0  0
 25 47  1  0  0  0
 26 27  2  0  0  0
M  END
> <s_m_entry_id>
32081

> <s_m_entry_name>
dock_pv.344

> <s_m_Source_Path>
/home/csk/Desktop/cluster/DUD-E-result/src

> <s_m_Source_File>
dock_pv.maegz

> <i_m_Source_File_Index>
344

> <chembl_id>
CHEMBL1977223

> <chembl_pref_name>
None

> <i_lp_mmshare_version>
53161

> <r_lp_tautomer_probability>
0.0196078431372549

> <s_lp_Force_Field>
OPLS_2005

> <r_lp_Energy>
31.274985

> <b_lp_Chiralities_Consistent>
1

> <s_lp_Variant>
CHEMBL267_lig3445-2

> <s_i_glide_gridfile>
glide-grid_3el8

> <i_i_glide_lignum>
4125

> <i_i_glide_rotatable_bonds>
7

> <r_i_docking_score>
-7.35510358898947

> <r_i_glide_ligand_efficiency>
-0.272411244036647

> <r_i_glide_ligand_efficiency_sa>
-0.817233731212118

> <r_i_glide_ligand_efficiency_ln>
-1.71214685715723

> <r_i_glide_gscore>
-7.35510358898947

> <r_i_glide_lipo>
-3.43507230760628

> <r_i_glide_hbond>
0

> <r_i_glide_metal>
0

> <r_i_glide_rewards>
-2.24091916939291

> <r_i_glide_evdw>
-41.1913108825684

> <r_i_glide_ecoul>
-3.36945199966431

> <r_i_glide_erotb>
0.885871232087777

> <r_i_glide_esite>
0

> <r_i_glide_emodel>
-63.3400131076588

> <r_i_glide_energy>
-44.5607628822327

> <r_i_glide_einternal>
2.35643792152405

> <i_i_glide_confnum>
5

> <i_i_glide_posenum>
109

> <r_i_glide_eff_state_penalty>
0

> <s_user_duplicate_titles>
CHEMBL267_lig3445,CHEMBL267_lig3445

> <i_f3d_flags>
0

> <s_m_subgroup_title>
dock_pv

> <s_m_subgroupid>
dock_pv

> <b_m_subgroup_collapsed>
1

$$$$
CHEMBL267_lig3688
                    3D
 Schrodinger Suite 2021-1.
 29 31  0  0  1  0            999 V2000
    6.5091    9.5833    4.6459 O   0  0  0  0  0  0
    8.5970    6.7988    7.5880 O   0  0  0  0  0  0
    1.2975   10.2877    5.1334 O   0  0  0  0  0  0
    0.0871    8.9454    7.1881 O   0  0  0  0  0  0
    5.6372    6.7437    8.3872 N   0  0  0  0  0  0
    7.8008    8.2380    5.9878 N   0  0  0  0  0  0
    5.6084    8.2723    6.5127 C   0  0  0  0  0  0
    4.2041    8.4728    6.6227 C   0  0  0  0  0  0
    6.2399    7.4369    7.3932 C   0  0  0  0  0  0
    3.5271    7.7853    7.6794 C   0  0  0  0  0  0
    6.6439    8.8035    5.5854 C   0  0  0  0  0  0
    7.6842    7.4190    7.0507 C   0  0  0  0  0  0
    3.4585    9.3132    5.7615 C   0  0  0  0  0  0
    2.0770    9.4776    5.9386 C   0  0  0  0  0  0
    4.3015    6.9365    8.5165 C   0  0  0  0  0  0
    1.4329    8.7985    6.9823 C   0  0  0  0  0  0
    2.1402    7.9694    7.8495 C   0  0  0  0  0  0
    1.8923   10.9656    4.0307 C   0  0  0  0  0  0
   -0.7091    8.0839    6.3889 C   0  0  0  0  0  0
    8.6819    8.4022    5.5260 H   0  0  0  0  0  0
    3.9820    9.8259    4.9699 H   0  0  0  0  0  0
    3.8249    6.3905    9.3179 H   0  0  0  0  0  0
    1.6263    7.4544    8.6484 H   0  0  0  0  0  0
    1.1287   11.5457    3.5134 H   0  0  0  0  0  0
    2.6688   11.6621    4.3533 H   0  0  0  0  0  0
    2.3126   10.2629    3.3088 H   0  0  0  0  0  0
   -1.7556    8.2367    6.6526 H   0  0  0  0  0  0
   -0.4684    7.0369    6.5679 H   0  0  0  0  0  0
   -0.6010    8.2800    5.3231 H   0  0  0  0  0  0
  1 11  2  0  0  0
  2 12  2  0  0  0
  3 14  1  0  0  0
  3 18  1  0  0  0
  4 16  1  0  0  0
  4 19  1  0  0  0
  5  9  2  0  0  0
  5 15  1  0  0  0
  6 11  1  0  0  0
  6 12  1  0  0  0
  6 20  1  0  0  0
  7  8  2  0  0  0
  7  9  1  0  0  0
  7 11  1  0  0  0
  8 10  1  0  0  0
  8 13  1  0  0  0
  9 12  1  0  0  0
 10 15  2  0  0  0
 10 17  1  0  0  0
 13 14  2  0  0  0
 13 21  1  0  0  0
 14 16  1  0  0  0
 15 22  1  0  0  0
 16 17  2  0  0  0
 17 23  1  0  0  0
 18 24  1  0  0  0
 18 25  1  0  0  0
 18 26  1  0  0  0
 19 27  1  0  0  0
 19 28  1  0  0  0
 19 29  1  0  0  0
M  END
> <s_m_entry_id>
32082

> <s_m_entry_name>
dock_pv.345

> <s_m_Source_Path>
/home/csk/Desktop/cluster/DUD-E-result/src

> <s_m_Source_File>
dock_pv.maegz

> <i_m_Source_File_Index>
345

> <chembl_id>
CHEMBL1982506

> <chembl_pref_name>
None

> <i_lp_mmshare_version>
53161

> <r_lp_tautomer_probability>
1

> <s_lp_Force_Field>
OPLS_2005

> <r_lp_Energy>
37.801341

> <b_lp_Chiralities_Consistent>
1

> <s_lp_Variant>
CHEMBL267_lig3688-1

> <s_i_glide_gridfile>
glide-grid_3el8

> <i_i_glide_lignum>
4491

> <i_i_glide_rotatable_bonds>
2

> <r_i_docking_score>
-7.35455694798157

> <r_i_glide_ligand_efficiency>
-0.387081944630609

> <r_i_glide_ligand_efficiency_sa>
-1.03289009822905

> <r_i_glide_ligand_efficiency_ln>
-1.8645381477129

> <r_i_glide_gscore>
-7.35455694798157

> <r_i_glide_lipo>
-1.43402392642646

> <r_i_glide_hbond>
-0.453933996672192

> <r_i_glide_metal>
0

> <r_i_glide_rewards>
-3.03658589278758

> <r_i_glide_evdw>
-27.1748027801514

> <r_i_glide_ecoul>
-7.14181995391846

> <r_i_glide_erotb>
0

> <r_i_glide_esite>
0

> <r_i_glide_emodel>
-45.2408814022319

> <r_i_glide_energy>
-34.3166227340698

> <r_i_glide_einternal>
7.49883127212524

> <i_i_glide_confnum>
1

> <i_i_glide_posenum>
161

> <r_i_glide_eff_state_penalty>
0

> <s_user_duplicate_titles>
CHEMBL267_lig3688

> <i_f3d_flags>
0

> <s_m_subgroup_title>
dock_pv

> <s_m_subgroupid>
dock_pv

> <b_m_subgroup_collapsed>
1

$$$$
CHEMBL267_lig3613
                    3D
 Schrodinger Suite 2021-1.
 43 45  0  0  1  0            999 V2000
    0.7262    7.7561    8.3881 O   0  0  0  0  0  0
    2.8390    7.4331    7.6407 N   0  0  0  0  0  0
    0.6515    7.9360    3.4580 N   0  0  0  0  0  0
    2.6808    9.2298    3.7766 N   0  0  0  0  0  0
   -2.1194    3.0371    9.1887 N   0  0  0  0  0  0
    1.6842    7.7325    5.4583 C   0  0  0  0  0  0
    2.7259    8.0177    6.3745 C   0  0  0  0  0  0
    1.7345    8.3785    4.1884 C   0  0  0  0  0  0
    0.5272    6.8845    5.4349 C   0  0  0  0  0  0
    1.8219    7.1940    8.4932 C   0  0  0  0  0  0
    3.7554    8.8542    5.9379 C   0  0  0  0  0  0
    2.1387    6.2566    9.6957 C   0  0  2  0  0  0
   -0.0715    7.0370    4.2038 C   0  0  0  0  0  0
    3.6841    9.4374    4.6704 C   0  0  0  0  0  0
    2.6265    4.8881    9.1555 C   0  0  0  0  0  0
    0.9291    5.9901   10.6281 C   0  0  0  0  0  0
    0.2720    3.8306    9.3479 C   0  0  1  0  0  0
    1.5051    4.0958    8.4496 C   0  0  0  0  0  0
   -0.2111    5.1733    9.9703 C   0  0  0  0  0  0
   -0.8188    3.0518    8.5470 C   0  0  1  0  0  0
   -0.4524    1.5802    8.2738 C   0  0  0  0  0  0
    3.7732    7.2373    7.9631 H   0  0  0  0  0  0
    0.4079    8.1789    2.5058 H   0  0  0  0  0  0
   -2.7831    2.5398    8.6056 H   0  0  0  0  0  0
   -2.0569    2.5190   10.0537 H   0  0  0  0  0  0
    0.1797    6.2365    6.2235 H   0  0  0  0  0  0
    4.6070    9.0517    6.5692 H   0  0  0  0  0  0
    2.9793    6.7238   10.2128 H   0  0  0  0  0  0
   -0.9637    6.5799    3.7958 H   0  0  0  0  0  0
    4.4694   10.0996    4.3370 H   0  0  0  0  0  0
    2.9986    4.2979    9.9877 H   0  0  0  0  0  0
    3.5296    5.0083    8.5538 H   0  0  0  0  0  0
    0.5984    6.9101   11.1007 H   0  0  0  0  0  0
    1.2942    5.4373   11.4935 H   0  0  0  0  0  0
    0.6154    3.2169   10.1829 H   0  0  0  0  0  0
    1.8793    3.1631    8.0369 H   0  0  0  0  0  0
    1.1767    4.6639    7.5881 H   0  0  0  0  0  0
   -0.6761    5.7736    9.1881 H   0  0  0  0  0  0
   -1.0052    4.9956   10.6919 H   0  0  0  0  0  0
   -0.9574    3.5621    7.5958 H   0  0  0  0  0  0
    0.4651    1.4972    7.6930 H   0  0  0  0  0  0
   -1.2379    1.0699    7.7135 H   0  0  0  0  0  0
   -0.2882    1.0146    9.1879 H   0  0  0  0  0  0
  1 10  2  0  0  0
  2  7  1  0  0  0
  2 10  1  0  0  0
  2 22  1  0  0  0
  3  8  1  0  0  0
  3 13  1  0  0  0
  3 23  1  0  0  0
  4  8  1  0  0  0
  4 14  2  0  0  0
  5 20  1  0  0  0
  5 24  1  0  0  0
  5 25  1  0  0  0
  6  7  1  0  0  0
  6  8  2  0  0  0
  6  9  1  0  0  0
  7 11  2  0  0  0
  9 13  2  0  0  0
  9 26  1  0  0  0
 10 12  1  0  0  0
 11 14  1  0  0  0
 11 27  1  0  0  0
 12 15  1  0  0  0
 12 16  1  0  0  0
 12 28  1  0  0  0
 13 29  1  0  0  0
 14 30  1  0  0  0
 15 18  1  0  0  0
 15 31  1  0  0  0
 15 32  1  0  0  0
 16 19  1  0  0  0
 16 33  1  0  0  0
 16 34  1  0  0  0
 17 18  1  0  0  0
 17 19  1  0  0  0
 17 20  1  0  0  0
 17 35  1  0  0  0
 18 36  1  0  0  0
 18 37  1  0  0  0
 19 38  1  0  0  0
 19 39  1  0  0  0
 20 21  1  0  0  0
 20 40  1  0  0  0
 21 41  1  0  0  0
 21 42  1  0  0  0
 21 43  1  0  0  0
M  END
> <s_m_entry_id>
32083

> <s_m_entry_name>
dock_pv.346

> <s_m_Source_Path>
/home/csk/Desktop/cluster/DUD-E-result/src

> <s_m_Source_File>
dock_pv.maegz

> <i_m_Source_File_Index>
346

> <chembl_id>
CHEMBL2002992

> <chembl_pref_name>
None

> <i_lp_mmshare_version>
53161

> <r_lp_tautomer_probability>
0.999998432528457

> <s_lp_Force_Field>
OPLS_2005

> <r_lp_Energy>
22.189553

> <b_lp_Chiralities_Consistent>
1

> <s_lp_Variant>
CHEMBL267_lig3613-4

> <s_i_glide_gridfile>
glide-grid_3el8

> <i_i_glide_lignum>
4367

> <i_i_glide_rotatable_bonds>
4

> <r_i_docking_score>
-7.3477068526836

> <r_i_glide_ligand_efficiency>
-0.349890802508743

> <r_i_glide_ligand_efficiency_sa>
-0.965322193155114

> <r_i_glide_ligand_efficiency_ln>
-1.81670567188631

> <r_i_glide_gscore>
-7.3477068526836

> <r_i_glide_lipo>
-2.63837488585492

> <r_i_glide_hbond>
-0.42933440505484

> <r_i_glide_metal>
0

> <r_i_glide_rewards>
-2.43109404462247

> <r_i_glide_evdw>
-32.8156509399414

> <r_i_glide_ecoul>
-5.62490463256836

> <r_i_glide_erotb>
0.664279621058043

> <r_i_glide_esite>
-0.0286648963270858

> <r_i_glide_emodel>
-50.9813158202005

> <r_i_glide_energy>
-38.4405555725098

> <r_i_glide_einternal>
7.61124658584595

> <i_i_glide_confnum>
5

> <i_i_glide_posenum>
248

> <r_i_glide_eff_state_penalty>
0

> <s_user_duplicate_titles>
CHEMBL267_lig3613

> <i_f3d_flags>
0

> <s_m_subgroup_title>
dock_pv

> <s_m_subgroupid>
dock_pv

> <b_m_subgroup_collapsed>
1

$$$$
CHEMBL267_lig1857
                    3D
 Schrodinger Suite 2021-1.
 50 52  0  0  1  0            999 V2000
    7.7991    6.9562    7.3500 N   0  0  0  0  0  0
    8.2336    7.9160    6.4949 C   0  0  0  0  0  0
    7.4923    8.8345    5.8206 N   0  0  0  0  0  0
    6.4677    6.9123    7.5881 C   0  0  0  0  0  0
    5.5917    7.8372    6.9892 C   0  0  0  0  0  0
    6.1843    8.7535    6.0951 C   0  0  0  0  0  0
    5.1447    9.5100    5.5821 N   0  0  0  0  0  0
    3.9596    9.1283    6.1169 N   0  0  0  0  0  0
    4.1981    8.1653    6.9755 C   0  0  0  0  0  0
    3.1277    7.5546    7.7996 C   0  0  0  0  0  0
    3.3187    7.4112    9.1761 C   0  0  0  0  0  0
    2.3819    6.7335    9.9737 C   0  0  0  0  0  0
    1.2560    6.1608    9.3488 C   0  0  0  0  0  0
    1.0287    6.3828    7.9848 C   0  0  0  0  0  0
    1.9607    7.0666    7.2126 C   0  0  0  0  0  0
    6.0053    5.8711    8.3863 N   0  0  0  0  0  0
    5.2137   10.6470    4.6556 C   0  0  0  0  0  0
    5.0458   11.9670    5.4357 C   0  0  0  0  0  0
    4.1888   10.5040    3.5101 C   0  0  0  0  0  0
    0.3473    5.4077   10.1131 N   0  0  0  0  0  0
    2.5196    6.5972   11.3458 O   0  0  0  0  0  0
    3.6974    7.0790   11.9923 C   0  0  0  0  0  0
   -0.0505    4.0255    9.7915 C   0  0  1  0  0  0
   -1.5563    3.8386   10.0252 C   0  0  0  0  0  0
    0.3754    3.4494    8.4166 C   0  0  0  0  0  0
    0.1982    2.0466    8.3880 O   0  0  0  0  0  0
    9.3010    7.9466    6.3282 H   0  0  0  0  0  0
    4.2132    7.8282    9.6133 H   0  0  0  0  0  0
    0.1338    6.0100    7.5119 H   0  0  0  0  0  0
    1.7945    7.1834    6.1506 H   0  0  0  0  0  0
    5.0139    5.7856    8.5596 H   0  0  0  0  0  0
    6.6671    5.2057    8.7638 H   0  0  0  0  0  0
    6.2108   10.6390    4.2095 H   0  0  0  0  0  0
    5.1641   12.8306    4.7789 H   0  0  0  0  0  0
    4.0608   12.0378    5.9015 H   0  0  0  0  0  0
    5.7924   12.0577    6.2260 H   0  0  0  0  0  0
    4.2968   11.3120    2.7848 H   0  0  0  0  0  0
    4.3249    9.5647    2.9720 H   0  0  0  0  0  0
    3.1616   10.5303    3.8788 H   0  0  0  0  0  0
    0.4609    5.5520   11.1059 H   0  0  0  0  0  0
    3.6668    6.8275   13.0518 H   0  0  0  0  0  0
    4.5982    6.6371   11.5769 H   0  0  0  0  0  0
    3.7990    8.1599   11.9056 H   0  0  0  0  0  0
    0.4729    3.4339   10.5463 H   0  0  0  0  0  0
   -1.8796    2.8052    9.9148 H   0  0  0  0  0  0
   -1.8018    4.1525   11.0376 H   0  0  0  0  0  0
   -2.1422    4.4449    9.3331 H   0  0  0  0  0  0
    1.4352    3.6262    8.2274 H   0  0  0  0  0  0
   -0.2049    3.8812    7.6037 H   0  0  0  0  0  0
   -0.7327    1.8455    8.5257 H   0  0  0  0  0  0
  1  2  2  0  0  0
  1  4  1  0  0  0
  2  3  1  0  0  0
  2 27  1  0  0  0
  3  6  2  0  0  0
  4  5  2  0  0  0
  4 16  1  0  0  0
  5  9  1  0  0  0
  5  6  1  0  0  0
  6  7  1  0  0  0
  7 17  1  0  0  0
  7  8  1  0  0  0
  8  9  2  0  0  0
  9 10  1  0  0  0
 10 15  1  0  0  0
 10 11  2  0  0  0
 11 12  1  0  0  0
 11 28  1  0  0  0
 12 13  2  0  0  0
 12 21  1  0  0  0
 13 14  1  0  0  0
 13 20  1  0  0  0
 14 15  2  0  0  0
 14 29  1  0  0  0
 15 30  1  0  0  0
 16 31  1  0  0  0
 16 32  1  0  0  0
 17 18  1  0  0  0
 17 19  1  0  0  0
 17 33  1  0  0  0
 18 34  1  0  0  0
 18 35  1  0  0  0
 18 36  1  0  0  0
 19 37  1  0  0  0
 19 38  1  0  0  0
 19 39  1  0  0  0
 20 23  1  0  0  0
 20 40  1  0  0  0
 21 22  1  0  0  0
 22 41  1  0  0  0
 22 42  1  0  0  0
 22 43  1  0  0  0
 23 24  1  0  0  0
 23 25  1  0  0  0
 23 44  1  0  0  0
 24 45  1  0  0  0
 24 46  1  0  0  0
 24 47  1  0  0  0
 25 26  1  0  0  0
 25 48  1  0  0  0
 25 49  1  0  0  0
 26 50  1  0  0  0
M  END
> <s_m_entry_id>
32084

> <s_m_entry_name>
dock_pv.347

> <s_m_Source_Path>
/home/csk/Desktop/cluster/DUD-E-result/src

> <s_m_Source_File>
dock_pv.maegz

> <i_m_Source_File_Index>
347

> <chembl_id>
CHEMBL1241486

> <chembl_pref_name>
None

> <i_lp_mmshare_version>
53161

> <r_lp_tautomer_probability>
1

> <s_lp_Force_Field>
OPLS_2005

> <r_lp_Energy>
19.26286

> <b_lp_Chiralities_Consistent>
1

> <s_lp_Variant>
CHEMBL267_lig1857-2

> <s_i_glide_gridfile>
glide-grid_3el8

> <i_i_glide_lignum>
2125

> <i_i_glide_rotatable_bonds>
7

> <r_i_docking_score>
-7.34065065038002

> <r_i_glide_ligand_efficiency>
-0.282332717322309

> <r_i_glide_ligand_efficiency_sa>
-0.836409564141741

> <r_i_glide_ligand_efficiency_ln>
-1.72392771860237

> <r_i_glide_gscore>
-7.34065065038002

> <r_i_glide_lipo>
-2.37812486863469

> <r_i_glide_hbond>
-0.0960538567370198

> <r_i_glide_metal>
0

> <r_i_glide_rewards>
-2.48593120473006

> <r_i_glide_evdw>
-45.106128692627

> <r_i_glide_ecoul>
-3.64615797996521

> <r_i_glide_erotb>
0.421689411347875

> <r_i_glide_esite>
0

> <r_i_glide_emodel>
-63.8425215916832

> <r_i_glide_energy>
-48.7522866725922

> <r_i_glide_einternal>
10.5496807098389

> <i_i_glide_confnum>
8

> <i_i_glide_posenum>
89

> <r_i_glide_eff_state_penalty>
0

> <s_user_duplicate_titles>
CHEMBL267_lig1857

> <i_f3d_flags>
0

> <s_m_subgroup_title>
dock_pv

> <s_m_subgroupid>
dock_pv

> <b_m_subgroup_collapsed>
1

$$$$
CHEMBL267_lig2930
                    3D
 Schrodinger Suite 2021-1.
 46 49  0  0  1  0            999 V2000
    0.2753    5.2241   10.8773 N   0  0  0  0  0  0
    1.2147    6.1103   11.2101 C   0  0  0  0  0  0
    1.9128    6.2791    9.9887 C   0  0  0  0  0  0
    1.4804    5.3513    8.9952 C   0  0  0  0  0  0
    0.5033    4.6590    9.6234 N   0  0  0  0  0  0
    2.8883    7.2063    9.8409 C   0  0  0  0  0  0
    3.6367    7.5327    8.6147 C   0  0  0  0  0  0
    3.0697    8.3754    7.6450 C   0  0  0  0  0  0
    3.8633    8.7612    6.5493 C   0  0  0  0  0  0
    5.1679    8.2934    6.4044 C   0  0  0  0  0  0
    5.7066    7.4370    7.3592 C   0  0  0  0  0  0
    4.9395    7.0520    8.4547 C   0  0  0  0  0  0
   -0.1581    3.5139    9.1718 C   0  0  0  0  0  0
    0.5840    2.3970    8.7758 C   0  0  0  0  0  0
   -0.0711    1.2313    8.3881 C   0  0  0  0  0  0
   -1.4615    1.1925    8.3880 C   0  0  0  0  0  0
   -2.2020    2.3021    8.7880 C   0  0  0  0  0  0
   -1.5538    3.4639    9.1880 C   0  0  0  0  0  0
    1.3881    6.6369   12.3059 O   0  0  0  0  0  0
    1.9065    5.1752    7.8533 O   0  0  0  0  0  0
    1.7561    8.7899    7.8398 O   0  0  0  0  0  0
    1.0138    9.4380    6.7973 C   0  0  0  0  0  0
    0.9767    8.6140    5.5175 C   0  0  0  0  0  0
    1.3983    9.1882    4.3153 C   0  0  0  0  0  0
    1.5453    8.3917    3.1880 C   0  0  0  0  0  0
    1.2353    7.0372    3.2565 C   0  0  0  0  0  0
    0.7237    6.4819    4.4264 C   0  0  0  0  0  0
    0.5999    7.2700    5.5644 C   0  0  0  0  0  0
   -0.4110    4.7098   11.4083 H   0  0  0  0  0  0
    3.1555    7.8191   10.6918 H   0  0  0  0  0  0
    3.4944    9.4466    5.8065 H   0  0  0  0  0  0
    5.7605    8.5980    5.5543 H   0  0  0  0  0  0
    6.7155    7.0678    7.2480 H   0  0  0  0  0  0
    5.3668    6.3842    9.1888 H   0  0  0  0  0  0
    1.6627    2.4276    8.7878 H   0  0  0  0  0  0
    0.4948    0.3589    8.0943 H   0  0  0  0  0  0
   -1.9772    0.2954    8.0768 H   0  0  0  0  0  0
   -3.2820    2.2571    8.7885 H   0  0  0  0  0  0
   -2.1369    4.3193    9.4999 H   0  0  0  0  0  0
   -0.0097    9.5887    7.1408 H   0  0  0  0  0  0
    1.4210   10.4332    6.6166 H   0  0  0  0  0  0
    1.6747   10.2313    4.2661 H   0  0  0  0  0  0
    1.9127    8.8142    2.2642 H   0  0  0  0  0  0
    1.3979    6.4174    2.3877 H   0  0  0  0  0  0
    0.4517    5.4395    4.4639 H   0  0  0  0  0  0
    0.2561    6.8257    6.4879 H   0  0  0  0  0  0
  1  5  1  0  0  0
  1  2  1  0  0  0
  1 29  1  0  0  0
  2  3  1  0  0  0
  2 19  2  0  0  0
  3  4  1  0  0  0
  3  6  2  0  0  0
  4  5  1  0  0  0
  4 20  2  0  0  0
  5 13  1  0  0  0
  6  7  1  0  0  0
  6 30  1  0  0  0
  7  8  2  0  0  0
  7 12  1  0  0  0
  8  9  1  0  0  0
  8 21  1  0  0  0
  9 10  2  0  0  0
  9 31  1  0  0  0
 10 11  1  0  0  0
 10 32  1  0  0  0
 11 12  2  0  0  0
 11 33  1  0  0  0
 12 34  1  0  0  0
 13 14  2  0  0  0
 13 18  1  0  0  0
 14 15  1  0  0  0
 14 35  1  0  0  0
 15 16  2  0  0  0
 15 36  1  0  0  0
 16 17  1  0  0  0
 16 37  1  0  0  0
 17 18  2  0  0  0
 17 38  1  0  0  0
 18 39  1  0  0  0
 21 22  1  0  0  0
 22 23  1  0  0  0
 22 40  1  0  0  0
 22 41  1  0  0  0
 23 24  2  0  0  0
 23 28  1  0  0  0
 24 25  1  0  0  0
 24 42  1  0  0  0
 25 26  2  0  0  0
 25 43  1  0  0  0
 26 27  1  0  0  0
 26 44  1  0  0  0
 27 28  2  0  0  0
 27 45  1  0  0  0
 28 46  1  0  0  0
M  END
> <s_m_entry_id>
32085

> <s_m_entry_name>
dock_pv.348

> <s_m_Source_Path>
/home/csk/Desktop/cluster/DUD-E-result/src

> <s_m_Source_File>
dock_pv.maegz

> <i_m_Source_File_Index>
348

> <chembl_id>
CHEMBL380706

> <chembl_pref_name>
None

> <i_lp_mmshare_version>
53161

> <r_lp_tautomer_probability>
0.499933002277922

> <s_lp_Force_Field>
OPLS_2005

> <r_lp_Energy>
41.930882

> <b_lp_Chiralities_Consistent>
1

> <s_lp_Variant>
CHEMBL267_lig2930-1

> <s_i_glide_gridfile>
glide-grid_3el8

> <i_i_glide_lignum>
3328

> <i_i_glide_rotatable_bonds>
5

> <r_i_docking_score>
-7.33868829162109

> <r_i_glide_ligand_efficiency>
-0.262096010415039

> <r_i_glide_ligand_efficiency_sa>
-0.795877853914907

> <r_i_glide_ligand_efficiency_ln>
-1.69398473095729

> <r_i_glide_gscore>
-7.33868829162109

> <r_i_glide_lipo>
-3.5965647001889

> <r_i_glide_hbond>
0

> <r_i_glide_metal>
0

> <r_i_glide_rewards>
-1.82298056234947

> <r_i_glide_evdw>
-46.4814720153809

> <r_i_glide_ecoul>
-1.98757386207581

> <r_i_glide_erotb>
0.703066650997685

> <r_i_glide_esite>
0

> <r_i_glide_emodel>
-65.4615302467932

> <r_i_glide_energy>
-48.4690458774567

> <r_i_glide_einternal>
7.95939064025879

> <i_i_glide_confnum>
112

> <i_i_glide_posenum>
189

> <r_i_glide_eff_state_penalty>
0

> <s_user_duplicate_titles>
CHEMBL267_lig2930,348506

> <i_f3d_flags>
0

> <s_m_subgroup_title>
dock_pv

> <s_m_subgroupid>
dock_pv

> <b_m_subgroup_collapsed>
1

$$$$
CHEMBL267_lig2957
                    3D
 Schrodinger Suite 2021-1.
 48 51  0  0  1  0            999 V2000
    1.7155    6.7693    9.6111 N   0  0  0  0  0  0
    2.6377    7.7416    9.4812 C   0  0  0  0  0  0
    2.7523    8.6370    8.4628 N   0  0  0  0  0  0
    0.7820    6.6529    8.6484 C   0  0  0  0  0  0
    3.7980    7.8384   10.7880 S   0  0  0  0  0  0
   -0.2020    5.6818    8.7880 N   0  0  0  0  0  0
    1.6839    9.1336    6.2894 N   0  0  0  0  0  0
    0.6387    8.6370    5.5914 N   0  0  0  0  0  0
    0.0924    7.6914    6.3102 C   0  0  0  0  0  0
    0.8073    7.4969    7.5273 C   0  0  0  0  0  0
    1.8317    8.4697    7.5017 C   0  0  0  0  0  0
    2.5186   10.1487    5.6392 C   0  0  0  0  0  0
    3.5436    9.5212    4.6565 C   0  0  2  0  0  0
    4.8548    9.1002    5.3367 C   0  0  0  0  0  0
    3.7680   10.6245    3.2634 Cl  0  0  0  0  0  0
    6.0606    9.7777    5.1110 C   0  0  0  0  0  0
    7.2232    9.3724    5.7610 C   0  0  0  0  0  0
    7.1773    8.3248    6.6779 C   0  0  0  0  0  0
    5.9860    7.6570    6.9216 C   0  0  0  0  0  0
    4.8421    8.0199    6.2222 C   0  0  0  0  0  0
    3.2921    6.6726   12.0760 C   0  0  0  0  0  0
   -0.2179    4.6878    9.8393 C   0  0  0  0  0  0
   -0.6628    3.3769    9.2311 C   0  0  0  0  0  0
   -2.0226    3.0652    9.1880 C   0  0  0  0  0  0
   -2.4209    1.7961    8.7880 C   0  0  0  0  0  0
   -1.4734    0.8592    8.3880 C   0  0  0  0  0  0
   -0.1219    1.1830    8.3880 C   0  0  0  0  0  0
    0.2886    2.4529    8.7880 C   0  0  0  0  0  0
    8.5980    7.8370    7.5200 Cl  0  0  0  0  0  0
   -0.9773    5.6796    8.1286 H   0  0  0  0  0  0
   -0.7661    7.1448    5.9455 H   0  0  0  0  0  0
    3.0230   10.7547    6.3880 H   0  0  0  0  0  0
    1.8433   10.8208    5.1061 H   0  0  0  0  0  0
    3.1010    8.6370    4.1965 H   0  0  0  0  0  0
    6.1166   10.6156    4.4325 H   0  0  0  0  0  0
    8.1548    9.8827    5.5693 H   0  0  0  0  0  0
    5.9522    6.8353    7.6225 H   0  0  0  0  0  0
    3.9420    7.4471    6.3776 H   0  0  0  0  0  0
    4.1124    6.4768   12.7673 H   0  0  0  0  0  0
    2.4343    7.0370   12.6388 H   0  0  0  0  0  0
    2.9980    5.7500   11.5880 H   0  0  0  0  0  0
    0.7536    4.5604   10.3193 H   0  0  0  0  0  0
   -0.9207    4.9929   10.6166 H   0  0  0  0  0  0
   -2.7614    3.7823    9.5175 H   0  0  0  0  0  0
   -3.4702    1.5383    8.7880 H   0  0  0  0  0  0
   -1.7932   -0.1234    8.0745 H   0  0  0  0  0  0
    0.5980    0.4387    8.0854 H   0  0  0  0  0  0
    1.3418    2.6923    8.8156 H   0  0  0  0  0  0
  1  2  2  0  0  0
  1  4  1  0  0  0
  2  5  1  0  0  0
  2  3  1  0  0  0
  3 11  2  0  0  0
  4 10  2  0  0  0
  4  6  1  0  0  0
  5 21  1  0  0  0
  6 22  1  0  0  0
  6 30  1  0  0  0
  7  8  1  0  0  0
  7 11  1  0  0  0
  7 12  1  0  0  0
  8  9  2  0  0  0
  9 10  1  0  0  0
  9 31  1  0  0  0
 10 11  1  0  0  0
 12 13  1  0  0  0
 12 32  1  0  0  0
 12 33  1  0  0  0
 13 14  1  0  0  0
 13 15  1  0  0  0
 13 34  1  0  0  0
 14 16  2  0  0  0
 14 20  1  0  0  0
 16 17  1  0  0  0
 16 35  1  0  0  0
 17 18  2  0  0  0
 17 36  1  0  0  0
 18 19  1  0  0  0
 18 29  1  0  0  0
 19 20  2  0  0  0
 19 37  1  0  0  0
 20 38  1  0  0  0
 21 39  1  0  0  0
 21 40  1  0  0  0
 21 41  1  0  0  0
 22 23  1  0  0  0
 22 42  1  0  0  0
 22 43  1  0  0  0
 23 24  2  0  0  0
 23 28  1  0  0  0
 24 25  1  0  0  0
 24 44  1  0  0  0
 25 26  2  0  0  0
 25 45  1  0  0  0
 26 27  1  0  0  0
 26 46  1  0  0  0
 27 28  2  0  0  0
 27 47  1  0  0  0
 28 48  1  0  0  0
M  END
> <s_m_entry_id>
32086

> <s_m_entry_name>
dock_pv.349

> <s_m_Source_Path>
/home/csk/Desktop/cluster/DUD-E-result/src

> <s_m_Source_File>
dock_pv.maegz

> <i_m_Source_File_Index>
349

> <chembl_id>
CHEMBL241749

> <chembl_pref_name>
None

> <i_lp_mmshare_version>
53161

> <r_lp_tautomer_probability>
1

> <s_lp_Force_Field>
OPLS_2005

> <r_lp_Energy>
9.345595

> <b_lp_Chiralities_Consistent>
1

> <s_lp_Variant>
CHEMBL267_lig2957-1

> <s_i_glide_gridfile>
glide-grid_3el8

> <i_i_glide_lignum>
3365

> <i_i_glide_rotatable_bonds>
7

> <r_i_docking_score>
-7.33602623626726

> <r_i_glide_ligand_efficiency>
-0.25296642194025

> <r_i_glide_ligand_efficiency_sa>
-0.777192993588231

> <r_i_glide_ligand_efficiency_ln>
-1.67976398253058

> <r_i_glide_gscore>
-7.33602623626726

> <r_i_glide_lipo>
-3.76977386359311

> <r_i_glide_hbond>
-0.32

> <r_i_glide_metal>
0

> <r_i_glide_rewards>
-0.924391094996453

> <r_i_glide_evdw>
-38.7697639465332

> <r_i_glide_ecoul>
-6.17089509963989

> <r_i_glide_erotb>
0.607658884890606

> <r_i_glide_esite>
-0.0653977002956666

> <r_i_glide_emodel>
-56.897066010734

> <r_i_glide_energy>
-44.9406590461731

> <r_i_glide_einternal>
12.8430013656616

> <i_i_glide_confnum>
4

> <i_i_glide_posenum>
263

> <r_i_glide_eff_state_penalty>
0

> <s_user_duplicate_titles>
CHEMBL267_lig2957

> <i_f3d_flags>
0

> <s_m_subgroup_title>
dock_pv

> <s_m_subgroupid>
dock_pv

> <b_m_subgroup_collapsed>
1

$$$$
CHEMBL267_lig3692
                    3D
 Schrodinger Suite 2021-1.
 38 40  0  0  1  0            999 V2000
    3.9181    7.5748    8.4667 F   0  0  0  0  0  0
    3.8881    7.0372   11.1158 F   0  0  0  0  0  0
    5.3463   10.2357    2.5604 O   0  0  0  0  0  0
    1.5836    8.4906    2.7887 N   0  0  0  0  0  0
    2.5319    9.4420    2.7891 N   0  0  0  0  0  0
    4.0239   10.3629    4.4303 N   0  0  0  0  0  0
    2.2800    8.6639    4.8967 C   0  0  0  0  0  0
    1.3957    7.9527    4.0512 C   0  0  0  0  0  0
    1.5263    7.3199    6.7818 C   0  0  0  0  0  0
    2.9769    9.5526    4.0177 C   0  0  0  0  0  0
    1.6024    6.9366    8.2386 C   0  0  0  0  0  0
    2.3125    8.3645    6.2672 C   0  0  0  0  0  0
    0.5713    6.9356    4.5355 C   0  0  0  0  0  0
    2.7713    7.1067    9.0128 C   0  0  0  0  0  0
    0.6732    6.6387    5.8991 C   0  0  0  0  0  0
    2.7851    6.7896   10.3754 C   0  0  0  0  0  0
    0.4807    6.3887    8.8878 C   0  0  0  0  0  0
    5.1434   10.6184    3.7160 C   0  0  0  0  0  0
    1.6608    6.2373   10.9812 C   0  0  0  0  0  0
    0.5099    6.0250   10.2327 C   0  0  0  0  0  0
    6.2324   11.4308    4.4336 C   0  0  0  0  0  0
    7.6199   10.7428    4.4105 C   0  0  0  0  0  0
    7.6839    9.4216    5.1981 C   0  0  0  0  0  0
    1.1193    8.2416    1.9156 H   0  0  0  0  0  0
    4.0206   10.6410    5.3987 H   0  0  0  0  0  0
    2.9693    8.9311    6.9069 H   0  0  0  0  0  0
   -0.1012    6.3904    3.8916 H   0  0  0  0  0  0
    0.0520    5.8368    6.2724 H   0  0  0  0  0  0
   -0.4530    6.2366    8.3734 H   0  0  0  0  0  0
    1.6798    5.9935   12.0308 H   0  0  0  0  0  0
   -0.3717    5.6054   10.6977 H   0  0  0  0  0  0
    5.9457   11.6512    5.4644 H   0  0  0  0  0  0
    6.2899   12.3974    3.9322 H   0  0  0  0  0  0
    8.3657   11.4249    4.8202 H   0  0  0  0  0  0
    7.9362   10.5872    3.3769 H   0  0  0  0  0  0
    8.6915    9.0063    5.1875 H   0  0  0  0  0  0
    7.0160    8.6655    4.7829 H   0  0  0  0  0  0
    7.3967    9.5687    6.2397 H   0  0  0  0  0  0
  1 14  1  0  0  0
  2 16  1  0  0  0
  3 18  2  0  0  0
  4  5  1  0  0  0
  4  8  1  0  0  0
  4 24  1  0  0  0
  5 10  2  0  0  0
  6 10  1  0  0  0
  6 18  1  0  0  0
  6 25  1  0  0  0
  7  8  1  0  0  0
  7 10  1  0  0  0
  7 12  2  0  0  0
  8 13  2  0  0  0
  9 11  1  0  0  0
  9 12  1  0  0  0
  9 15  2  0  0  0
 11 14  1  0  0  0
 11 17  2  0  0  0
 12 26  1  0  0  0
 13 15  1  0  0  0
 13 27  1  0  0  0
 14 16  2  0  0  0
 15 28  1  0  0  0
 16 19  1  0  0  0
 17 20  1  0  0  0
 17 29  1  0  0  0
 18 21  1  0  0  0
 19 20  2  0  0  0
 19 30  1  0  0  0
 20 31  1  0  0  0
 21 22  1  0  0  0
 21 32  1  0  0  0
 21 33  1  0  0  0
 22 23  1  0  0  0
 22 34  1  0  0  0
 22 35  1  0  0  0
 23 36  1  0  0  0
 23 37  1  0  0  0
 23 38  1  0  0  0
M  END
> <s_m_entry_id>
32087

> <s_m_entry_name>
dock_pv.350

> <s_m_Source_Path>
/home/csk/Desktop/cluster/DUD-E-result/src

> <s_m_Source_File>
dock_pv.maegz

> <i_m_Source_File_Index>
350

> <chembl_id>
CHEMBL1985406

> <chembl_pref_name>
None

> <i_lp_mmshare_version>
53161

> <r_lp_tautomer_probability>
0.980392156862745

> <s_lp_Force_Field>
OPLS_2005

> <r_lp_Energy>
16.114718

> <b_lp_Chiralities_Consistent>
1

> <s_lp_Variant>
CHEMBL267_lig3692-1

> <s_i_glide_gridfile>
glide-grid_3el8

> <i_i_glide_lignum>
4496

> <i_i_glide_rotatable_bonds>
5

> <r_i_docking_score>
-7.33418087743062

> <r_i_glide_ligand_efficiency>
-0.318877429453505

> <r_i_glide_ligand_efficiency_sa>
-0.906844991294969

> <r_i_glide_ligand_efficiency_ln>
-1.77347143883813

> <r_i_glide_gscore>
-7.33418087743062

> <r_i_glide_lipo>
-2.36423312527676

> <r_i_glide_hbond>
-0.32

> <r_i_glide_metal>
0

> <r_i_glide_rewards>
-2.54091905630134

> <r_i_glide_evdw>
-32.3268089294434

> <r_i_glide_ecoul>
-7.88652324676514

> <r_i_glide_erotb>
0.748338760134179

> <r_i_glide_esite>
-0.058048522499761

> <r_i_glide_emodel>
-56.1678868707118

> <r_i_glide_energy>
-40.2133321762085

> <r_i_glide_einternal>
4.42781925201416

> <i_i_glide_confnum>
28

> <i_i_glide_posenum>
346

> <r_i_glide_eff_state_penalty>
0

> <s_user_duplicate_titles>
CHEMBL267_lig3692

> <i_f3d_flags>
0

> <s_m_subgroup_title>
dock_pv

> <s_m_subgroupid>
dock_pv

> <b_m_subgroup_collapsed>
1

$$$$
CHEMBL267_lig457
                    3D
 Schrodinger Suite 2021-1.
 53 56  0  0  1  0            999 V2000
    5.6782    8.3769    6.5449 C   0  0  0  0  0  0
    4.5999    9.1322    6.1025 N   0  0  0  0  0  0
    5.1929    7.4317    7.4988 C   0  0  0  0  0  0
    3.7804    7.6647    7.6507 C   0  0  0  0  0  0
    3.4686    8.6408    6.7253 C   0  0  0  0  0  0
    2.3307   12.8545    3.7904 C   0  0  0  0  0  0
    3.2179   11.8047    4.0519 N   0  0  0  0  0  0
    4.6410   10.2268    5.1198 C   0  0  2  0  0  0
    6.9544    8.4843    6.1460 N   0  0  0  0  0  0
    6.1539    6.5198    7.9877 C   0  0  0  0  0  0
    7.4497    6.5855    7.5880 N   0  0  0  0  0  0
    3.6298   11.3607    5.3889 C   0  0  0  0  0  0
    1.8260   13.3853    4.9504 O   0  0  0  0  0  0
    7.7793    7.5657    6.7111 C   0  0  0  0  0  0
    4.3286    9.7592    3.7038 C   0  0  0  0  0  0
    2.8190    6.9984    8.5646 C   0  0  0  0  0  0
    3.8020   10.9976    2.9785 C   0  0  0  0  0  0
    2.0144   13.2392    2.6641 O   0  0  0  0  0  0
    0.8163   14.4096    5.0181 C   0  0  0  0  0  0
    5.7981    5.4371    8.7879 N   0  0  0  0  0  0
    1.6226    6.4812    8.0615 C   0  0  0  0  0  0
    3.1058    6.9047    9.9285 C   0  0  0  0  0  0
    1.3141   15.7340    4.3930 C   0  0  0  0  0  0
    0.5672   14.6054    6.5253 C   0  0  0  0  0  0
   -0.5096   13.9638    4.3577 C   0  0  0  0  0  0
    0.7135    5.8720    8.9215 C   0  0  0  0  0  0
    2.1891    6.3088   10.7900 C   0  0  0  0  0  0
    0.9962    5.7963   10.2837 C   0  0  0  0  0  0
    2.5003    9.0589    6.4973 H   0  0  0  0  0  0
    5.6461   10.6527    5.1684 H   0  0  0  0  0  0
    4.0871   12.1663    5.9654 H   0  0  0  0  0  0
    2.7507   11.0357    5.9432 H   0  0  0  0  0  0
    8.8150    7.6034    6.4020 H   0  0  0  0  0  0
    3.5189    9.0272    3.7239 H   0  0  0  0  0  0
    5.1766    9.2988    3.1943 H   0  0  0  0  0  0
    3.0680   10.7411    2.2122 H   0  0  0  0  0  0
    4.6115   11.5587    2.5090 H   0  0  0  0  0  0
    4.8412    5.3428    9.1008 H   0  0  0  0  0  0
    6.5148    4.7807    9.0736 H   0  0  0  0  0  0
    1.4019    6.5415    7.0053 H   0  0  0  0  0  0
    4.0307    7.2997   10.3245 H   0  0  0  0  0  0
    0.6269   16.5565    4.5969 H   0  0  0  0  0  0
    1.4171   15.6609    3.3102 H   0  0  0  0  0  0
    2.2905   16.0131    4.7878 H   0  0  0  0  0  0
    0.2645   13.6728    7.0041 H   0  0  0  0  0  0
    1.4599   14.9530    7.0432 H   0  0  0  0  0  0
   -0.2223   15.3348    6.7060 H   0  0  0  0  0  0
   -0.8758   13.0373    4.7964 H   0  0  0  0  0  0
   -1.2896   14.7143    4.4891 H   0  0  0  0  0  0
   -0.4054   13.7985    3.2855 H   0  0  0  0  0  0
   -0.2042    5.4577    8.5333 H   0  0  0  0  0  0
    2.4080    6.2384   11.8456 H   0  0  0  0  0  0
    0.2860    5.3274   10.9497 H   0  0  0  0  0  0
  1  2  1  0  0  0
  1  3  2  0  0  0
  1  9  1  0  0  0
  2  5  1  0  0  0
  2  8  1  0  0  0
  3  4  1  0  0  0
  3 10  1  0  0  0
  4 16  1  0  0  0
  4  5  2  0  0  0
  5 29  1  0  0  0
  6  7  1  0  0  0
  6 13  1  0  0  0
  6 18  2  0  0  0
  7 12  1  0  0  0
  7 17  1  0  0  0
  8 12  1  0  0  0
  8 15  1  0  0  0
  8 30  1  0  0  0
  9 14  2  0  0  0
 10 20  1  0  0  0
 10 11  2  0  0  0
 11 14  1  0  0  0
 12 31  1  0  0  0
 12 32  1  0  0  0
 13 19  1  0  0  0
 14 33  1  0  0  0
 15 17  1  0  0  0
 15 34  1  0  0  0
 15 35  1  0  0  0
 16 21  2  0  0  0
 16 22  1  0  0  0
 17 36  1  0  0  0
 17 37  1  0  0  0
 19 23  1  0  0  0
 19 24  1  0  0  0
 19 25  1  0  0  0
 20 38  1  0  0  0
 20 39  1  0  0  0
 21 26  1  0  0  0
 21 40  1  0  0  0
 22 27  2  0  0  0
 22 41  1  0  0  0
 23 42  1  0  0  0
 23 43  1  0  0  0
 23 44  1  0  0  0
 24 45  1  0  0  0
 24 46  1  0  0  0
 24 47  1  0  0  0
 25 48  1  0  0  0
 25 49  1  0  0  0
 25 50  1  0  0  0
 26 28  2  0  0  0
 26 51  1  0  0  0
 27 28  1  0  0  0
 27 52  1  0  0  0
 28 53  1  0  0  0
M  END
> <s_m_entry_id>
32088

> <s_m_entry_name>
dock_pv.351

> <s_m_Source_Path>
/home/csk/Desktop/cluster/DUD-E-result/src

> <s_m_Source_File>
dock_pv.maegz

> <i_m_Source_File_Index>
351

> <chembl_id>
CHEMBL353823

> <chembl_pref_name>
None

> <i_lp_mmshare_version>
53161

> <r_lp_tautomer_probability>
1

> <s_lp_Force_Field>
OPLS_2005

> <r_lp_Energy>
37.683312

> <b_lp_Chiralities_Consistent>
1

> <s_lp_Variant>
CHEMBL267_lig457-1

> <s_i_glide_gridfile>
glide-grid_3el8

> <i_i_glide_lignum>
547

> <i_i_glide_rotatable_bonds>
5

> <r_i_docking_score>
-7.33110231499582

> <r_i_glide_ligand_efficiency>
-0.261825082678422

> <r_i_glide_ligand_efficiency_sa>
-0.795055157738635

> <r_i_glide_ligand_efficiency_ln>
-1.69223366481822

> <r_i_glide_gscore>
-7.33110231499582

> <r_i_glide_lipo>
-2.20073721445373

> <r_i_glide_hbond>
-0.352607521568919

> <r_i_glide_metal>
0

> <r_i_glide_rewards>
-2.70457444671517

> <r_i_glide_evdw>
-41.9025344848633

> <r_i_glide_ecoul>
-3.44479417800903

> <r_i_glide_erotb>
0.538662718686523

> <r_i_glide_esite>
0

> <r_i_glide_emodel>
-62.5729050570452

> <r_i_glide_energy>
-45.3473286628723

> <r_i_glide_einternal>
3.8569860458374

> <i_i_glide_confnum>
1

> <i_i_glide_posenum>
244

> <r_i_glide_eff_state_penalty>
0

> <s_user_duplicate_titles>
CHEMBL267_lig457,282214

> <i_f3d_flags>
0

> <s_m_subgroup_title>
dock_pv

> <s_m_subgroupid>
dock_pv

> <b_m_subgroup_collapsed>
1

$$$$
CHEMBL267_lig1755
                    3D
 Schrodinger Suite 2021-1.
 39 42  0  0  1  0            999 V2000
    4.1626    7.0986    8.2348 N   0  0  0  0  0  0
    4.4909    7.9665    7.2395 C   0  0  0  0  0  0
    3.6212    8.5087    6.3393 N   0  0  0  0  0  0
    2.8837    6.6875    8.3501 C   0  0  0  0  0  0
    1.9414    7.1851    7.4400 C   0  0  0  0  0  0
    2.3527    8.1081    6.4487 C   0  0  0  0  0  0
    1.3010    8.4942    5.6592 N   0  0  0  0  0  0
    0.2820    7.8158    6.1271 C   0  0  0  0  0  0
    0.5956    7.0117    7.1978 N   0  0  0  0  0  0
    2.6227    5.7852    9.3806 N   0  0  0  0  0  0
    1.5041    4.9590    9.4280 C   0  0  0  0  0  0
    1.3027    3.9947    8.4407 C   0  0  0  0  0  0
    0.0962    3.3016    8.3898 C   0  0  0  0  0  0
   -0.8920    3.5807    9.3262 C   0  0  0  0  0  0
   -0.6427    4.4708   10.3671 C   0  0  0  0  0  0
    0.5526    5.1740   10.4169 C   0  0  0  0  0  0
    5.8396    8.2922    7.1142 N   0  0  0  0  0  0
    6.4075    9.2650    6.1626 C   0  0  0  0  0  0
    7.6454    8.7133    5.4244 C   0  0  0  0  0  0
    8.6730    8.2370    6.3415 N   0  0  0  0  0  0
    8.1013    7.2154    7.2005 C   0  0  0  0  0  0
    6.9071    7.7756    7.9874 C   0  0  0  0  0  0
   -2.6020    2.7563    9.1880 Br  0  0  0  0  0  0
   -0.0729    6.4046    7.6593 H   0  0  0  0  0  0
   -0.7306    7.8337    5.7466 H   0  0  0  0  0  0
    3.4249    5.4998    9.9275 H   0  0  0  0  0  0
    2.0587    3.8238    7.6878 H   0  0  0  0  0  0
   -0.0873    2.5816    7.6070 H   0  0  0  0  0  0
   -1.4017    4.6384   11.1147 H   0  0  0  0  0  0
    0.7158    5.9085   11.1918 H   0  0  0  0  0  0
    6.6611   10.1766    6.7054 H   0  0  0  0  0  0
    5.6700    9.5723    5.4215 H   0  0  0  0  0  0
    7.3523    7.8978    4.7622 H   0  0  0  0  0  0
    8.0821    9.4818    4.7872 H   0  0  0  0  0  0
    9.4302    7.8141    5.8086 H   0  0  0  0  0  0
    7.8009    6.3501    6.6082 H   0  0  0  0  0  0
    8.8733    6.8566    7.8808 H   0  0  0  0  0  0
    6.5389    6.9746    8.6258 H   0  0  0  0  0  0
    7.2234    8.5677    8.6681 H   0  0  0  0  0  0
  1  2  2  0  0  0
  1  4  1  0  0  0
  2 17  1  0  0  0
  2  3  1  0  0  0
  3  6  2  0  0  0
  4 10  1  0  0  0
  4  5  2  0  0  0
  5  9  1  0  0  0
  5  6  1  0  0  0
  6  7  1  0  0  0
  7  8  2  0  0  0
  8  9  1  0  0  0
  8 25  1  0  0  0
  9 24  1  0  0  0
 10 11  1  0  0  0
 10 26  1  0  0  0
 11 12  2  0  0  0
 11 16  1  0  0  0
 12 13  1  0  0  0
 12 27  1  0  0  0
 13 14  2  0  0  0
 13 28  1  0  0  0
 14 15  1  0  0  0
 14 23  1  0  0  0
 15 16  2  0  0  0
 15 29  1  0  0  0
 16 30  1  0  0  0
 17 18  1  0  0  0
 17 22  1  0  0  0
 18 19  1  0  0  0
 18 31  1  0  0  0
 18 32  1  0  0  0
 19 20  1  0  0  0
 19 33  1  0  0  0
 19 34  1  0  0  0
 20 21  1  0  0  0
 20 35  1  0  0  0
 21 22  1  0  0  0
 21 36  1  0  0  0
 21 37  1  0  0  0
 22 38  1  0  0  0
 22 39  1  0  0  0
M  END
> <s_m_entry_id>
32089

> <s_m_entry_name>
dock_pv.352

> <s_m_Source_Path>
/home/csk/Desktop/cluster/DUD-E-result/src

> <s_m_Source_File>
dock_pv.maegz

> <i_m_Source_File_Index>
352

> <chembl_id>
CHEMBL1172708

> <chembl_pref_name>
None

> <i_lp_mmshare_version>
53161

> <r_lp_tautomer_probability>
0.0419191988452545

> <s_lp_Force_Field>
OPLS_2005

> <r_lp_Energy>
31.500776

> <b_lp_Chiralities_Consistent>
1

> <s_lp_Variant>
CHEMBL267_lig1755-2

> <s_i_glide_gridfile>
glide-grid_3el8

> <i_i_glide_lignum>
1989

> <i_i_glide_rotatable_bonds>
3

> <r_i_docking_score>
-7.32946513261117

> <r_i_glide_ligand_efficiency>
-0.318672397070051

> <r_i_glide_ligand_efficiency_sa>
-0.906261906470471

> <r_i_glide_ligand_efficiency_ln>
-1.77233112898077

> <r_i_glide_gscore>
-7.32946513261117

> <r_i_glide_lipo>
-2.88901717531084

> <r_i_glide_hbond>
-0.479540091571952

> <r_i_glide_metal>
0

> <r_i_glide_rewards>
-1.81592471956581

> <r_i_glide_evdw>
-39.7111434936523

> <r_i_glide_ecoul>
-3.82374143600464

> <r_i_glide_erotb>
0.414135243920752

> <r_i_glide_esite>
0

> <r_i_glide_emodel>
-52.0966088953593

> <r_i_glide_energy>
-43.534884929657

> <r_i_glide_einternal>
14.6915216445923

> <i_i_glide_confnum>
23

> <i_i_glide_posenum>
275

> <r_i_glide_eff_state_penalty>
0

> <s_user_duplicate_titles>
CHEMBL267_lig1755

> <i_f3d_flags>
0

> <s_m_subgroup_title>
dock_pv

> <s_m_subgroupid>
dock_pv

> <b_m_subgroup_collapsed>
1

$$$$
CHEMBL267_lig495
                    3D
 Schrodinger Suite 2021-1.
 59 63  0  0  1  0            999 V2000
    6.2779    9.0523    5.7236 C   0  0  0  0  0  0
    5.2944    8.4025    6.5666 C   0  0  0  0  0  0
    1.6311    8.1011    7.4547 N   0  0  0  0  0  0
    6.0107   10.0970    4.8041 N   0  0  0  0  0  0
    3.4836    7.0588    8.3196 C   0  0  0  0  0  0
    2.3619    6.6232    9.0038 N   0  0  0  0  0  0
    2.9941    8.0024    7.3942 C   0  0  0  0  0  0
    4.8465    6.7804    8.3871 C   0  0  0  0  0  0
    5.7567    7.4179    7.5030 C   0  0  0  0  0  0
    1.2960    7.2495    8.3878 C   0  0  0  0  0  0
    4.9609   10.5117    3.9648 C   0  0  0  0  0  0
    7.6325    8.6768    5.8911 C   0  0  0  0  0  0
    3.8973    8.6940    6.5812 C   0  0  0  0  0  0
    7.0614    7.0538    7.5881 N   0  0  0  0  0  0
    3.9200    9.6568    3.5877 C   0  0  0  0  0  0
    8.7497    9.3185    5.1880 C   0  0  0  0  0  0
    9.6315    9.8368    4.6456 N   0  0  0  0  0  0
    2.8509   10.1141    2.8009 C   0  0  0  0  0  0
    2.8973   11.4173    2.2951 C   0  0  0  0  0  0
    4.9905   11.8200    3.4466 C   0  0  0  0  0  0
    3.9652   12.2549    2.6039 C   0  0  0  0  0  0
    0.2547    4.2297    9.9879 N   0  0  0  0  0  0
    7.9585    7.6786    6.8012 C   0  0  0  0  0  0
    2.3460    5.7532   10.1841 C   0  0  0  0  0  0
   -1.1701    2.7457    8.0160 O   0  0  0  0  0  0
    0.9267    5.3446   10.6770 C   0  0  0  0  0  0
    1.6262   12.0231    1.2903 Cl  0  0  0  0  0  0
    1.7290    9.3622    2.5126 O   0  0  0  0  0  0
    0.9419    3.5161    8.9052 C   0  0  0  0  0  0
   -1.1806    4.4514    9.7780 C   0  0  0  0  0  0
    6.1077   12.8000    3.7963 C   0  0  0  0  0  0
    0.1151    2.3078    8.4236 C   0  0  0  0  0  0
   -1.9195    3.2716    9.1057 C   0  0  0  0  0  0
    1.5216    8.1128    3.1633 C   0  0  0  0  0  0
    6.8313   10.6642    4.6483 H   0  0  0  0  0  0
    5.2241    6.0538    9.0932 H   0  0  0  0  0  0
    0.2870    7.0373    8.7034 H   0  0  0  0  0  0
    3.5109    9.4894    5.9722 H   0  0  0  0  0  0
    3.9334    8.6382    3.9363 H   0  0  0  0  0  0
    3.9825   13.2559    2.1975 H   0  0  0  0  0  0
    8.9863    7.3694    6.9389 H   0  0  0  0  0  0
    2.9790    4.8889    9.9872 H   0  0  0  0  0  0
    2.8508    6.2975   10.9831 H   0  0  0  0  0  0
    0.9980    5.0369   11.7201 H   0  0  0  0  0  0
    0.2855    6.2263   10.7221 H   0  0  0  0  0  0
    1.1458    4.1984    8.0791 H   0  0  0  0  0  0
    1.9041    3.1574    9.2640 H   0  0  0  0  0  0
   -1.6328    4.6370   10.7510 H   0  0  0  0  0  0
   -1.3279    5.3550    9.1881 H   0  0  0  0  0  0
    6.1976   12.8925    4.8789 H   0  0  0  0  0  0
    7.0639   12.4428    3.4133 H   0  0  0  0  0  0
    5.9280   13.7999    3.3997 H   0  0  0  0  0  0
    0.0405    1.5367    9.1882 H   0  0  0  0  0  0
    0.5976    1.8217    7.5880 H   0  0  0  0  0  0
   -2.1527    2.4885    9.8273 H   0  0  0  0  0  0
   -2.8836    3.6152    8.7298 H   0  0  0  0  0  0
    0.5054    7.7723    2.9624 H   0  0  0  0  0  0
    1.6316    8.1852    4.2463 H   0  0  0  0  0  0
    2.1980    7.3519    2.7779 H   0  0  0  0  0  0
  1  2  1  0  0  0
  1  4  1  0  0  0
  1 12  2  0  0  0
  2  9  1  0  0  0
  2 13  2  0  0  0
  3  7  1  0  0  0
  3 10  2  0  0  0
  4 11  1  0  0  0
  4 35  1  0  0  0
  5  7  2  0  0  0
  5  6  1  0  0  0
  5  8  1  0  0  0
  6 24  1  0  0  0
  6 10  1  0  0  0
  7 13  1  0  0  0
  8  9  2  0  0  0
  8 36  1  0  0  0
  9 14  1  0  0  0
 10 37  1  0  0  0
 11 15  2  0  0  0
 11 20  1  0  0  0
 12 16  1  0  0  0
 12 23  1  0  0  0
 13 38  1  0  0  0
 14 23  2  0  0  0
 15 18  1  0  0  0
 15 39  1  0  0  0
 16 17  3  0  0  0
 18 28  1  0  0  0
 18 19  2  0  0  0
 19 21  1  0  0  0
 19 27  1  0  0  0
 20 21  2  0  0  0
 20 31  1  0  0  0
 21 40  1  0  0  0
 22 26  1  0  0  0
 22 29  1  0  0  0
 22 30  1  0  0  0
 23 41  1  0  0  0
 24 26  1  0  0  0
 24 42  1  0  0  0
 24 43  1  0  0  0
 25 33  1  0  0  0
 25 32  1  0  0  0
 26 44  1  0  0  0
 26 45  1  0  0  0
 28 34  1  0  0  0
 29 32  1  0  0  0
 29 46  1  0  0  0
 29 47  1  0  0  0
 30 33  1  0  0  0
 30 48  1  0  0  0
 30 49  1  0  0  0
 31 50  1  0  0  0
 31 51  1  0  0  0
 31 52  1  0  0  0
 32 53  1  0  0  0
 32 54  1  0  0  0
 33 55  1  0  0  0
 33 56  1  0  0  0
 34 57  1  0  0  0
 34 58  1  0  0  0
 34 59  1  0  0  0
M  END
> <s_m_entry_id>
32090

> <s_m_entry_name>
dock_pv.353

> <s_m_Source_Path>
/home/csk/Desktop/cluster/DUD-E-result/src

> <s_m_Source_File>
dock_pv.maegz

> <i_m_Source_File_Index>
353

> <chembl_id>
CHEMBL330351

> <chembl_pref_name>
None

> <i_lp_mmshare_version>
53161

> <r_lp_tautomer_probability>
1

> <s_lp_Force_Field>
OPLS_2005

> <r_lp_Energy>
50.970775

> <b_lp_Chiralities_Consistent>
1

> <s_lp_Variant>
CHEMBL267_lig495-1

> <s_i_glide_gridfile>
glide-grid_3el8

> <i_i_glide_lignum>
587

> <i_i_glide_rotatable_bonds>
6

> <r_i_docking_score>
-7.32371379146885

> <r_i_glide_ligand_efficiency>
-0.215403346807907

> <r_i_glide_ligand_efficiency_sa>
-0.697823223533304

> <r_i_glide_ligand_efficiency_ln>
-1.61801379974917

> <r_i_glide_gscore>
-7.32371379146885

> <r_i_glide_lipo>
-3.56065251473076

> <r_i_glide_hbond>
-0.218091704524417

> <r_i_glide_metal>
0

> <r_i_glide_rewards>
-1.11900007257438

> <r_i_glide_evdw>
-47.4902610778809

> <r_i_glide_ecoul>
-3.31074976921082

> <r_i_glide_erotb>
0.445156019636366

> <r_i_glide_esite>
0

> <r_i_glide_emodel>
-58.5798304540437

> <r_i_glide_energy>
-50.8010108470917

> <r_i_glide_einternal>
26.5017318725586

> <i_i_glide_confnum>
14

> <i_i_glide_posenum>
22

> <r_i_glide_eff_state_penalty>
0

> <s_user_duplicate_titles>
CHEMBL267_lig495

> <i_f3d_flags>
0

> <s_m_subgroup_title>
dock_pv

> <s_m_subgroupid>
dock_pv

> <b_m_subgroup_collapsed>
1

$$$$
CHEMBL267_lig640
                    3D
 Schrodinger Suite 2021-1.
 41 44  0  0  1  0            999 V2000
    3.7819    8.9229    5.1848 N   0  0  0  0  0  0
    2.5260    8.7423    5.7020 C   0  0  0  0  0  0
    5.0108    8.5749    5.8332 C   0  0  0  0  0  0
    2.4880    7.8605    6.9381 C   0  0  0  0  0  0
    4.9832    7.8372    7.0374 C   0  0  0  0  0  0
    3.6539    7.4626    7.6193 C   0  0  0  0  0  0
    6.2662    8.8519    5.2547 C   0  0  0  0  0  0
    1.2284    7.4605    7.4147 C   0  0  0  0  0  0
    6.1871    7.3911    7.6011 C   0  0  0  0  0  0
    3.5198    6.6921    8.7883 C   0  0  0  0  0  0
    7.4521    8.3865    5.8231 C   0  0  0  0  0  0
    7.4126    7.6465    7.0028 C   0  0  0  0  0  0
    2.2686    6.2888    9.2526 C   0  0  0  0  0  0
    1.1158    6.6588    8.5506 C   0  0  0  0  0  0
    3.8377    9.4604    3.7922 C   0  0  0  0  0  0
    1.5077    9.2368    5.2062 O   0  0  0  0  0  0
    8.6402    8.6390    5.1882 O   0  0  0  0  0  0
   -0.1264    6.2356    8.9582 O   0  0  0  0  0  0
    2.1978    5.5133   10.3852 O   0  0  0  0  0  0
    8.5547    7.1560    7.5876 O   0  0  0  0  0  0
    4.3425   10.8861    3.5761 C   0  0  0  0  0  0
    4.5110   11.7779    4.6382 C   0  0  0  0  0  0
    4.6539   11.2935    2.2743 C   0  0  0  0  0  0
    5.1421   12.5723    2.0307 C   0  0  0  0  0  0
    4.9995   13.0554    4.3873 C   0  0  0  0  0  0
    5.3167   13.4495    3.0930 C   0  0  0  0  0  0
    6.3521    9.4013    4.3307 H   0  0  0  0  0  0
    0.3277    7.7455    6.8873 H   0  0  0  0  0  0
    6.2011    6.7984    8.5004 H   0  0  0  0  0  0
    4.3815    6.3699    9.3506 H   0  0  0  0  0  0
    2.8690    9.3989    3.2921 H   0  0  0  0  0  0
    4.4739    8.7898    3.2118 H   0  0  0  0  0  0
    9.3056    7.9481    5.2818 H   0  0  0  0  0  0
   -0.8169    6.2346    8.2823 H   0  0  0  0  0  0
    3.0581    5.2628   10.7468 H   0  0  0  0  0  0
    9.3551    7.4532    7.1462 H   0  0  0  0  0  0
    4.2709   11.4916    5.6507 H   0  0  0  0  0  0
    4.5150   10.6381    1.4316 H   0  0  0  0  0  0
    5.3791   12.8845    1.0228 H   0  0  0  0  0  0
    5.1314   13.7601    5.1904 H   0  0  0  0  0  0
    5.6973   14.4454    2.9122 H   0  0  0  0  0  0
  1  2  1  0  0  0
  1  3  1  0  0  0
  1 15  1  0  0  0
  2  4  1  0  0  0
  2 16  2  0  0  0
  3  5  1  0  0  0
  3  7  2  0  0  0
  4  8  2  0  0  0
  4  6  1  0  0  0
  5  6  1  0  0  0
  5  9  2  0  0  0
  6 10  2  0  0  0
  7 11  1  0  0  0
  7 27  1  0  0  0
  8 14  1  0  0  0
  8 28  1  0  0  0
  9 12  1  0  0  0
  9 29  1  0  0  0
 10 13  1  0  0  0
 10 30  1  0  0  0
 11 12  2  0  0  0
 11 17  1  0  0  0
 12 20  1  0  0  0
 13 19  1  0  0  0
 13 14  2  0  0  0
 14 18  1  0  0  0
 15 21  1  0  0  0
 15 31  1  0  0  0
 15 32  1  0  0  0
 17 33  1  0  0  0
 18 34  1  0  0  0
 19 35  1  0  0  0
 20 36  1  0  0  0
 21 22  2  0  0  0
 21 23  1  0  0  0
 22 25  1  0  0  0
 22 37  1  0  0  0
 23 24  2  0  0  0
 23 38  1  0  0  0
 24 26  1  0  0  0
 24 39  1  0  0  0
 25 26  2  0  0  0
 25 40  1  0  0  0
 26 41  1  0  0  0
M  END
> <s_m_entry_id>
32091

> <s_m_entry_name>
dock_pv.354

> <s_m_Source_Path>
/home/csk/Desktop/cluster/DUD-E-result/src

> <s_m_Source_File>
dock_pv.maegz

> <i_m_Source_File_Index>
354

> <chembl_id>
CHEMBL71210

> <chembl_pref_name>
None

> <i_lp_mmshare_version>
53161

> <r_lp_tautomer_probability>
1

> <s_lp_Force_Field>
OPLS_2005

> <r_lp_Energy>
32.222568

> <b_lp_Chiralities_Consistent>
1

> <s_lp_Variant>
CHEMBL267_lig640-1

> <s_i_glide_gridfile>
glide-grid_3el8

> <i_i_glide_lignum>
759

> <i_i_glide_rotatable_bonds>
6

> <r_i_docking_score>
-7.32164346414999

> <r_i_glide_ligand_efficiency>
-0.281601671698077

> <r_i_glide_ligand_efficiency_sa>
-0.83424384435648

> <r_i_glide_ligand_efficiency_ln>
-1.71946394328391

> <r_i_glide_gscore>
-7.32164346414999

> <r_i_glide_lipo>
-2.94738557965575

> <r_i_glide_hbond>
0

> <r_i_glide_metal>
0

> <r_i_glide_rewards>
-1.17043356371981

> <r_i_glide_evdw>
-33.4996681213379

> <r_i_glide_ecoul>
-11.6490278244019

> <r_i_glide_erotb>
0.218513258952741

> <r_i_glide_esite>
0

> <r_i_glide_emodel>
-62.6223084241498

> <r_i_glide_energy>
-45.1486959457397

> <r_i_glide_einternal>
1.57777369022369

> <i_i_glide_confnum>
6

> <i_i_glide_posenum>
129

> <r_i_glide_eff_state_penalty>
0

> <s_user_duplicate_titles>
CHEMBL267_lig640

> <i_f3d_flags>
0

> <s_m_subgroup_title>
dock_pv

> <s_m_subgroupid>
dock_pv

> <b_m_subgroup_collapsed>
1

$$$$
CHEMBL267_lig3838
                    3D
 Schrodinger Suite 2021-1.
 51 54  0  0  1  0            999 V2000
    2.8335    8.1965    6.4873 C   0  0  0  0  0  0
    4.0526    8.4940    5.9727 N   0  0  0  0  0  0
    5.0696    7.8898    6.6005 C   0  0  0  0  0  0
    4.9437    7.0371    7.7123 C   0  0  0  0  0  0
    3.6358    6.8026    8.1621 C   0  0  0  0  0  0
    2.5805    7.3881    7.5409 N   0  0  0  0  0  0
    7.1353    7.1623    7.1681 N   0  0  0  0  0  0
    6.4221    7.9062    6.2924 N   0  0  0  0  0  0
    6.2759    6.6133    7.9881 C   0  0  0  0  0  0
    3.3782    5.9150    9.2075 N   0  0  0  0  0  0
    7.1004    8.5040    5.1419 C   0  0  0  0  0  0
    7.1592   10.0643    5.1381 C   0  0  2  0  0  0
    6.5140   10.7612    6.3460 C   0  0  0  0  0  0
    6.6284   10.6995    3.8512 C   0  0  0  0  0  0
    7.3924   11.6704    3.1937 C   0  0  0  0  0  0
    6.8768   12.3269    2.0802 C   0  0  0  0  0  0
    5.5957   12.0172    1.6326 C   0  0  0  0  0  0
    4.8363   11.0380    2.2615 C   0  0  0  0  0  0
    5.3562   10.3740    3.3659 C   0  0  0  0  0  0
    2.1174    5.4516    9.5879 C   0  0  0  0  0  0
    1.5665    5.8829   10.7901 C   0  0  0  0  0  0
    0.3050    5.4408   11.1757 C   0  0  0  0  0  0
   -0.4187    4.5840   10.3493 C   0  0  0  0  0  0
    0.1277    4.1491    9.1425 C   0  0  0  0  0  0
    1.3992    4.5805    8.7642 C   0  0  0  0  0  0
   -0.2031    5.8373   12.3594 F   0  0  0  0  0  0
    1.4405    8.9295    5.6887 S   0  0  0  0  0  0
    0.0084    7.8505    6.0042 C   0  0  0  0  0  0
   -0.1162    6.7137    4.9829 C   0  0  0  0  0  0
    6.5981    5.9210    8.7531 H   0  0  0  0  0  0
    4.1666    5.5212    9.7035 H   0  0  0  0  0  0
    6.5976    8.1187    4.2562 H   0  0  0  0  0  0
    8.1151    8.1012    5.0964 H   0  0  0  0  0  0
    8.2227   10.3066    5.1867 H   0  0  0  0  0  0
    6.5974   11.8370    6.2696 H   0  0  0  0  0  0
    5.4444   10.5773    6.3879 H   0  0  0  0  0  0
    6.9821   10.4378    7.2755 H   0  0  0  0  0  0
    8.3739   11.9388    3.5563 H   0  0  0  0  0  0
    7.4557   13.0869    1.5752 H   0  0  0  0  0  0
    5.1816   12.5468    0.7883 H   0  0  0  0  0  0
    3.8444   10.8060    1.9018 H   0  0  0  0  0  0
    4.7484    9.6325    3.8553 H   0  0  0  0  0  0
    2.1174    6.5510   11.4352 H   0  0  0  0  0  0
   -1.4022    4.2546   10.6499 H   0  0  0  0  0  0
   -0.4347    3.4830    8.5053 H   0  0  0  0  0  0
    1.8243    4.2494    7.8287 H   0  0  0  0  0  0
    0.0556    7.4415    7.0133 H   0  0  0  0  0  0
   -0.8927    8.4616    5.9872 H   0  0  0  0  0  0
   -1.0018    6.1112    5.1719 H   0  0  0  0  0  0
   -0.1968    7.1019    3.9662 H   0  0  0  0  0  0
    0.7510    6.0536    5.0220 H   0  0  0  0  0  0
  1  2  1  0  0  0
  1  6  2  0  0  0
  1 27  1  0  0  0
  2  3  2  0  0  0
  3  4  1  0  0  0
  3  8  1  0  0  0
  4  5  2  0  0  0
  4  9  1  0  0  0
  5  6  1  0  0  0
  5 10  1  0  0  0
  7  8  1  0  0  0
  7  9  2  0  0  0
  8 11  1  0  0  0
  9 30  1  0  0  0
 10 20  1  0  0  0
 10 31  1  0  0  0
 11 12  1  0  0  0
 11 32  1  0  0  0
 11 33  1  0  0  0
 12 13  1  0  0  0
 12 14  1  0  0  0
 12 34  1  0  0  0
 13 35  1  0  0  0
 13 36  1  0  0  0
 13 37  1  0  0  0
 14 15  1  0  0  0
 14 19  2  0  0  0
 15 16  2  0  0  0
 15 38  1  0  0  0
 16 17  1  0  0  0
 16 39  1  0  0  0
 17 18  2  0  0  0
 17 40  1  0  0  0
 18 19  1  0  0  0
 18 41  1  0  0  0
 19 42  1  0  0  0
 20 21  1  0  0  0
 20 25  2  0  0  0
 21 22  2  0  0  0
 21 43  1  0  0  0
 22 23  1  0  0  0
 22 26  1  0  0  0
 23 24  2  0  0  0
 23 44  1  0  0  0
 24 25  1  0  0  0
 24 45  1  0  0  0
 25 46  1  0  0  0
 27 28  1  0  0  0
 28 29  1  0  0  0
 28 47  1  0  0  0
 28 48  1  0  0  0
 29 49  1  0  0  0
 29 50  1  0  0  0
 29 51  1  0  0  0
M  END
> <s_m_entry_id>
32092

> <s_m_entry_name>
dock_pv.355

> <s_m_Source_Path>
/home/csk/Desktop/cluster/DUD-E-result/src

> <s_m_Source_File>
dock_pv.maegz

> <i_m_Source_File_Index>
355

> <chembl_id>
CHEMBL3394075

> <chembl_pref_name>
None

> <i_lp_mmshare_version>
53161

> <r_lp_tautomer_probability>
1

> <s_lp_Force_Field>
OPLS_2005

> <r_lp_Energy>
11.481362

> <b_lp_Chiralities_Consistent>
1

> <s_lp_Variant>
CHEMBL267_lig3838-1

> <s_i_glide_gridfile>
glide-grid_3el8

> <i_i_glide_lignum>
4721

> <i_i_glide_rotatable_bonds>
7

> <r_i_docking_score>
-7.31603467929277

> <r_i_glide_ligand_efficiency>
-0.252277057906647

> <r_i_glide_ligand_efficiency_sa>
-0.775075048871146

> <r_i_glide_ligand_efficiency_ln>
-1.67518642292556

> <r_i_glide_gscore>
-7.31603467929277

> <r_i_glide_lipo>
-3.51974576274208

> <r_i_glide_hbond>
-0.197631386191065

> <r_i_glide_metal>
0

> <r_i_glide_rewards>
-1.70516595930787

> <r_i_glide_evdw>
-40.4511642456055

> <r_i_glide_ecoul>
-3.87812328338623

> <r_i_glide_erotb>
0.710785133736464

> <r_i_glide_esite>
0

> <r_i_glide_emodel>
-58.5753607068811

> <r_i_glide_energy>
-44.3292875289917

> <r_i_glide_einternal>
11.3215522766113

> <i_i_glide_confnum>
1

> <i_i_glide_posenum>
137

> <r_i_glide_eff_state_penalty>
0

> <s_user_duplicate_titles>
CHEMBL267_lig3838

> <i_f3d_flags>
0

> <s_m_subgroup_title>
dock_pv

> <s_m_subgroupid>
dock_pv

> <b_m_subgroup_collapsed>
1

$$$$
CHEMBL267_lig3121
                    3D
 Schrodinger Suite 2021-1.
 51 54  0  0  1  0            999 V2000
    2.1974    8.2952    8.5328 N   0  0  0  0  0  0
    2.1141    8.9492    7.3457 C   0  0  0  0  0  0
    3.0999    9.0749    6.4124 N   0  0  0  0  0  0
    3.3944    7.7352    8.8639 C   0  0  0  0  0  0
    4.4823    7.8333    7.9905 C   0  0  0  0  0  0
    4.2554    8.5087    6.7751 C   0  0  0  0  0  0
    5.4570    8.4556    6.0871 N   0  0  0  0  0  0
    6.4049    7.8346    6.8192 N   0  0  0  0  0  0
    5.8462    7.4273    7.9278 C   0  0  0  0  0  0
    3.5591    7.0385   10.0698 N   0  0  0  0  0  0
    2.4227    6.6028   10.8737 C   0  0  0  0  0  0
    5.7870    8.9659    4.7544 C   0  0  0  0  0  0
    6.4435   10.3822    4.7289 C   0  0  1  0  0  0
    5.9296   11.3445    5.8169 C   0  0  0  0  0  0
    7.9772   10.4060    4.5991 C   0  0  0  0  0  0
    8.5654   11.4054    3.8137 C   0  0  0  0  0  0
    9.9405   11.4096    3.5859 C   0  0  0  0  0  0
   10.7399   10.4198    4.1524 C   0  0  0  0  0  0
   10.1774    9.4372    4.9587 C   0  0  0  0  0  0
    8.8032    9.4333    5.1860 C   0  0  0  0  0  0
    0.6002    9.8278    7.0487 S   0  0  0  0  0  0
    0.9841   10.9847    5.6986 C   0  0  0  0  0  0
    1.5660    5.5606   10.1635 C   0  0  0  0  0  0
    0.1976    5.5189   10.4276 C   0  0  0  0  0  0
   -0.6020    4.5677    9.8011 C   0  0  0  0  0  0
   -0.0398    3.6565    8.9162 C   0  0  0  0  0  0
    1.3238    3.6825    8.6574 C   0  0  0  0  0  0
    2.1271    4.6366    9.2732 C   0  0  0  0  0  0
   -0.8250    2.7394    8.3069 F   0  0  0  0  0  0
    6.4044    6.8646    8.6588 H   0  0  0  0  0  0
    4.4537    6.6139   10.2700 H   0  0  0  0  0  0
    2.7973    6.1903   11.8123 H   0  0  0  0  0  0
    1.7979    7.4488   11.1333 H   0  0  0  0  0  0
    4.8619    8.9772    4.1768 H   0  0  0  0  0  0
    6.4258    8.2365    4.2577 H   0  0  0  0  0  0
    6.0764   10.8029    3.7875 H   0  0  0  0  0  0
    6.1979   12.3757    5.5894 H   0  0  0  0  0  0
    4.8435   11.3143    5.8976 H   0  0  0  0  0  0
    6.3452   11.0887    6.7908 H   0  0  0  0  0  0
    7.9560   12.1693    3.3539 H   0  0  0  0  0  0
   10.3856   12.1720    2.9617 H   0  0  0  0  0  0
   11.8065   10.4192    3.9741 H   0  0  0  0  0  0
   10.8031    8.6752    5.4012 H   0  0  0  0  0  0
    8.4068    8.6441    5.7955 H   0  0  0  0  0  0
    0.1976   11.7284    5.5905 H   0  0  0  0  0  0
    1.9114   11.5181    5.9083 H   0  0  0  0  0  0
    1.0969   10.4525    4.7559 H   0  0  0  0  0  0
   -0.2579    6.2221   11.1117 H   0  0  0  0  0  0
   -1.6648    4.5491    9.9886 H   0  0  0  0  0  0
    1.7565    2.9662    7.9790 H   0  0  0  0  0  0
    3.1878    4.6375    9.0735 H   0  0  0  0  0  0
  1  2  2  0  0  0
  1  4  1  0  0  0
  2 21  1  0  0  0
  2  3  1  0  0  0
  3  6  2  0  0  0
  4  5  2  0  0  0
  4 10  1  0  0  0
  5  9  1  0  0  0
  5  6  1  0  0  0
  6  7  1  0  0  0
  7  8  1  0  0  0
  7 12  1  0  0  0
  8  9  2  0  0  0
  9 30  1  0  0  0
 10 11  1  0  0  0
 10 31  1  0  0  0
 11 23  1  0  0  0
 11 32  1  0  0  0
 11 33  1  0  0  0
 12 13  1  0  0  0
 12 34  1  0  0  0
 12 35  1  0  0  0
 13 14  1  0  0  0
 13 15  1  0  0  0
 13 36  1  0  0  0
 14 37  1  0  0  0
 14 38  1  0  0  0
 14 39  1  0  0  0
 15 16  2  0  0  0
 15 20  1  0  0  0
 16 17  1  0  0  0
 16 40  1  0  0  0
 17 18  2  0  0  0
 17 41  1  0  0  0
 18 19  1  0  0  0
 18 42  1  0  0  0
 19 20  2  0  0  0
 19 43  1  0  0  0
 20 44  1  0  0  0
 21 22  1  0  0  0
 22 45  1  0  0  0
 22 46  1  0  0  0
 22 47  1  0  0  0
 23 24  2  0  0  0
 23 28  1  0  0  0
 24 25  1  0  0  0
 24 48  1  0  0  0
 25 26  2  0  0  0
 25 49  1  0  0  0
 26 27  1  0  0  0
 26 29  1  0  0  0
 27 28  2  0  0  0
 27 50  1  0  0  0
 28 51  1  0  0  0
M  END
> <s_m_entry_id>
32093

> <s_m_entry_name>
dock_pv.356

> <s_m_Source_Path>
/home/csk/Desktop/cluster/DUD-E-result/src

> <s_m_Source_File>
dock_pv.maegz

> <i_m_Source_File_Index>
356

> <chembl_id>
CHEMBL1836676

> <chembl_pref_name>
None

> <i_lp_mmshare_version>
53161

> <r_lp_tautomer_probability>
1

> <s_lp_Force_Field>
OPLS_2005

> <r_lp_Energy>
7.791833

> <b_lp_Chiralities_Consistent>
1

> <s_lp_Variant>
CHEMBL267_lig3121-2

> <s_i_glide_gridfile>
glide-grid_3el8

> <i_i_glide_lignum>
3608

> <i_i_glide_rotatable_bonds>
7

> <r_i_docking_score>
-7.30844317281516

> <r_i_glide_ligand_efficiency>
-0.252015281821212

> <r_i_glide_ligand_efficiency_sa>
-0.774270789800205

> <r_i_glide_ligand_efficiency_ln>
-1.67344816044619

> <r_i_glide_gscore>
-7.30844317281516

> <r_i_glide_lipo>
-3.90194664416568

> <r_i_glide_hbond>
0

> <r_i_glide_metal>
0

> <r_i_glide_rewards>
-1.5884791840725

> <r_i_glide_evdw>
-42.2768363952637

> <r_i_glide_ecoul>
-2.76640439033508

> <r_i_glide_erotb>
0.710785133736464

> <r_i_glide_esite>
0

> <r_i_glide_emodel>
-61.0556185941125

> <r_i_glide_energy>
-45.0432407855988

> <r_i_glide_einternal>
6.00933122634888

> <i_i_glide_confnum>
24

> <i_i_glide_posenum>
129

> <r_i_glide_eff_state_penalty>
0

> <s_user_duplicate_titles>
CHEMBL267_lig3121

> <i_f3d_flags>
0

> <s_m_subgroup_title>
dock_pv

> <s_m_subgroupid>
dock_pv

> <b_m_subgroup_collapsed>
1

$$$$
CHEMBL267_lig684
                    3D
 Schrodinger Suite 2021-1.
 39 42  0  0  1  0            999 V2000
    3.8309    6.6480    7.9880 N   0  0  0  0  0  0
    2.8346    7.4450    7.4271 C   0  0  0  0  0  0
    5.0868    7.1409    7.5880 C   0  0  0  0  0  0
    3.4676    8.5607    6.8391 C   0  0  0  0  0  0
    4.8376    8.3410    6.8650 C   0  0  0  0  0  0
    2.3943    5.4370    9.7037 C   0  0  0  0  0  0
    3.5490    5.3863    8.6858 C   0  0  0  0  0  0
    1.4377    7.3054    7.3784 C   0  0  0  0  0  0
    6.4135    6.6716    7.7235 C   0  0  0  0  0  0
    2.7067    9.6128    6.3262 C   0  0  0  0  0  0
    0.7014    8.3605    6.8464 C   0  0  0  0  0  0
    5.8863    9.0823    6.3081 C   0  0  0  0  0  0
    1.3260    9.5223    6.3880 C   0  0  0  0  0  0
    7.4367    7.4369    7.1343 C   0  0  0  0  0  0
    1.2751    4.5839    9.5861 C   0  0  0  0  0  0
    2.4399    6.3344   10.7882 C   0  0  0  0  0  0
    7.1786    8.6097    6.4424 C   0  0  0  0  0  0
    6.6995    5.4689    8.3240 O   0  0  0  0  0  0
    3.7980    7.3733   11.0725 Cl  0  0  0  0  0  0
    1.1729    3.3472    8.3880 Cl  0  0  0  0  0  0
   -0.6610    8.2370    6.7880 O   0  0  0  0  0  0
    0.5980   10.6044    5.9880 O   0  0  0  0  0  0
    8.7409    7.0370    7.1880 O   0  0  0  0  0  0
    0.2495    5.6003   11.5200 C   0  0  0  0  0  0
    1.3850    6.3838   11.6984 C   0  0  0  0  0  0
    0.1980    4.6991   10.4641 C   0  0  0  0  0  0
    3.3784    4.6404    7.9122 H   0  0  0  0  0  0
    4.4344    5.0625    9.2173 H   0  0  0  0  0  0
    0.9285    6.4321    7.7515 H   0  0  0  0  0  0
    3.1780   10.4914    5.9110 H   0  0  0  0  0  0
    5.6946    9.9932    5.7598 H   0  0  0  0  0  0
    7.9878    9.1631    5.9882 H   0  0  0  0  0  0
    5.9490    5.0070    8.6970 H   0  0  0  0  0  0
   -0.9743    7.3254    6.8518 H   0  0  0  0  0  0
   -0.3406   10.3902    5.9880 H   0  0  0  0  0  0
    9.2943    7.4370    6.5096 H   0  0  0  0  0  0
   -0.5776    5.6721   12.2127 H   0  0  0  0  0  0
    1.4387    7.0370   12.5538 H   0  0  0  0  0  0
   -0.6691    4.0634   10.3499 H   0  0  0  0  0  0
  1  2  1  0  0  0
  1  3  1  0  0  0
  1  7  1  0  0  0
  2  4  2  0  0  0
  2  8  1  0  0  0
  3  5  2  0  0  0
  3  9  1  0  0  0
  4 10  1  0  0  0
  4  5  1  0  0  0
  5 12  1  0  0  0
  6  7  1  0  0  0
  6 15  2  0  0  0
  6 16  1  0  0  0
  7 27  1  0  0  0
  7 28  1  0  0  0
  8 11  2  0  0  0
  8 29  1  0  0  0
  9 14  2  0  0  0
  9 18  1  0  0  0
 10 13  2  0  0  0
 10 30  1  0  0  0
 11 13  1  0  0  0
 11 21  1  0  0  0
 12 17  2  0  0  0
 12 31  1  0  0  0
 13 22  1  0  0  0
 14 17  1  0  0  0
 14 23  1  0  0  0
 15 20  1  0  0  0
 15 26  1  0  0  0
 16 19  1  0  0  0
 16 25  2  0  0  0
 17 32  1  0  0  0
 18 33  1  0  0  0
 21 34  1  0  0  0
 22 35  1  0  0  0
 23 36  1  0  0  0
 24 25  1  0  0  0
 24 26  2  0  0  0
 24 37  1  0  0  0
 25 38  1  0  0  0
 26 39  1  0  0  0
M  END
> <s_m_entry_id>
32094

> <s_m_entry_name>
dock_pv.357

> <s_m_Source_Path>
/home/csk/Desktop/cluster/DUD-E-result/src

> <s_m_Source_File>
dock_pv.maegz

> <i_m_Source_File_Index>
357

> <chembl_id>
CHEMBL304983

> <chembl_pref_name>
None

> <i_lp_mmshare_version>
53161

> <r_lp_tautomer_probability>
1

> <s_lp_Force_Field>
OPLS_2005

> <r_lp_Energy>
19.149621

> <b_lp_Chiralities_Consistent>
1

> <s_lp_Variant>
CHEMBL267_lig684-1

> <s_i_glide_gridfile>
glide-grid_3el8

> <i_i_glide_lignum>
803

> <i_i_glide_rotatable_bonds>
6

> <r_i_docking_score>
-7.30526807386913

> <r_i_glide_ligand_efficiency>
-0.280971848994967

> <r_i_glide_ligand_efficiency_sa>
-0.832377997076749

> <r_i_glide_ligand_efficiency_ln>
-1.71561823660849

> <r_i_glide_gscore>
-7.30526807386913

> <r_i_glide_lipo>
-3.49935458872101

> <r_i_glide_hbond>
0

> <r_i_glide_metal>
0

> <r_i_glide_rewards>
-0.935803153338503

> <r_i_glide_evdw>
-33.9747695922852

> <r_i_glide_ecoul>
-9.51684665679932

> <r_i_glide_erotb>
0.256155146324534

> <r_i_glide_esite>
0

> <r_i_glide_emodel>
-60.3316836659425

> <r_i_glide_energy>
-43.4916162490845

> <r_i_glide_einternal>
3.90381073951721

> <i_i_glide_confnum>
4

> <i_i_glide_posenum>
346

> <r_i_glide_eff_state_penalty>
0

> <s_user_duplicate_titles>
CHEMBL267_lig684,113640

> <i_f3d_flags>
0

> <s_m_subgroup_title>
dock_pv

> <s_m_subgroupid>
dock_pv

> <b_m_subgroup_collapsed>
1

$$$$
CHEMBL267_lig696
                    3D
 Schrodinger Suite 2021-1.
 45 47  0  0  1  0            999 V2000
    3.1440    7.9372    7.7888 C   0  0  0  0  0  0
    3.2849    6.8838    8.7136 C   0  0  0  0  0  0
    4.1738    8.3781    7.0146 N   0  0  0  0  0  0
    6.3810    8.3161    6.3691 N   0  0  0  0  0  0
    5.3853    7.7919    7.1307 C   0  0  0  0  0  0
    1.8799    8.5554    7.7029 N   0  0  0  0  0  0
    2.1843    6.4352    9.6227 C   0  0  0  0  0  0
    1.3626    9.4370    6.8225 C   0  0  0  0  0  0
    5.5942    6.6856    7.9944 C   0  0  0  0  0  0
    4.5218    6.2399    8.7883 C   0  0  0  0  0  0
    7.5828    7.7106    6.4744 C   0  0  0  0  0  0
    7.8954    6.6370    7.2338 N   0  0  0  0  0  0
    2.1730    9.8770    5.8387 N   0  0  0  0  0  0
    6.8902    6.1349    7.9880 C   0  0  0  0  0  0
    2.2746    6.6365   11.0134 C   0  0  0  0  0  0
    1.0299    5.8058    9.1166 C   0  0  0  0  0  0
    0.1980    9.7964    6.9639 O   0  0  0  0  0  0
    1.8615   10.6329    4.6205 C   0  0  0  0  0  0
    8.5979    8.2392    5.7084 N   0  0  0  0  0  0
    3.7999    7.4370   11.8237 Br  0  0  0  0  0  0
    0.8283    5.5074    7.4290 Cl  0  0  0  0  0  0
    0.1120    5.6162   11.3402 C   0  0  0  0  0  0
    1.2410    6.2371   11.8583 C   0  0  0  0  0  0
    0.0076    5.3992    9.9714 C   0  0  0  0  0  0
    1.0236    9.7659    3.6537 C   0  0  0  0  0  0
    3.2050   10.9600    3.9320 C   0  0  0  0  0  0
    1.1526   11.9741    4.9356 C   0  0  0  0  0  0
    1.2327    8.2222    8.3974 H   0  0  0  0  0  0
    4.6748    5.4345    9.4878 H   0  0  0  0  0  0
    3.1343    9.5694    5.9077 H   0  0  0  0  0  0
    7.1198    5.2841    8.6147 H   0  0  0  0  0  0
    8.3495    8.9760    5.0698 H   0  0  0  0  0  0
    9.4052    7.6400    5.5370 H   0  0  0  0  0  0
   -0.6950    5.3188   11.9939 H   0  0  0  0  0  0
    1.3189    6.4085   12.9214 H   0  0  0  0  0  0
   -0.8823    4.9306    9.5735 H   0  0  0  0  0  0
    0.1504    9.3452    4.1460 H   0  0  0  0  0  0
    0.6772   10.3356    2.7905 H   0  0  0  0  0  0
    1.5971    8.9184    3.2742 H   0  0  0  0  0  0
    3.8474   11.5702    4.5700 H   0  0  0  0  0  0
    3.7644   10.0557    3.6853 H   0  0  0  0  0  0
    3.0564   11.5121    3.0022 H   0  0  0  0  0  0
    1.7658   12.6048    5.5808 H   0  0  0  0  0  0
    0.9502   12.5407    4.0260 H   0  0  0  0  0  0
    0.1993   11.8369    5.4438 H   0  0  0  0  0  0
  1  2  1  0  0  0
  1  3  2  0  0  0
  1  6  1  0  0  0
  2  7  1  0  0  0
  2 10  2  0  0  0
  3  5  1  0  0  0
  4  5  2  0  0  0
  4 11  1  0  0  0
  5  9  1  0  0  0
  6  8  1  0  0  0
  6 28  1  0  0  0
  7 15  1  0  0  0
  7 16  2  0  0  0
  8 13  1  0  0  0
  8 17  2  0  0  0
  9 14  2  0  0  0
  9 10  1  0  0  0
 10 29  1  0  0  0
 11 19  1  0  0  0
 11 12  2  0  0  0
 12 14  1  0  0  0
 13 18  1  0  0  0
 13 30  1  0  0  0
 14 31  1  0  0  0
 15 20  1  0  0  0
 15 23  2  0  0  0
 16 21  1  0  0  0
 16 24  1  0  0  0
 18 25  1  0  0  0
 18 26  1  0  0  0
 18 27  1  0  0  0
 19 32  1  0  0  0
 19 33  1  0  0  0
 22 24  2  0  0  0
 22 23  1  0  0  0
 22 34  1  0  0  0
 23 35  1  0  0  0
 24 36  1  0  0  0
 25 37  1  0  0  0
 25 38  1  0  0  0
 25 39  1  0  0  0
 26 40  1  0  0  0
 26 41  1  0  0  0
 26 42  1  0  0  0
 27 43  1  0  0  0
 27 44  1  0  0  0
 27 45  1  0  0  0
M  END
> <s_m_entry_id>
32095

> <s_m_entry_name>
dock_pv.358

> <s_m_Source_Path>
/home/csk/Desktop/cluster/DUD-E-result/src

> <s_m_Source_File>
dock_pv.maegz

> <i_m_Source_File_Index>
358

> <chembl_id>
CHEMBL312454

> <chembl_pref_name>
None

> <i_lp_mmshare_version>
53161

> <r_lp_tautomer_probability>
1

> <s_lp_Force_Field>
OPLS_2005

> <r_lp_Energy>
16.107242

> <b_lp_Chiralities_Consistent>
1

> <s_lp_Variant>
CHEMBL267_lig696-1

> <s_i_glide_gridfile>
glide-grid_3el8

> <i_i_glide_lignum>
815

> <i_i_glide_rotatable_bonds>
5

> <r_i_docking_score>
-7.3038435943103

> <r_i_glide_ligand_efficiency>
-0.270512725715196

> <r_i_glide_ligand_efficiency_sa>
-0.811538176254023

> <r_i_glide_ligand_efficiency_ln>
-1.70021437548298

> <r_i_glide_gscore>
-7.3038435943103

> <r_i_glide_lipo>
-2.37082839726395

> <r_i_glide_hbond>
-0.579789130320751

> <r_i_glide_metal>
0

> <r_i_glide_rewards>
-1.53931459278403

> <r_i_glide_evdw>
-39.5522155761719

> <r_i_glide_ecoul>
-7.42515325546265

> <r_i_glide_erotb>
0.277472293186413

> <r_i_glide_esite>
0

> <r_i_glide_emodel>
-64.2165821703448

> <r_i_glide_energy>
-46.9773688316345

> <r_i_glide_einternal>
1.83132660388947

> <i_i_glide_confnum>
4

> <i_i_glide_posenum>
385

> <r_i_glide_eff_state_penalty>
0

> <s_user_duplicate_titles>
CHEMBL267_lig696,128050

> <i_f3d_flags>
0

> <s_m_subgroup_title>
dock_pv

> <s_m_subgroupid>
dock_pv

> <b_m_subgroup_collapsed>
1

$$$$
CHEMBL267_lig1628
                    3D
 Schrodinger Suite 2021-1.
 58 61  0  0  1  0            999 V2000
    2.0772    8.9012    5.8936 C   0  0  0  0  0  0
    3.1708    9.4905    5.2264 C   0  0  0  0  0  0
    3.2202    9.5239    3.8281 C   0  0  0  0  0  0
    2.2425    8.9392    3.0308 C   0  0  0  0  0  0
    1.1407    8.2005    5.1138 C   0  0  0  0  0  0
    1.2407    8.2392    3.6920 C   0  0  0  0  0  0
    0.2058    7.4884    3.1938 N   0  0  0  0  0  0
   -0.5226    6.9511    4.2207 C   0  0  0  0  0  0
    0.0053    7.3761    5.4182 C   0  0  0  0  0  0
    1.9212    8.9654    7.4123 C   0  0  0  0  0  0
    4.2509    9.9652    5.9857 N   0  0  0  0  0  0
    5.5979   10.0220    5.5846 C   0  0  0  0  0  0
    6.5106    9.0454    6.0560 C   0  0  0  0  0  0
    7.8257    9.1032    5.5881 C   0  0  0  0  0  0
    8.2934   10.0880    4.7862 N   0  0  0  0  0  0
    7.4242   11.0398    4.3766 C   0  0  0  0  0  0
    6.0815   11.0666    4.7602 C   0  0  0  0  0  0
    5.2687   12.2098    4.3444 C   0  0  0  0  0  0
    4.6262   13.1153    4.0165 N   0  0  0  0  0  0
    6.2392    7.9874    7.0605 C   0  0  0  0  0  0
    5.1132    7.2861    7.2933 C   0  0  0  0  0  0
    4.9899    6.2704    8.4154 C   0  0  0  0  0  0
    3.9594    6.6225    9.5171 C   0  0  0  0  0  0
    2.5640    6.1740    9.3353 N   0  0  2  0  0  0
    1.8519    6.3535   10.6201 C   0  0  0  0  0  0
    0.3686    5.8871   10.6283 C   0  0  1  0  0  0
    0.1464    4.5380    9.9233 C   0  0  0  0  0  0
    0.9270    4.4580    8.6110 C   0  0  0  0  0  0
    2.4086    4.8054    8.8229 C   0  0  0  0  0  0
   -0.1965    5.8329   11.9635 N   0  0  0  0  0  0
    4.0489    9.9885    3.3196 H   0  0  0  0  0  0
    2.2932    8.9680    1.9532 H   0  0  0  0  0  0
   -0.0177    7.3448    2.2133 H   0  0  0  0  0  0
   -1.3809    6.3323    4.0026 H   0  0  0  0  0  0
   -0.3829    7.1107    6.3897 H   0  0  0  0  0  0
    1.3212    9.8343    7.6862 H   0  0  0  0  0  0
    1.4080    8.0780    7.7824 H   0  0  0  0  0  0
    2.8684    9.0100    7.9480 H   0  0  0  0  0  0
    4.1532    9.6678    6.9436 H   0  0  0  0  0  0
    8.5644    8.3774    5.9008 H   0  0  0  0  0  0
    7.8444   11.8171    3.7530 H   0  0  0  0  0  0
    7.0738    7.7846    7.7164 H   0  0  0  0  0  0
    4.2402    7.4174    6.6768 H   0  0  0  0  0  0
    5.9590    6.2084    8.9033 H   0  0  0  0  0  0
    4.8609    5.2741    8.0031 H   0  0  0  0  0  0
    3.9479    7.7058    9.6449 H   0  0  0  0  0  0
    4.3423    6.2453   10.4621 H   0  0  0  0  0  0
    1.8895    7.4333   10.7636 H   0  0  0  0  0  0
    2.4147    5.8348   11.3977 H   0  0  0  0  0  0
   -0.1833    6.6364   10.0607 H   0  0  0  0  0  0
    0.5261    3.7300   10.5503 H   0  0  0  0  0  0
   -0.9138    4.3619    9.7354 H   0  0  0  0  0  0
    0.8481    3.4483    8.2080 H   0  0  0  0  0  0
    0.4898    5.1142    7.8566 H   0  0  0  0  0  0
    2.8735    4.1163    9.5293 H   0  0  0  0  0  0
    2.9051    4.6730    7.8645 H   0  0  0  0  0  0
   -0.1438    6.7466   12.3905 H   0  0  0  0  0  0
   -1.1922    5.6711   11.8710 H   0  0  0  0  0  0
  1  5  1  0  0  0
  1 10  1  0  0  0
  1  2  2  0  0  0
  2 11  1  0  0  0
  2  3  1  0  0  0
  3  4  2  0  0  0
  3 31  1  0  0  0
  4  6  1  0  0  0
  4 32  1  0  0  0
  5  9  1  0  0  0
  5  6  2  0  0  0
  6  7  1  0  0  0
  7  8  1  0  0  0
  7 33  1  0  0  0
  8  9  2  0  0  0
  8 34  1  0  0  0
  9 35  1  0  0  0
 10 36  1  0  0  0
 10 37  1  0  0  0
 10 38  1  0  0  0
 11 12  1  0  0  0
 11 39  1  0  0  0
 12 17  1  0  0  0
 12 13  2  0  0  0
 13 20  1  0  0  0
 13 14  1  0  0  0
 14 15  2  0  0  0
 14 40  1  0  0  0
 15 16  1  0  0  0
 16 17  2  0  0  0
 16 41  1  0  0  0
 17 18  1  0  0  0
 18 19  3  0  0  0
 20 21  2  0  0  0
 20 42  1  0  0  0
 21 22  1  0  0  0
 21 43  1  0  0  0
 22 23  1  0  0  0
 22 44  1  0  0  0
 22 45  1  0  0  0
 23 24  1  0  0  0
 23 46  1  0  0  0
 23 47  1  0  0  0
 24 25  1  0  0  0
 24 29  1  0  0  0
 25 26  1  0  0  0
 25 48  1  0  0  0
 25 49  1  0  0  0
 26 27  1  0  0  0
 26 30  1  0  0  0
 26 50  1  0  0  0
 27 28  1  0  0  0
 27 51  1  0  0  0
 27 52  1  0  0  0
 28 29  1  0  0  0
 28 53  1  0  0  0
 28 54  1  0  0  0
 29 55  1  0  0  0
 29 56  1  0  0  0
 30 57  1  0  0  0
 30 58  1  0  0  0
M  END
> <s_m_entry_id>
32096

> <s_m_entry_name>
dock_pv.359

> <s_m_Source_Path>
/home/csk/Desktop/cluster/DUD-E-result/src

> <s_m_Source_File>
dock_pv.maegz

> <i_m_Source_File_Index>
359

> <chembl_id>
CHEMBL606245

> <chembl_pref_name>
None

> <i_lp_mmshare_version>
53161

> <r_lp_tautomer_probability>
1

> <s_lp_Force_Field>
OPLS_2005

> <r_lp_Energy>
43.177462

> <b_lp_Chiralities_Consistent>
1

> <s_lp_Variant>
CHEMBL267_lig1628-1

> <s_i_glide_gridfile>
glide-grid_3el8

> <i_i_glide_lignum>
1853

> <i_i_glide_rotatable_bonds>
6

> <r_i_docking_score>
-7.30334141028411

> <r_i_glide_ligand_efficiency>
-0.243444713676137

> <r_i_glide_ligand_efficiency_sa>
-0.756439326879523

> <r_i_glide_ligand_efficiency_ln>
-1.65939874469477

> <r_i_glide_gscore>
-7.30334141028411

> <r_i_glide_lipo>
-3.76564062577142

> <r_i_glide_hbond>
-0.314637889427223

> <r_i_glide_metal>
0

> <r_i_glide_rewards>
-1.21021003864057

> <r_i_glide_evdw>
-39.180248260498

> <r_i_glide_ecoul>
-4.8483247756958

> <r_i_glide_erotb>
0.733285367283166

> <r_i_glide_esite>
-0.0598770943487847

> <r_i_glide_emodel>
-52.3561767488607

> <r_i_glide_energy>
-44.0285730361938

> <r_i_glide_einternal>
17.9888114929199

> <i_i_glide_confnum>
21

> <i_i_glide_posenum>
349

> <r_i_glide_eff_state_penalty>
0

> <s_user_duplicate_titles>
CHEMBL267_lig1628,594871

> <i_f3d_flags>
0

> <s_m_subgroup_title>
dock_pv

> <s_m_subgroupid>
dock_pv

> <b_m_subgroup_collapsed>
1

$$$$
CHEMBL267_lig698
                    3D
 Schrodinger Suite 2021-1.
 45 47  0  0  1  0            999 V2000
    3.1257    7.9069    7.8843 C   0  0  0  0  0  0
    4.1424    8.3532    7.0955 N   0  0  0  0  0  0
    6.3357    8.3105    6.4000 N   0  0  0  0  0  0
    5.3594    7.7788    7.1854 C   0  0  0  0  0  0
    3.2914    6.8630    8.8168 C   0  0  0  0  0  0
    1.8556    8.5147    7.8041 N   0  0  0  0  0  0
    1.3533    9.4368    6.9552 C   0  0  0  0  0  0
    5.5900    6.6745    8.0442 C   0  0  0  0  0  0
    2.2063    6.3934    9.7342 C   0  0  0  0  0  0
    7.5440    7.7110    6.4767 C   0  0  0  0  0  0
    4.5394    6.2371    8.8777 C   0  0  0  0  0  0
    1.0768    5.6939    9.2722 C   0  0  0  0  0  0
    7.8742    6.6370    7.2246 N   0  0  0  0  0  0
    2.1735    9.8989    5.9879 N   0  0  0  0  0  0
    6.8842    6.1213    7.9880 C   0  0  0  0  0  0
    0.1979    9.8159    7.1109 O   0  0  0  0  0  0
    0.1103    5.2192   10.1688 C   0  0  0  0  0  0
    1.8950   10.6959    4.7897 C   0  0  0  0  0  0
    8.5453    8.2371    5.6889 N   0  0  0  0  0  0
    0.8660    5.4235    7.5866 Cl  0  0  0  0  0  0
   -1.2155    4.2370    9.6387 Cl  0  0  0  0  0  0
    2.3196    6.6371   11.1067 C   0  0  0  0  0  0
    1.3172    6.2370   11.9884 C   0  0  0  0  0  0
    0.2161    5.5244   11.5223 C   0  0  0  0  0  0
    1.0888    9.8588    3.7737 C   0  0  0  0  0  0
    3.2563   11.0496    4.1540 C   0  0  0  0  0  0
    1.1702   12.0195    5.1293 C   0  0  0  0  0  0
    1.2021    8.1549    8.4798 H   0  0  0  0  0  0
    4.7134    5.4346    9.5763 H   0  0  0  0  0  0
    3.1282    9.5722    6.0543 H   0  0  0  0  0  0
    7.1317    5.2650    8.6001 H   0  0  0  0  0  0
    8.2904    8.9785    5.0581 H   0  0  0  0  0  0
    9.3486    7.6381    5.5088 H   0  0  0  0  0  0
    3.1837    7.1592   11.4930 H   0  0  0  0  0  0
    1.4083    6.4617   13.0414 H   0  0  0  0  0  0
   -0.5509    5.2008   12.2096 H   0  0  0  0  0  0
    0.1979    9.4347    4.2281 H   0  0  0  0  0  0
    0.7747   10.4517    2.9137 H   0  0  0  0  0  0
    1.6694    9.0163    3.3934 H   0  0  0  0  0  0
    3.8779   11.6381    4.8314 H   0  0  0  0  0  0
    3.8253   10.1554    3.8920 H   0  0  0  0  0  0
    3.1325   11.6306    3.2387 H   0  0  0  0  0  0
    1.7506   12.6245    5.8271 H   0  0  0  0  0  0
    1.0018   12.6226    4.2360 H   0  0  0  0  0  0
    0.1980   11.8504    5.5878 H   0  0  0  0  0  0
  1  2  2  0  0  0
  1  5  1  0  0  0
  1  6  1  0  0  0
  2  4  1  0  0  0
  3  4  2  0  0  0
  3 10  1  0  0  0
  4  8  1  0  0  0
  5  9  1  0  0  0
  5 11  2  0  0  0
  6  7  1  0  0  0
  6 28  1  0  0  0
  7 14  1  0  0  0
  7 16  2  0  0  0
  8 11  1  0  0  0
  8 15  2  0  0  0
  9 12  1  0  0  0
  9 22  2  0  0  0
 10 19  1  0  0  0
 10 13  2  0  0  0
 11 29  1  0  0  0
 12 17  2  0  0  0
 12 20  1  0  0  0
 13 15  1  0  0  0
 14 18  1  0  0  0
 14 30  1  0  0  0
 15 31  1  0  0  0
 17 21  1  0  0  0
 17 24  1  0  0  0
 18 25  1  0  0  0
 18 26  1  0  0  0
 18 27  1  0  0  0
 19 32  1  0  0  0
 19 33  1  0  0  0
 22 23  1  0  0  0
 22 34  1  0  0  0
 23 24  2  0  0  0
 23 35  1  0  0  0
 24 36  1  0  0  0
 25 37  1  0  0  0
 25 38  1  0  0  0
 25 39  1  0  0  0
 26 40  1  0  0  0
 26 41  1  0  0  0
 26 42  1  0  0  0
 27 43  1  0  0  0
 27 44  1  0  0  0
 27 45  1  0  0  0
M  END
> <s_m_entry_id>
32097

> <s_m_entry_name>
dock_pv.360

> <s_m_Source_Path>
/home/csk/Desktop/cluster/DUD-E-result/src

> <s_m_Source_File>
dock_pv.maegz

> <i_m_Source_File_Index>
360

> <chembl_id>
CHEMBL79274

> <chembl_pref_name>
None

> <i_lp_mmshare_version>
53161

> <r_lp_tautomer_probability>
1

> <s_lp_Force_Field>
OPLS_2005

> <r_lp_Energy>
18.617111

> <b_lp_Chiralities_Consistent>
1

> <s_lp_Variant>
CHEMBL267_lig698-1

> <s_i_glide_gridfile>
glide-grid_3el8

> <i_i_glide_lignum>
817

> <i_i_glide_rotatable_bonds>
5

> <r_i_docking_score>
-7.30052865871981

> <r_i_glide_ligand_efficiency>
-0.270389950322956

> <r_i_glide_ligand_efficiency_sa>
-0.811169850077707

> <r_i_glide_ligand_efficiency_ln>
-1.6994427131285

> <r_i_glide_gscore>
-7.30052865871981

> <r_i_glide_lipo>
-2.31692735989571

> <r_i_glide_hbond>
-0.568284437381316

> <r_i_glide_metal>
0

> <r_i_glide_rewards>
-1.81559757522911

> <r_i_glide_evdw>
-38.4087905883789

> <r_i_glide_ecoul>
-6.76181888580322

> <r_i_glide_erotb>
0.334993076075759

> <r_i_glide_esite>
0

> <r_i_glide_emodel>
-61.3762581034862

> <r_i_glide_energy>
-45.1706094741821

> <r_i_glide_einternal>
1.79802918434143

> <i_i_glide_confnum>
5

> <i_i_glide_posenum>
303

> <r_i_glide_eff_state_penalty>
0

> <s_user_duplicate_titles>
CHEMBL267_lig698

> <i_f3d_flags>
0

> <s_m_subgroup_title>
dock_pv

> <s_m_subgroupid>
dock_pv

> <b_m_subgroup_collapsed>
1

$$$$
CHEMBL267_lig692
                    3D
 Schrodinger Suite 2021-1.
 26 28  0  0  1  0            999 V2000
    5.4743    6.6376    8.0193 C   0  0  0  0  0  0
    3.3230    6.2483    8.5615 C   0  0  0  0  0  0
    4.6255    5.8738    8.7880 N   0  0  0  0  0  0
    4.6874    7.5802    7.3115 C   0  0  0  0  0  0
    3.3413    7.3261    7.6390 C   0  0  0  0  0  0
    5.3218    8.4917    6.4505 C   0  0  0  0  0  0
    2.1250    7.8808    7.2165 C   0  0  0  0  0  0
    6.8564    6.5682    7.8768 C   0  0  0  0  0  0
    2.1385    5.7212    9.0703 C   0  0  0  0  0  0
    0.9333    7.3205    7.6772 C   0  0  0  0  0  0
    6.7114    8.4457    6.3272 C   0  0  0  0  0  0
    0.9457    6.2564    8.5942 C   0  0  0  0  0  0
    7.4601    7.4969    7.0355 C   0  0  0  0  0  0
   -0.2393    7.8369    7.1880 O   0  0  0  0  0  0
    7.3277    9.3551    5.5047 O   0  0  0  0  0  0
    8.8225    7.4375    6.9328 O   0  0  0  0  0  0
   -0.2020    5.6817    9.0753 O   0  0  0  0  0  0
    4.9057    5.1333    9.4165 H   0  0  0  0  0  0
    4.7500    9.2174    5.8913 H   0  0  0  0  0  0
    2.1049    8.6936    6.5056 H   0  0  0  0  0  0
    7.4348    5.8146    8.3877 H   0  0  0  0  0  0
    2.1366    4.9014    9.7734 H   0  0  0  0  0  0
   -0.9525    7.1866    7.1695 H   0  0  0  0  0  0
    8.2840    9.3391    5.5872 H   0  0  0  0  0  0
    9.1667    7.4509    6.0316 H   0  0  0  0  0  0
   -1.0159    5.8372    8.5798 H   0  0  0  0  0  0
  1  3  1  0  0  0
  1  4  2  0  0  0
  1  8  1  0  0  0
  2  3  1  0  0  0
  2  9  1  0  0  0
  2  5  2  0  0  0
  3 18  1  0  0  0
  4  5  1  0  0  0
  4  6  1  0  0  0
  5  7  1  0  0  0
  6 11  2  0  0  0
  6 19  1  0  0  0
  7 10  2  0  0  0
  7 20  1  0  0  0
  8 13  2  0  0  0
  8 21  1  0  0  0
  9 12  2  0  0  0
  9 22  1  0  0  0
 10 14  1  0  0  0
 10 12  1  0  0  0
 11 13  1  0  0  0
 11 15  1  0  0  0
 12 17  1  0  0  0
 13 16  1  0  0  0
 14 23  1  0  0  0
 15 24  1  0  0  0
 16 25  1  0  0  0
 17 26  1  0  0  0
M  END
> <s_m_entry_id>
32098

> <s_m_entry_name>
dock_pv.361

> <s_m_Source_Path>
/home/csk/Desktop/cluster/DUD-E-result/src

> <s_m_Source_File>
dock_pv.maegz

> <i_m_Source_File_Index>
361

> <chembl_id>
CHEMBL70659

> <chembl_pref_name>
None

> <i_lp_mmshare_version>
53161

> <r_lp_tautomer_probability>
1

> <s_lp_Force_Field>
OPLS_2005

> <r_lp_Energy>
10.702026

> <b_lp_Chiralities_Consistent>
1

> <s_lp_Variant>
CHEMBL267_lig692-1

> <s_i_glide_gridfile>
glide-grid_3el8

> <i_i_glide_lignum>
811

> <i_i_glide_rotatable_bonds>
4

> <r_i_docking_score>
-7.29842829065293

> <r_i_glide_ligand_efficiency>
-0.429319311214878

> <r_i_glide_ligand_efficiency_sa>
-1.10390084039836

> <r_i_glide_ligand_efficiency_ln>
-1.90399741302421

> <r_i_glide_gscore>
-7.29842829065293

> <r_i_glide_lipo>
-2.22911438917173

> <r_i_glide_hbond>
-0.213800575504914

> <r_i_glide_metal>
0

> <r_i_glide_rewards>
-1.83269890909091

> <r_i_glide_evdw>
-22.7171211242676

> <r_i_glide_ecoul>
-12.57972240448

> <r_i_glide_erotb>
0

> <r_i_glide_esite>
0

> <r_i_glide_emodel>
-49.2256810334293

> <r_i_glide_energy>
-35.2968435287476

> <r_i_glide_einternal>
2.23662161827087

> <i_i_glide_confnum>
1

> <i_i_glide_posenum>
352

> <r_i_glide_eff_state_penalty>
0

> <s_user_duplicate_titles>
CHEMBL267_lig692

> <i_f3d_flags>
0

> <s_m_subgroup_title>
dock_pv

> <s_m_subgroupid>
dock_pv

> <b_m_subgroup_collapsed>
1

$$$$
CHEMBL267_lig81
                    3D
 Schrodinger Suite 2021-1.
 51 54  0  0  1  0            999 V2000
   -0.8356    7.4370    5.5880 O   0  0  0  0  0  0
   -0.2054    0.0784    7.9879 O   0  0  0  0  0  0
    1.9946    7.4090    6.6483 N   0  0  2  0  0  0
    1.8059    8.5288    3.1879 N   0  0  0  0  0  0
    2.6334    6.8398   11.0318 N   0  0  0  0  0  0
    2.0064    6.6370   12.1982 N   0  0  0  0  0  0
    0.7221    4.7079    8.7418 N   0  0  0  0  0  0
    0.3512    5.4134   10.9541 N   0  0  0  0  0  0
    0.7741    8.6553    4.2069 C   0  0  1  0  0  0
    0.3115    7.2975    4.7887 C   0  0  1  0  0  0
    1.2881    9.4834    5.4056 C   0  0  0  0  0  0
    1.4196    6.5744    5.5767 C   0  0  0  0  0  0
    2.3888    8.7636    6.2212 C   0  0  0  0  0  0
    3.0876    6.7058    7.3175 C   0  0  0  0  0  0
    3.1221    6.9068    8.8014 C   0  0  0  0  0  0
    2.2178    6.3724    9.7664 C   0  0  0  0  0  0
    4.0643    7.6288    9.5236 C   0  0  0  0  0  0
    3.7918    7.5570   10.8789 C   0  0  0  0  0  0
    1.0834    5.5264    9.8203 C   0  0  0  0  0  0
    0.8293    6.0015   12.0576 C   0  0  0  0  0  0
   -0.2006    3.6472    8.7747 C   0  0  0  0  0  0
    0.1986    2.3752    8.3880 C   0  0  0  0  0  0
   -1.5151    3.8370    9.1883 C   0  0  0  0  0  0
   -0.6980    1.3022    8.3880 C   0  0  0  0  0  0
   -2.4361    2.7964    9.1880 C   0  0  0  0  0  0
   -2.0266    1.5285    8.7880 C   0  0  0  0  0  0
   -1.1250   -0.9829    7.7614 C   0  0  0  0  0  0
   -1.0959    6.5885    5.9647 H   0  0  0  0  0  0
    2.5195    7.8845    3.4922 H   0  0  0  0  0  0
    1.4053    8.1470    2.3351 H   0  0  0  0  0  0
    1.4031    4.6789    8.0002 H   0  0  0  0  0  0
   -0.0959    9.1458    3.7703 H   0  0  0  0  0  0
    0.0119    6.6527    3.9603 H   0  0  0  0  0  0
    1.6951   10.4255    5.0366 H   0  0  0  0  0  0
    0.4688    9.7920    6.0557 H   0  0  0  0  0  0
    1.0256    5.6637    6.0230 H   0  0  0  0  0  0
    2.1981    6.2579    4.8865 H   0  0  0  0  0  0
    2.6554    9.3487    7.1028 H   0  0  0  0  0  0
    3.2942    8.7011    5.6147 H   0  0  0  0  0  0
    2.9980    5.6286    7.1880 H   0  0  0  0  0  0
    4.0354    7.0370    6.8823 H   0  0  0  0  0  0
    4.9007    8.1562    9.0875 H   0  0  0  0  0  0
    4.2999    7.9874   11.7290 H   0  0  0  0  0  0
    0.1978    5.9638   12.9196 H   0  0  0  0  0  0
    1.2202    2.2370    8.0797 H   0  0  0  0  0  0
   -1.8086    4.8257    9.4945 H   0  0  0  0  0  0
   -3.4575    2.9705    9.4931 H   0  0  0  0  0  0
   -2.7566    0.7338    8.7920 H   0  0  0  0  0  0
   -0.6020   -1.8156    7.2974 H   0  0  0  0  0  0
   -1.5611   -1.3364    8.6967 H   0  0  0  0  0  0
   -1.9249   -0.6881    7.0794 H   0  0  0  0  0  0
  1 10  1  0  0  0
  1 28  1  0  0  0
  2 24  1  0  0  0
  2 27  1  0  0  0
  3 12  1  0  0  0
  3 13  1  0  0  0
  3 14  1  0  0  0
  4  9  1  0  0  0
  4 29  1  0  0  0
  4 30  1  0  0  0
  5  6  1  0  0  0
  5 16  1  0  0  0
  5 18  1  0  0  0
  6 20  2  0  0  0
  7 19  1  0  0  0
  7 21  1  0  0  0
  7 31  1  0  0  0
  8 19  2  0  0  0
  8 20  1  0  0  0
  9 10  1  0  0  0
  9 11  1  0  0  0
  9 32  1  0  0  0
 10 12  1  0  0  0
 10 33  1  0  0  0
 11 13  1  0  0  0
 11 34  1  0  0  0
 11 35  1  0  0  0
 12 36  1  0  0  0
 12 37  1  0  0  0
 13 38  1  0  0  0
 13 39  1  0  0  0
 14 15  1  0  0  0
 14 40  1  0  0  0
 14 41  1  0  0  0
 15 16  2  0  0  0
 15 17  1  0  0  0
 16 19  1  0  0  0
 17 18  2  0  0  0
 17 42  1  0  0  0
 18 43  1  0  0  0
 20 44  1  0  0  0
 21 22  2  0  0  0
 21 23  1  0  0  0
 22 24  1  0  0  0
 22 45  1  0  0  0
 23 25  2  0  0  0
 23 46  1  0  0  0
 24 26  2  0  0  0
 25 26  1  0  0  0
 25 47  1  0  0  0
 26 48  1  0  0  0
 27 49  1  0  0  0
 27 50  1  0  0  0
 27 51  1  0  0  0
M  END
> <s_m_entry_id>
32099

> <s_m_entry_name>
dock_pv.362

> <s_m_Source_Path>
/home/csk/Desktop/cluster/DUD-E-result/src

> <s_m_Source_File>
dock_pv.maegz

> <i_m_Source_File_Index>
362

> <chembl_id>
CHEMBL3545396

> <chembl_pref_name>
BMS-690514

> <i_lp_mmshare_version>
53161

> <r_lp_tautomer_probability>
1

> <s_lp_Force_Field>
OPLS_2005

> <r_lp_Energy>
52.815844

> <b_lp_Chiralities_Consistent>
1

> <s_lp_Variant>
CHEMBL267_lig81-1

> <s_i_glide_gridfile>
glide-grid_3el8

> <i_i_glide_lignum>
116

> <i_i_glide_rotatable_bonds>
6

> <r_i_docking_score>
-7.29268949990803

> <r_i_glide_ligand_efficiency>
-0.270099611107705

> <r_i_glide_ligand_efficiency_sa>
-0.81029883243291

> <r_i_glide_ligand_efficiency_ln>
-1.69761788619575

> <r_i_glide_gscore>
-7.29268949990803

> <r_i_glide_lipo>
-3.6878414130603

> <r_i_glide_hbond>
-0.518329068570894

> <r_i_glide_metal>
0

> <r_i_glide_rewards>
-1.59228526294891

> <r_i_glide_evdw>
-34.6507301330566

> <r_i_glide_ecoul>
-2.19686603546143

> <r_i_glide_erotb>
0.567832656644119

> <r_i_glide_esite>
0

> <r_i_glide_emodel>
-48.4658874311905

> <r_i_glide_energy>
-36.8475961685181

> <r_i_glide_einternal>
8.88260841369629

> <i_i_glide_confnum>
34

> <i_i_glide_posenum>
236

> <r_i_glide_eff_state_penalty>
0

> <s_user_duplicate_titles>
CHEMBL267_lig81

> <i_f3d_flags>
0

> <s_m_subgroup_title>
dock_pv

> <s_m_subgroupid>
dock_pv

> <b_m_subgroup_collapsed>
1

$$$$
CHEMBL267_lig1823
                    3D
 Schrodinger Suite 2021-1.
 37 39  0  0  1  0            999 V2000
    7.8518    7.0388    7.2685 N   0  0  0  0  0  0
    8.1977    8.0158    6.3908 C   0  0  0  0  0  0
    7.3789    8.9039    5.7665 N   0  0  0  0  0  0
    6.5379    6.9417    7.5880 C   0  0  0  0  0  0
    5.5909    7.8359    7.0504 C   0  0  0  0  0  0
    6.0943    8.7732    6.1226 C   0  0  0  0  0  0
    4.9963    9.4837    5.6709 N   0  0  0  0  0  0
    3.8573    9.0366    6.2546 N   0  0  0  0  0  0
    4.1822    8.0990    7.1160 C   0  0  0  0  0  0
    3.1684    7.4687    8.0069 C   0  0  0  0  0  0
    3.4465    7.3373    9.3712 C   0  0  0  0  0  0
    2.5325    6.7255   10.2261 C   0  0  0  0  0  0
    1.3312    6.2222    9.7184 C   0  0  0  0  0  0
    1.0431    6.3543    8.3588 C   0  0  0  0  0  0
    1.9560    6.9798    7.5069 C   0  0  0  0  0  0
    6.1605    5.8665    8.3880 N   0  0  0  0  0  0
    0.1980    5.4365   10.7596 Cl  0  0  0  0  0  0
    2.8206    6.6370   11.5611 O   0  0  0  0  0  0
    4.9494   10.5573    4.6706 C   0  0  2  0  0  0
    4.2265   11.7980    5.2541 C   0  0  0  0  0  0
    4.3148   10.0191    3.3682 C   0  0  0  0  0  0
    4.3517   12.9601    4.3883 N   0  0  0  0  0  0
    9.2487    8.0907    6.1496 H   0  0  0  0  0  0
    4.3714    7.7199    9.7772 H   0  0  0  0  0  0
    0.1145    5.9666    7.9639 H   0  0  0  0  0  0
    1.7282    7.0686    6.4541 H   0  0  0  0  0  0
    5.1867    5.7403    8.6224 H   0  0  0  0  0  0
    6.8651    5.2228    8.7213 H   0  0  0  0  0  0
    2.1552    6.1336   12.0364 H   0  0  0  0  0  0
    5.9838   10.8352    4.4586 H   0  0  0  0  0  0
    3.1671   11.5856    5.4104 H   0  0  0  0  0  0
    4.6424   12.0534    6.2307 H   0  0  0  0  0  0
    4.3442   10.7638    2.5727 H   0  0  0  0  0  0
    4.8443    9.1374    3.0039 H   0  0  0  0  0  0
    3.2714    9.7377    3.5165 H   0  0  0  0  0  0
    5.3212   13.2206    4.2620 H   0  0  0  0  0  0
    3.9852   12.7569    3.4680 H   0  0  0  0  0  0
  1  2  2  0  0  0
  1  4  1  0  0  0
  2  3  1  0  0  0
  2 23  1  0  0  0
  3  6  2  0  0  0
  4  5  2  0  0  0
  4 16  1  0  0  0
  5  9  1  0  0  0
  5  6  1  0  0  0
  6  7  1  0  0  0
  7  8  1  0  0  0
  7 19  1  0  0  0
  8  9  2  0  0  0
  9 10  1  0  0  0
 10 11  2  0  0  0
 10 15  1  0  0  0
 11 12  1  0  0  0
 11 24  1  0  0  0
 12 13  2  0  0  0
 12 18  1  0  0  0
 13 14  1  0  0  0
 13 17  1  0  0  0
 14 15  2  0  0  0
 14 25  1  0  0  0
 15 26  1  0  0  0
 16 27  1  0  0  0
 16 28  1  0  0  0
 18 29  1  0  0  0
 19 20  1  0  0  0
 19 21  1  0  0  0
 19 30  1  0  0  0
 20 22  1  0  0  0
 20 31  1  0  0  0
 20 32  1  0  0  0
 21 33  1  0  0  0
 21 34  1  0  0  0
 21 35  1  0  0  0
 22 36  1  0  0  0
 22 37  1  0  0  0
M  END
> <s_m_entry_id>
32100

> <s_m_entry_name>
dock_pv.363

> <s_m_Source_Path>
/home/csk/Desktop/cluster/DUD-E-result/src

> <s_m_Source_File>
dock_pv.maegz

> <i_m_Source_File_Index>
363

> <chembl_id>
CHEMBL1240544

> <chembl_pref_name>
None

> <i_lp_mmshare_version>
53161

> <r_lp_tautomer_probability>
0.999999999997365

> <s_lp_Force_Field>
OPLS_2005

> <r_lp_Energy>
13.04147

> <b_lp_Chiralities_Consistent>
1

> <s_lp_Variant>
CHEMBL267_lig1823-1

> <s_i_glide_gridfile>
glide-grid_3el8

> <i_i_glide_lignum>
2089

> <i_i_glide_rotatable_bonds>
4

> <r_i_docking_score>
-7.29051435821896

> <r_i_glide_ligand_efficiency>
-0.33138701628268

> <r_i_glide_ligand_efficiency_sa>
-0.928559452335868

> <r_i_glide_ligand_efficiency_ln>
-1.78206763712125

> <r_i_glide_gscore>
-7.29051435821896

> <r_i_glide_lipo>
-2.14200110440921

> <r_i_glide_hbond>
-0.105984113449592

> <r_i_glide_metal>
0

> <r_i_glide_rewards>
-2.92221838928995

> <r_i_glide_evdw>
-37.0961456298828

> <r_i_glide_ecoul>
-3.48307681083679

> <r_i_glide_erotb>
0.256958052049454

> <r_i_glide_esite>
0

> <r_i_glide_emodel>
-55.3382944338884

> <r_i_glide_energy>
-40.5792224407196

> <r_i_glide_einternal>
3.69420599937439

> <i_i_glide_confnum>
7

> <i_i_glide_posenum>
129

> <r_i_glide_eff_state_penalty>
0

> <s_user_duplicate_titles>
CHEMBL267_lig1823

> <i_f3d_flags>
0

> <s_m_subgroup_title>
dock_pv

> <s_m_subgroupid>
dock_pv

> <b_m_subgroup_collapsed>
1

$$$$
CHEMBL267_lig1465
                    3D
 Schrodinger Suite 2021-1.
 44 46  0  0  1  0            999 V2000
    2.8085    6.0454    9.5604 C   0  0  0  0  0  0
    1.7510    5.2753    9.0513 C   0  0  0  0  0  0
    0.5454    5.1421    9.7595 C   0  0  0  0  0  0
    0.3854    5.8239   10.9644 C   0  0  0  0  0  0
    1.4382    6.5632   11.4954 C   0  0  0  0  0  0
    2.6546    6.6725   10.8162 C   0  0  0  0  0  0
    3.7980    7.4040   11.5131 C   0  0  0  0  0  0
   -0.5214    4.3216    9.3468 N   0  0  0  0  0  0
   -0.4145    3.0944    8.7880 C   0  0  0  0  0  0
    0.6536    2.6370    8.3840 O   0  0  0  0  0  0
   -1.6532    2.2164    8.7880 C   0  0  0  0  0  0
   -1.5488    0.8709    8.3880 C   0  0  0  0  0  0
   -2.6020   -0.0359    8.5778 C   0  0  0  0  0  0
   -3.7807    0.4131    9.1880 C   0  0  0  0  0  0
   -3.9080    1.7446    9.5880 C   0  0  0  0  0  0
   -2.8653    2.6438    9.3620 C   0  0  0  0  0  0
   -2.4798   -1.4892    8.1198 C   0  0  0  0  0  0
   -1.4990   -1.6556    7.2298 F   0  0  0  0  0  0
   -2.2215   -2.2631    9.1742 F   0  0  0  0  0  0
   -3.6176   -1.9028    7.5595 F   0  0  0  0  0  0
    4.1039    6.0899    8.7880 C   0  0  0  0  0  0
    4.7443    5.0553    8.6020 O   0  0  0  0  0  0
    4.4531    7.2998    8.2989 N   0  0  0  0  0  0
    5.5898    7.5926    7.5164 C   0  0  0  0  0  0
    6.8114    6.9002    7.5959 C   0  0  0  0  0  0
    7.8882    7.2114    6.8318 N   0  0  0  0  0  0
    7.7214    8.2370    5.9609 C   0  0  0  0  0  0
    6.5921    8.9731    5.7952 N   0  0  0  0  0  0
    5.5369    8.6370    6.5849 C   0  0  0  0  0  0
    1.8778    4.7622    8.1081 H   0  0  0  0  0  0
   -0.5379    5.7448   11.5225 H   0  0  0  0  0  0
    1.3077    7.0347   12.4583 H   0  0  0  0  0  0
    3.5694    7.6553   12.5497 H   0  0  0  0  0  0
    4.6619    6.7456   11.5541 H   0  0  0  0  0  0
    4.0810    8.3088   10.9764 H   0  0  0  0  0  0
   -1.4348    4.6037    9.6707 H   0  0  0  0  0  0
   -0.6220    0.5081    7.9654 H   0  0  0  0  0  0
   -4.6052   -0.2667    9.3440 H   0  0  0  0  0  0
   -4.8213    2.0842   10.0535 H   0  0  0  0  0  0
   -3.0020    3.6626    9.6924 H   0  0  0  0  0  0
    3.7980    8.0514    8.4469 H   0  0  0  0  0  0
    6.9564    6.0843    8.2889 H   0  0  0  0  0  0
    8.5698    8.4848    5.3393 H   0  0  0  0  0  0
    4.6372    9.2173    6.4419 H   0  0  0  0  0  0
  1 21  1  0  0  0
  1  6  1  0  0  0
  1  2  2  0  0  0
  2  3  1  0  0  0
  2 30  1  0  0  0
  3  4  2  0  0  0
  3  8  1  0  0  0
  4  5  1  0  0  0
  4 31  1  0  0  0
  5  6  2  0  0  0
  5 32  1  0  0  0
  6  7  1  0  0  0
  7 33  1  0  0  0
  7 34  1  0  0  0
  7 35  1  0  0  0
  8  9  1  0  0  0
  8 36  1  0  0  0
  9 10  2  0  0  0
  9 11  1  0  0  0
 11 16  1  0  0  0
 11 12  2  0  0  0
 12 13  1  0  0  0
 12 37  1  0  0  0
 13 17  1  0  0  0
 13 14  2  0  0  0
 14 15  1  0  0  0
 14 38  1  0  0  0
 15 16  2  0  0  0
 15 39  1  0  0  0
 16 40  1  0  0  0
 17 18  1  0  0  0
 17 19  1  0  0  0
 17 20  1  0  0  0
 21 22  2  0  0  0
 21 23  1  0  0  0
 23 24  1  0  0  0
 23 41  1  0  0  0
 24 25  2  0  0  0
 24 29  1  0  0  0
 25 26  1  0  0  0
 25 42  1  0  0  0
 26 27  2  0  0  0
 27 28  1  0  0  0
 27 43  1  0  0  0
 28 29  2  0  0  0
 29 44  1  0  0  0
M  END
> <s_m_entry_id>
32101

> <s_m_entry_name>
dock_pv.364

> <s_m_Source_Path>
/home/csk/Desktop/cluster/DUD-E-result/src

> <s_m_Source_File>
dock_pv.maegz

> <i_m_Source_File_Index>
364

> <chembl_id>
CHEMBL259247

> <chembl_pref_name>
None

> <i_lp_mmshare_version>
53161

> <r_lp_tautomer_probability>
1

> <s_lp_Force_Field>
OPLS_2005

> <r_lp_Energy>
30.884714

> <b_lp_Chiralities_Consistent>
1

> <s_lp_Variant>
CHEMBL267_lig1465-1

> <s_i_glide_gridfile>
glide-grid_3el8

> <i_i_glide_lignum>
1637

> <i_i_glide_rotatable_bonds>
7

> <r_i_docking_score>
-7.28908276176392

> <r_i_glide_ligand_efficiency>
-0.251347681440135

> <r_i_glide_ligand_efficiency_sa>
-0.77221970991889

> <r_i_glide_ligand_efficiency_ln>
-1.66901511725312

> <r_i_glide_gscore>
-7.28908276176392

> <r_i_glide_lipo>
-2.64953677433102

> <r_i_glide_hbond>
0

> <r_i_glide_metal>
0

> <r_i_glide_rewards>
-2.77727926608616

> <r_i_glide_evdw>
-49.4300270080566

> <r_i_glide_ecoul>
-0.756987273693085

> <r_i_glide_erotb>
0.733830848394872

> <r_i_glide_esite>
-0.0110481282848203

> <r_i_glide_emodel>
-63.6108594687811

> <r_i_glide_energy>
-50.1870142817497

> <r_i_glide_einternal>
9.08974838256836

> <i_i_glide_confnum>
8

> <i_i_glide_posenum>
49

> <r_i_glide_eff_state_penalty>
0

> <s_user_duplicate_titles>
CHEMBL267_lig1465,441862

> <i_f3d_flags>
0

> <s_m_subgroup_title>
dock_pv

> <s_m_subgroupid>
dock_pv

> <b_m_subgroup_collapsed>
1

$$$$
CHEMBL267_lig3710
                    3D
 Schrodinger Suite 2021-1.
 61 64  0  0  1  0            999 V2000
    3.7981    8.0494   10.5518 O   0  0  0  0  0  0
    2.4606    6.2373   10.8729 O   0  0  0  0  0  0
   -0.2020    2.5241    8.0828 O   0  0  0  0  0  0
    2.9090    8.2371    7.8836 N   0  0  0  0  0  0
    2.3216    8.0972    6.6477 C   0  0  0  0  0  0
    1.4125    7.0076    6.7685 C   0  0  0  0  0  0
    1.5113    6.4975    8.1143 C   0  0  0  0  0  0
    2.4942    8.8201    5.4550 C   0  0  0  0  0  0
    2.4567    7.2936    8.7740 C   0  0  0  0  0  0
    3.4507    9.9566    5.3409 C   0  0  0  0  0  0
    0.6414    6.6527    5.6479 C   0  0  0  0  0  0
    1.6893    8.4302    4.3777 C   0  0  0  0  0  0
    2.9702    7.2502   10.1241 C   0  0  0  0  0  0
    0.7148    5.3190    8.6387 C   0  0  0  0  0  0
    0.7871    7.3741    4.4657 C   0  0  0  0  0  0
    4.8359    9.8267    5.5880 C   0  0  0  0  0  0
    2.9489   11.2132    4.9772 C   0  0  0  0  0  0
    1.5506    4.0260    8.7126 C   0  0  0  0  0  0
    5.6685   10.9467    5.4838 C   0  0  0  0  0  0
    3.7866   12.3211    4.8727 C   0  0  0  0  0  0
   -1.1645    1.5939    8.3880 C   0  0  0  0  0  0
   -2.3879    1.9729    8.9666 C   0  0  0  0  0  0
    5.1470   12.1892    5.1315 C   0  0  0  0  0  0
    0.7152    2.8091    9.1290 C   0  0  0  0  0  0
    5.4879    8.4908    5.9272 C   0  0  0  0  0  0
   -3.3781    0.9935    9.1880 C   0  0  0  0  0  0
   -0.9335    0.2621    8.0372 C   0  0  0  0  0  0
   -1.9190   -0.7010    8.2342 C   0  0  0  0  0  0
   -3.1426   -0.3291    8.7882 C   0  0  0  0  0  0
   -2.6439    3.4361    9.3102 C   0  0  0  0  0  0
   -4.7515    1.3556    9.7322 C   0  0  0  0  0  0
   -1.6684   -2.1351    7.8197 C   0  0  0  0  0  0
    2.9460    6.1584   11.6971 H   0  0  0  0  0  0
    3.6036    8.9206    8.1488 H   0  0  0  0  0  0
   -0.0672    5.8385    5.7013 H   0  0  0  0  0  0
    1.7716    8.9566    3.4369 H   0  0  0  0  0  0
   -0.1497    5.1516    7.9978 H   0  0  0  0  0  0
    0.2938    5.5410    9.6204 H   0  0  0  0  0  0
    0.1904    7.1130    3.6019 H   0  0  0  0  0  0
    1.8936   11.3348    4.7788 H   0  0  0  0  0  0
    2.3663    4.1496    9.4246 H   0  0  0  0  0  0
    2.0251    3.8291    7.7507 H   0  0  0  0  0  0
    6.7292   10.8549    5.6688 H   0  0  0  0  0  0
    3.3810   13.2814    4.5898 H   0  0  0  0  0  0
    5.7982   13.0469    5.0480 H   0  0  0  0  0  0
    0.1987    3.0370   10.0624 H   0  0  0  0  0  0
    1.3581    1.9449    9.3055 H   0  0  0  0  0  0
    6.4546    8.4027    5.4298 H   0  0  0  0  0  0
    5.6559    8.4047    7.0008 H   0  0  0  0  0  0
    4.8986    7.6403    5.5880 H   0  0  0  0  0  0
    0.0101   -0.0127    7.5886 H   0  0  0  0  0  0
   -3.9149   -1.0728    8.9185 H   0  0  0  0  0  0
   -1.9250    4.1080    8.8509 H   0  0  0  0  0  0
   -2.6020    3.5724   10.3880 H   0  0  0  0  0  0
   -3.6190    3.7645    8.9534 H   0  0  0  0  0  0
   -5.4641    0.5436    9.5881 H   0  0  0  0  0  0
   -4.6961    1.6208   10.7876 H   0  0  0  0  0  0
   -5.1605    2.2069    9.1901 H   0  0  0  0  0  0
   -1.0026   -2.6132    8.5380 H   0  0  0  0  0  0
   -2.5975   -2.7020    7.7448 H   0  0  0  0  0  0
   -1.1896   -2.1629    6.8401 H   0  0  0  0  0  0
  1 13  2  0  0  0
  2 13  1  0  0  0
  2 33  1  0  0  0
  3 21  1  0  0  0
  3 24  1  0  0  0
  4  5  1  0  0  0
  4  9  1  0  0  0
  4 34  1  0  0  0
  5  6  1  0  0  0
  5  8  2  0  0  0
  6  7  1  0  0  0
  6 11  2  0  0  0
  7  9  2  0  0  0
  7 14  1  0  0  0
  8 10  1  0  0  0
  8 12  1  0  0  0
  9 13  1  0  0  0
 10 16  1  0  0  0
 10 17  2  0  0  0
 11 15  1  0  0  0
 11 35  1  0  0  0
 12 15  2  0  0  0
 12 36  1  0  0  0
 14 18  1  0  0  0
 14 37  1  0  0  0
 14 38  1  0  0  0
 15 39  1  0  0  0
 16 19  2  0  0  0
 16 25  1  0  0  0
 17 20  1  0  0  0
 17 40  1  0  0  0
 18 24  1  0  0  0
 18 41  1  0  0  0
 18 42  1  0  0  0
 19 23  1  0  0  0
 19 43  1  0  0  0
 20 23  2  0  0  0
 20 44  1  0  0  0
 21 22  1  0  0  0
 21 27  2  0  0  0
 22 26  2  0  0  0
 22 30  1  0  0  0
 23 45  1  0  0  0
 24 46  1  0  0  0
 24 47  1  0  0  0
 25 48  1  0  0  0
 25 49  1  0  0  0
 25 50  1  0  0  0
 26 29  1  0  0  0
 26 31  1  0  0  0
 27 28  1  0  0  0
 27 51  1  0  0  0
 28 29  2  0  0  0
 28 32  1  0  0  0
 29 52  1  0  0  0
 30 53  1  0  0  0
 30 54  1  0  0  0
 30 55  1  0  0  0
 31 56  1  0  0  0
 31 57  1  0  0  0
 31 58  1  0  0  0
 32 59  1  0  0  0
 32 60  1  0  0  0
 32 61  1  0  0  0
M  END
> <s_m_entry_id>
32102

> <s_m_entry_name>
dock_pv.365

> <s_m_Source_Path>
/home/csk/Desktop/cluster/DUD-E-result/src

> <s_m_Source_File>
dock_pv.maegz

> <i_m_Source_File_Index>
365

> <chembl_id>
CHEMBL1990821

> <chembl_pref_name>
None

> <i_lp_mmshare_version>
53161

> <r_lp_tautomer_probability>
1

> <s_lp_Force_Field>
OPLS_2005

> <r_lp_Energy>
23.370453

> <b_lp_Chiralities_Consistent>
1

> <s_lp_Variant>
CHEMBL267_lig3710-1

> <s_i_glide_gridfile>
glide-grid_3el8

> <i_i_glide_lignum>
4518

> <i_i_glide_rotatable_bonds>
8

> <r_i_docking_score>
-7.28662716814346

> <r_i_glide_ligand_efficiency>
-0.227707099004483

> <r_i_glide_ligand_efficiency_sa>
-0.722924976165531

> <r_i_glide_ligand_efficiency_ln>
-1.63167444890219

> <r_i_glide_gscore>
-7.28662716814346

> <r_i_glide_lipo>
-4.27661591049354

> <r_i_glide_hbond>
-0.0365370699445705

> <r_i_glide_metal>
0

> <r_i_glide_rewards>
-0.82366992359814

> <r_i_glide_evdw>
-50.7663345336914

> <r_i_glide_ecoul>
-2.47924447059631

> <r_i_glide_erotb>
0.760399133166806

> <r_i_glide_esite>
0

> <r_i_glide_emodel>
-70.6438669014812

> <r_i_glide_energy>
-53.2455790042877

> <r_i_glide_einternal>
10.1800136566162

> <i_i_glide_confnum>
10

> <i_i_glide_posenum>
400

> <r_i_glide_eff_state_penalty>
0

> <s_user_duplicate_titles>
CHEMBL267_lig3710

> <i_f3d_flags>
0

> <s_m_subgroup_title>
dock_pv

> <s_m_subgroupid>
dock_pv

> <b_m_subgroup_collapsed>
1

$$$$
CHEMBL267_lig2039
                    3D
 Schrodinger Suite 2021-1.
 47 50  0  0  1  0            999 V2000
    5.8400   11.5218    4.8741 C   0  0  0  0  0  0
    5.3194   10.8977    3.7433 C   0  0  0  0  0  0
    5.1620    9.5148    3.7092 C   0  0  0  0  0  0
    5.5198    8.7590    4.8202 C   0  0  0  0  0  0
    6.0308    9.3718    5.9657 C   0  0  0  0  0  0
    6.2046   10.7575    5.9800 C   0  0  0  0  0  0
    6.4024    8.5324    7.1451 C   0  0  0  0  0  0
    5.3926    7.5636    7.6764 C   0  0  0  0  0  0
    7.5092    8.6370    7.6736 O   0  0  0  0  0  0
    5.8208    6.3710    8.2750 C   0  0  0  0  0  0
    4.9191    5.4405    8.7828 C   0  0  0  0  0  0
    4.0256    7.8777    7.6056 C   0  0  0  0  0  0
    3.1199    6.9298    8.0900 C   0  0  0  0  0  0
    3.5528    5.7213    8.6867 C   0  0  0  0  0  0
    2.4954    4.9578    9.0855 N   0  0  0  0  0  0
    1.4481    5.6414    8.7258 C   0  0  0  0  0  0
    1.7392    6.8564    8.1244 N   0  0  0  0  0  0
    0.1852    5.1812    8.9255 N   0  0  0  0  0  0
    0.7860    7.8422    7.6067 C   0  0  0  0  0  0
    0.5801    7.8123    6.0667 C   0  0  0  0  0  0
    1.6433    8.5660    5.2485 C   0  0  0  0  0  0
    1.2489    8.6451    3.7586 C   0  0  0  0  0  0
    0.9986    7.3177    3.1882 N   0  0  1  0  0  0
    0.1147    6.4507    3.9818 C   0  0  0  0  0  0
    0.5284    6.3996    5.4598 C   0  0  0  0  0  0
    5.9653   12.5951    4.8914 H   0  0  0  0  0  0
    5.0424   11.4906    2.8830 H   0  0  0  0  0  0
    4.7622    9.0326    2.8292 H   0  0  0  0  0  0
    5.4030    7.6894    4.7893 H   0  0  0  0  0  0
    6.5987   11.2473    6.8582 H   0  0  0  0  0  0
    6.8759    6.1418    8.3306 H   0  0  0  0  0  0
    5.2667    4.5052    9.1883 H   0  0  0  0  0  0
    3.6823    8.8092    7.1812 H   0  0  0  0  0  0
    0.0335    4.3354    9.4552 H   0  0  0  0  0  0
   -0.6376    5.5892    8.4962 H   0  0  0  0  0  0
   -0.1734    7.6518    8.0813 H   0  0  0  0  0  0
    1.1000    8.8327    7.9427 H   0  0  0  0  0  0
   -0.3799    8.2944    5.8694 H   0  0  0  0  0  0
    1.7456    9.5813    5.6345 H   0  0  0  0  0  0
    2.6378    8.1366    5.3530 H   0  0  0  0  0  0
    0.3517    9.2554    3.6336 H   0  0  0  0  0  0
    2.0466    9.1201    3.1835 H   0  0  0  0  0  0
    0.6605    7.4171    2.2268 H   0  0  0  0  0  0
   -0.9145    6.8008    3.8825 H   0  0  0  0  0  0
    0.1485    5.4360    3.5880 H   0  0  0  0  0  0
    1.4573    5.8448    5.5932 H   0  0  0  0  0  0
   -0.2020    5.8015    5.9955 H   0  0  0  0  0  0
  1  6  1  0  0  0
  1  2  2  0  0  0
  1 26  1  0  0  0
  2  3  1  0  0  0
  2 27  1  0  0  0
  3  4  2  0  0  0
  3 28  1  0  0  0
  4  5  1  0  0  0
  4 29  1  0  0  0
  5  7  1  0  0  0
  5  6  2  0  0  0
  6 30  1  0  0  0
  7  8  1  0  0  0
  7  9  2  0  0  0
  8 12  1  0  0  0
  8 10  2  0  0  0
 10 11  1  0  0  0
 10 31  1  0  0  0
 11 14  2  0  0  0
 11 32  1  0  0  0
 12 13  2  0  0  0
 12 33  1  0  0  0
 13 14  1  0  0  0
 13 17  1  0  0  0
 14 15  1  0  0  0
 15 16  2  0  0  0
 16 17  1  0  0  0
 16 18  1  0  0  0
 17 19  1  0  0  0
 18 34  1  0  0  0
 18 35  1  0  0  0
 19 20  1  0  0  0
 19 36  1  0  0  0
 19 37  1  0  0  0
 20 21  1  0  0  0
 20 25  1  0  0  0
 20 38  1  0  0  0
 21 22  1  0  0  0
 21 39  1  0  0  0
 21 40  1  0  0  0
 22 23  1  0  0  0
 22 41  1  0  0  0
 22 42  1  0  0  0
 23 24  1  0  0  0
 23 43  1  0  0  0
 24 25  1  0  0  0
 24 44  1  0  0  0
 24 45  1  0  0  0
 25 46  1  0  0  0
 25 47  1  0  0  0
M  END
> <s_m_entry_id>
32103

> <s_m_entry_name>
dock_pv.366

> <s_m_Source_Path>
/home/csk/Desktop/cluster/DUD-E-result/src

> <s_m_Source_File>
dock_pv.maegz

> <i_m_Source_File_Index>
366

> <chembl_id>
CHEMBL2030561

> <chembl_pref_name>
None

> <i_lp_mmshare_version>
53161

> <r_lp_tautomer_probability>
1

> <s_lp_Force_Field>
OPLS_2005

> <r_lp_Energy>
30.55223

> <b_lp_Chiralities_Consistent>
1

> <s_lp_Variant>
CHEMBL267_lig2039-1

> <s_i_glide_gridfile>
glide-grid_3el8

> <i_i_glide_lignum>
2323

> <i_i_glide_rotatable_bonds>
4

> <r_i_docking_score>
-7.28168188779541

> <r_i_glide_ligand_efficiency>
-0.291267275511816

> <r_i_glide_ligand_efficiency_sa>
-0.851670679243677

> <r_i_glide_ligand_efficiency_ln>
-1.72597682180487

> <r_i_glide_gscore>
-7.28168188779541

> <r_i_glide_lipo>
-2.87139869082102

> <r_i_glide_hbond>
-0.593110496938049

> <r_i_glide_metal>
0

> <r_i_glide_rewards>
-2.04002175021274

> <r_i_glide_evdw>
-35.3616981506348

> <r_i_glide_ecoul>
-4.55766439437866

> <r_i_glide_erotb>
0.67458361686494

> <r_i_glide_esite>
0

> <r_i_glide_emodel>
-49.6912664429064

> <r_i_glide_energy>
-39.9193625450134

> <r_i_glide_einternal>
11.4270210266113

> <i_i_glide_confnum>
40

> <i_i_glide_posenum>
184

> <r_i_glide_eff_state_penalty>
0

> <s_user_duplicate_titles>
CHEMBL267_lig2039

> <i_f3d_flags>
0

> <s_m_subgroup_title>
dock_pv

> <s_m_subgroupid>
dock_pv

> <b_m_subgroup_collapsed>
1

$$$$
CHEMBL267_lig3534
                    3D
 Schrodinger Suite 2021-1.
 43 46  0  0  1  0            999 V2000
    6.5990    5.5311    8.3530 N   0  0  0  0  0  0
    2.8877    8.1183    7.3074 N   0  0  0  0  0  0
    8.1813    6.9490    7.1880 N   0  0  0  0  0  0
    0.5980    7.8404    7.9786 N   0  0  0  0  0  0
    1.1517    9.4537    6.3702 N   0  0  0  0  0  0
    0.7038   10.6373    1.8404 N   0  0  0  0  0  0
    4.6955    6.7373    8.0912 C   0  0  0  0  0  0
    5.7823    7.4364    7.4408 C   0  0  0  0  0  0
    3.2515    7.1016    8.1273 C   0  0  0  0  0  0
    6.9579    6.6504    7.6305 C   0  0  0  0  0  0
    5.2595    5.5936    8.6356 C   0  0  0  0  0  0
    1.5710    8.4449    7.2523 C   0  0  0  0  0  0
    5.9243    8.6175    6.6870 C   0  0  0  0  0  0
    2.3126    6.4172    8.9067 C   0  0  0  0  0  0
    0.9818    6.8202    8.7906 C   0  0  0  0  0  0
    7.1843    8.9333    6.1805 C   0  0  0  0  0  0
    1.9678    9.7926    5.2007 C   0  0  2  0  0  0
    8.2602    8.0912    6.4568 C   0  0  0  0  0  0
    1.6695   11.2375    4.7493 C   0  0  0  0  0  0
    1.6835    8.7608    4.0850 C   0  0  0  0  0  0
    2.0820   10.5547    2.2917 C   0  0  1  0  0  0
    2.3910   11.5690    3.4209 C   0  0  0  0  0  0
    2.4313    9.1329    2.7889 C   0  0  0  0  0  0
    7.1865    4.7686    8.6700 H   0  0  0  0  0  0
    0.1530    9.5420    6.2553 H   0  0  0  0  0  0
    0.5592   11.5003    1.3362 H   0  0  0  0  0  0
    0.5204    9.8818    1.1902 H   0  0  0  0  0  0
    4.7982    4.7874    9.1875 H   0  0  0  0  0  0
    5.0809    9.2593    6.4857 H   0  0  0  0  0  0
    2.5930    5.6021    9.5574 H   0  0  0  0  0  0
    0.2018    6.3237    9.3517 H   0  0  0  0  0  0
    7.3284    9.8248    5.5870 H   0  0  0  0  0  0
    3.0254    9.7372    5.4610 H   0  0  0  0  0  0
    9.2432    8.3260    6.0725 H   0  0  0  0  0  0
    0.5990   11.3861    4.6237 H   0  0  0  0  0  0
    1.9849   11.9400    5.5221 H   0  0  0  0  0  0
    1.9889    7.7643    4.4063 H   0  0  0  0  0  0
    0.6118    8.6992    3.8844 H   0  0  0  0  0  0
    2.7585   10.7723    1.4639 H   0  0  0  0  0  0
    3.4692   11.6148    3.5812 H   0  0  0  0  0  0
    2.1085   12.5722    3.0986 H   0  0  0  0  0  0
    3.5082    9.0530    2.9454 H   0  0  0  0  0  0
    2.1985    8.4012    2.0133 H   0  0  0  0  0  0
  1 10  1  0  0  0
  1 11  1  0  0  0
  1 24  1  0  0  0
  2  9  2  0  0  0
  2 12  1  0  0  0
  3 10  2  0  0  0
  3 18  1  0  0  0
  4 12  2  0  0  0
  4 15  1  0  0  0
  5 12  1  0  0  0
  5 17  1  0  0  0
  5 25  1  0  0  0
  6 21  1  0  0  0
  6 26  1  0  0  0
  6 27  1  0  0  0
  7  8  1  0  0  0
  7  9  1  0  0  0
  7 11  2  0  0  0
  8 10  1  0  0  0
  8 13  2  0  0  0
  9 14  1  0  0  0
 11 28  1  0  0  0
 13 16  1  0  0  0
 13 29  1  0  0  0
 14 15  2  0  0  0
 14 30  1  0  0  0
 15 31  1  0  0  0
 16 18  2  0  0  0
 16 32  1  0  0  0
 17 19  1  0  0  0
 17 20  1  0  0  0
 17 33  1  0  0  0
 18 34  1  0  0  0
 19 22  1  0  0  0
 19 35  1  0  0  0
 19 36  1  0  0  0
 20 23  1  0  0  0
 20 37  1  0  0  0
 20 38  1  0  0  0
 21 22  1  0  0  0
 21 23  1  0  0  0
 21 39  1  0  0  0
 22 40  1  0  0  0
 22 41  1  0  0  0
 23 42  1  0  0  0
 23 43  1  0  0  0
M  END
> <s_m_entry_id>
32105

> <s_m_entry_name>
dock_pv.368

> <s_m_Source_Path>
/home/csk/Desktop/cluster/DUD-E-result/src

> <s_m_Source_File>
dock_pv.maegz

> <i_m_Source_File_Index>
368

> <chembl_id>
CHEMBL1966628

> <chembl_pref_name>
None

> <i_lp_mmshare_version>
53161

> <r_lp_tautomer_probability>
0.999998420164496

> <s_lp_Force_Field>
OPLS_2005

> <r_lp_Energy>
7.06722

> <b_lp_Chiralities_Consistent>
1

> <s_lp_Variant>
CHEMBL267_lig3534-2

> <s_i_glide_gridfile>
glide-grid_3el8

> <i_i_glide_lignum>
4251

> <i_i_glide_rotatable_bonds>
3

> <r_i_docking_score>
-7.27437130708056

> <r_i_glide_ligand_efficiency>
-0.316277013351329

> <r_i_glide_ligand_efficiency_sa>
-0.899449753815844

> <r_i_glide_ligand_efficiency_ln>
-1.75900894240428

> <r_i_glide_gscore>
-7.27437130708056

> <r_i_glide_lipo>
-1.89488637392924

> <r_i_glide_hbond>
-0.808828298977003

> <r_i_glide_metal>
0

> <r_i_glide_rewards>
-2.43095128010544

> <r_i_glide_evdw>
-32.1900024414062

> <r_i_glide_ecoul>
-6.25828838348389

> <r_i_glide_erotb>
0.408538025524016

> <r_i_glide_esite>
0

> <r_i_glide_emodel>
-55.270035286392

> <r_i_glide_energy>
-38.4482908248901

> <r_i_glide_einternal>
2.36921215057373

> <i_i_glide_confnum>
17

> <i_i_glide_posenum>
133

> <r_i_glide_eff_state_penalty>
0

> <s_user_duplicate_titles>
CHEMBL267_lig3534

> <i_f3d_flags>
0

> <s_m_subgroup_title>
dock_pv

> <s_m_subgroupid>
dock_pv

> <b_m_subgroup_collapsed>
1

$$$$
CHEMBL267_lig2158
                    3D
 Schrodinger Suite 2021-1.
 32 34  0  0  1  0            999 V2000
    6.1301    6.0469    8.3061 O   0  0  0  0  0  0
    5.8974    7.1883    7.5880 C   0  0  0  0  0  0
    4.6763    7.7547    7.4092 C   0  0  0  0  0  0
    4.4694    8.8464    6.6269 O   0  0  0  0  0  0
    5.5174    9.3755    5.9079 C   0  0  0  0  0  0
    5.2038   10.4646    5.1049 C   0  0  0  0  0  0
    6.1961   11.0719    4.3526 C   0  0  0  0  0  0
    5.8889   12.1504    3.5766 O   0  0  0  0  0  0
    7.4949   10.5821    4.3918 C   0  0  0  0  0  0
    7.8080    9.4806    5.1891 C   0  0  0  0  0  0
    9.1061    9.0417    5.1881 O   0  0  0  0  0  0
    6.8209    8.8673    5.9843 C   0  0  0  0  0  0
    7.0999    7.7202    6.9140 C   0  0  0  0  0  0
    8.2418    7.2753    7.0618 O   0  0  0  0  0  0
    3.3893    7.3215    8.0267 C   0  0  0  0  0  0
    3.3440    6.6362    9.2508 C   0  0  0  0  0  0
    2.1408    6.1511    9.7566 C   0  0  0  0  0  0
    0.9490    6.3674    9.0696 C   0  0  0  0  0  0
   -0.2020    5.8502    9.6034 O   0  0  0  0  0  0
    0.9574    7.1136    7.8838 C   0  0  0  0  0  0
   -0.2019    7.4370    7.2180 O   0  0  0  0  0  0
    2.1724    7.5659    7.3671 C   0  0  0  0  0  0
    5.3019    5.6396    8.5745 H   0  0  0  0  0  0
    4.1928   10.8395    5.0707 H   0  0  0  0  0  0
    6.6492   12.4841    3.0967 H   0  0  0  0  0  0
    8.2723   11.0489    3.8053 H   0  0  0  0  0  0
    9.2191    8.2605    5.7456 H   0  0  0  0  0  0
    4.2344    6.4643    9.8371 H   0  0  0  0  0  0
    2.1358    5.6039   10.6889 H   0  0  0  0  0  0
   -0.9778    5.8370    9.0347 H   0  0  0  0  0  0
   -0.8654    6.7304    7.1878 H   0  0  0  0  0  0
    2.1612    8.1093    6.4330 H   0  0  0  0  0  0
  1  2  1  0  0  0
  1 23  1  0  0  0
  2  3  2  0  0  0
  2 13  1  0  0  0
  3  4  1  0  0  0
  3 15  1  0  0  0
  4  5  1  0  0  0
  5  6  2  0  0  0
  5 12  1  0  0  0
  6  7  1  0  0  0
  6 24  1  0  0  0
  7  8  1  0  0  0
  7  9  2  0  0  0
  8 25  1  0  0  0
  9 10  1  0  0  0
  9 26  1  0  0  0
 10 11  1  0  0  0
 10 12  2  0  0  0
 11 27  1  0  0  0
 12 13  1  0  0  0
 13 14  2  0  0  0
 15 16  2  0  0  0
 15 22  1  0  0  0
 16 17  1  0  0  0
 16 28  1  0  0  0
 17 18  2  0  0  0
 17 29  1  0  0  0
 18 19  1  0  0  0
 18 20  1  0  0  0
 19 30  1  0  0  0
 20 21  1  0  0  0
 20 22  2  0  0  0
 21 31  1  0  0  0
 22 32  1  0  0  0
M  END
> <s_m_entry_id>
32106

> <s_m_entry_name>
dock_pv.369

> <s_m_Source_Path>
/home/csk/Desktop/cluster/DUD-E-result/src

> <s_m_Source_File>
dock_pv.maegz

> <i_m_Source_File_Index>
369

> <chembl_id>
CHEMBL50

> <chembl_pref_name>
QUERCETIN

> <i_lp_mmshare_version>
53161

> <r_lp_tautomer_probability>
0.999999999999776

> <s_lp_Force_Field>
OPLS_2005

> <r_lp_Energy>
20.019118

> <b_lp_Chiralities_Consistent>
1

> <s_lp_Variant>
CHEMBL267_lig2158-1

> <s_i_glide_gridfile>
glide-grid_3el8

> <i_i_glide_lignum>
2443

> <i_i_glide_rotatable_bonds>
6

> <r_i_docking_score>
-7.26867427762846

> <r_i_glide_ligand_efficiency>
-0.330394285346748

> <r_i_glide_ligand_efficiency_sa>
-0.925777781211495

> <r_i_glide_ligand_efficiency_ln>
-1.77672912478863

> <r_i_glide_gscore>
-7.26867427762846

> <r_i_glide_lipo>
-2.77679747073084

> <r_i_glide_hbond>
-0.0527424787271256

> <r_i_glide_metal>
0

> <r_i_glide_rewards>
-1.34839295454545

> <r_i_glide_evdw>
-31.0007057189941

> <r_i_glide_ecoul>
-11.6149072647095

> <r_i_glide_erotb>
0.20153000203109

> <r_i_glide_esite>
0

> <r_i_glide_emodel>
-56.5710532480488

> <r_i_glide_energy>
-42.6156129837036

> <r_i_glide_einternal>
8.68821430206299

> <i_i_glide_confnum>
3

> <i_i_glide_posenum>
212

> <r_i_glide_eff_state_penalty>
0

> <s_user_duplicate_titles>
CHEMBL267_lig2158

> <i_f3d_flags>
0

> <s_m_subgroup_title>
dock_pv

> <s_m_subgroupid>
dock_pv

> <b_m_subgroup_collapsed>
1

$$$$
CHEMBL267_lig1115
                    3D
 Schrodinger Suite 2021-1.
 41 45  0  0  1  0            999 V2000
    2.4816    6.5203    9.3635 C   0  0  0  0  0  0
    1.3572    5.7253    9.1906 C   0  0  0  0  0  0
    0.6555    5.7568    7.9900 C   0  0  0  0  0  0
    2.9444    7.3489    8.3406 C   0  0  0  0  0  0
    2.2122    7.4453    7.1127 C   0  0  0  0  0  0
    1.0538    6.6215    6.9437 C   0  0  0  0  0  0
    0.3169    6.6376    5.7971 N   0  0  0  0  0  0
    0.7103    7.4916    4.8255 C   0  0  0  0  0  0
    1.7671    8.3308    4.8774 N   0  0  0  0  0  0
    2.5173    8.3012    6.0068 C   0  0  0  0  0  0
    3.6255    9.1551    6.0470 N   0  0  0  0  0  0
    3.9907   10.1971    5.1833 C   0  0  0  0  0  0
    5.1716   10.1372    4.4146 C   0  0  0  0  0  0
    5.5396   11.2126    3.5847 C   0  0  0  0  0  0
    4.7390   12.3603    3.4983 C   0  0  0  0  0  0
    3.2007   11.3402    5.0468 C   0  0  0  0  0  0
    3.5653   12.3839    4.2445 C   0  0  0  0  0  0
    2.6482   13.3828    4.3530 O   0  0  0  0  0  0
    1.5783   12.8364    5.0754 C   0  0  0  0  0  0
    2.0341   11.6536    5.6715 O   0  0  0  0  0  0
    6.1973    8.7438    4.4548 Cl  0  0  0  0  0  0
    4.1152    8.0417    8.5428 O   0  0  0  0  0  0
    5.3175    7.4319    8.2544 C   0  0  0  0  0  0
    5.5329    6.0492    8.3810 C   0  0  0  0  0  0
    6.7681    5.5286    7.9911 C   0  0  0  0  0  0
    7.7975    6.3082    7.5874 N   0  0  0  0  0  0
    7.5964    7.6434    7.5051 C   0  0  0  0  0  0
    6.3783    8.2375    7.8244 C   0  0  0  0  0  0
    3.0291    6.4659   10.2950 H   0  0  0  0  0  0
    1.0346    5.0690    9.9879 H   0  0  0  0  0  0
   -0.2016    5.1196    7.8549 H   0  0  0  0  0  0
    0.1226    7.5037    3.9161 H   0  0  0  0  0  0
    4.2157    9.0179    6.8566 H   0  0  0  0  0  0
    6.4505   11.1596    3.0080 H   0  0  0  0  0  0
    5.0295   13.1878    2.8670 H   0  0  0  0  0  0
    0.7613   12.5989    4.3897 H   0  0  0  0  0  0
    1.2296   13.5383    5.8347 H   0  0  0  0  0  0
    4.7585    5.3793    8.7197 H   0  0  0  0  0  0
    6.9626    4.4678    8.0298 H   0  0  0  0  0  0
    8.4319    8.2327    7.1571 H   0  0  0  0  0  0
    6.2553    9.3058    7.7216 H   0  0  0  0  0  0
  1  2  1  0  0  0
  1  4  2  0  0  0
  1 29  1  0  0  0
  2  3  2  0  0  0
  2 30  1  0  0  0
  3  6  1  0  0  0
  3 31  1  0  0  0
  4  5  1  0  0  0
  4 22  1  0  0  0
  5 10  2  0  0  0
  5  6  1  0  0  0
  6  7  2  0  0  0
  7  8  1  0  0  0
  8  9  2  0  0  0
  8 32  1  0  0  0
  9 10  1  0  0  0
 10 11  1  0  0  0
 11 12  1  0  0  0
 11 33  1  0  0  0
 12 16  2  0  0  0
 12 13  1  0  0  0
 13 14  2  0  0  0
 13 21  1  0  0  0
 14 15  1  0  0  0
 14 34  1  0  0  0
 15 17  2  0  0  0
 15 35  1  0  0  0
 16 17  1  0  0  0
 16 20  1  0  0  0
 17 18  1  0  0  0
 18 19  1  0  0  0
 19 20  1  0  0  0
 19 36  1  0  0  0
 19 37  1  0  0  0
 22 23  1  0  0  0
 23 24  2  0  0  0
 23 28  1  0  0  0
 24 25  1  0  0  0
 24 38  1  0  0  0
 25 26  2  0  0  0
 25 39  1  0  0  0
 26 27  1  0  0  0
 27 28  2  0  0  0
 27 40  1  0  0  0
 28 41  1  0  0  0
M  END
> <s_m_entry_id>
32107

> <s_m_entry_name>
dock_pv.370

> <s_m_Source_Path>
/home/csk/Desktop/cluster/DUD-E-result/src

> <s_m_Source_File>
dock_pv.maegz

> <i_m_Source_File_Index>
370

> <chembl_id>
CHEMBL215682

> <chembl_pref_name>
None

> <i_lp_mmshare_version>
53161

> <r_lp_tautomer_probability>
1

> <s_lp_Force_Field>
OPLS_2005

> <r_lp_Energy>
32.508514

> <b_lp_Chiralities_Consistent>
1

> <s_lp_Variant>
CHEMBL267_lig1115-1

> <s_i_glide_gridfile>
glide-grid_3el8

> <i_i_glide_lignum>
1257

> <i_i_glide_rotatable_bonds>
4

> <r_i_docking_score>
-7.26536192320275

> <r_i_glide_ligand_efficiency>
-0.259477211542955

> <r_i_glide_ligand_efficiency_sa>
-0.78792563814921

> <r_i_glide_ligand_efficiency_ln>
-1.67705885217061

> <r_i_glide_gscore>
-7.26536192320275

> <r_i_glide_lipo>
-2.99424985338994

> <r_i_glide_hbond>
-0.32

> <r_i_glide_metal>
0

> <r_i_glide_rewards>
-2.01737570292862

> <r_i_glide_evdw>
-38.6518325805664

> <r_i_glide_ecoul>
-3.38285660743713

> <r_i_glide_erotb>
0.506283753259696

> <r_i_glide_esite>
0

> <r_i_glide_emodel>
-58.8028536281417

> <r_i_glide_energy>
-42.0346891880035

> <r_i_glide_einternal>
3.97278380393982

> <i_i_glide_confnum>
9

> <i_i_glide_posenum>
198

> <r_i_glide_eff_state_penalty>
0

> <s_user_duplicate_titles>
CHEMBL267_lig1115,361436

> <i_f3d_flags>
0

> <s_m_subgroup_title>
dock_pv

> <s_m_subgroupid>
dock_pv

> <b_m_subgroup_collapsed>
1

$$$$
CHEMBL267_lig1682
                    3D
 Schrodinger Suite 2021-1.
 58 62  0  0  1  0            999 V2000
    0.2109    7.2306    3.8029 N   0  0  0  0  0  0
    0.9973    8.2761    4.1536 C   0  0  0  0  0  0
    1.6127    8.3665    5.4061 C   0  0  0  0  0  0
    1.4236    7.2867    6.2863 C   0  0  0  0  0  0
    0.6231    6.2370    5.9649 N   0  0  0  0  0  0
    0.0504    6.2630    4.7357 C   0  0  0  0  0  0
    2.0827    7.2262    7.5430 N   0  0  0  0  0  0
    3.7317    7.4709    9.0756 N   0  0  0  0  0  0
    3.4133    7.5274    7.8094 C   0  0  0  0  0  0
    2.6217    6.9671    9.6841 C   0  0  0  0  0  0
    1.5664    6.7788    8.7536 C   0  0  0  0  0  0
    0.3346    6.2370    9.1457 C   0  0  0  0  0  0
    0.1981    5.8838   10.4901 C   0  0  0  0  0  0
    1.2112    6.1071   11.4190 C   0  0  0  0  0  0
    2.4414    6.6371   11.0331 C   0  0  0  0  0  0
    4.2733    7.8408    6.7875 N   0  0  0  0  0  0
    5.6735    7.9261    6.7507 C   0  0  0  0  0  0
    6.1709    8.9193    5.9058 C   0  0  0  0  0  0
    7.5472    9.0966    5.7006 C   0  0  0  0  0  0
    8.4243    8.2370    6.3776 C   0  0  0  0  0  0
    7.9444    7.2468    7.2251 C   0  0  0  0  0  0
    6.5743    7.0557    7.4019 C   0  0  0  0  0  0
    6.1338    5.8161    8.1701 C   0  0  0  0  0  0
    1.1869    9.2604    3.1918 N   0  0  0  0  0  0
    8.0903   10.1845    4.7880 C   0  0  0  0  0  0
    9.2959   10.2372    4.5401 O   0  0  0  0  0  0
    7.1729   11.0371    4.2837 N   0  0  0  0  0  0
    7.2955   12.0038    3.2727 C   0  0  0  0  0  0
    8.4424   12.2076    2.4884 C   0  0  0  0  0  0
    8.4256   13.1418    1.4549 C   0  0  0  0  0  0
    6.1485   12.7601    3.0146 C   0  0  0  0  0  0
    6.1148   13.6838    1.9633 C   0  0  0  0  0  0
    7.2687   13.8711    1.1881 C   0  0  0  0  0  0
    4.8473   14.4439    1.6740 C   0  0  0  0  0  0
    4.5544   14.6370    0.3882 N   0  0  0  0  0  0
    4.1108   14.8411    2.5744 O   0  0  0  0  0  0
    2.2217    9.2182    5.6670 H   0  0  0  0  0  0
   -0.5947    5.4381    4.4719 H   0  0  0  0  0  0
   -0.4731    6.0720    8.4483 H   0  0  0  0  0  0
   -0.7328    5.4466   10.8258 H   0  0  0  0  0  0
    1.0465    5.8371   12.4522 H   0  0  0  0  0  0
    3.2399    6.7702   11.7487 H   0  0  0  0  0  0
    3.8605    8.1348    5.9168 H   0  0  0  0  0  0
    5.4564    9.5510    5.3991 H   0  0  0  0  0  0
    9.4945    8.3319    6.2516 H   0  0  0  0  0  0
    8.6522    6.6065    7.7241 H   0  0  0  0  0  0
    6.9067    5.0461    8.1847 H   0  0  0  0  0  0
    5.8694    6.0620    9.1882 H   0  0  0  0  0  0
    5.2595    5.3581    7.7158 H   0  0  0  0  0  0
    1.7755   10.0568    3.3780 H   0  0  0  0  0  0
    0.7700    9.1077    2.2808 H   0  0  0  0  0  0
    6.2400   10.9407    4.6475 H   0  0  0  0  0  0
    9.3495   11.6449    2.6397 H   0  0  0  0  0  0
    9.3066   13.2891    0.8476 H   0  0  0  0  0  0
    5.2602   12.6083    3.6130 H   0  0  0  0  0  0
    7.2766   14.5770    0.3691 H   0  0  0  0  0  0
    3.7260   15.1539    0.1428 H   0  0  0  0  0  0
    5.0157   14.0638   -0.3150 H   0  0  0  0  0  0
  1  6  2  0  0  0
  1  2  1  0  0  0
  2  3  2  0  0  0
  2 24  1  0  0  0
  3  4  1  0  0  0
  3 37  1  0  0  0
  4  5  2  0  0  0
  4  7  1  0  0  0
  5  6  1  0  0  0
  6 38  1  0  0  0
  7  9  1  0  0  0
  7 11  1  0  0  0
  8 10  1  0  0  0
  8  9  2  0  0  0
  9 16  1  0  0  0
 10 11  2  0  0  0
 10 15  1  0  0  0
 11 12  1  0  0  0
 12 13  2  0  0  0
 12 39  1  0  0  0
 13 14  1  0  0  0
 13 40  1  0  0  0
 14 15  2  0  0  0
 14 41  1  0  0  0
 15 42  1  0  0  0
 16 17  1  0  0  0
 16 43  1  0  0  0
 17 18  2  0  0  0
 17 22  1  0  0  0
 18 19  1  0  0  0
 18 44  1  0  0  0
 19 20  2  0  0  0
 19 25  1  0  0  0
 20 21  1  0  0  0
 20 45  1  0  0  0
 21 22  2  0  0  0
 21 46  1  0  0  0
 22 23  1  0  0  0
 23 47  1  0  0  0
 23 48  1  0  0  0
 23 49  1  0  0  0
 24 50  1  0  0  0
 24 51  1  0  0  0
 25 26  2  0  0  0
 25 27  1  0  0  0
 27 28  1  0  0  0
 27 52  1  0  0  0
 28 29  2  0  0  0
 28 31  1  0  0  0
 29 30  1  0  0  0
 29 53  1  0  0  0
 30 33  2  0  0  0
 30 54  1  0  0  0
 31 32  2  0  0  0
 31 55  1  0  0  0
 32 33  1  0  0  0
 32 34  1  0  0  0
 33 56  1  0  0  0
 34 35  1  0  0  0
 34 36  2  0  0  0
 35 57  1  0  0  0
 35 58  1  0  0  0
M  END
> <s_m_entry_id>
32108

> <s_m_entry_name>
dock_pv.371

> <s_m_Source_Path>
/home/csk/Desktop/cluster/DUD-E-result/src

> <s_m_Source_File>
dock_pv.maegz

> <i_m_Source_File_Index>
371

> <chembl_id>
CHEMBL1080930

> <chembl_pref_name>
None

> <i_lp_mmshare_version>
53161

> <r_lp_tautomer_probability>
1

> <s_lp_Force_Field>
OPLS_2005

> <r_lp_Energy>
33.083926

> <b_lp_Chiralities_Consistent>
1

> <s_lp_Variant>
CHEMBL267_lig1682-1

> <s_i_glide_gridfile>
glide-grid_3el8

> <i_i_glide_lignum>
1910

> <i_i_glide_rotatable_bonds>
7

> <r_i_docking_score>
-7.26440161352853

> <r_i_glide_ligand_efficiency>
-0.201788933709126

> <r_i_glide_ligand_efficiency_sa>
-0.666292377943664

> <r_i_glide_ligand_efficiency_ln>
-1.58489617062113

> <r_i_glide_gscore>
-7.26440161352853

> <r_i_glide_lipo>
-2.84547619845642

> <r_i_glide_hbond>
-0.296768984919946

> <r_i_glide_metal>
0

> <r_i_glide_rewards>
-1.52778271864915

> <r_i_glide_evdw>
-50.4295845031738

> <r_i_glide_ecoul>
-3.87394976615906

> <r_i_glide_erotb>
0.531035155775196

> <r_i_glide_esite>
-0.0228371771956722

> <r_i_glide_emodel>
-68.9277979382946

> <r_i_glide_energy>
-54.3035342693329

> <r_i_glide_einternal>
11.5614099502563

> <i_i_glide_confnum>
1

> <i_i_glide_posenum>
140

> <r_i_glide_eff_state_penalty>
0

> <s_user_duplicate_titles>
CHEMBL267_lig1682

> <i_f3d_flags>
0

> <s_m_subgroup_title>
dock_pv

> <s_m_subgroupid>
dock_pv

> <b_m_subgroup_collapsed>
1

$$$$
CHEMBL267_lig3478
                    3D
 Schrodinger Suite 2021-1.
 34 37  0  0  1  0            999 V2000
    1.0684    7.3851    4.7826 S   0  0  0  0  0  0
    3.2124    9.0637    5.0851 N   0  0  0  0  0  0
    4.1001   10.6502    3.7295 N   0  0  0  0  0  0
    2.2774    7.9847    6.9733 N   0  0  0  0  0  0
    1.7779   10.4261    3.6709 N   0  0  0  0  0  0
    8.3376    7.0925    7.5825 N   0  0  0  0  0  0
    4.5815    9.0404    5.2889 C   0  0  0  0  0  0
    2.2640    8.2581    5.6891 C   0  0  0  0  0  0
    5.1011   10.0362    4.4261 C   0  0  0  0  0  0
    3.0072   10.0639    4.1385 C   0  0  0  0  0  0
    5.4071    8.2662    6.1104 C   0  0  0  0  0  0
    1.3765    7.0849    7.3370 C   0  0  0  0  0  0
    6.4830   10.2667    4.3794 C   0  0  0  0  0  0
    6.7807    8.5163    6.0487 C   0  0  0  0  0  0
    0.5983    6.6308    6.2688 C   0  0  0  0  0  0
    1.2672    6.6419    8.7730 C   0  0  0  0  0  0
    7.3112    9.4926    5.1963 C   0  0  0  0  0  0
    7.6552    7.7278    6.9039 C   0  0  0  0  0  0
    0.1989    5.8307    9.1802 C   0  0  0  0  0  0
    2.2196    7.0283    9.7288 C   0  0  0  0  0  0
    0.0649    5.4366   10.5075 C   0  0  0  0  0  0
    2.0854    6.6337   11.0589 C   0  0  0  0  0  0
    0.9986    5.8553   11.4459 C   0  0  0  0  0  0
    0.9449    9.9170    3.9249 H   0  0  0  0  0  0
    1.6884   11.1273    2.9493 H   0  0  0  0  0  0
    4.9977    7.5048    6.7612 H   0  0  0  0  0  0
    6.8941   11.0265    3.7308 H   0  0  0  0  0  0
   -0.2014    5.9053    6.2754 H   0  0  0  0  0  0
    8.3802    9.6637    5.1719 H   0  0  0  0  0  0
   -0.5520    5.5059    8.4779 H   0  0  0  0  0  0
    3.0663    7.6375    9.4501 H   0  0  0  0  0  0
   -0.7751    4.8264   10.8093 H   0  0  0  0  0  0
    2.8236    6.9354   11.7879 H   0  0  0  0  0  0
    0.8882    5.5590   12.4786 H   0  0  0  0  0  0
  1  8  1  0  0  0
  1 15  1  0  0  0
  2  7  1  0  0  0
  2  8  1  0  0  0
  2 10  1  0  0  0
  3  9  1  0  0  0
  3 10  2  0  0  0
  4  8  2  0  0  0
  4 12  1  0  0  0
  5 10  1  0  0  0
  5 24  1  0  0  0
  5 25  1  0  0  0
  6 18  3  0  0  0
  7  9  1  0  0  0
  7 11  2  0  0  0
  9 13  2  0  0  0
 11 14  1  0  0  0
 11 26  1  0  0  0
 12 15  2  0  0  0
 12 16  1  0  0  0
 13 17  1  0  0  0
 13 27  1  0  0  0
 14 17  2  0  0  0
 14 18  1  0  0  0
 15 28  1  0  0  0
 16 19  2  0  0  0
 16 20  1  0  0  0
 17 29  1  0  0  0
 19 21  1  0  0  0
 19 30  1  0  0  0
 20 22  2  0  0  0
 20 31  1  0  0  0
 21 23  2  0  0  0
 21 32  1  0  0  0
 22 23  1  0  0  0
 22 33  1  0  0  0
 23 34  1  0  0  0
M  END
> <s_m_entry_id>
32109

> <s_m_entry_name>
dock_pv.372

> <s_m_Source_Path>
/home/csk/Desktop/cluster/DUD-E-result/src

> <s_m_Source_File>
dock_pv.maegz

> <i_m_Source_File_Index>
372

> <chembl_id>
CHEMBL1996066

> <chembl_pref_name>
None

> <i_lp_mmshare_version>
53161

> <r_lp_tautomer_probability>
1

> <s_lp_Force_Field>
OPLS_2005

> <r_lp_Energy>
15.377287

> <b_lp_Chiralities_Consistent>
1

> <s_lp_Variant>
CHEMBL267_lig3478-1

> <s_i_glide_gridfile>
glide-grid_3el8

> <i_i_glide_lignum>
4175

> <i_i_glide_rotatable_bonds>
2

> <r_i_docking_score>
-7.26020736784957

> <r_i_glide_ligand_efficiency>
-0.315661189906503

> <r_i_glide_ligand_efficiency_sa>
-0.897698433857515

> <r_i_glide_ligand_efficiency_ln>
-1.75558397346673

> <r_i_glide_gscore>
-7.26020736784957

> <r_i_glide_lipo>
-2.62159115679475

> <r_i_glide_hbond>
-0.238218612767467

> <r_i_glide_metal>
0

> <r_i_glide_rewards>
-2.29937940714944

> <r_i_glide_evdw>
-37.7528190612793

> <r_i_glide_ecoul>
-3.88867211341858

> <r_i_glide_erotb>
0.369923578938838

> <r_i_glide_esite>
0

> <r_i_glide_emodel>
-59.6180760575046

> <r_i_glide_energy>
-41.6414911746979

> <r_i_glide_einternal>
0.113983064889908

> <i_i_glide_confnum>
4

> <i_i_glide_posenum>
40

> <r_i_glide_eff_state_penalty>
0

> <s_user_duplicate_titles>
CHEMBL267_lig3478

> <i_f3d_flags>
0

> <s_m_subgroup_title>
dock_pv

> <s_m_subgroupid>
dock_pv

> <b_m_subgroup_collapsed>
1

$$$$
CHEMBL267_lig3651
                    3D
 Schrodinger Suite 2021-1.
 26 27  0  0  1  0            999 V2000
    1.9981    9.0175    5.0991 S   0  0  0  0  0  0
    1.7981   10.3343    2.4234 S   0  0  0  0  0  0
   -0.2019    6.0728    3.9882 O   0  0  0  0  0  0
    1.3689    5.8569   11.3258 O   0  0  0  0  0  0
    3.8014    7.0422   11.4260 O   0  0  0  0  0  0
    0.7020    7.9876    3.1880 N   0  0  0  0  0  0
    1.1764    7.4692    5.3617 C   0  0  0  0  0  0
    0.4821    7.0811    4.1521 C   0  0  0  0  0  0
    1.8316    6.8422    7.7538 C   0  0  0  0  0  0
    1.1269    6.6822    6.4628 C   0  0  0  0  0  0
    1.4416    9.0867    3.4521 C   0  0  0  0  0  0
    1.8904    6.3674   10.1516 C   0  0  0  0  0  0
    1.2476    6.2957    8.9030 C   0  0  0  0  0  0
    3.1369    6.9937   10.2308 C   0  0  0  0  0  0
    3.0751    7.4776    7.8680 C   0  0  0  0  0  0
    3.7211    7.5570    9.0998 C   0  0  0  0  0  0
    0.0085    5.4563   11.3521 C   0  0  0  0  0  0
    3.5531    6.3055   11.9912 H   0  0  0  0  0  0
    0.3272    7.8397    2.2538 H   0  0  0  0  0  0
    0.5168    5.7901    6.4149 H   0  0  0  0  0  0
    0.2921    5.7987    8.8141 H   0  0  0  0  0  0
    3.5772    7.8819    7.0030 H   0  0  0  0  0  0
    4.6870    8.0339    9.1740 H   0  0  0  0  0  0
   -0.3173    5.3214   12.3828 H   0  0  0  0  0  0
   -0.6056    6.2390   10.9184 H   0  0  0  0  0  0
   -0.1506    4.5234   10.8089 H   0  0  0  0  0  0
  1  7  1  0  0  0
  1 11  1  0  0  0
  2 11  2  0  0  0
  3  8  2  0  0  0
  4 12  1  0  0  0
  4 17  1  0  0  0
  5 14  1  0  0  0
  5 18  1  0  0  0
  6  8  1  0  0  0
  6 11  1  0  0  0
  6 19  1  0  0  0
  7  8  1  0  0  0
  7 10  2  3  0  0
  9 10  1  0  0  0
  9 13  1  0  0  0
  9 15  2  0  0  0
 10 20  1  0  0  0
 12 13  2  0  0  0
 12 14  1  0  0  0
 13 21  1  0  0  0
 14 16  2  0  0  0
 15 16  1  0  0  0
 15 22  1  0  0  0
 16 23  1  0  0  0
 17 24  1  0  0  0
 17 25  1  0  0  0
 17 26  1  0  0  0
M  END
> <s_m_entry_id>
32110

> <s_m_entry_name>
dock_pv.373

> <s_m_Source_Path>
/home/csk/Desktop/cluster/DUD-E-result/src

> <s_m_Source_File>
dock_pv.maegz

> <i_m_Source_File_Index>
373

> <chembl_id>
CHEMBL1973098

> <chembl_pref_name>
None

> <i_lp_mmshare_version>
53161

> <r_lp_tautomer_probability>
1

> <s_lp_Force_Field>
OPLS_2005

> <r_lp_Energy>
13.302511

> <b_lp_Chiralities_Consistent>
1

> <s_lp_Variant>
CHEMBL267_lig3651-2

> <s_i_glide_gridfile>
glide-grid_3el8

> <i_i_glide_lignum>
4422

> <i_i_glide_rotatable_bonds>
3

> <r_i_docking_score>
-7.25916095009297

> <r_i_glide_ligand_efficiency>
-0.427009467652528

> <r_i_glide_ligand_efficiency_sa>
-1.0979615821748

> <r_i_glide_ligand_efficiency_ln>
-1.8937534383128

> <r_i_glide_gscore>
-7.25916095009297

> <r_i_glide_lipo>
-1.70772674617459

> <r_i_glide_hbond>
-0.32

> <r_i_glide_metal>
0

> <r_i_glide_rewards>
-2.76594230731033

> <r_i_glide_evdw>
-32.9920120239258

> <r_i_glide_ecoul>
-6.64625835418701

> <r_i_glide_erotb>
0.249501434128099

> <r_i_glide_esite>
-0.0684539764118061

> <r_i_glide_emodel>
-54.9397632908911

> <r_i_glide_energy>
-39.6382703781128

> <r_i_glide_einternal>
3.71603894233704

> <i_i_glide_confnum>
3

> <i_i_glide_posenum>
352

> <r_i_glide_eff_state_penalty>
0

> <s_user_duplicate_titles>
CHEMBL267_lig3651

> <i_f3d_flags>
0

> <s_m_subgroup_title>
dock_pv

> <s_m_subgroupid>
dock_pv

> <b_m_subgroup_collapsed>
1

$$$$
CHEMBL267_lig3734
                    3D
 Schrodinger Suite 2021-1.
 37 39  0  0  1  0            999 V2000
    5.1771    8.7820    5.9887 S   0  0  0  0  0  0
    8.1202    6.9235    7.5870 O   0  0  0  0  0  0
    0.4373    8.1544    7.8428 O   0  0  0  0  0  0
   -0.2020    5.8150    9.1876 O   0  0  0  0  0  0
    7.6757    8.5240    6.0585 N   0  0  0  0  0  0
    7.0168   10.2019    4.5358 N   0  0  0  0  0  0
    5.8696    7.6290    7.1334 C   0  0  0  0  0  0
    7.3078    7.6277    6.9820 C   0  0  0  0  0  0
    6.7888    9.2896    5.3989 C   0  0  0  0  0  0
    3.8134    6.6281    8.3155 C   0  0  0  0  0  0
    5.2603    6.8062    8.0230 C   0  0  0  0  0  0
    1.4525    7.2911    8.2169 C   0  0  0  0  0  0
    2.8147    7.5502    7.9728 C   0  0  0  0  0  0
    1.1016    6.1060    8.8779 C   0  0  0  0  0  0
    3.4199    5.4371    8.9304 C   0  0  0  0  0  0
    5.9996   10.9286    3.9002 C   0  0  0  0  0  0
    2.0833    5.1846    9.2292 C   0  0  0  0  0  0
    5.0909   10.3294    3.0144 C   0  0  0  0  0  0
    5.8972   12.3044    4.1275 C   0  0  0  0  0  0
    4.1001   11.0844    2.3883 C   0  0  0  0  0  0
    4.9154   13.0678    3.5028 C   0  0  0  0  0  0
    4.0200   12.4528    2.6345 C   0  0  0  0  0  0
    0.7121    9.1316    6.8408 C   0  0  0  0  0  0
   -0.8474    6.2281    8.6011 H   0  0  0  0  0  0
    8.6569    8.6250    5.8543 H   0  0  0  0  0  0
    5.8979    6.1740    8.6283 H   0  0  0  0  0  0
    3.0915    8.4841    7.5173 H   0  0  0  0  0  0
    4.1570    4.6896    9.1875 H   0  0  0  0  0  0
    1.8093    4.2603    9.7215 H   0  0  0  0  0  0
    5.1562    9.2669    2.8137 H   0  0  0  0  0  0
    6.5954   12.7928    4.7878 H   0  0  0  0  0  0
    3.4021   10.6212    1.7072 H   0  0  0  0  0  0
    4.8614   14.1316    3.6829 H   0  0  0  0  0  0
    3.2612   13.0439    2.1378 H   0  0  0  0  0  0
   -0.2050    9.6443    6.5667 H   0  0  0  0  0  0
    1.4065    9.8910    7.1977 H   0  0  0  0  0  0
    1.1180    8.6789    5.9320 H   0  0  0  0  0  0
  1  7  1  0  0  0
  1  9  1  0  0  0
  2  8  2  0  0  0
  3 12  1  0  0  0
  3 23  1  0  0  0
  4 14  1  0  0  0
  4 24  1  0  0  0
  5  8  1  0  0  0
  5  9  1  0  0  0
  5 25  1  0  0  0
  6  9  2  3  0  0
  6 16  1  0  0  0
  7  8  1  0  0  0
  7 11  2  3  0  0
 10 11  1  0  0  0
 10 13  1  0  0  0
 10 15  2  0  0  0
 11 26  1  0  0  0
 12 13  2  0  0  0
 12 14  1  0  0  0
 13 27  1  0  0  0
 14 17  2  0  0  0
 15 17  1  0  0  0
 15 28  1  0  0  0
 16 18  2  0  0  0
 16 19  1  0  0  0
 17 29  1  0  0  0
 18 20  1  0  0  0
 18 30  1  0  0  0
 19 21  2  0  0  0
 19 31  1  0  0  0
 20 22  2  0  0  0
 20 32  1  0  0  0
 21 22  1  0  0  0
 21 33  1  0  0  0
 22 34  1  0  0  0
 23 35  1  0  0  0
 23 36  1  0  0  0
 23 37  1  0  0  0
M  END
> <s_m_entry_id>
32112

> <s_m_entry_name>
dock_pv.375

> <s_m_Source_Path>
/home/csk/Desktop/cluster/DUD-E-result/src

> <s_m_Source_File>
dock_pv.maegz

> <i_m_Source_File_Index>
375

> <chembl_id>
CHEMBL1970522

> <chembl_pref_name>
None

> <i_lp_mmshare_version>
53161

> <r_lp_tautomer_probability>
1

> <s_lp_Force_Field>
OPLS_2005

> <r_lp_Energy>
21.527101

> <b_lp_Chiralities_Consistent>
1

> <s_lp_Variant>
CHEMBL267_lig3734-3

> <s_i_glide_gridfile>
glide-grid_3el8

> <i_i_glide_lignum>
4556

> <i_i_glide_rotatable_bonds>
4

> <r_i_docking_score>
-7.25420579400552

> <r_i_glide_ligand_efficiency>
-0.315400251913283

> <r_i_glide_ligand_efficiency_sa>
-0.896956360915585

> <r_i_glide_ligand_efficiency_ln>
-1.75413273849197

> <r_i_glide_gscore>
-7.25420579400552

> <r_i_glide_lipo>
-1.94172150976351

> <r_i_glide_hbond>
-0.395703888917767

> <r_i_glide_metal>
0

> <r_i_glide_rewards>
-2.30833022237369

> <r_i_glide_evdw>
-36.2806510925293

> <r_i_glide_ecoul>
-6.46986961364746

> <r_i_glide_erotb>
0.176062823723035

> <r_i_glide_esite>
0

> <r_i_glide_emodel>
-59.1593117975695

> <r_i_glide_energy>
-42.7505207061768

> <r_i_glide_einternal>
4.69624423980713

> <i_i_glide_confnum>
1

> <i_i_glide_posenum>
68

> <r_i_glide_eff_state_penalty>
0

> <s_user_duplicate_titles>
CHEMBL267_lig3734

> <i_f3d_flags>
0

> <s_m_subgroup_title>
dock_pv

> <s_m_subgroupid>
dock_pv

> <b_m_subgroup_collapsed>
1

$$$$
CHEMBL267_lig323
                    3D
 Schrodinger Suite 2021-1.
 34 36  0  0  1  0            999 V2000
    2.2944    6.6905    8.8827 C   0  0  0  0  0  0
    2.1210    7.9284    8.1196 C   0  0  0  0  0  0
    1.1429    5.9436    9.3788 C   0  0  0  0  0  0
    3.5417    6.1666    9.0320 C   0  0  0  0  0  0
    3.2519    8.4333    7.5013 O   0  0  0  0  0  0
    4.5038    7.8456    7.5606 C   0  0  0  0  0  0
    4.7159    6.7176    8.3544 C   0  0  0  0  0  0
    1.2024    4.6402    9.0537 N   0  0  0  0  0  0
    5.5347    8.3798    6.7880 C   0  0  0  0  0  0
    1.0646    8.5984    7.9428 N   0  0  0  0  0  0
    0.1980    6.4636    9.9632 O   0  0  0  0  0  0
    5.9691    6.1029    8.3649 C   0  0  0  0  0  0
    0.2292    3.6379    9.0450 C   0  0  0  0  0  0
    6.7890    7.7697    6.8004 C   0  0  0  0  0  0
   -1.4343    1.5214    8.3880 C   0  0  0  0  0  0
    7.0050    6.6369    7.5880 C   0  0  0  0  0  0
   -1.1564    3.8188    9.1138 C   0  0  0  0  0  0
    0.7446    2.3819    8.7770 C   0  0  0  0  0  0
   -0.0686    1.3276    8.4089 C   0  0  0  0  0  0
   -1.9928    2.7436    8.7880 C   0  0  0  0  0  0
    7.7971    8.2623    6.0160 O   0  0  0  0  0  0
   -2.2020    0.4707    7.9880 O   0  0  0  0  0  0
    3.6831    5.2486    9.5880 H   0  0  0  0  0  0
    2.0924    4.3343    8.6963 H   0  0  0  0  0  0
    5.3568    9.2464    6.1697 H   0  0  0  0  0  0
    1.2722    9.3944    7.3581 H   0  0  0  0  0  0
    6.1421    5.2103    8.9501 H   0  0  0  0  0  0
    7.9698    6.1569    7.5959 H   0  0  0  0  0  0
   -1.5897    4.7854    9.3241 H   0  0  0  0  0  0
    1.7980    2.2369    8.7877 H   0  0  0  0  0  0
    0.3560    0.3681    8.1505 H   0  0  0  0  0  0
   -3.0651    2.8765    8.7876 H   0  0  0  0  0  0
    8.5800    7.7044    5.9979 H   0  0  0  0  0  0
   -2.9534    0.7953    7.4525 H   0  0  0  0  0  0
  1  2  1  0  0  0
  1  3  1  0  0  0
  1  4  2  0  0  0
  2  5  1  0  0  0
  2 10  2  0  0  0
  3  8  1  0  0  0
  3 11  2  0  0  0
  4  7  1  0  0  0
  4 23  1  0  0  0
  5  6  1  0  0  0
  6  7  1  0  0  0
  6  9  2  0  0  0
  7 12  2  0  0  0
  8 13  1  0  0  0
  8 24  1  0  0  0
  9 14  1  0  0  0
  9 25  1  0  0  0
 10 26  1  0  0  0
 12 16  1  0  0  0
 12 27  1  0  0  0
 13 17  2  0  0  0
 13 18  1  0  0  0
 14 16  2  0  0  0
 14 21  1  0  0  0
 15 19  1  0  0  0
 15 22  1  0  0  0
 15 20  2  0  0  0
 16 28  1  0  0  0
 17 20  1  0  0  0
 17 29  1  0  0  0
 18 19  2  0  0  0
 18 30  1  0  0  0
 19 31  1  0  0  0
 20 32  1  0  0  0
 21 33  1  0  0  0
 22 34  1  0  0  0
M  END
> <s_m_entry_id>
32113

> <s_m_entry_name>
dock_pv.376

> <s_m_Source_Path>
/home/csk/Desktop/cluster/DUD-E-result/src

> <s_m_Source_File>
dock_pv.maegz

> <i_m_Source_File_Index>
376

> <chembl_id>
CHEMBL79252

> <chembl_pref_name>
None

> <i_lp_mmshare_version>
53161

> <r_lp_tautomer_probability>
0.999999999997365

> <s_lp_Force_Field>
OPLS_2005

> <r_lp_Energy>
36.793577

> <b_lp_Chiralities_Consistent>
1

> <s_lp_Variant>
CHEMBL267_lig323-1

> <s_i_glide_gridfile>
glide-grid_3el8

> <i_i_glide_lignum>
389

> <i_i_glide_rotatable_bonds>
5

> <r_i_docking_score>
-7.25358531766089

> <r_i_glide_ligand_efficiency>
-0.32970842353004

> <r_i_glide_ligand_efficiency_sa>
-0.923855969427665

> <r_i_glide_ligand_efficiency_ln>
-1.77304083258937

> <r_i_glide_gscore>
-7.25358531766089

> <r_i_glide_lipo>
-3.0669586869936

> <r_i_glide_hbond>
-0.195701282705171

> <r_i_glide_metal>
0

> <r_i_glide_rewards>
-1.61957263192899

> <r_i_glide_evdw>
-31.1947059631348

> <r_i_glide_ecoul>
-9.58425998687744

> <r_i_glide_erotb>
0.626021580155232

> <r_i_glide_esite>
0

> <r_i_glide_emodel>
-53.2455816395129

> <r_i_glide_energy>
-40.7789659500122

> <r_i_glide_einternal>
15.3818349838257

> <i_i_glide_confnum>
3

> <i_i_glide_posenum>
396

> <r_i_glide_eff_state_penalty>
0

> <s_user_duplicate_titles>
CHEMBL267_lig323

> <i_f3d_flags>
0

> <s_m_subgroup_title>
dock_pv

> <s_m_subgroupid>
dock_pv

> <b_m_subgroup_collapsed>
1

$$$$
CHEMBL267_lig100
                    3D
 Schrodinger Suite 2021-1.
 50 54  0  0  1  0            999 V2000
    5.2976    8.6923    6.0604 C   0  0  0  0  0  0
    5.0555    7.8083    7.1507 C   0  0  0  0  0  0
    3.6706    7.9443    7.5264 C   0  0  0  0  0  0
    4.0864    9.2757    5.7101 N   0  0  0  0  0  0
    3.1203    8.7759    6.5673 C   0  0  0  0  0  0
    6.4918    8.8871    5.4766 N   0  0  0  0  0  0
    6.1659    7.0371    7.5482 C   0  0  0  0  0  0
    2.9848    7.3718    8.7198 C   0  0  0  0  0  0
    7.3955    7.2221    7.0095 N   0  0  0  0  0  0
    7.4916    8.1408    6.0171 C   0  0  0  0  0  0
    3.8784   10.2185    4.5925 C   0  0  0  0  0  0
    1.7371    6.7372    8.6520 C   0  0  0  0  0  0
    1.1362    6.2357    9.8148 C   0  0  0  0  0  0
   -0.0987    5.6315    9.7745 O   0  0  0  0  0  0
    6.0111    5.9432    8.3882 N   0  0  0  0  0  0
   -0.2436    4.3121    9.3888 C   0  0  0  0  0  0
    3.6156    7.5056    9.9607 C   0  0  0  0  0  0
    3.0109    7.0289   11.1205 C   0  0  0  0  0  0
    1.7757    6.3883   11.0454 C   0  0  0  0  0  0
    3.8226    9.4976    3.2395 C   0  0  0  0  0  0
    2.5556   11.0072    4.6408 C   0  0  0  0  0  0
    0.8320    3.4351    9.2140 C   0  0  0  0  0  0
   -1.5425    3.8373    9.1877 C   0  0  0  0  0  0
    1.5427   10.1946    3.8128 C   0  0  0  0  0  0
    2.3464    9.1185    3.0637 C   0  0  0  0  0  0
   -1.7725    2.5608    8.6900 C   0  0  0  0  0  0
    0.5946    2.1341    8.7880 C   0  0  0  0  0  0
   -0.6926    1.7176    8.4563 C   0  0  0  0  0  0
    2.0963    9.1030    6.4701 H   0  0  0  0  0  0
    8.4747    8.2683    5.5852 H   0  0  0  0  0  0
    4.7431   10.8782    4.6875 H   0  0  0  0  0  0
    1.2322    6.6278    7.7034 H   0  0  0  0  0  0
    5.0997    5.7541    8.7817 H   0  0  0  0  0  0
    6.8067    5.3601    8.6040 H   0  0  0  0  0  0
    4.5724    8.0025   10.0312 H   0  0  0  0  0  0
    3.5060    7.1390   12.0750 H   0  0  0  0  0  0
    1.3068    6.0121   11.9430 H   0  0  0  0  0  0
    4.1247   10.1871    2.4492 H   0  0  0  0  0  0
    4.4916    8.6381    3.1762 H   0  0  0  0  0  0
    2.2105   11.2265    5.6518 H   0  0  0  0  0  0
    2.7093   11.9771    4.1645 H   0  0  0  0  0  0
    1.8428    3.7410    9.4393 H   0  0  0  0  0  0
   -2.3793    4.5009    9.3440 H   0  0  0  0  0  0
    1.0106   10.8407    3.1132 H   0  0  0  0  0  0
    0.7892    9.7325    4.4525 H   0  0  0  0  0  0
    2.0648    9.0496    2.0112 H   0  0  0  0  0  0
    2.1549    8.1404    3.5089 H   0  0  0  0  0  0
   -2.7811    2.2262    8.4930 H   0  0  0  0  0  0
    1.3974    1.4265    8.7880 H   0  0  0  0  0  0
   -0.8652    0.7080    8.1123 H   0  0  0  0  0  0
  1  2  1  0  0  0
  1  4  1  0  0  0
  1  6  2  0  0  0
  2  3  1  0  0  0
  2  7  2  0  0  0
  3  8  1  0  0  0
  3  5  2  0  0  0
  4  5  1  0  0  0
  4 11  1  0  0  0
  5 29  1  0  0  0
  6 10  1  0  0  0
  7 15  1  0  0  0
  7  9  1  0  0  0
  8 12  2  0  0  0
  8 17  1  0  0  0
  9 10  2  0  0  0
 10 30  1  0  0  0
 11 20  1  0  0  0
 11 21  1  0  0  0
 11 31  1  0  0  0
 12 13  1  0  0  0
 12 32  1  0  0  0
 13 14  1  0  0  0
 13 19  2  0  0  0
 14 16  1  0  0  0
 15 33  1  0  0  0
 15 34  1  0  0  0
 16 22  2  0  0  0
 16 23  1  0  0  0
 17 18  2  0  0  0
 17 35  1  0  0  0
 18 19  1  0  0  0
 18 36  1  0  0  0
 19 37  1  0  0  0
 20 25  1  0  0  0
 20 38  1  0  0  0
 20 39  1  0  0  0
 21 24  1  0  0  0
 21 40  1  0  0  0
 21 41  1  0  0  0
 22 27  1  0  0  0
 22 42  1  0  0  0
 23 26  2  0  0  0
 23 43  1  0  0  0
 24 25  1  0  0  0
 24 44  1  0  0  0
 24 45  1  0  0  0
 25 46  1  0  0  0
 25 47  1  0  0  0
 26 28  1  0  0  0
 26 48  1  0  0  0
 27 28  2  0  0  0
 27 49  1  0  0  0
 28 50  1  0  0  0
M  END
> <s_m_entry_id>
32114

> <s_m_entry_name>
dock_pv.377

> <s_m_Source_Path>
/home/csk/Desktop/cluster/DUD-E-result/src

> <s_m_Source_File>
dock_pv.maegz

> <i_m_Source_File_Index>
377

> <chembl_id>
CHEMBL69638

> <chembl_pref_name>
None

> <i_lp_mmshare_version>
53161

> <r_lp_tautomer_probability>
1

> <s_lp_Force_Field>
OPLS_2005

> <r_lp_Energy>
40.463758

> <b_lp_Chiralities_Consistent>
1

> <s_lp_Variant>
CHEMBL267_lig100-1

> <s_i_glide_gridfile>
glide-grid_3el8

> <i_i_glide_lignum>
135

> <i_i_glide_rotatable_bonds>
4

> <r_i_docking_score>
-7.24946166751564

> <r_i_glide_ligand_efficiency>
-0.258909345268416

> <r_i_glide_ligand_efficiency_sa>
-0.786201261684358

> <r_i_glide_ligand_efficiency_ln>
-1.67338860630623

> <r_i_glide_gscore>
-7.24946166751564

> <r_i_glide_lipo>
-3.41478817824776

> <r_i_glide_hbond>
0

> <r_i_glide_metal>
0

> <r_i_glide_rewards>
-1.85212610680986

> <r_i_glide_evdw>
-42.2343940734863

> <r_i_glide_ecoul>
-2.88770127296448

> <r_i_glide_erotb>
0.562327512160967

> <r_i_glide_esite>
0

> <r_i_glide_emodel>
-59.422148309075

> <r_i_glide_energy>
-45.1220953464508

> <r_i_glide_einternal>
7.09877824783325

> <i_i_glide_confnum>
90

> <i_i_glide_posenum>
291

> <r_i_glide_eff_state_penalty>
0

> <s_user_duplicate_titles>
CHEMBL267_lig100

> <i_f3d_flags>
0

> <s_m_subgroup_title>
dock_pv

> <s_m_subgroupid>
dock_pv

> <b_m_subgroup_collapsed>
1

$$$$
CHEMBL267_lig579
                    3D
 Schrodinger Suite 2021-1.
 57 60  0  0  1  0            999 V2000
    2.6895    5.3267    8.2941 C   0  0  0  0  0  0
    0.5466    4.0376    8.8032 C   0  0  0  0  0  0
   -1.2331   -1.0128    7.9456 S   0  0  0  0  0  0
   -0.1654    5.1033    9.4650 C   0  0  0  0  0  0
    1.7947    4.1779    8.3348 C   0  0  0  0  0  0
    3.9534    5.1466    8.7880 N   0  0  0  0  0  0
   -0.3635    2.8881    8.7659 C   0  0  0  0  0  0
   -1.4019    4.6370    9.5899 N   0  0  0  0  0  0
    2.6066    6.6036    7.7271 C   0  0  0  0  0  0
   -1.5785    3.3517    9.1873 C   0  0  0  0  0  0
    3.9595    7.1066    7.7226 C   0  0  0  0  0  0
   -1.3732    0.7133    8.3882 C   0  0  0  0  0  0
    4.7869    6.1434    8.3670 C   0  0  0  0  0  0
   -0.2508    1.5499    8.3879 C   0  0  0  0  0  0
    0.1968   -1.3247    7.9325 O   0  0  0  0  0  0
   -2.1654   -1.7690    8.7891 O   0  0  0  0  0  0
   -1.7982   -1.1443    6.2915 N   0  0  3  0  0  0
    0.2079    6.2193    9.8235 O   0  0  0  0  0  0
   -2.7209    2.5587    9.1916 C   0  0  0  0  0  0
   -2.6043    1.2266    8.7891 C   0  0  0  0  0  0
    1.4347    7.3026    7.0524 C   0  0  0  0  0  0
    1.1803    7.9798    3.9693 N   0  0  0  0  0  0
    4.5748    8.2369    7.1590 C   0  0  0  0  0  0
    6.1788    6.2354    8.3879 C   0  0  0  0  0  0
    0.7868    6.4718    5.9251 C   0  0  0  0  0  0
    0.1591    7.3365    4.8075 C   0  0  0  0  0  0
   -3.2284   -1.1240    5.9472 C   0  0  0  0  0  0
    1.7615    7.0242    3.0288 C   0  0  0  0  0  0
    0.6001    9.0696    3.1889 C   0  0  0  0  0  0
    5.9652    8.3406    7.1845 C   0  0  0  0  0  0
    6.7472    7.3532    7.7735 C   0  0  0  0  0  0
    2.1980    3.2979    7.8673 H   0  0  0  0  0  0
    4.2145    4.3150    9.2992 H   0  0  0  0  0  0
   -2.1358    5.2375    9.9745 H   0  0  0  0  0  0
    0.6797    1.1432    8.0690 H   0  0  0  0  0  0
   -1.1160   -0.9601    5.5512 H   0  0  0  0  0  0
   -3.6781    2.9442    9.5096 H   0  0  0  0  0  0
   -3.4828    0.5982    8.7890 H   0  0  0  0  0  0
    1.7798    8.2494    6.6364 H   0  0  0  0  0  0
    0.6729    7.5946    7.7731 H   0  0  0  0  0  0
    3.9874    8.9902    6.6558 H   0  0  0  0  0  0
    6.7927    5.4573    8.8191 H   0  0  0  0  0  0
    0.0241    5.8233    6.3538 H   0  0  0  0  0  0
    1.5373    5.8085    5.4994 H   0  0  0  0  0  0
   -0.4210    8.1230    5.2940 H   0  0  0  0  0  0
   -0.5533    6.7608    4.2128 H   0  0  0  0  0  0
   -3.4122   -0.3603    5.1893 H   0  0  0  0  0  0
   -3.5261   -2.1046    5.5782 H   0  0  0  0  0  0
   -3.8271   -0.9071    6.8319 H   0  0  0  0  0  0
    2.1979    6.1589    3.5224 H   0  0  0  0  0  0
    2.5247    7.4853    2.3991 H   0  0  0  0  0  0
    0.9980    6.6371    2.3719 H   0  0  0  0  0  0
    0.1982    9.8354    3.8487 H   0  0  0  0  0  0
    1.3620    9.5508    2.5734 H   0  0  0  0  0  0
   -0.1969    8.7276    2.5233 H   0  0  0  0  0  0
    6.4453    9.1929    6.7246 H   0  0  0  0  0  0
    7.8226    7.4585    7.7552 H   0  0  0  0  0  0
  1  5  1  0  0  0
  1  6  1  0  0  0
  1  9  2  0  0  0
  2  5  2  0  0  0
  2  4  1  0  0  0
  2  7  1  0  0  0
  3 12  1  0  0  0
  3 15  2  0  0  0
  3 16  2  0  0  0
  3 17  1  0  0  0
  4  8  1  0  0  0
  4 18  2  0  0  0
  5 32  1  0  0  0
  6 13  1  0  0  0
  6 33  1  0  0  0
  7 10  1  0  0  0
  7 14  2  0  0  0
  8 10  1  0  0  0
  8 34  1  0  0  0
  9 11  1  0  0  0
  9 21  1  0  0  0
 10 19  2  0  0  0
 11 23  1  0  0  0
 11 13  2  0  0  0
 12 14  1  0  0  0
 12 20  2  0  0  0
 13 24  1  0  0  0
 14 35  1  0  0  0
 17 27  1  0  0  0
 17 36  1  0  0  0
 19 20  1  0  0  0
 19 37  1  0  0  0
 20 38  1  0  0  0
 21 25  1  0  0  0
 21 39  1  0  0  0
 21 40  1  0  0  0
 22 26  1  0  0  0
 22 28  1  0  0  0
 22 29  1  0  0  0
 23 30  2  0  0  0
 23 41  1  0  0  0
 24 31  2  0  0  0
 24 42  1  0  0  0
 25 26  1  0  0  0
 25 43  1  0  0  0
 25 44  1  0  0  0
 26 45  1  0  0  0
 26 46  1  0  0  0
 27 47  1  0  0  0
 27 48  1  0  0  0
 27 49  1  0  0  0
 28 50  1  0  0  0
 28 51  1  0  0  0
 28 52  1  0  0  0
 29 53  1  0  0  0
 29 54  1  0  0  0
 29 55  1  0  0  0
 30 31  1  0  0  0
 30 56  1  0  0  0
 31 57  1  0  0  0
M  END
> <s_m_entry_id>
32115

> <s_m_entry_name>
dock_pv.378

> <s_m_Source_Path>
/home/csk/Desktop/cluster/DUD-E-result/src

> <s_m_Source_File>
dock_pv.maegz

> <i_m_Source_File_Index>
378

> <chembl_id>
CHEMBL300321

> <chembl_pref_name>
None

> <i_lp_mmshare_version>
53161

> <r_lp_tautomer_probability>
1

> <s_lp_Force_Field>
OPLS_2005

> <r_lp_Energy>
34.995098

> <b_lp_Chiralities_Consistent>
1

> <s_lp_Variant>
CHEMBL267_lig579-1

> <s_i_glide_gridfile>
glide-grid_3el8

> <i_i_glide_lignum>
682

> <i_i_glide_rotatable_bonds>
7

> <r_i_docking_score>
-7.24675009268943

> <r_i_glide_ligand_efficiency>
-0.23376613202224

> <r_i_glide_ligand_efficiency_sa>
-0.734348403478455

> <r_i_glide_ligand_efficiency_ln>
-1.63436423212026

> <r_i_glide_gscore>
-7.24675009268943

> <r_i_glide_lipo>
-3.75877510853206

> <r_i_glide_hbond>
-0.326673020536506

> <r_i_glide_metal>
0

> <r_i_glide_rewards>
-0.986058992003451

> <r_i_glide_evdw>
-33.0408325195312

> <r_i_glide_ecoul>
-6.38337659835815

> <r_i_glide_erotb>
0.518683639999196

> <r_i_glide_esite>
-0.0843784958863261

> <r_i_glide_emodel>
-36.149168210124

> <r_i_glide_energy>
-39.4242091178894

> <r_i_glide_einternal>
10.9121646881104

> <i_i_glide_confnum>
23

> <i_i_glide_posenum>
10

> <r_i_glide_eff_state_penalty>
0

> <s_user_duplicate_titles>
CHEMBL267_lig579,86499

> <i_f3d_flags>
0

> <s_m_subgroup_title>
dock_pv

> <s_m_subgroupid>
dock_pv

> <b_m_subgroup_collapsed>
1

$$$$
CHEMBL267_lig3534
                    3D
 Schrodinger Suite 2021-1.
 43 46  0  0  1  0            999 V2000
    8.1890    8.4804    5.6393 N   0  0  0  0  0  0
    3.7565    9.8318    5.7939 N   0  0  0  0  0  0
    7.9198    6.6372    7.1881 N   0  0  0  0  0  0
    2.7401   11.9017    5.1118 N   0  0  0  0  0  0
    1.3718   10.1108    5.7246 N   0  0  0  0  0  0
    1.6559    4.9318    8.2140 N   0  0  0  0  0  0
    6.1437    9.4523    5.7934 C   0  0  0  0  0  0
    6.1976    8.3184    6.6860 C   0  0  0  0  0  0
    4.9859   10.3613    5.5525 C   0  0  0  0  0  0
    7.4864    7.7299    6.5528 C   0  0  0  0  0  0
    7.3962    9.5139    5.1946 C   0  0  0  0  0  0
    2.6733   10.6169    5.5497 C   0  0  0  0  0  0
    5.3096    7.7007    7.5870 C   0  0  0  0  0  0
    5.1440   11.6783    5.1107 C   0  0  0  0  0  0
    3.9806   12.4170    4.8988 C   0  0  0  0  0  0
    5.7169    6.5298    8.2251 C   0  0  0  0  0  0
    1.0027    8.8029    6.2874 C   0  0  2  0  0  0
    6.9981    6.0344    7.9870 C   0  0  0  0  0  0
    1.3502    8.7386    7.7942 C   0  0  0  0  0  0
    1.5413    7.6135    5.4457 C   0  0  0  0  0  0
    1.7910    6.2283    7.5806 C   0  0  2  0  0  0
    1.0886    7.3381    8.3870 C   0  0  0  0  0  0
    1.2884    6.2476    6.1211 C   0  0  0  0  0  0
    9.1340    8.3165    5.3164 H   0  0  0  0  0  0
    0.6209   10.7583    5.5399 H   0  0  0  0  0  0
    2.1908    4.2403    7.7085 H   0  0  0  0  0  0
    2.0317    4.9610    9.1514 H   0  0  0  0  0  0
    7.7838   10.2096    4.4636 H   0  0  0  0  0  0
    4.3289    8.1068    7.7582 H   0  0  0  0  0  0
    6.1191   12.1055    4.9303 H   0  0  0  0  0  0
    4.0284   13.4384    4.5453 H   0  0  0  0  0  0
    5.0502    6.0099    8.8993 H   0  0  0  0  0  0
   -0.0872    8.7763    6.2254 H   0  0  0  0  0  0
    7.3194    5.1200    8.4658 H   0  0  0  0  0  0
    2.3865    9.0204    7.9667 H   0  0  0  0  0  0
    0.7608    9.4749    8.3416 H   0  0  0  0  0  0
    1.0697    7.6205    4.4623 H   0  0  0  0  0  0
    2.6082    7.6999    5.2603 H   0  0  0  0  0  0
    2.8541    6.4606    7.5573 H   0  0  0  0  0  0
    0.0144    7.1358    8.4168 H   0  0  0  0  0  0
    1.4327    7.3185    9.4234 H   0  0  0  0  0  0
    0.2217    6.0140    6.0916 H   0  0  0  0  0  0
    1.7973    5.4732    5.5477 H   0  0  0  0  0  0
  1 10  1  0  0  0
  1 11  1  0  0  0
  1 24  1  0  0  0
  2  9  2  0  0  0
  2 12  1  0  0  0
  3 10  2  0  0  0
  3 18  1  0  0  0
  4 12  2  0  0  0
  4 15  1  0  0  0
  5 12  1  0  0  0
  5 17  1  0  0  0
  5 25  1  0  0  0
  6 21  1  0  0  0
  6 26  1  0  0  0
  6 27  1  0  0  0
  7  8  1  0  0  0
  7  9  1  0  0  0
  7 11  2  0  0  0
  8 10  1  0  0  0
  8 13  2  0  0  0
  9 14  1  0  0  0
 11 28  1  0  0  0
 13 16  1  0  0  0
 13 29  1  0  0  0
 14 15  2  0  0  0
 14 30  1  0  0  0
 15 31  1  0  0  0
 16 18  2  0  0  0
 16 32  1  0  0  0
 17 19  1  0  0  0
 17 20  1  0  0  0
 17 33  1  0  0  0
 18 34  1  0  0  0
 19 22  1  0  0  0
 19 35  1  0  0  0
 19 36  1  0  0  0
 20 23  1  0  0  0
 20 37  1  0  0  0
 20 38  1  0  0  0
 21 22  1  0  0  0
 21 23  1  0  0  0
 21 39  1  0  0  0
 22 40  1  0  0  0
 22 41  1  0  0  0
 23 42  1  0  0  0
 23 43  1  0  0  0
M  END
> <s_m_entry_id>
32116

> <s_m_entry_name>
dock_pv.379

> <s_m_Source_Path>
/home/csk/Desktop/cluster/DUD-E-result/src

> <s_m_Source_File>
dock_pv.maegz

> <i_m_Source_File_Index>
379

> <chembl_id>
CHEMBL1966628

> <chembl_pref_name>
None

> <i_lp_mmshare_version>
53161

> <r_lp_tautomer_probability>
0.999998420164496

> <s_lp_Force_Field>
OPLS_2005

> <r_lp_Energy>
2.497116

> <b_lp_Chiralities_Consistent>
1

> <s_lp_Variant>
CHEMBL267_lig3534-1

> <s_i_glide_gridfile>
glide-grid_3el8

> <i_i_glide_lignum>
4250

> <i_i_glide_rotatable_bonds>
3

> <r_i_docking_score>
-7.24251303563594

> <r_i_glide_ligand_efficiency>
-0.314891871114606

> <r_i_glide_ligand_efficiency_sa>
-0.895510593550548

> <r_i_glide_ligand_efficiency_ln>
-1.75130532349414

> <r_i_glide_gscore>
-7.24251303563594

> <r_i_glide_lipo>
-2.57358516448243

> <r_i_glide_hbond>
-0.375675908523826

> <r_i_glide_metal>
0

> <r_i_glide_rewards>
-2.52177412616564

> <r_i_glide_evdw>
-34.9681396484375

> <r_i_glide_ecoul>
-2.87739253044128

> <r_i_glide_erotb>
0.408538025524016

> <r_i_glide_esite>
0

> <r_i_glide_emodel>
-52.5811020967094

> <r_i_glide_energy>
-37.8455321788788

> <r_i_glide_einternal>
3.9193012714386

> <i_i_glide_confnum>
10

> <i_i_glide_posenum>
233

> <r_i_glide_eff_state_penalty>
0

> <s_user_duplicate_titles>
CHEMBL267_lig3534

> <i_f3d_flags>
0

> <s_m_subgroup_title>
dock_pv

> <s_m_subgroupid>
dock_pv

> <b_m_subgroup_collapsed>
1

$$$$
CHEMBL267_lig427
                    3D
 Schrodinger Suite 2021-1.
 60 63  0  0  1  0            999 V2000
    5.2989    8.6883    6.2375 C   0  0  0  0  0  0
    4.2418    8.2035    7.0957 C   0  0  0  0  0  0
    5.1284    9.6733    5.2313 N   0  0  0  0  0  0
    4.5343    7.1325    7.9935 C   0  0  0  0  0  0
    6.5952    8.1654    6.4482 C   0  0  0  0  0  0
    4.0283   10.1715    4.5091 C   0  0  0  0  0  0
    2.9322    8.7445    7.1485 C   0  0  0  0  0  0
    5.7805    6.6078    8.1081 N   0  0  0  0  0  0
    3.5166    6.5946    8.8180 C   0  0  0  0  0  0
    2.2185    7.1272    8.8010 C   0  0  0  0  0  0
    7.7817    8.6452    5.7421 C   0  0  0  0  0  0
    8.7189    9.0369    5.1890 N   0  0  0  0  0  0
    1.9291    8.2074    7.9606 C   0  0  0  0  0  0
   -1.1337    2.6318    8.4093 N   0  0  2  0  0  0
    2.9631    9.3402    4.1364 C   0  0  0  0  0  0
    6.7790    7.1487    7.3805 C   0  0  0  0  0  0
    3.9720   11.5369    4.1863 C   0  0  0  0  0  0
    1.1658    6.6691    9.5759 O   0  0  0  0  0  0
    2.8628   12.0487    3.5133 C   0  0  0  0  0  0
    1.8261    9.8582    3.4992 C   0  0  0  0  0  0
    0.3227    2.4391    8.5088 C   0  0  0  0  0  0
   -1.7650    3.4355    9.4726 C   0  0  0  0  0  0
    5.2481   12.6268    4.6173 Cl  0  0  0  0  0  0
    1.3143    5.6441   10.5572 C   0  0  0  0  0  0
    0.6393    8.7118    7.9882 O   0  0  0  0  0  0
    1.7966   11.2152    3.1820 C   0  0  0  0  0  0
    0.5415    4.3776   10.1189 C   0  0  0  0  0  0
   -0.9471    4.6627    9.8994 C   0  0  0  0  0  0
    1.0707    3.7487    8.8249 C   0  0  0  0  0  0
    0.7022    9.1228    3.1837 O   0  0  0  0  0  0
   -1.8018    1.3330    8.3478 C   0  0  0  0  0  0
    0.2726    9.7869    7.1317 C   0  0  0  0  0  0
    0.6655    7.7314    3.4836 C   0  0  0  0  0  0
    5.9997   10.0914    4.9353 H   0  0  0  0  0  0
    2.7199    9.6233    6.5740 H   0  0  0  0  0  0
    3.7890    5.7676    9.4549 H   0  0  0  0  0  0
    2.9985    8.2954    4.3991 H   0  0  0  0  0  0
    7.7548    6.7161    7.5541 H   0  0  0  0  0  0
    2.8202   13.0985    3.2606 H   0  0  0  0  0  0
    0.5385    1.7226    9.3037 H   0  0  0  0  0  0
    0.6856    1.9835    7.5899 H   0  0  0  0  0  0
   -1.9361    2.8382   10.3648 H   0  0  0  0  0  0
   -2.7601    3.7308    9.1352 H   0  0  0  0  0  0
    2.3404    5.4357   10.8453 H   0  0  0  0  0  0
    0.8612    6.0254   11.4735 H   0  0  0  0  0  0
    0.9327   11.6261    2.6801 H   0  0  0  0  0  0
    0.5976    3.6223   10.9014 H   0  0  0  0  0  0
   -1.3587    5.0371   10.8340 H   0  0  0  0  0  0
   -1.0965    5.4720    9.1878 H   0  0  0  0  0  0
    1.0248    4.4461    7.9881 H   0  0  0  0  0  0
    2.1347    3.5449    8.9402 H   0  0  0  0  0  0
   -1.5532    0.8047    7.4276 H   0  0  0  0  0  0
   -1.5202    0.6956    9.1874 H   0  0  0  0  0  0
   -2.8857    1.4456    8.3880 H   0  0  0  0  0  0
   -0.6980   10.1502    7.4522 H   0  0  0  0  0  0
    0.9462   10.6396    7.1879 H   0  0  0  0  0  0
    0.1990    9.4605    6.0942 H   0  0  0  0  0  0
   -0.3013    7.3262    3.1850 H   0  0  0  0  0  0
    0.7808    7.5434    4.5521 H   0  0  0  0  0  0
    1.4356    7.1841    2.9375 H   0  0  0  0  0  0
  1  2  1  0  0  0
  1  3  1  0  0  0
  1  5  2  0  0  0
  2  4  1  0  0  0
  2  7  2  0  0  0
  3  6  1  0  0  0
  3 34  1  0  0  0
  4  9  2  0  0  0
  4  8  1  0  0  0
  5 11  1  0  0  0
  5 16  1  0  0  0
  6 15  2  0  0  0
  6 17  1  0  0  0
  7 13  1  0  0  0
  7 35  1  0  0  0
  8 16  2  0  0  0
  9 10  1  0  0  0
  9 36  1  0  0  0
 10 13  2  0  0  0
 10 18  1  0  0  0
 11 12  3  0  0  0
 13 25  1  0  0  0
 14 21  1  0  0  0
 14 31  1  0  0  0
 14 22  1  0  0  0
 15 20  1  0  0  0
 15 37  1  0  0  0
 16 38  1  0  0  0
 17 19  2  0  0  0
 17 23  1  0  0  0
 18 24  1  0  0  0
 19 26  1  0  0  0
 19 39  1  0  0  0
 20 30  1  0  0  0
 20 26  2  0  0  0
 21 29  1  0  0  0
 21 40  1  0  0  0
 21 41  1  0  0  0
 22 28  1  0  0  0
 22 42  1  0  0  0
 22 43  1  0  0  0
 24 27  1  0  0  0
 24 44  1  0  0  0
 24 45  1  0  0  0
 25 32  1  0  0  0
 26 46  1  0  0  0
 27 28  1  0  0  0
 27 29  1  0  0  0
 27 47  1  0  0  0
 28 48  1  0  0  0
 28 49  1  0  0  0
 29 50  1  0  0  0
 29 51  1  0  0  0
 30 33  1  0  0  0
 31 52  1  0  0  0
 31 53  1  0  0  0
 31 54  1  0  0  0
 32 55  1  0  0  0
 32 56  1  0  0  0
 32 57  1  0  0  0
 33 58  1  0  0  0
 33 59  1  0  0  0
 33 60  1  0  0  0
M  END
> <s_m_entry_id>
32117

> <s_m_entry_name>
dock_pv.380

> <s_m_Source_Path>
/home/csk/Desktop/cluster/DUD-E-result/src

> <s_m_Source_File>
dock_pv.maegz

> <i_m_Source_File_Index>
380

> <chembl_id>
CHEMBL290664

> <chembl_pref_name>
None

> <i_lp_mmshare_version>
53161

> <r_lp_tautomer_probability>
1

> <s_lp_Force_Field>
OPLS_2005

> <r_lp_Energy>
45.132119

> <b_lp_Chiralities_Consistent>
1

> <s_lp_Variant>
CHEMBL267_lig427-1

> <s_i_glide_gridfile>
glide-grid_3el8

> <i_i_glide_lignum>
507

> <i_i_glide_rotatable_bonds>
7

> <r_i_docking_score>
-7.23831924807178

> <r_i_glide_ligand_efficiency>
-0.219343007517327

> <r_i_glide_ligand_efficiency_sa>
-0.703550225836368

> <r_i_glide_ligand_efficiency_ln>
-1.60976472275988

> <r_i_glide_gscore>
-7.23831924807178

> <r_i_glide_lipo>
-3.29744800263471

> <r_i_glide_hbond>
-0.232469770922433

> <r_i_glide_metal>
0

> <r_i_glide_rewards>
-1.42145802799721

> <r_i_glide_evdw>
-45.9511222839355

> <r_i_glide_ecoul>
-3.0139524936676

> <r_i_glide_erotb>
0.462705541729494

> <r_i_glide_esite>
0

> <r_i_glide_emodel>
-67.5074428754887

> <r_i_glide_energy>
-48.9650747776031

> <r_i_glide_einternal>
3.44420766830444

> <i_i_glide_confnum>
2

> <i_i_glide_posenum>
173

> <r_i_glide_eff_state_penalty>
0

> <s_user_duplicate_titles>
CHEMBL267_lig427,61194

> <i_f3d_flags>
0

> <s_m_subgroup_title>
dock_pv

> <s_m_subgroupid>
dock_pv

> <b_m_subgroup_collapsed>
1

$$$$
CHEMBL267_lig3556
                    3D
 Schrodinger Suite 2021-1.
 41 44  0  0  1  0            999 V2000
    0.4869    7.9134    6.1210 S   0  0  0  0  0  0
   -0.6017    8.6314    6.7880 O   0  0  0  0  0  0
    1.3775    8.5910    5.1756 O   0  0  0  0  0  0
    6.5319   10.2188    5.2806 N   0  0  0  0  0  0
    5.6202    8.5268    6.8337 N   0  0  0  0  0  0
    7.2352    6.8843    7.5886 N   0  0  0  0  0  0
    5.0633    6.7728    8.3611 N   0  0  0  0  0  0
   -0.2018    6.5572    5.2832 N   0  0  0  0  0  0
    6.5956    9.0836    6.0970 C   0  0  0  0  0  0
    7.9319    8.5914    6.0543 C   0  0  0  0  0  0
    5.9976    7.4351    7.5554 C   0  0  0  0  0  0
    5.4121   11.0381    4.9624 C   0  0  0  0  0  0
    7.7971   10.3887    4.7387 C   0  0  0  0  0  0
    8.6821    9.4324    5.1880 C   0  0  0  0  0  0
    8.1977    7.4648    6.8360 C   0  0  0  0  0  0
    3.6603    6.7905    8.4097 C   0  0  0  0  0  0
    1.4821    7.2156    7.4256 C   0  0  0  0  0  0
    2.8738    7.2838    7.3628 C   0  0  0  0  0  0
    5.6092   12.3874    4.6321 C   0  0  0  0  0  0
    4.1045   10.5348    5.0169 C   0  0  0  0  0  0
    3.0266    6.2304    9.5236 C   0  0  0  0  0  0
    0.8622    6.6329    8.5340 C   0  0  0  0  0  0
    1.6354    6.1465    9.5857 C   0  0  0  0  0  0
    4.5254   13.2080    4.3397 C   0  0  0  0  0  0
    3.0208   11.3616    4.7304 C   0  0  0  0  0  0
    3.2344   12.6932    4.3906 C   0  0  0  0  0  0
    5.4829    6.0246    8.8912 H   0  0  0  0  0  0
   -1.0630    6.2384    5.7417 H   0  0  0  0  0  0
   -0.3505    6.7379    4.2878 H   0  0  0  0  0  0
    7.9768   11.1946    4.0422 H   0  0  0  0  0  0
    9.7266    9.3501    4.9175 H   0  0  0  0  0  0
    9.1874    7.0366    6.8682 H   0  0  0  0  0  0
    3.3321    7.6934    6.4787 H   0  0  0  0  0  0
    6.5959   12.8249    4.5996 H   0  0  0  0  0  0
    3.9063    9.5020    5.2554 H   0  0  0  0  0  0
    3.6078    5.8390   10.3449 H   0  0  0  0  0  0
   -0.2157    6.5594    8.5839 H   0  0  0  0  0  0
    1.1584    5.6992   10.4459 H   0  0  0  0  0  0
    4.6904   14.2433    4.0784 H   0  0  0  0  0  0
    2.0150   10.9714    4.7629 H   0  0  0  0  0  0
    2.3920   13.3301    4.1638 H   0  0  0  0  0  0
  1  2  2  0  0  0
  1  3  2  0  0  0
  1  8  1  0  0  0
  1 17  1  0  0  0
  4  9  1  0  0  0
  4 12  1  0  0  0
  4 13  1  0  0  0
  5  9  2  0  0  0
  5 11  1  0  0  0
  6 11  2  0  0  0
  6 15  1  0  0  0
  7 11  1  0  0  0
  7 16  1  0  0  0
  7 27  1  0  0  0
  8 28  1  0  0  0
  8 29  1  0  0  0
  9 10  1  0  0  0
 10 14  1  0  0  0
 10 15  2  0  0  0
 12 19  2  0  0  0
 12 20  1  0  0  0
 13 14  2  0  0  0
 13 30  1  0  0  0
 14 31  1  0  0  0
 15 32  1  0  0  0
 16 18  2  0  0  0
 16 21  1  0  0  0
 17 18  1  0  0  0
 17 22  2  0  0  0
 18 33  1  0  0  0
 19 24  1  0  0  0
 19 34  1  0  0  0
 20 25  2  0  0  0
 20 35  1  0  0  0
 21 23  2  0  0  0
 21 36  1  0  0  0
 22 23  1  0  0  0
 22 37  1  0  0  0
 23 38  1  0  0  0
 24 26  2  0  0  0
 24 39  1  0  0  0
 25 26  1  0  0  0
 25 40  1  0  0  0
 26 41  1  0  0  0
M  END
> <s_m_entry_id>
32118

> <s_m_entry_name>
dock_pv.381

> <s_m_Source_Path>
/home/csk/Desktop/cluster/DUD-E-result/src

> <s_m_Source_File>
dock_pv.maegz

> <i_m_Source_File_Index>
381

> <chembl_id>
CHEMBL1988163

> <chembl_pref_name>
None

> <i_lp_mmshare_version>
53161

> <r_lp_tautomer_probability>
1

> <s_lp_Force_Field>
OPLS_2005

> <r_lp_Energy>
17.914909

> <b_lp_Chiralities_Consistent>
1

> <s_lp_Variant>
CHEMBL267_lig3556-1

> <s_i_glide_gridfile>
glide-grid_3el8

> <i_i_glide_lignum>
4283

> <i_i_glide_rotatable_bonds>
4

> <r_i_docking_score>
-7.23140316007478

> <r_i_glide_ligand_efficiency>
-0.278130890772107

> <r_i_glide_ligand_efficiency_sa>
-0.823961669520158

> <r_i_glide_ligand_efficiency_ln>
-1.69827130397444

> <r_i_glide_gscore>
-7.23140316007478

> <r_i_glide_lipo>
-2.24440262973078

> <r_i_glide_hbond>
-0.32

> <r_i_glide_metal>
0

> <r_i_glide_rewards>
-2.06534342350573

> <r_i_glide_evdw>
-37.8197822570801

> <r_i_glide_ecoul>
-7.14277982711792

> <r_i_glide_erotb>
0.432186503357526

> <r_i_glide_esite>
-0.0714375232741057

> <r_i_glide_emodel>
-63.0581424275555

> <r_i_glide_energy>
-44.962562084198

> <r_i_glide_einternal>
0.973505139350891

> <i_i_glide_confnum>
7

> <i_i_glide_posenum>
148

> <r_i_glide_eff_state_penalty>
0

> <s_user_duplicate_titles>
CHEMBL267_lig3556

> <i_f3d_flags>
0

> <s_m_subgroup_title>
dock_pv

> <s_m_subgroupid>
dock_pv

> <b_m_subgroup_collapsed>
1

$$$$
CHEMBL267_lig3452
                    3D
 Schrodinger Suite 2021-1.
 32 33  0  0  1  0            999 V2000
    6.7016    5.8730    8.1920 O   0  0  0  0  0  0
    8.9875    7.0370    7.1880 O   0  0  0  0  0  0
    2.5719    8.3634    8.6364 N   0  0  0  0  0  0
    1.8915    7.3596    9.1880 N   0  0  0  0  0  0
    0.1980    5.7535    8.7488 N   0  0  0  0  0  0
    0.1794    6.7401    4.8055 N   0  0  0  0  0  0
    0.9980   11.0172    5.5880 N   0  0  0  0  0  0
    2.2317    8.3645    7.3619 C   0  0  0  0  0  0
    1.2770    7.3485    7.0990 C   0  0  0  0  0  0
    2.7723    9.3399    6.4217 C   0  0  0  0  0  0
    1.0455    6.7357    8.3239 C   0  0  0  0  0  0
    5.2986    8.7751    6.3092 C   0  0  0  0  0  0
    4.0442    9.4991    5.9880 C   0  0  0  0  0  0
    6.5955    7.0370    7.4486 C   0  0  0  0  0  0
    0.6627    7.0107    5.8209 C   0  0  0  0  0  0
    5.3723    7.6597    7.1538 C   0  0  0  0  0  0
    7.7645    7.5707    6.8948 C   0  0  0  0  0  0
    1.7721   10.2370    5.9458 C   0  0  0  0  0  0
    6.4831    9.2507    5.7363 C   0  0  0  0  0  0
    7.7050    8.6477    6.0179 C   0  0  0  0  0  0
    5.5316    5.2737    8.7423 C   0  0  0  0  0  0
    9.6352    7.1885    6.4886 H   0  0  0  0  0  0
    1.9752    7.1281   10.1671 H   0  0  0  0  0  0
   -0.5600    5.4370    8.1521 H   0  0  0  0  0  0
    0.1602    5.4370    9.7072 H   0  0  0  0  0  0
    4.1824   10.3063    5.2805 H   0  0  0  0  0  0
    4.4754    7.2307    7.5525 H   0  0  0  0  0  0
    6.4699   10.1035    5.0724 H   0  0  0  0  0  0
    8.6093    9.0410    5.5767 H   0  0  0  0  0  0
    5.7980    4.3182    9.1880 H   0  0  0  0  0  0
    5.0880    5.9008    9.5167 H   0  0  0  0  0  0
    4.7764    5.0582    7.9880 H   0  0  0  0  0  0
  1 14  1  0  0  0
  1 21  1  0  0  0
  2 17  1  0  0  0
  2 22  1  0  0  0
  3  4  1  0  0  0
  3  8  2  0  0  0
  4 11  1  0  0  0
  4 23  1  0  0  0
  5 11  1  0  0  0
  5 24  1  0  0  0
  5 25  1  0  0  0
  6 15  3  0  0  0
  7 18  3  0  0  0
  8  9  1  0  0  0
  8 10  1  0  0  0
  9 11  2  0  0  0
  9 15  1  0  0  0
 10 13  2  3  0  0
 10 18  1  0  0  0
 12 13  1  0  0  0
 12 16  1  0  0  0
 12 19  2  0  0  0
 13 26  1  0  0  0
 14 16  2  0  0  0
 14 17  1  0  0  0
 16 27  1  0  0  0
 17 20  2  0  0  0
 19 20  1  0  0  0
 19 28  1  0  0  0
 20 29  1  0  0  0
 21 30  1  0  0  0
 21 31  1  0  0  0
 21 32  1  0  0  0
M  END
> <s_m_entry_id>
32119

> <s_m_entry_name>
dock_pv.382

> <s_m_Source_Path>
/home/csk/Desktop/cluster/DUD-E-result/src

> <s_m_Source_File>
dock_pv.maegz

> <i_m_Source_File_Index>
382

> <chembl_id>
CHEMBL2002407

> <chembl_pref_name>
None

> <i_lp_mmshare_version>
53161

> <r_lp_tautomer_probability>
1

> <s_lp_Force_Field>
OPLS_2005

> <r_lp_Energy>
18.873651

> <b_lp_Chiralities_Consistent>
1

> <s_lp_Variant>
CHEMBL267_lig3452-1

> <s_i_glide_gridfile>
glide-grid_3el8

> <i_i_glide_lignum>
4137

> <i_i_glide_rotatable_bonds>
4

> <r_i_docking_score>
-7.22828518648067

> <r_i_glide_ligand_efficiency>
-0.34420405649908

> <r_i_glide_ligand_efficiency_sa>
-0.949632892120038

> <r_i_glide_ligand_efficiency_ln>
-1.78717890623184

> <r_i_glide_gscore>
-7.22828518648067

> <r_i_glide_lipo>
-2.27461075615415

> <r_i_glide_hbond>
-0.291102705987101

> <r_i_glide_metal>
0

> <r_i_glide_rewards>
-2.42080866591622

> <r_i_glide_evdw>
-29.1966724395752

> <r_i_glide_ecoul>
-8.1281909942627

> <r_i_glide_erotb>
0.456921438063654

> <r_i_glide_esite>
-0.0196222253686886

> <r_i_glide_emodel>
-51.804999271925

> <r_i_glide_energy>
-37.3248634338379

> <r_i_glide_einternal>
2.40602350234985

> <i_i_glide_confnum>
1

> <i_i_glide_posenum>
111

> <r_i_glide_eff_state_penalty>
0

> <s_user_duplicate_titles>
CHEMBL267_lig3452

> <i_f3d_flags>
0

> <s_m_subgroup_title>
dock_pv

> <s_m_subgroupid>
dock_pv

> <b_m_subgroup_collapsed>
1

$$$$
CHEMBL267_lig3026
                    3D
 Schrodinger Suite 2021-1.
 47 49  0  0  1  0            999 V2000
    1.8479    6.6445    9.4460 N   0  0  0  0  0  0
    2.6918    7.6997    9.4359 C   0  0  0  0  0  0
    2.8199    8.6369    8.4651 N   0  0  0  0  0  0
    1.0228    6.4807    8.3827 C   0  0  0  0  0  0
    1.0725    7.3806    7.3061 C   0  0  0  0  0  0
    2.0166    8.4245    7.4184 C   0  0  0  0  0  0
    2.0140    9.0745    6.1983 N   0  0  0  0  0  0
    1.0639    8.5602    5.3819 N   0  0  0  0  0  0
    0.4744    7.5783    6.0252 C   0  0  0  0  0  0
    2.9469   10.0778    5.6779 C   0  0  0  0  0  0
    4.0487    9.4557    4.7647 C   0  0  2  0  0  0
    5.2970    8.9096    5.5018 C   0  0  0  0  0  0
    4.4276   10.6453    3.4765 Cl  0  0  0  0  0  0
    6.5903    9.3718    5.2087 C   0  0  0  0  0  0
    7.6984    8.8384    5.8631 C   0  0  0  0  0  0
    7.5267    7.8875    6.8658 C   0  0  0  0  0  0
    6.2535    7.4370    7.1865 C   0  0  0  0  0  0
    5.1579    7.9011    6.4632 C   0  0  0  0  0  0
    3.7980    7.8372   10.7887 S   0  0  0  0  0  0
    3.2618    6.6774   12.0664 C   0  0  0  0  0  0
    0.1980    5.3531    8.3317 N   0  0  0  0  0  0
    0.3231    4.2943    9.3233 C   0  0  0  0  0  0
   -0.6456    3.1343    9.0848 C   0  0  0  0  0  0
   -2.0647    3.4368    9.5958 C   0  0  0  0  0  0
   -3.0122    2.2531    9.4211 C   0  0  0  0  0  0
    8.5975    7.3845    7.5200 F   0  0  0  0  0  0
   -0.3056    6.9955    5.5568 H   0  0  0  0  0  0
    2.3451   10.7937    5.1161 H   0  0  0  0  0  0
    3.3934   10.6288    6.5061 H   0  0  0  0  0  0
    3.6052    8.6368    4.2038 H   0  0  0  0  0  0
    6.7657   10.1242    4.4552 H   0  0  0  0  0  0
    8.6940    9.1723    5.6081 H   0  0  0  0  0  0
    6.1183    6.6820    7.9490 H   0  0  0  0  0  0
    4.1987    7.4560    6.6517 H   0  0  0  0  0  0
    4.0629    6.4999   12.7842 H   0  0  0  0  0  0
    2.3822    7.0375   12.5973 H   0  0  0  0  0  0
    2.9979    5.7427   11.5874 H   0  0  0  0  0  0
   -0.6857    5.4355    7.8272 H   0  0  0  0  0  0
    0.1500    4.7178   10.3161 H   0  0  0  0  0  0
    1.3552    3.9357    9.3579 H   0  0  0  0  0  0
   -0.2472    2.2563    9.5874 H   0  0  0  0  0  0
   -0.6715    2.8728    8.0255 H   0  0  0  0  0  0
   -2.4801    4.3013    9.0817 H   0  0  0  0  0  0
   -2.0223    3.7078   10.6509 H   0  0  0  0  0  0
   -4.0302    2.5028    9.7256 H   0  0  0  0  0  0
   -2.6904    1.3866    9.9874 H   0  0  0  0  0  0
   -3.0306    1.9433    8.3880 H   0  0  0  0  0  0
  1  2  2  0  0  0
  1  4  1  0  0  0
  2  3  1  0  0  0
  2 19  1  0  0  0
  3  6  2  0  0  0
  4  5  2  0  0  0
  4 21  1  0  0  0
  5  9  1  0  0  0
  5  6  1  0  0  0
  6  7  1  0  0  0
  7  8  1  0  0  0
  7 10  1  0  0  0
  8  9  2  0  0  0
  9 27  1  0  0  0
 10 11  1  0  0  0
 10 28  1  0  0  0
 10 29  1  0  0  0
 11 13  1  0  0  0
 11 12  1  0  0  0
 11 30  1  0  0  0
 12 14  2  0  0  0
 12 18  1  0  0  0
 14 15  1  0  0  0
 14 31  1  0  0  0
 15 16  2  0  0  0
 15 32  1  0  0  0
 16 17  1  0  0  0
 16 26  1  0  0  0
 17 18  2  0  0  0
 17 33  1  0  0  0
 18 34  1  0  0  0
 19 20  1  0  0  0
 20 35  1  0  0  0
 20 36  1  0  0  0
 20 37  1  0  0  0
 21 22  1  0  0  0
 21 38  1  0  0  0
 22 23  1  0  0  0
 22 39  1  0  0  0
 22 40  1  0  0  0
 23 24  1  0  0  0
 23 41  1  0  0  0
 23 42  1  0  0  0
 24 25  1  0  0  0
 24 43  1  0  0  0
 24 44  1  0  0  0
 25 45  1  0  0  0
 25 46  1  0  0  0
 25 47  1  0  0  0
M  END
> <s_m_entry_id>
32120

> <s_m_entry_name>
dock_pv.383

> <s_m_Source_Path>
/home/csk/Desktop/cluster/DUD-E-result/src

> <s_m_Source_File>
dock_pv.maegz

> <i_m_Source_File_Index>
383

> <chembl_id>
CHEMBL454119

> <chembl_pref_name>
None

> <i_lp_mmshare_version>
53161

> <r_lp_tautomer_probability>
1

> <s_lp_Force_Field>
OPLS_2005

> <r_lp_Energy>
6.10044

> <b_lp_Chiralities_Consistent>
1

> <s_lp_Variant>
CHEMBL267_lig3026-1

> <s_i_glide_gridfile>
glide-grid_3el8

> <i_i_glide_lignum>
3444

> <i_i_glide_rotatable_bonds>
8

> <r_i_docking_score>
-7.22709821898033

> <r_i_glide_ligand_efficiency>
-0.277965316114628

> <r_i_glide_ligand_efficiency_sa>
-0.823471155248881

> <r_i_glide_ligand_efficiency_ln>
-1.69726030268407

> <r_i_glide_gscore>
-7.22709821898033

> <r_i_glide_lipo>
-3.302443819526

> <r_i_glide_hbond>
-0.32

> <r_i_glide_metal>
0

> <r_i_glide_rewards>
-1.59192509936509

> <r_i_glide_evdw>
-39.590705871582

> <r_i_glide_ecoul>
-5.14575529098511

> <r_i_glide_erotb>
0.755566375082728

> <r_i_glide_esite>
-0.0168970879450946

> <r_i_glide_emodel>
-59.9276277173024

> <r_i_glide_energy>
-44.7364611625671

> <r_i_glide_einternal>
9.27251529693604

> <i_i_glide_confnum>
11

> <i_i_glide_posenum>
336

> <r_i_glide_eff_state_penalty>
0

> <s_user_duplicate_titles>
CHEMBL267_lig3026

> <i_f3d_flags>
0

> <s_m_subgroup_title>
dock_pv

> <s_m_subgroupid>
dock_pv

> <b_m_subgroup_collapsed>
1

$$$$
CHEMBL267_lig3435
                    3D
 Schrodinger Suite 2021-1.
 49 52  0  0  1  0            999 V2000
    0.7252    9.3627    3.7973 O   0  0  0  0  0  0
    8.7870    7.9464    6.8239 N   0  0  0  0  0  0
    8.2030    7.0113    7.5878 N   0  0  0  0  0  0
    3.4221   11.0293    1.9883 N   0  0  0  0  0  0
    0.3764    6.4917    3.9882 N   0  0  0  0  0  0
    6.6374    8.0360    6.3412 C   0  0  0  0  0  0
    7.8751    8.6371    6.0630 C   0  0  0  0  0  0
    5.5942    9.5493    4.7509 C   0  0  0  0  0  0
    5.5007    8.4801    5.6615 C   0  0  0  0  0  0
    6.9270    7.0368    7.3204 C   0  0  0  0  0  0
    4.3958    9.9751    3.9591 C   0  0  0  0  0  0
    8.0035    9.7146    5.1879 C   0  0  0  0  0  0
    6.8389   10.1680    4.5687 C   0  0  0  0  0  0
    3.1060    9.5927    4.3476 C   0  0  0  0  0  0
    1.9966    9.8236    3.5274 C   0  0  0  0  0  0
    4.4882   10.7116    2.7661 C   0  0  0  0  0  0
    2.2065   10.5581    2.3613 C   0  0  0  0  0  0
    5.9888    6.0652    7.9910 C   0  0  0  0  0  0
    0.4704    8.6799    5.0291 C   0  0  0  0  0  0
    0.9512    7.2136    5.1114 C   0  0  1  0  0  0
    1.4586    6.6224    7.5905 C   0  0  0  0  0  0
    0.4716    6.5594    6.4309 C   0  0  0  0  0  0
    1.7552    7.8388    8.2152 C   0  0  0  0  0  0
    2.0182    5.4374    8.0759 C   0  0  0  0  0  0
    2.5998    7.8674    9.3210 C   0  0  0  0  0  0
    2.8456    5.4653    9.1924 C   0  0  0  0  0  0
    3.1304    6.6784    9.8133 C   0  0  0  0  0  0
    9.7895    8.0681    6.8421 H   0  0  0  0  0  0
   -0.6323    6.5082    4.0522 H   0  0  0  0  0  0
    0.5940    6.9983    3.1371 H   0  0  0  0  0  0
    4.5760    7.9571    5.8399 H   0  0  0  0  0  0
    8.9569   10.1858    4.9986 H   0  0  0  0  0  0
    6.9352   11.0094    3.8996 H   0  0  0  0  0  0
    2.9674    9.0758    5.2789 H   0  0  0  0  0  0
    5.4352   11.0504    2.3759 H   0  0  0  0  0  0
    1.3823   10.7738    1.6980 H   0  0  0  0  0  0
    4.9831    6.1564    7.5881 H   0  0  0  0  0  0
    6.3025    5.0292    7.8566 H   0  0  0  0  0  0
    5.9037    6.2351    9.0617 H   0  0  0  0  0  0
   -0.6020    8.6371    5.1621 H   0  0  0  0  0  0
    0.8292    9.2842    5.8602 H   0  0  0  0  0  0
    2.0338    7.1303    5.0207 H   0  0  0  0  0  0
    0.1974    5.5144    6.2734 H   0  0  0  0  0  0
   -0.4519    7.0371    6.7632 H   0  0  0  0  0  0
    1.3221    8.7638    7.8718 H   0  0  0  0  0  0
    1.7974    4.4905    7.6060 H   0  0  0  0  0  0
    2.8277    8.8045    9.8074 H   0  0  0  0  0  0
    3.2640    4.5506    9.5870 H   0  0  0  0  0  0
    3.7739    6.6912   10.6819 H   0  0  0  0  0  0
  1 15  1  0  0  0
  1 19  1  0  0  0
  2  3  1  0  0  0
  2  7  1  0  0  0
  2 28  1  0  0  0
  3 10  2  0  0  0
  4 16  1  0  0  0
  4 17  2  0  0  0
  5 20  1  0  0  0
  5 29  1  0  0  0
  5 30  1  0  0  0
  6  7  1  0  0  0
  6  9  2  0  0  0
  6 10  1  0  0  0
  7 12  2  0  0  0
  8  9  1  0  0  0
  8 11  1  0  0  0
  8 13  2  0  0  0
  9 31  1  0  0  0
 10 18  1  0  0  0
 11 14  1  0  0  0
 11 16  2  0  0  0
 12 13  1  0  0  0
 12 32  1  0  0  0
 13 33  1  0  0  0
 14 15  2  0  0  0
 14 34  1  0  0  0
 15 17  1  0  0  0
 16 35  1  0  0  0
 17 36  1  0  0  0
 18 37  1  0  0  0
 18 38  1  0  0  0
 18 39  1  0  0  0
 19 20  1  0  0  0
 19 40  1  0  0  0
 19 41  1  0  0  0
 20 22  1  0  0  0
 20 42  1  0  0  0
 21 22  1  0  0  0
 21 23  2  0  0  0
 21 24  1  0  0  0
 22 43  1  0  0  0
 22 44  1  0  0  0
 23 25  1  0  0  0
 23 45  1  0  0  0
 24 26  2  0  0  0
 24 46  1  0  0  0
 25 27  2  0  0  0
 25 47  1  0  0  0
 26 27  1  0  0  0
 26 48  1  0  0  0
 27 49  1  0  0  0
M  END
> <s_m_entry_id>
32121

> <s_m_entry_name>
dock_pv.384

> <s_m_Source_Path>
/home/csk/Desktop/cluster/DUD-E-result/src

> <s_m_Source_File>
dock_pv.maegz

> <i_m_Source_File_Index>
384

> <chembl_id>
CHEMBL2002726

> <chembl_pref_name>
None

> <i_lp_mmshare_version>
53161

> <r_lp_tautomer_probability>
0.980392156862745

> <s_lp_Force_Field>
OPLS_2005

> <r_lp_Energy>
24.458238

> <b_lp_Chiralities_Consistent>
1

> <s_lp_Variant>
CHEMBL267_lig3435-2

> <s_i_glide_gridfile>
glide-grid_3el8

> <i_i_glide_lignum>
4109

> <i_i_glide_rotatable_bonds>
6

> <r_i_docking_score>
-7.22524877269839

> <r_i_glide_ligand_efficiency>
-0.267601806396237

> <r_i_glide_ligand_efficiency_sa>
-0.802805418306738

> <r_i_glide_ligand_efficiency_ln>
-1.68191879674863

> <r_i_glide_gscore>
-7.22524877269839

> <r_i_glide_lipo>
-3.58154371280847

> <r_i_glide_hbond>
-0.232224113952572

> <r_i_glide_metal>
0

> <r_i_glide_rewards>
-1.77419169142801

> <r_i_glide_evdw>
-36.3632202148438

> <r_i_glide_ecoul>
-3.76415967941284

> <r_i_glide_erotb>
0.745495708144768

> <r_i_glide_esite>
0

> <r_i_glide_emodel>
-53.7327326250953

> <r_i_glide_energy>
-40.1273798942566

> <r_i_glide_einternal>
5.264328956604

> <i_i_glide_confnum>
21

> <i_i_glide_posenum>
95

> <r_i_glide_eff_state_penalty>
0

> <s_user_duplicate_titles>
CHEMBL267_lig3435

> <i_f3d_flags>
0

> <s_m_subgroup_title>
dock_pv

> <s_m_subgroupid>
dock_pv

> <b_m_subgroup_collapsed>
1

$$$$
CHEMBL267_lig817
                    3D
 Schrodinger Suite 2021-1.
 37 40  0  0  1  0            999 V2000
    2.2708    7.3021    8.1618 C   0  0  0  0  0  0
    0.1980    6.6010    7.9720 N   0  0  0  0  0  0
    3.6106    7.7153    8.1369 C   0  0  0  0  0  0
    1.1554    7.3128    7.2909 C   0  0  0  0  0  0
    0.5152    6.2208    9.2214 N   0  0  0  0  0  0
    1.7932    6.6752    9.3542 C   0  0  0  0  0  0
    4.3771    7.5868    9.2434 N   0  0  0  0  0  0
    4.1498    8.2370    6.9537 N   0  0  0  0  0  0
    2.5361    6.5509   10.4563 N   0  0  0  0  0  0
    0.9919    7.9585    5.9700 C   0  0  0  0  0  0
    3.7979    7.0370   10.3426 C   0  0  0  0  0  0
    5.4643    8.5120    6.5551 C   0  0  0  0  0  0
    5.6659    9.5020    5.5905 C   0  0  0  0  0  0
    1.4402    9.2754    5.8298 C   0  0  0  0  0  0
    0.4790    7.2664    4.8734 C   0  0  0  0  0  0
    6.9496    9.7790    5.1222 C   0  0  0  0  0  0
    0.8942    9.2051    3.4968 C   0  0  0  0  0  0
    0.8282    9.8370    2.2614 N   0  0  0  0  0  0
    1.3981    9.8991    4.5903 C   0  0  0  0  0  0
    0.4327    7.8956    3.6330 C   0  0  0  0  0  0
    7.1920   11.0369    3.9652 Cl  0  0  0  0  0  0
    7.8429    8.0466    6.5503 C   0  0  0  0  0  0
    6.5625    7.7918    7.0407 C   0  0  0  0  0  0
    8.0348    9.0370    5.5880 C   0  0  0  0  0  0
   -0.7201    6.3811    7.5881 H   0  0  0  0  0  0
    3.4513    8.4065    6.2459 H   0  0  0  0  0  0
    4.4215    6.9220   11.2181 H   0  0  0  0  0  0
    4.8285   10.0660    5.2064 H   0  0  0  0  0  0
    1.8306    9.8173    6.6797 H   0  0  0  0  0  0
    0.1323    6.2476    4.9733 H   0  0  0  0  0  0
    1.3309   10.7005    2.1229 H   0  0  0  0  0  0
    0.5981    9.2441    1.4655 H   0  0  0  0  0  0
    1.7470   10.9159    4.4862 H   0  0  0  0  0  0
    0.0206    7.3688    2.7880 H   0  0  0  0  0  0
    8.6869    7.4753    6.9086 H   0  0  0  0  0  0
    6.4265    7.0066    7.7693 H   0  0  0  0  0  0
    9.0290    9.2349    5.2131 H   0  0  0  0  0  0
  1  3  1  0  0  0
  1  4  2  0  0  0
  1  6  1  0  0  0
  2  4  1  0  0  0
  2  5  1  0  0  0
  2 25  1  0  0  0
  3  7  2  0  0  0
  3  8  1  0  0  0
  4 10  1  0  0  0
  5  6  2  0  0  0
  6  9  1  0  0  0
  7 11  1  0  0  0
  8 12  1  0  0  0
  8 26  1  0  0  0
  9 11  2  0  0  0
 10 14  2  0  0  0
 10 15  1  0  0  0
 11 27  1  0  0  0
 12 13  2  0  0  0
 12 23  1  0  0  0
 13 16  1  0  0  0
 13 28  1  0  0  0
 14 19  1  0  0  0
 14 29  1  0  0  0
 15 20  2  0  0  0
 15 30  1  0  0  0
 16 21  1  0  0  0
 16 24  2  0  0  0
 17 20  1  0  0  0
 17 18  1  0  0  0
 17 19  2  0  0  0
 18 31  1  0  0  0
 18 32  1  0  0  0
 19 33  1  0  0  0
 20 34  1  0  0  0
 22 23  2  0  0  0
 22 24  1  0  0  0
 22 35  1  0  0  0
 23 36  1  0  0  0
 24 37  1  0  0  0
M  END
> <s_m_entry_id>
32122

> <s_m_entry_name>
dock_pv.385

> <s_m_Source_Path>
/home/csk/Desktop/cluster/DUD-E-result/src

> <s_m_Source_File>
dock_pv.maegz

> <i_m_Source_File_Index>
385

> <chembl_id>
CHEMBL332906

> <chembl_pref_name>
None

> <i_lp_mmshare_version>
53161

> <r_lp_tautomer_probability>
1

> <s_lp_Force_Field>
OPLS_2005

> <r_lp_Energy>
28.622725

> <b_lp_Chiralities_Consistent>
1

> <s_lp_Variant>
CHEMBL267_lig817-1

> <s_i_glide_gridfile>
glide-grid_3el8

> <i_i_glide_lignum>
945

> <i_i_glide_rotatable_bonds>
3

> <r_i_docking_score>
-7.22117632366273

> <r_i_glide_ligand_efficiency>
-0.300882346819281

> <r_i_glide_ligand_efficiency_sa>
-0.867894869906979

> <r_i_glide_ligand_efficiency_ln>
-1.7283588524424

> <r_i_glide_gscore>
-7.22117632366273

> <r_i_glide_lipo>
-2.59761750535537

> <r_i_glide_hbond>
-0.608

> <r_i_glide_metal>
0

> <r_i_glide_rewards>
-1.36499918461797

> <r_i_glide_evdw>
-34.8685111999512

> <r_i_glide_ecoul>
-8.74495410919189

> <r_i_glide_erotb>
0.499669481367341

> <r_i_glide_esite>
-0.0950604386803943

> <r_i_glide_emodel>
-59.3429225251787

> <r_i_glide_energy>
-43.6134653091431

> <r_i_glide_einternal>
3.41943001747131

> <i_i_glide_confnum>
21

> <i_i_glide_posenum>
292

> <r_i_glide_eff_state_penalty>
0

> <s_user_duplicate_titles>
CHEMBL267_lig817

> <i_f3d_flags>
0

> <s_m_subgroup_title>
dock_pv

> <s_m_subgroupid>
dock_pv

> <b_m_subgroup_collapsed>
1

$$$$
CHEMBL267_lig1752
                    3D
 Schrodinger Suite 2021-1.
 43 46  0  0  1  0            999 V2000
    0.8852    5.9461    7.8105 N   0  0  0  0  0  0
    1.5751    6.9449    7.1914 C   0  0  0  0  0  0
    2.5774    7.6741    7.7639 N   0  0  0  0  0  0
    1.1029    5.7015    9.1255 C   0  0  0  0  0  0
    2.0798    6.4517    9.7787 C   0  0  0  0  0  0
    2.8199    7.4143    9.0512 C   0  0  0  0  0  0
    3.7721    8.0028    9.8386 N   0  0  0  0  0  0
    3.6189    7.4370   11.0097 C   0  0  0  0  0  0
    2.5980    6.5175   11.0526 N   0  0  0  0  0  0
    0.3366    4.7283    9.7703 N   0  0  0  0  0  0
   -0.2428    3.5847    9.2115 C   0  0  0  0  0  0
   -1.6281    3.4444    9.1968 C   0  0  0  0  0  0
   -2.2020    2.2460    8.7880 C   0  0  0  0  0  0
   -1.3951    1.1717    8.3880 C   0  0  0  0  0  0
   -0.0126    1.3325    8.3880 C   0  0  0  0  0  0
    0.5695    2.5349    8.7880 C   0  0  0  0  0  0
   -1.8708   -0.0673    8.0084 O   0  0  0  0  0  0
   -3.1251   -0.5105    8.5240 C   0  0  0  0  0  0
    1.2682    7.1965    5.8497 N   0  0  0  0  0  0
    1.6814    8.4516    5.1789 C   0  0  0  0  0  0
    1.5569    8.4539    3.6339 C   0  0  0  0  0  0
    0.2441    8.0118    3.1880 N   0  0  0  0  0  0
   -0.0125    6.6868    3.7292 C   0  0  0  0  0  0
    0.0049    6.7004    5.2643 C   0  0  0  0  0  0
    2.3656    5.9775   11.8747 H   0  0  0  0  0  0
    4.2032    7.6302   11.8992 H   0  0  0  0  0  0
    0.4848    4.6665   10.7646 H   0  0  0  0  0  0
   -2.2616    4.2532    9.5302 H   0  0  0  0  0  0
   -3.2780    2.1714    8.7883 H   0  0  0  0  0  0
    0.5980    0.4940    8.0947 H   0  0  0  0  0  0
    1.6439    2.6362    8.8119 H   0  0  0  0  0  0
   -3.4052   -1.4378    8.0248 H   0  0  0  0  0  0
   -3.9471    0.1902    8.3880 H   0  0  0  0  0  0
   -3.0490   -0.7255    9.5879 H   0  0  0  0  0  0
    1.0533    9.2597    5.5568 H   0  0  0  0  0  0
    2.7167    8.6871    5.4272 H   0  0  0  0  0  0
    2.3274    7.8362    3.1751 H   0  0  0  0  0  0
    1.7284    9.4573    3.2430 H   0  0  0  0  0  0
    0.2051    7.9725    2.1680 H   0  0  0  0  0  0
    0.7192    5.9748    3.3432 H   0  0  0  0  0  0
   -0.9870    6.3434    3.3818 H   0  0  0  0  0  0
   -0.2020    5.6843    5.5993 H   0  0  0  0  0  0
   -0.8142    7.3355    5.6064 H   0  0  0  0  0  0
  1  2  2  0  0  0
  1  4  1  0  0  0
  2 19  1  0  0  0
  2  3  1  0  0  0
  3  6  2  0  0  0
  4 10  1  0  0  0
  4  5  2  0  0  0
  5  9  1  0  0  0
  5  6  1  0  0  0
  6  7  1  0  0  0
  7  8  2  0  0  0
  8  9  1  0  0  0
  8 26  1  0  0  0
  9 25  1  0  0  0
 10 11  1  0  0  0
 10 27  1  0  0  0
 11 12  2  0  0  0
 11 16  1  0  0  0
 12 13  1  0  0  0
 12 28  1  0  0  0
 13 14  2  0  0  0
 13 29  1  0  0  0
 14 15  1  0  0  0
 14 17  1  0  0  0
 15 16  2  0  0  0
 15 30  1  0  0  0
 16 31  1  0  0  0
 17 18  1  0  0  0
 18 32  1  0  0  0
 18 33  1  0  0  0
 18 34  1  0  0  0
 19 20  1  0  0  0
 19 24  1  0  0  0
 20 21  1  0  0  0
 20 35  1  0  0  0
 20 36  1  0  0  0
 21 22  1  0  0  0
 21 37  1  0  0  0
 21 38  1  0  0  0
 22 23  1  0  0  0
 22 39  1  0  0  0
 23 24  1  0  0  0
 23 40  1  0  0  0
 23 41  1  0  0  0
 24 42  1  0  0  0
 24 43  1  0  0  0
M  END
> <s_m_entry_id>
32123

> <s_m_entry_name>
dock_pv.386

> <s_m_Source_Path>
/home/csk/Desktop/cluster/DUD-E-result/src

> <s_m_Source_File>
dock_pv.maegz

> <i_m_Source_File_Index>
386

> <chembl_id>
CHEMBL1173735

> <chembl_pref_name>
None

> <i_lp_mmshare_version>
53161

> <r_lp_tautomer_probability>
0.0419191988452545

> <s_lp_Force_Field>
OPLS_2005

> <r_lp_Energy>
37.051379

> <b_lp_Chiralities_Consistent>
1

> <s_lp_Variant>
CHEMBL267_lig1752-2

> <s_i_glide_gridfile>
glide-grid_3el8

> <i_i_glide_lignum>
1983

> <i_i_glide_rotatable_bonds>
4

> <r_i_docking_score>
-7.2209130436504

> <r_i_glide_ligand_efficiency>
-0.300871376818766

> <r_i_glide_ligand_efficiency_sa>
-0.867863226949957

> <r_i_glide_ligand_efficiency_ln>
-1.72829583745431

> <r_i_glide_gscore>
-7.2209130436504

> <r_i_glide_lipo>
-2.31047323497392

> <r_i_glide_hbond>
-0.32

> <r_i_glide_metal>
0

> <r_i_glide_rewards>
-2.4488285270132

> <r_i_glide_evdw>
-38.6405258178711

> <r_i_glide_ecoul>
-4.937659740448

> <r_i_glide_erotb>
0.531063970297478

> <r_i_glide_esite>
0

> <r_i_glide_emodel>
-57.0027573374985

> <r_i_glide_energy>
-43.5781855583191

> <r_i_glide_einternal>
8.0950984954834

> <i_i_glide_confnum>
9

> <i_i_glide_posenum>
22

> <r_i_glide_eff_state_penalty>
0

> <s_user_duplicate_titles>
CHEMBL267_lig1752

> <i_f3d_flags>
0

> <s_m_subgroup_title>
dock_pv

> <s_m_subgroupid>
dock_pv

> <b_m_subgroup_collapsed>
1

$$$$
CHEMBL267_lig2307
                    3D
 Schrodinger Suite 2021-1.
 40 43  0  0  1  0            999 V2000
    0.9408    7.8011    5.2157 C   0  0  0  0  0  0
    2.3573    8.2372    5.5737 C   0  0  0  0  0  0
    3.0594    9.1134    4.7396 C   0  0  0  0  0  0
    4.3572    9.5369    5.0437 C   0  0  0  0  0  0
    4.9881    9.0350    6.1845 C   0  0  0  0  0  0
    4.2968    8.1822    7.0753 C   0  0  0  0  0  0
    4.8876    7.7830    8.2380 N   0  0  0  0  0  0
    4.1975    7.0387    9.1166 N   0  0  0  0  0  0
    2.9424    6.6443    8.8002 C   0  0  0  0  0  0
    2.2613    5.9142    9.7817 N   0  0  0  0  0  0
    1.1485    5.0752    9.6309 C   0  0  0  0  0  0
    0.1369    5.0496   10.5930 C   0  0  0  0  0  0
   -0.9834    4.2371   10.3880 C   0  0  0  0  0  0
   -1.0518    3.4384    9.2489 C   0  0  0  0  0  0
   -2.1486    2.6757    9.0419 F   0  0  0  0  0  0
   -0.0402    3.3941    8.3548 N   0  0  0  0  0  0
    1.0238    4.2177    8.5360 C   0  0  0  0  0  0
    2.2966    6.9643    7.6489 N   0  0  0  0  0  0
    2.9653    7.7723    6.7755 C   0  0  0  0  0  0
    5.0277   10.5773    4.2137 C   0  0  0  0  0  0
    5.3498   10.3240    2.8741 C   0  0  0  0  0  0
    5.9408   11.3120    2.0811 C   0  0  0  0  0  0
    6.2804   11.0369    0.7880 O   0  0  0  0  0  0
    6.2013   12.5716    2.6075 C   0  0  0  0  0  0
    5.8994   12.8348    3.9391 C   0  0  0  0  0  0
    5.3301   11.8462    4.7416 C   0  0  0  0  0  0
    4.9953   12.2376    6.3880 Cl  0  0  0  0  0  0
    0.2363    8.1272    5.9814 H   0  0  0  0  0  0
    0.6130    8.2112    4.2595 H   0  0  0  0  0  0
    0.8838    6.7138    5.1494 H   0  0  0  0  0  0
    2.5772    9.4980    3.8517 H   0  0  0  0  0  0
    5.9898    9.3569    6.4348 H   0  0  0  0  0  0
    2.7487    5.8410   10.6641 H   0  0  0  0  0  0
    0.1868    5.6836   11.4662 H   0  0  0  0  0  0
   -1.8014    4.2367   11.0908 H   0  0  0  0  0  0
    1.7991    4.1734    7.7861 H   0  0  0  0  0  0
    5.1392    9.3548    2.4460 H   0  0  0  0  0  0
    6.1980   11.7733    0.1477 H   0  0  0  0  0  0
    6.6525   13.3390    1.9954 H   0  0  0  0  0  0
    6.1107   13.8115    4.3484 H   0  0  0  0  0  0
  1  2  1  0  0  0
  1 28  1  0  0  0
  1 29  1  0  0  0
  1 30  1  0  0  0
  2  3  2  0  0  0
  2 19  1  0  0  0
  3  4  1  0  0  0
  3 31  1  0  0  0
  4  5  2  0  0  0
  4 20  1  0  0  0
  5  6  1  0  0  0
  5 32  1  0  0  0
  6  7  2  0  0  0
  6 19  1  0  0  0
  7  8  1  0  0  0
  8  9  2  0  0  0
  9 10  1  0  0  0
  9 18  1  0  0  0
 10 11  1  0  0  0
 10 33  1  0  0  0
 11 12  2  0  0  0
 11 17  1  0  0  0
 12 13  1  0  0  0
 12 34  1  0  0  0
 13 14  2  0  0  0
 13 35  1  0  0  0
 14 15  1  0  0  0
 14 16  1  0  0  0
 16 17  2  0  0  0
 17 36  1  0  0  0
 18 19  2  0  0  0
 20 21  2  0  0  0
 20 26  1  0  0  0
 21 22  1  0  0  0
 21 37  1  0  0  0
 22 23  1  0  0  0
 22 24  2  0  0  0
 23 38  1  0  0  0
 24 25  1  0  0  0
 24 39  1  0  0  0
 25 26  2  0  0  0
 25 40  1  0  0  0
 26 27  1  0  0  0
M  END
> <s_m_entry_id>
32124

> <s_m_entry_name>
dock_pv.387

> <s_m_Source_Path>
/home/csk/Desktop/cluster/DUD-E-result/src

> <s_m_Source_File>
dock_pv.maegz

> <i_m_Source_File_Index>
387

> <chembl_id>
CHEMBL3651233

> <chembl_pref_name>
None

> <i_lp_mmshare_version>
53161

> <r_lp_tautomer_probability>
0.999999999997364

> <s_lp_Force_Field>
OPLS_2005

> <r_lp_Energy>
24.441294

> <b_lp_Chiralities_Consistent>
1

> <s_lp_Variant>
CHEMBL267_lig2307-1

> <s_i_glide_gridfile>
glide-grid_3el8

> <i_i_glide_lignum>
2608

> <i_i_glide_rotatable_bonds>
4

> <r_i_docking_score>
-7.21997779659171

> <r_i_glide_ligand_efficiency>
-0.267406585058952

> <r_i_glide_ligand_efficiency_sa>
-0.802219754295528

> <r_i_glide_ligand_efficiency_ln>
-1.68069180040982

> <r_i_glide_gscore>
-7.21997779659171

> <r_i_glide_lipo>
-2.46523823763227

> <r_i_glide_hbond>
-0.485972983010129

> <r_i_glide_metal>
0

> <r_i_glide_rewards>
-1.43799578838407

> <r_i_glide_evdw>
-33.1673011779785

> <r_i_glide_ecoul>
-10.4799060821533

> <r_i_glide_erotb>
0.399580183656679

> <r_i_glide_esite>
0

> <r_i_glide_emodel>
-59.7196307478012

> <r_i_glide_energy>
-43.6472072601318

> <r_i_glide_einternal>
7.61787414550781

> <i_i_glide_confnum>
7

> <i_i_glide_posenum>
65

> <r_i_glide_eff_state_penalty>
0

> <s_user_duplicate_titles>
CHEMBL267_lig2307

> <i_f3d_flags>
0

> <s_m_subgroup_title>
dock_pv

> <s_m_subgroupid>
dock_pv

> <b_m_subgroup_collapsed>
1

$$$$
CHEMBL267_lig3660
                    3D
 Schrodinger Suite 2021-1.
 51 55  0  0  1  0            999 V2000
    1.1995    7.3624    7.5653 C   0  0  0  0  0  0
    0.9550    8.7335    7.4720 C   0  0  0  0  0  0
    0.7173    9.3266    6.2392 C   0  0  0  0  0  0
    1.0023    6.5054    6.4957 C   0  0  0  0  0  0
    0.7414    7.0738    5.2585 C   0  0  0  0  0  0
    0.6549    8.4942    5.1164 C   0  0  0  0  0  0
    0.4914    7.7003    3.1875 N   0  0  0  0  0  0
    0.5601    6.5781    3.9625 C   0  0  0  0  0  0
    1.8532    6.7747    8.7349 C   0  0  0  0  0  0
    1.6341    5.5832    9.4222 C   0  0  0  0  0  0
    3.0035    7.2938    9.2837 N   0  0  0  0  0  0
    3.2764    6.4886   10.3395 C   0  0  0  0  0  0
    2.5009    5.4474   10.3880 N   0  0  0  0  0  0
    0.6526    4.4986    9.2063 C   0  0  0  0  0  0
   -0.6896    4.7244    9.4508 C   0  0  0  0  0  0
   -1.6244    3.7150    9.2359 C   0  0  0  0  0  0
   -1.1974    2.4696    8.7880 C   0  0  0  0  0  0
    0.1545    2.2267    8.5601 C   0  0  0  0  0  0
    1.0785    3.2430    8.7868 C   0  0  0  0  0  0
   -2.0911    1.4728    8.6207 F   0  0  0  0  0  0
    3.7938    8.4412    8.8980 C   0  0  0  0  0  0
    5.2314    8.0791    8.4240 C   0  0  0  0  0  0
    5.4735    8.0508    6.9713 N   0  0  0  0  0  0
    5.1287    9.3098    6.2829 C   0  0  0  0  0  0
    5.5932    9.3497    4.8199 C   0  0  0  0  0  0
    6.9959    9.1511    4.7887 O   0  0  0  0  0  0
    7.3693    7.8743    5.2916 C   0  0  0  0  0  0
    6.8886    7.6909    6.7497 C   0  0  0  0  0  0
    0.5980    8.8766    3.8133 N   0  0  0  0  0  0
    1.0832    9.3649    8.3387 H   0  0  0  0  0  0
    0.6393   10.4003    6.1426 H   0  0  0  0  0  0
    1.1681    5.4403    6.5906 H   0  0  0  0  0  0
    0.5311    5.5897    3.5340 H   0  0  0  0  0  0
    4.1287    6.6743   10.9769 H   0  0  0  0  0  0
   -1.0020    5.6979    9.7918 H   0  0  0  0  0  0
   -2.6724    3.9002    9.4201 H   0  0  0  0  0  0
    0.4796    1.2491    8.2379 H   0  0  0  0  0  0
    2.1315    3.0805    8.6252 H   0  0  0  0  0  0
    3.7979    9.0370    9.8008 H   0  0  0  0  0  0
    3.2766    9.0421    8.1703 H   0  0  0  0  0  0
    5.4958    7.0924    8.8085 H   0  0  0  0  0  0
    5.9328    8.7770    8.8837 H   0  0  0  0  0  0
    5.6340   10.1324    6.7867 H   0  0  0  0  0  0
    4.0605    9.5121    6.3250 H   0  0  0  0  0  0
    5.0676    8.6145    4.2110 H   0  0  0  0  0  0
    5.3703   10.3236    4.3840 H   0  0  0  0  0  0
    6.9984    7.0809    4.6449 H   0  0  0  0  0  0
    8.4566    7.8134    5.2568 H   0  0  0  0  0  0
    7.0679    6.6707    7.0933 H   0  0  0  0  0  0
    7.5226    8.3250    7.3733 H   0  0  0  0  0  0
    0.4010    7.6665    2.1739 H   0  0  0  0  0  0
  1  2  1  0  0  0
  1  9  1  0  0  0
  1  4  2  0  0  0
  2  3  2  0  0  0
  2 30  1  0  0  0
  3  6  1  0  0  0
  3 31  1  0  0  0
  4 32  1  0  0  0
  4  5  1  0  0  0
  5  6  1  0  0  0
  5  8  2  0  0  0
  6 29  2  0  0  0
  7 51  1  0  0  0
  7 29  1  0  0  0
  7  8  1  0  0  0
  8 33  1  0  0  0
  9 10  2  0  0  0
  9 11  1  0  0  0
 10 13  1  0  0  0
 10 14  1  0  0  0
 11 12  1  0  0  0
 11 21  1  0  0  0
 12 13  2  0  0  0
 12 34  1  0  0  0
 14 15  2  0  0  0
 14 19  1  0  0  0
 15 16  1  0  0  0
 15 35  1  0  0  0
 16 17  2  0  0  0
 16 36  1  0  0  0
 17 18  1  0  0  0
 17 20  1  0  0  0
 18 19  2  0  0  0
 18 37  1  0  0  0
 19 38  1  0  0  0
 21 22  1  0  0  0
 21 39  1  0  0  0
 21 40  1  0  0  0
 22 23  1  0  0  0
 22 41  1  0  0  0
 22 42  1  0  0  0
 23 24  1  0  0  0
 23 28  1  0  0  0
 24 25  1  0  0  0
 24 43  1  0  0  0
 24 44  1  0  0  0
 25 26  1  0  0  0
 25 45  1  0  0  0
 25 46  1  0  0  0
 26 27  1  0  0  0
 27 28  1  0  0  0
 27 47  1  0  0  0
 27 48  1  0  0  0
 28 49  1  0  0  0
 28 50  1  0  0  0
M  END
> <s_m_entry_id>
32126

> <s_m_entry_name>
dock_pv.389

> <s_m_Source_Path>
/home/csk/Desktop/cluster/DUD-E-result/src

> <s_m_Source_File>
dock_pv.maegz

> <i_m_Source_File_Index>
389

> <chembl_id>
CHEMBL1682558

> <chembl_pref_name>
None

> <i_lp_mmshare_version>
53161

> <r_lp_tautomer_probability>
0.0196078431372549

> <s_lp_Force_Field>
OPLS_2005

> <r_lp_Energy>
51.3323

> <b_lp_Chiralities_Consistent>
1

> <s_lp_Variant>
CHEMBL267_lig3660-2

> <s_i_glide_gridfile>
glide-grid_3el8

> <i_i_glide_lignum>
4436

> <i_i_glide_rotatable_bonds>
5

> <r_i_docking_score>
-7.21586680889809

> <r_i_glide_ligand_efficiency>
-0.248822993410279

> <r_i_glide_ligand_efficiency_sa>
-0.764463068413861

> <r_i_glide_ligand_efficiency_ln>
-1.65225052064321

> <r_i_glide_gscore>
-7.21586680889809

> <r_i_glide_lipo>
-3.69946890894228

> <r_i_glide_hbond>
-0.32

> <r_i_glide_metal>
0

> <r_i_glide_rewards>
-1.71994102864939

> <r_i_glide_evdw>
-29.2367763519287

> <r_i_glide_ecoul>
-3.42457389831543

> <r_i_glide_erotb>
0.636792041517734

> <r_i_glide_esite>
-0.137724010480403

> <r_i_glide_emodel>
-39.0590382082043

> <r_i_glide_energy>
-32.6613502502441

> <r_i_glide_einternal>
8.70507526397705

> <i_i_glide_confnum>
75

> <i_i_glide_posenum>
364

> <r_i_glide_eff_state_penalty>
0

> <s_user_duplicate_titles>
CHEMBL267_lig3660

> <i_f3d_flags>
0

> <s_m_subgroup_title>
dock_pv

> <s_m_subgroupid>
dock_pv

> <b_m_subgroup_collapsed>
1

$$$$
CHEMBL267_lig1751
                    3D
 Schrodinger Suite 2021-1.
 42 45  0  0  1  0            999 V2000
    2.8487    6.6370   11.1075 N   0  0  0  0  0  0
    3.7980    7.6227   11.0296 C   0  0  0  0  0  0
    3.8197    8.2370    9.8742 N   0  0  0  0  0  0
    2.8666    7.6110    9.1259 C   0  0  0  0  0  0
    2.5360    7.8820    7.8607 N   0  0  0  0  0  0
    1.5525    7.1003    7.3275 C   0  0  0  0  0  0
    0.9389    6.0705    7.9761 N   0  0  0  0  0  0
    1.2584    5.8154    9.2703 C   0  0  0  0  0  0
    2.2398    6.5912    9.8730 C   0  0  0  0  0  0
    0.5981    4.8007    9.9582 N   0  0  0  0  0  0
    1.2072    7.3113    5.9878 N   0  0  0  0  0  0
   -0.0293    6.7370    5.4193 C   0  0  0  0  0  0
   -0.0304    6.6351    3.8852 C   0  0  0  0  0  0
    0.2038    7.9288    3.2591 N   0  0  0  0  0  0
    1.4839    8.4513    3.7132 C   0  0  0  0  0  0
    1.5703    8.5478    5.2584 C   0  0  0  0  0  0
   -0.1280    3.7460    9.4133 C   0  0  0  0  0  0
   -1.5141    3.7381    9.5347 C   0  0  0  0  0  0
   -2.2549    2.6535    9.0629 C   0  0  0  0  0  0
   -1.5953    1.5762    8.4626 C   0  0  0  0  0  0
   -0.2027    1.5661    8.3880 C   0  0  0  0  0  0
    0.5319    2.6648    8.8285 C   0  0  0  0  0  0
   -3.7595    2.6370    9.2441 C   0  0  0  0  0  0
    4.4319    7.8253   11.8825 H   0  0  0  0  0  0
    2.7178    6.0484   11.9188 H   0  0  0  0  0  0
    0.8474    4.6934   10.9277 H   0  0  0  0  0  0
   -0.2025    5.7362    5.8129 H   0  0  0  0  0  0
   -0.8742    7.3598    5.7202 H   0  0  0  0  0  0
   -0.9936    6.2474    3.5536 H   0  0  0  0  0  0
    0.7173    5.9137    3.5513 H   0  0  0  0  0  0
    0.1981    7.8371    2.2414 H   0  0  0  0  0  0
    1.6280    9.4347    3.2646 H   0  0  0  0  0  0
    2.2881    7.8366    3.3133 H   0  0  0  0  0  0
    0.8910    9.3396    5.5775 H   0  0  0  0  0  0
    2.5825    8.8591    5.5178 H   0  0  0  0  0  0
   -2.0111    4.5734    9.9984 H   0  0  0  0  0  0
   -2.1598    0.7318    8.0931 H   0  0  0  0  0  0
    0.3027    0.7119    7.9632 H   0  0  0  0  0  0
    1.6088    2.6576    8.7569 H   0  0  0  0  0  0
   -4.2209    1.7603    8.7896 H   0  0  0  0  0  0
   -4.2016    3.5286    8.7983 H   0  0  0  0  0  0
   -4.0069    2.6364   10.3058 H   0  0  0  0  0  0
  1  9  1  0  0  0
  1 25  1  0  0  0
  1  2  1  0  0  0
  2 24  1  0  0  0
  2  3  2  0  0  0
  3  4  1  0  0  0
  4  9  1  0  0  0
  4  5  2  0  0  0
  5  6  1  0  0  0
  6 11  1  0  0  0
  6  7  2  0  0  0
  7  8  1  0  0  0
  8 10  1  0  0  0
  8  9  2  0  0  0
 10 17  1  0  0  0
 10 26  1  0  0  0
 11 12  1  0  0  0
 11 16  1  0  0  0
 12 13  1  0  0  0
 12 27  1  0  0  0
 12 28  1  0  0  0
 13 14  1  0  0  0
 13 29  1  0  0  0
 13 30  1  0  0  0
 14 15  1  0  0  0
 14 31  1  0  0  0
 15 16  1  0  0  0
 15 32  1  0  0  0
 15 33  1  0  0  0
 16 34  1  0  0  0
 16 35  1  0  0  0
 17 18  1  0  0  0
 17 22  2  0  0  0
 18 19  2  0  0  0
 18 36  1  0  0  0
 19 20  1  0  0  0
 19 23  1  0  0  0
 20 21  2  0  0  0
 20 37  1  0  0  0
 21 22  1  0  0  0
 21 38  1  0  0  0
 22 39  1  0  0  0
 23 40  1  0  0  0
 23 41  1  0  0  0
 23 42  1  0  0  0
M  END
> <s_m_entry_id>
32127

> <s_m_entry_name>
dock_pv.390

> <s_m_Source_Path>
/home/csk/Desktop/cluster/DUD-E-result/src

> <s_m_Source_File>
dock_pv.maegz

> <i_m_Source_File_Index>
390

> <chembl_id>
CHEMBL1173736

> <chembl_pref_name>
None

> <i_lp_mmshare_version>
53161

> <r_lp_tautomer_probability>
0.0419191988452545

> <s_lp_Force_Field>
OPLS_2005

> <r_lp_Energy>
33.795998

> <b_lp_Chiralities_Consistent>
1

> <s_lp_Variant>
CHEMBL267_lig1751-2

> <s_i_glide_gridfile>
glide-grid_3el8

> <i_i_glide_lignum>
1981

> <i_i_glide_rotatable_bonds>
3

> <r_i_docking_score>
-7.21393745864479

> <r_i_glide_ligand_efficiency>
-0.313649454723686

> <r_i_glide_ligand_efficiency_sa>
-0.891977326604877

> <r_i_glide_ligand_efficiency_ln>
-1.74439548986867

> <r_i_glide_gscore>
-7.21393745864479

> <r_i_glide_lipo>
-2.44121194064946

> <r_i_glide_hbond>
-0.32

> <r_i_glide_metal>
0

> <r_i_glide_rewards>
-2.43651028729099

> <r_i_glide_evdw>
-36.3997459411621

> <r_i_glide_ecoul>
-5.17723703384399

> <r_i_glide_erotb>
0.580357621430365

> <r_i_glide_esite>
0

> <r_i_glide_emodel>
-56.0048288048794

> <r_i_glide_energy>
-41.5769829750061

> <r_i_glide_einternal>
6.63991212844849

> <i_i_glide_confnum>
13

> <i_i_glide_posenum>
303

> <r_i_glide_eff_state_penalty>
0

> <s_user_duplicate_titles>
CHEMBL267_lig1751,CHEMBL267_lig1751

> <i_f3d_flags>
0

> <s_m_subgroup_title>
dock_pv

> <s_m_subgroupid>
dock_pv

> <b_m_subgroup_collapsed>
1

$$$$
CHEMBL267_lig1271
                    3D
 Schrodinger Suite 2021-1.
 35 39  0  0  1  0            999 V2000
    0.5977    5.8488    8.9079 C   0  0  0  0  0  0
    1.6120    5.8337    9.8587 C   0  0  0  0  0  0
    2.8418    6.4517    9.6354 C   0  0  0  0  0  0
    0.7735    6.4921    7.6845 C   0  0  0  0  0  0
    1.9989    7.1259    7.4090 C   0  0  0  0  0  0
    3.0178    7.0941    8.4047 C   0  0  0  0  0  0
    4.1001    7.7868    7.9075 N   0  0  0  0  0  0
    2.5014    7.8558    6.3007 C   0  0  0  0  0  0
    3.8169    8.2381    6.6331 C   0  0  0  0  0  0
    2.0029    8.2378    5.0422 C   0  0  0  0  0  0
    2.7495    9.0372    4.1955 C   0  0  0  0  0  0
    1.8857    9.2839    2.9977 C   0  0  0  0  0  0
    0.7680    8.5669    3.1881 N   0  0  0  0  0  0
    0.7237    7.9047    4.3524 C   0  0  0  0  0  0
   -0.1964    7.1796    4.7199 O   0  0  0  0  0  0
    2.1104    9.9706    2.0056 O   0  0  0  0  0  0
    4.0950    9.4526    4.5078 C   0  0  0  0  0  0
    4.6520    8.9884    5.7478 C   0  0  0  0  0  0
    6.0185    9.2842    6.0664 C   0  0  0  0  0  0
    6.7699   10.0864    5.2210 C   0  0  0  0  0  0
    6.2326   10.5745    4.0435 C   0  0  0  0  0  0
    4.9333   10.2635    3.6621 C   0  0  0  0  0  0
    4.5380   10.7681    2.4525 O   0  0  0  0  0  0
    6.6584    8.7706    7.1667 O   0  0  0  0  0  0
   -0.5920    5.2306    9.1880 O   0  0  0  0  0  0
    1.4399    5.3307   10.7984 H   0  0  0  0  0  0
    3.6181    6.4224   10.3873 H   0  0  0  0  0  0
   -0.0324    6.4922    6.9711 H   0  0  0  0  0  0
    4.9551    7.9641    8.4137 H   0  0  0  0  0  0
    0.0454    8.4940    2.4862 H   0  0  0  0  0  0
    7.7957   10.3169    5.4688 H   0  0  0  0  0  0
    6.8463   11.1889    3.4002 H   0  0  0  0  0  0
    3.6235   10.5447    2.2186 H   0  0  0  0  0  0
    6.4864    7.8338    7.2793 H   0  0  0  0  0  0
   -1.2955    5.4297    8.5515 H   0  0  0  0  0  0
  1  2  1  0  0  0
  1  4  2  0  0  0
  1 25  1  0  0  0
  2  3  2  0  0  0
  2 26  1  0  0  0
  3  6  1  0  0  0
  3 27  1  0  0  0
  4  5  1  0  0  0
  4 28  1  0  0  0
  5  6  2  0  0  0
  5  8  1  0  0  0
  6  7  1  0  0  0
  7  9  1  0  0  0
  7 29  1  0  0  0
  8  9  2  0  0  0
  8 10  1  0  0  0
  9 18  1  0  0  0
 10 14  1  0  0  0
 10 11  2  0  0  0
 11 12  1  0  0  0
 11 17  1  0  0  0
 12 13  1  0  0  0
 12 16  2  0  0  0
 13 14  1  0  0  0
 13 30  1  0  0  0
 14 15  2  0  0  0
 17 18  2  0  0  0
 17 22  1  0  0  0
 18 19  1  0  0  0
 19 20  2  0  0  0
 19 24  1  0  0  0
 20 21  1  0  0  0
 20 31  1  0  0  0
 21 22  2  0  0  0
 21 32  1  0  0  0
 22 23  1  0  0  0
 23 33  1  0  0  0
 24 34  1  0  0  0
 25 35  1  0  0  0
M  END
> <s_m_entry_id>
32128

> <s_m_entry_name>
dock_pv.391

> <s_m_Source_Path>
/home/csk/Desktop/cluster/DUD-E-result/src

> <s_m_Source_File>
dock_pv.maegz

> <i_m_Source_File_Index>
391

> <chembl_id>
CHEMBL397022

> <chembl_pref_name>
None

> <i_lp_mmshare_version>
53161

> <r_lp_tautomer_probability>
1

> <s_lp_Force_Field>
OPLS_2005

> <r_lp_Energy>
73.212235

> <b_lp_Chiralities_Consistent>
1

> <s_lp_Variant>
CHEMBL267_lig1271-1

> <s_i_glide_gridfile>
glide-grid_3el8

> <i_i_glide_lignum>
1424

> <i_i_glide_rotatable_bonds>
3

> <r_i_docking_score>
-7.21013869922015

> <r_i_glide_ligand_efficiency>
-0.288405547968806

> <r_i_glide_ligand_efficiency_sa>
-0.843302937154961

> <r_i_glide_ligand_efficiency_ln>
-1.70901894213618

> <r_i_glide_gscore>
-7.21013869922015

> <r_i_glide_lipo>
-2.37245201959251

> <r_i_glide_hbond>
-0.431549053191555

> <r_i_glide_metal>
0

> <r_i_glide_rewards>
-1.44822402765436

> <r_i_glide_evdw>
-34.8585357666016

> <r_i_glide_ecoul>
-7.70118761062622

> <r_i_glide_erotb>
0

> <r_i_glide_esite>
-0.0598086688577104

> <r_i_glide_emodel>
-60.0853956394324

> <r_i_glide_energy>
-42.5597233772278

> <r_i_glide_einternal>
0.109029524028301

> <i_i_glide_confnum>
1

> <i_i_glide_posenum>
265

> <r_i_glide_eff_state_penalty>
0

> <s_user_duplicate_titles>
CHEMBL267_lig1271

> <i_f3d_flags>
0

> <s_m_subgroup_title>
dock_pv

> <s_m_subgroupid>
dock_pv

> <b_m_subgroup_collapsed>
1

$$$$
CHEMBL267_lig423
                    3D
 Schrodinger Suite 2021-1.
 66 69  0  0  1  0            999 V2000
    6.4739    8.9721    5.5223 C   0  0  0  0  0  0
    5.3611    8.5004    6.3078 C   0  0  0  0  0  0
    6.1960    9.6872    4.3302 N   0  0  0  0  0  0
    6.5279   11.0097    3.9698 C   0  0  0  0  0  0
    5.6209    7.8509    7.5522 C   0  0  0  0  0  0
    7.7737    8.6635    5.9877 C   0  0  0  0  0  0
    4.0011    8.6664    5.9282 C   0  0  0  0  0  0
    6.8828    7.6065    7.9860 N   0  0  0  0  0  0
    7.7343   11.2800    3.3205 C   0  0  0  0  0  0
    4.5454    7.4645    8.3880 C   0  0  0  0  0  0
    3.2167    7.7174    8.0154 C   0  0  0  0  0  0
    9.0111    9.0371    5.3071 C   0  0  0  0  0  0
    9.9988    9.3486    4.7880 N   0  0  0  0  0  0
    2.9465    8.2945    6.7700 C   0  0  0  0  0  0
    8.0437   12.5506    2.8146 C   0  0  0  0  0  0
    5.5941   12.0543    4.1111 C   0  0  0  0  0  0
   -0.3904    3.5240    8.5401 N   0  0  2  0  0  0
    5.8835   13.3170    3.5880 C   0  0  0  0  0  0
    7.0940   13.5683    2.9419 C   0  0  0  0  0  0
    7.9137    7.9838    7.1979 C   0  0  0  0  0  0
    2.1059    7.4316    8.7903 O   0  0  0  0  0  0
    1.0002    3.1897    8.8705 C   0  0  0  0  0  0
   -0.9935    4.4520    9.5074 C   0  0  0  0  0  0
    2.1779    6.7556   10.0453 C   0  0  0  0  0  0
    1.6150    8.4713    6.4312 O   0  0  0  0  0  0
    9.2333   12.8597    2.1785 O   0  0  0  0  0  0
    1.2976    5.4933    9.9650 C   0  0  0  0  0  0
   -0.1717    5.7614    9.5880 C   0  0  0  0  0  0
    1.8610    4.4700    8.9613 C   0  0  0  0  0  0
   -1.2247    2.3419    8.3478 C   0  0  0  0  0  0
    4.2628   11.8696    4.8273 C   0  0  0  0  0  0
    7.3718   14.9573    2.3867 C   0  0  0  0  0  0
    1.2748    8.9902    5.1503 C   0  0  0  0  0  0
   10.2397   11.8631    2.0385 C   0  0  0  0  0  0
    5.2197    9.5571    4.1179 H   0  0  0  0  0  0
    3.7850    9.1073    4.9710 H   0  0  0  0  0  0
    8.4306   10.4809    3.1740 H   0  0  0  0  0  0
    4.8005    6.9934    9.3218 H   0  0  0  0  0  0
    5.1667   14.1189    3.6914 H   0  0  0  0  0  0
    8.8942    7.7455    7.5885 H   0  0  0  0  0  0
    1.0394    2.6098    9.7946 H   0  0  0  0  0  0
    1.3979    2.5542    8.0808 H   0  0  0  0  0  0
   -1.0787    3.9711   10.4834 H   0  0  0  0  0  0
   -2.0124    4.6730    9.1885 H   0  0  0  0  0  0
    3.1700    6.4726   10.3857 H   0  0  0  0  0  0
    1.7980    7.4272   10.8146 H   0  0  0  0  0  0
    1.2792    5.0370   10.9519 H   0  0  0  0  0  0
   -0.6020    6.4429   10.3198 H   0  0  0  0  0  0
   -0.2471    6.2936    8.6387 H   0  0  0  0  0  0
    1.9665    4.9044    7.9657 H   0  0  0  0  0  0
    2.8840    4.2370    9.2534 H   0  0  0  0  0  0
   -1.3410    1.7628    9.2592 H   0  0  0  0  0  0
   -2.2192    2.6287    8.0038 H   0  0  0  0  0  0
   -0.8025    1.6836    7.5914 H   0  0  0  0  0  0
    3.5896   11.2580    4.2283 H   0  0  0  0  0  0
    4.4177   11.3825    5.7894 H   0  0  0  0  0  0
    3.7733   12.8206    5.0377 H   0  0  0  0  0  0
    7.5406   14.9050    1.3107 H   0  0  0  0  0  0
    8.2757   15.3666    2.8396 H   0  0  0  0  0  0
    6.5535   15.6537    2.5760 H   0  0  0  0  0  0
    0.1928    9.0022    5.0460 H   0  0  0  0  0  0
    1.6268   10.0148    5.0273 H   0  0  0  0  0  0
    1.6709    8.3706    4.3441 H   0  0  0  0  0  0
   11.1126   12.3006    1.5537 H   0  0  0  0  0  0
   10.5625   11.4751    3.0056 H   0  0  0  0  0  0
    9.8982   11.0379    1.4139 H   0  0  0  0  0  0
  1  2  1  0  0  0
  1  3  1  0  0  0
  1  6  2  0  0  0
  2  5  1  0  0  0
  2  7  2  0  0  0
  3  4  1  0  0  0
  3 35  1  0  0  0
  4  9  2  0  0  0
  4 16  1  0  0  0
  5 10  2  0  0  0
  5  8  1  0  0  0
  6 12  1  0  0  0
  6 20  1  0  0  0
  7 14  1  0  0  0
  7 36  1  0  0  0
  8 20  2  0  0  0
  9 15  1  0  0  0
  9 37  1  0  0  0
 10 11  1  0  0  0
 10 38  1  0  0  0
 11 14  2  0  0  0
 11 21  1  0  0  0
 12 13  3  0  0  0
 14 25  1  0  0  0
 15 26  1  0  0  0
 15 19  2  0  0  0
 16 18  2  0  0  0
 16 31  1  0  0  0
 17 22  1  0  0  0
 17 30  1  0  0  0
 17 23  1  0  0  0
 18 19  1  0  0  0
 18 39  1  0  0  0
 19 32  1  0  0  0
 20 40  1  0  0  0
 21 24  1  0  0  0
 22 29  1  0  0  0
 22 41  1  0  0  0
 22 42  1  0  0  0
 23 28  1  0  0  0
 23 43  1  0  0  0
 23 44  1  0  0  0
 24 27  1  0  0  0
 24 45  1  0  0  0
 24 46  1  0  0  0
 25 33  1  0  0  0
 26 34  1  0  0  0
 27 28  1  0  0  0
 27 29  1  0  0  0
 27 47  1  0  0  0
 28 48  1  0  0  0
 28 49  1  0  0  0
 29 50  1  0  0  0
 29 51  1  0  0  0
 30 52  1  0  0  0
 30 53  1  0  0  0
 30 54  1  0  0  0
 31 55  1  0  0  0
 31 56  1  0  0  0
 31 57  1  0  0  0
 32 58  1  0  0  0
 32 59  1  0  0  0
 32 60  1  0  0  0
 33 61  1  0  0  0
 33 62  1  0  0  0
 33 63  1  0  0  0
 34 64  1  0  0  0
 34 65  1  0  0  0
 34 66  1  0  0  0
M  END
> <s_m_entry_id>
32129

> <s_m_entry_name>
dock_pv.392

> <s_m_Source_Path>
/home/csk/Desktop/cluster/DUD-E-result/src

> <s_m_Source_File>
dock_pv.maegz

> <i_m_Source_File_Index>
392

> <chembl_id>
CHEMBL41633

> <chembl_pref_name>
None

> <i_lp_mmshare_version>
53161

> <r_lp_tautomer_probability>
1

> <s_lp_Force_Field>
OPLS_2005

> <r_lp_Energy>
44.71248

> <b_lp_Chiralities_Consistent>
1

> <s_lp_Variant>
CHEMBL267_lig423-1

> <s_i_glide_gridfile>
glide-grid_3el8

> <i_i_glide_lignum>
502

> <i_i_glide_rotatable_bonds>
7

> <r_i_docking_score>
-7.20154421156092

> <r_i_glide_ligand_efficiency>
-0.211810123869439

> <r_i_glide_ligand_efficiency_sa>
-0.686182576110904

> <r_i_glide_ligand_efficiency_ln>
-1.59102311280686

> <r_i_glide_gscore>
-7.20154421156092

> <r_i_glide_lipo>
-4.01590127453782

> <r_i_glide_hbond>
-0.0526733191698047

> <r_i_glide_metal>
0

> <r_i_glide_rewards>
-1.08769294845848

> <r_i_glide_evdw>
-43.9852638244629

> <r_i_glide_ecoul>
-2.1168200969696

> <r_i_glide_erotb>
0.474475793157159

> <r_i_glide_esite>
-0.00296625678338318

> <r_i_glide_emodel>
-59.6682876515405

> <r_i_glide_energy>
-46.1020839214325

> <r_i_glide_einternal>
13.1960763931274

> <i_i_glide_confnum>
1

> <i_i_glide_posenum>
49

> <r_i_glide_eff_state_penalty>
0

> <s_user_duplicate_titles>
CHEMBL267_lig423,61196

> <i_f3d_flags>
0

> <s_m_subgroup_title>
dock_pv

> <s_m_subgroupid>
dock_pv

> <b_m_subgroup_collapsed>
1

$$$$
CHEMBL267_lig2739
                    3D
 Schrodinger Suite 2021-1.
 50 53  0  0  1  0            999 V2000
    1.7420    9.0438    2.7887 N   0  0  0  0  0  0
    1.3321    8.1922    3.8053 C   0  0  0  0  0  0
    0.6051    7.1171    3.4316 N   0  0  0  0  0  0
    0.1931    6.2716    4.4033 C   0  0  0  0  0  0
    0.4480    6.3606    5.7314 N   0  0  0  0  0  0
    1.1710    7.4386    6.0614 C   0  0  0  0  0  0
    1.6405    8.4179    5.1575 C   0  0  0  0  0  0
    2.3232    9.3739    5.9703 C   0  0  0  0  0  0
    3.0708   10.6276    5.5467 C   0  0  0  0  0  0
    4.5595   10.4366    5.2629 C   0  0  0  0  0  0
    5.2767   11.4590    4.6337 C   0  0  0  0  0  0
    6.6416   11.3165    4.3884 C   0  0  0  0  0  0
    7.3079   10.1559    4.7881 C   0  0  0  0  0  0
    6.6052    9.1283    5.4175 C   0  0  0  0  0  0
    7.2603    7.9586    5.8091 N   0  0  0  0  0  0
    7.4168    7.5404    7.5168 S   0  0  0  0  0  0
    7.3979    8.7921    8.2748 O   0  0  0  0  0  0
    8.5683    6.6372    7.5880 O   0  0  0  0  0  0
    5.9390    6.6350    7.9880 C   0  0  0  0  0  0
    6.0036    5.3475    8.3670 C   0  0  0  0  0  0
    5.2377    9.2705    5.6419 C   0  0  0  0  0  0
    2.2730    9.0106    7.2323 N   0  0  0  0  0  0
    1.6293    7.8204    7.3092 N   0  0  0  0  0  0
    1.4063    7.1640    8.6060 C   0  0  0  0  0  0
    1.5560    5.6328    8.5552 C   0  0  0  0  0  0
    1.8743    5.1869    9.9872 C   0  0  0  0  0  0
    2.2589    6.4529   10.7678 C   0  0  0  0  0  0
    2.3901    7.5631    9.7207 C   0  0  0  0  0  0
    2.3634    9.8134    2.9820 H   0  0  0  0  0  0
    1.4481    8.8053    1.8477 H   0  0  0  0  0  0
   -0.4079    5.4321    4.0823 H   0  0  0  0  0  0
    3.0237   11.3823    6.3316 H   0  0  0  0  0  0
    2.5898   11.1021    4.6898 H   0  0  0  0  0  0
    4.7769   12.3692    4.3346 H   0  0  0  0  0  0
    7.1864   12.1112    3.9012 H   0  0  0  0  0  0
    8.3703   10.0606    4.6090 H   0  0  0  0  0  0
    8.0367    7.6503    5.2404 H   0  0  0  0  0  0
    5.0179    7.1914    7.9524 H   0  0  0  0  0  0
    6.9392    4.8064    8.3874 H   0  0  0  0  0  0
    5.1136    4.8094    8.6615 H   0  0  0  0  0  0
    4.7058    8.4615    6.1134 H   0  0  0  0  0  0
    0.3899    7.4172    8.9042 H   0  0  0  0  0  0
    0.6609    5.1423    8.1703 H   0  0  0  0  0  0
    2.3957    5.3538    7.9133 H   0  0  0  0  0  0
    1.0030    4.7088   10.4403 H   0  0  0  0  0  0
    2.6860    4.4562    9.9879 H   0  0  0  0  0  0
    1.4733    6.6998   11.4832 H   0  0  0  0  0  0
    3.1802    6.3180   11.3361 H   0  0  0  0  0  0
    3.4125    7.5636    9.3486 H   0  0  0  0  0  0
    2.1981    8.5544   10.1251 H   0  0  0  0  0  0
  1  2  1  0  0  0
  1 29  1  0  0  0
  1 30  1  0  0  0
  2  3  2  0  0  0
  2  7  1  0  0  0
  3  4  1  0  0  0
  4  5  2  0  0  0
  4 31  1  0  0  0
  5  6  1  0  0  0
  6  7  2  0  0  0
  6 23  1  0  0  0
  7  8  1  0  0  0
  8  9  1  0  0  0
  8 22  2  0  0  0
  9 10  1  0  0  0
  9 32  1  0  0  0
  9 33  1  0  0  0
 10 11  2  0  0  0
 10 21  1  0  0  0
 11 12  1  0  0  0
 11 34  1  0  0  0
 12 13  2  0  0  0
 12 35  1  0  0  0
 13 14  1  0  0  0
 13 36  1  0  0  0
 14 15  1  0  0  0
 14 21  2  0  0  0
 15 16  1  0  0  0
 15 37  1  0  0  0
 16 17  2  0  0  0
 16 18  2  0  0  0
 16 19  1  0  0  0
 19 20  2  0  0  0
 19 38  1  0  0  0
 20 39  1  0  0  0
 20 40  1  0  0  0
 21 41  1  0  0  0
 22 23  1  0  0  0
 23 24  1  0  0  0
 24 25  1  0  0  0
 24 28  1  0  0  0
 24 42  1  0  0  0
 25 26  1  0  0  0
 25 43  1  0  0  0
 25 44  1  0  0  0
 26 27  1  0  0  0
 26 45  1  0  0  0
 26 46  1  0  0  0
 27 28  1  0  0  0
 27 47  1  0  0  0
 27 48  1  0  0  0
 28 49  1  0  0  0
 28 50  1  0  0  0
M  END
> <s_m_entry_id>
32130

> <s_m_entry_name>
dock_pv.393

> <s_m_Source_Path>
/home/csk/Desktop/cluster/DUD-E-result/src

> <s_m_Source_File>
dock_pv.maegz

> <i_m_Source_File_Index>
393

> <chembl_id>
CHEMBL3894318

> <chembl_pref_name>
None

> <i_lp_mmshare_version>
53161

> <r_lp_tautomer_probability>
1

> <s_lp_Force_Field>
OPLS_2005

> <r_lp_Energy>
22.847205

> <b_lp_Chiralities_Consistent>
1

> <s_lp_Variant>
CHEMBL267_lig2739-1

> <s_i_glide_gridfile>
glide-grid_3el8

> <i_i_glide_lignum>
3103

> <i_i_glide_rotatable_bonds>
6

> <r_i_docking_score>
-7.20014250081293

> <r_i_glide_ligand_efficiency>
-0.257147946457605

> <r_i_glide_ligand_efficiency_sa>
-0.780852617486315

> <r_i_glide_ligand_efficiency_ln>
-1.66200429455758

> <r_i_glide_gscore>
-7.20014250081293

> <r_i_glide_lipo>
-2.60184005547264

> <r_i_glide_hbond>
-0.32

> <r_i_glide_metal>
0

> <r_i_glide_rewards>
-1.91622662781607

> <r_i_glide_evdw>
-42.3490333557129

> <r_i_glide_ecoul>
-6.07543849945068

> <r_i_glide_erotb>
0.740043457774534

> <r_i_glide_esite>
-0.0733518325954992

> <r_i_glide_emodel>
-65.6040321143079

> <r_i_glide_energy>
-48.4244718551636

> <r_i_glide_einternal>
6.62010335922241

> <i_i_glide_confnum>
50

> <i_i_glide_posenum>
8

> <r_i_glide_eff_state_penalty>
0

> <s_user_duplicate_titles>
CHEMBL267_lig2739

> <i_f3d_flags>
0

> <s_m_subgroup_title>
dock_pv

> <s_m_subgroupid>
dock_pv

> <b_m_subgroup_collapsed>
1

$$$$
CHEMBL267_lig3748
                    3D
 Schrodinger Suite 2021-1.
 53 56  0  0  1  0            999 V2000
    0.8836    3.0990    9.5888 F   0  0  0  0  0  0
    2.5980    4.3919    9.5880 F   0  0  0  0  0  0
    0.7255    5.0369   10.5491 F   0  0  0  0  0  0
    1.7194    9.9349    3.0283 O   0  0  0  0  0  0
    0.8161    4.8769    8.2891 O   0  0  0  0  0  0
    8.5980    7.4733    6.7880 N   0  0  0  0  0  0
    7.7982    6.7509    7.5880 N   0  0  0  0  0  0
    3.4458   12.8841    4.3879 N   0  0  0  0  0  0
    0.9373    6.3307    3.5880 N   0  0  0  0  0  0
    6.6051    8.3794    6.6023 C   0  0  0  0  0  0
    7.9282    8.4779    6.1298 C   0  0  0  0  0  0
    6.0225   10.2249    5.1602 C   0  0  0  0  0  0
    6.6052    7.2806    7.5159 C   0  0  0  0  0  0
    5.6518    9.2657    6.1076 C   0  0  0  0  0  0
    4.9262   10.9811    4.5326 C   0  0  0  0  0  0
    8.3293    9.4370    5.1880 C   0  0  0  0  0  0
    7.3470   10.3227    4.7338 C   0  0  0  0  0  0
    4.0253   10.2391    3.7831 C   0  0  0  0  0  0
    2.7526   10.7356    3.4872 C   0  0  0  0  0  0
    4.6197   12.3200    4.7853 C   0  0  0  0  0  0
    5.4433    6.6954    8.2842 C   0  0  0  0  0  0
    2.5269   12.0860    3.7729 C   0  0  0  0  0  0
    1.1505    6.1527    7.8918 C   0  0  0  0  0  0
    0.8262    7.8181    6.1612 C   0  0  0  0  0  0
    0.5981    6.5496    6.6832 C   0  0  0  0  0  0
    1.2698    4.3708    9.5288 C   0  0  0  0  0  0
    0.6278    7.7543    3.5414 C   0  0  1  0  0  0
    0.0769    8.2300    4.9042 C   0  0  0  0  0  0
    1.8939    8.5093    3.1241 C   0  0  0  0  0  0
    1.9700    7.0553    8.5903 C   0  0  0  0  0  0
    1.6609    8.7049    6.8454 C   0  0  0  0  0  0
    2.2314    8.3216    8.0604 C   0  0  0  0  0  0
    9.5637    7.2077    6.6383 H   0  0  0  0  0  0
    1.3890    6.0533    2.7277 H   0  0  0  0  0  0
    1.5969    6.1541    4.3330 H   0  0  0  0  0  0
    4.6217    9.1750    6.4195 H   0  0  0  0  0  0
    9.3478    9.4974    4.8320 H   0  0  0  0  0  0
    7.6095   11.0598    3.9879 H   0  0  0  0  0  0
    4.3071    9.2245    3.5509 H   0  0  0  0  0  0
    5.2820   12.9423    5.3699 H   0  0  0  0  0  0
    4.9978    7.4244    8.9605 H   0  0  0  0  0  0
    4.6585    6.3719    7.6012 H   0  0  0  0  0  0
    5.7215    5.8275    8.8842 H   0  0  0  0  0  0
    1.5708   12.5356    3.5506 H   0  0  0  0  0  0
   -0.0586    5.8674    6.1609 H   0  0  0  0  0  0
   -0.1431    7.9204    2.7878 H   0  0  0  0  0  0
   -0.9353    7.8370    5.0179 H   0  0  0  0  0  0
   -0.0116    9.3128    4.9031 H   0  0  0  0  0  0
    2.5982    8.2367    3.9052 H   0  0  0  0  0  0
    2.2908    8.1340    2.1790 H   0  0  0  0  0  0
    2.4139    6.7924    9.5384 H   0  0  0  0  0  0
    1.8466    9.6939    6.4504 H   0  0  0  0  0  0
    2.8675    9.0096    8.5982 H   0  0  0  0  0  0
  1 26  1  0  0  0
  2 26  1  0  0  0
  3 26  1  0  0  0
  4 19  1  0  0  0
  4 29  1  0  0  0
  5 23  1  0  0  0
  5 26  1  0  0  0
  6  7  1  0  0  0
  6 11  1  0  0  0
  6 33  1  0  0  0
  7 13  2  0  0  0
  8 20  1  0  0  0
  8 22  2  0  0  0
  9 27  1  0  0  0
  9 34  1  0  0  0
  9 35  1  0  0  0
 10 11  1  0  0  0
 10 13  1  0  0  0
 10 14  2  0  0  0
 11 16  2  0  0  0
 12 14  1  0  0  0
 12 15  1  0  0  0
 12 17  2  0  0  0
 13 21  1  0  0  0
 14 36  1  0  0  0
 15 18  1  0  0  0
 15 20  2  0  0  0
 16 17  1  0  0  0
 16 37  1  0  0  0
 17 38  1  0  0  0
 18 19  2  0  0  0
 18 39  1  0  0  0
 19 22  1  0  0  0
 20 40  1  0  0  0
 21 41  1  0  0  0
 21 42  1  0  0  0
 21 43  1  0  0  0
 22 44  1  0  0  0
 23 25  2  0  0  0
 23 30  1  0  0  0
 24 25  1  0  0  0
 24 28  1  0  0  0
 24 31  2  0  0  0
 25 45  1  0  0  0
 27 28  1  0  0  0
 27 29  1  0  0  0
 27 46  1  0  0  0
 28 47  1  0  0  0
 28 48  1  0  0  0
 29 49  1  0  0  0
 29 50  1  0  0  0
 30 32  2  0  0  0
 30 51  1  0  0  0
 31 32  1  0  0  0
 31 52  1  0  0  0
 32 53  1  0  0  0
M  END
> <s_m_entry_id>
32131

> <s_m_entry_name>
dock_pv.394

> <s_m_Source_Path>
/home/csk/Desktop/cluster/DUD-E-result/src

> <s_m_Source_File>
dock_pv.maegz

> <i_m_Source_File_Index>
394

> <chembl_id>
CHEMBL1965836

> <chembl_pref_name>
None

> <i_lp_mmshare_version>
53161

> <r_lp_tautomer_probability>
0.980392156862745

> <s_lp_Force_Field>
OPLS_2005

> <r_lp_Energy>
23.752304

> <b_lp_Chiralities_Consistent>
1

> <s_lp_Variant>
CHEMBL267_lig3748-2

> <s_i_glide_gridfile>
glide-grid_3el8

> <i_i_glide_lignum>
4578

> <i_i_glide_rotatable_bonds>
8

> <r_i_docking_score>
-7.19963445710875

> <r_i_glide_ligand_efficiency>
-0.224988576784649

> <r_i_glide_ligand_efficiency_sa>
-0.714294206112373

> <r_i_glide_ligand_efficiency_ln>
-1.61219440956978

> <r_i_glide_gscore>
-7.19963445710875

> <r_i_glide_lipo>
-3.38307496683306

> <r_i_glide_hbond>
-0.340867131617855

> <r_i_glide_metal>
0

> <r_i_glide_rewards>
-1.50213764687367

> <r_i_glide_evdw>
-40.1245384216309

> <r_i_glide_ecoul>
-3.11703395843506

> <r_i_glide_erotb>
0.500227303062638

> <r_i_glide_esite>
0

> <r_i_glide_emodel>
-57.3490966589825

> <r_i_glide_energy>
-43.2415723800659

> <r_i_glide_einternal>
8.05090141296387

> <i_i_glide_confnum>
12

> <i_i_glide_posenum>
50

> <r_i_glide_eff_state_penalty>
0

> <s_user_duplicate_titles>
CHEMBL267_lig3748

> <i_f3d_flags>
0

> <s_m_subgroup_title>
dock_pv

> <s_m_subgroupid>
dock_pv

> <b_m_subgroup_collapsed>
1

$$$$
CHEMBL267_lig3144
                    3D
 Schrodinger Suite 2021-1.
 52 55  0  0  1  0            999 V2000
    0.9539   10.4963    5.8779 O   0  0  0  0  0  0
    9.7982    9.1301    5.0235 N   0  0  0  0  0  0
   10.4317   10.0366    4.2595 N   0  0  0  0  0  0
    3.0974   13.0905    4.5132 N   0  0  0  0  0  0
    1.0379    7.2335    3.1881 N   0  0  0  0  0  0
    8.2601   10.6196    4.4397 C   0  0  0  0  0  0
    8.4647    9.4369    5.1880 C   0  0  0  0  0  0
    5.9279   10.6121    5.1374 C   0  0  0  0  0  0
    6.9761   11.1786    4.3880 C   0  0  0  0  0  0
    9.5453   10.9312    3.8937 C   0  0  0  0  0  0
    4.5529   11.2269    5.1181 C   0  0  0  0  0  0
    7.4410    8.8207    5.9056 C   0  0  0  0  0  0
    6.1969    9.4504    5.8840 C   0  0  0  0  0  0
    3.4150   10.5370    5.5785 C   0  0  0  0  0  0
    2.1310   11.0951    5.4766 C   0  0  0  0  0  0
    4.3222   12.5203    4.6167 C   0  0  0  0  0  0
    2.0307   12.3729    4.9329 C   0  0  0  0  0  0
    9.9336   12.0938    3.0095 C   0  0  0  0  0  0
    0.9338    9.2014    6.4807 C   0  0  0  0  0  0
    1.2532    8.0074    5.5359 C   0  0  1  0  0  0
    1.0025    6.6375    6.2302 C   0  0  0  0  0  0
    1.5731    6.4995    7.6439 C   0  0  0  0  0  0
    0.4833    8.1173    4.1979 C   0  0  0  0  0  0
    2.9202    6.7787    7.8975 C   0  0  0  0  0  0
    0.7415    6.0913    8.6922 C   0  0  0  0  0  0
    3.4290    6.6599    9.1876 C   0  0  0  0  0  0
    1.2491    5.9725    9.9832 C   0  0  0  0  0  0
    2.5904    6.2600   10.2246 C   0  0  0  0  0  0
   10.2930    8.3196    5.3748 H   0  0  0  0  0  0
    0.5978    7.4258    2.2865 H   0  0  0  0  0  0
    2.0149    7.4436    3.0489 H   0  0  0  0  0  0
    6.8272   12.0574    3.7817 H   0  0  0  0  0  0
    7.6067    7.9220    6.4813 H   0  0  0  0  0  0
    5.4284    8.9891    6.4822 H   0  0  0  0  0  0
    3.5222    9.5626    6.0137 H   0  0  0  0  0  0
    5.1241   13.1536    4.2714 H   0  0  0  0  0  0
    1.0661   12.8475    4.8336 H   0  0  0  0  0  0
    9.3761   12.0836    2.0728 H   0  0  0  0  0  0
    9.7292   13.0479    3.4951 H   0  0  0  0  0  0
   10.9929   12.0904    2.7483 H   0  0  0  0  0  0
   -0.0728    9.0706    6.8799 H   0  0  0  0  0  0
    1.5946    9.2119    7.3487 H   0  0  0  0  0  0
    2.3111    8.0405    5.2894 H   0  0  0  0  0  0
    1.4256    5.8371    5.6219 H   0  0  0  0  0  0
   -0.0721    6.4472    6.2577 H   0  0  0  0  0  0
   -0.5720    7.8791    4.3404 H   0  0  0  0  0  0
    0.5329    9.1345    3.8064 H   0  0  0  0  0  0
    3.5761    7.0839    7.0965 H   0  0  0  0  0  0
   -0.2984    5.8605    8.5130 H   0  0  0  0  0  0
    4.4703    6.8673    9.3852 H   0  0  0  0  0  0
    0.6065    5.6535   10.7912 H   0  0  0  0  0  0
    2.9914    6.1576   11.2231 H   0  0  0  0  0  0
  1 15  1  0  0  0
  1 19  1  0  0  0
  2  3  1  0  0  0
  2  7  1  0  0  0
  2 29  1  0  0  0
  3 10  2  0  0  0
  4 16  1  0  0  0
  4 17  2  0  0  0
  5 23  1  0  0  0
  5 30  1  0  0  0
  5 31  1  0  0  0
  6  7  1  0  0  0
  6  9  2  0  0  0
  6 10  1  0  0  0
  7 12  2  0  0  0
  8  9  1  0  0  0
  8 11  1  0  0  0
  8 13  2  0  0  0
  9 32  1  0  0  0
 10 18  1  0  0  0
 11 14  1  0  0  0
 11 16  2  0  0  0
 12 13  1  0  0  0
 12 33  1  0  0  0
 13 34  1  0  0  0
 14 15  2  0  0  0
 14 35  1  0  0  0
 15 17  1  0  0  0
 16 36  1  0  0  0
 17 37  1  0  0  0
 18 38  1  0  0  0
 18 39  1  0  0  0
 18 40  1  0  0  0
 19 20  1  0  0  0
 19 41  1  0  0  0
 19 42  1  0  0  0
 20 21  1  0  0  0
 20 23  1  0  0  0
 20 43  1  0  0  0
 21 22  1  0  0  0
 21 44  1  0  0  0
 21 45  1  0  0  0
 22 24  2  0  0  0
 22 25  1  0  0  0
 23 46  1  0  0  0
 23 47  1  0  0  0
 24 26  1  0  0  0
 24 48  1  0  0  0
 25 27  2  0  0  0
 25 49  1  0  0  0
 26 28  2  0  0  0
 26 50  1  0  0  0
 27 28  1  0  0  0
 27 51  1  0  0  0
 28 52  1  0  0  0
M  END
> <s_m_entry_id>
32132

> <s_m_entry_name>
dock_pv.395

> <s_m_Source_Path>
/home/csk/Desktop/cluster/DUD-E-result/src

> <s_m_Source_File>
dock_pv.maegz

> <i_m_Source_File_Index>
395

> <chembl_id>
CHEMBL2000271

> <chembl_pref_name>
None

> <i_lp_mmshare_version>
53161

> <r_lp_tautomer_probability>
0.980392156862745

> <s_lp_Force_Field>
OPLS_2005

> <r_lp_Energy>
22.05967

> <b_lp_Chiralities_Consistent>
1

> <s_lp_Variant>
CHEMBL267_lig3144-2

> <s_i_glide_gridfile>
glide-grid_3el8

> <i_i_glide_lignum>
3652

> <i_i_glide_rotatable_bonds>
7

> <r_i_docking_score>
-7.19921891299337

> <r_i_glide_ligand_efficiency>
-0.257114961178335

> <r_i_glide_ligand_efficiency_sa>
-0.780752454751161

> <r_i_glide_ligand_efficiency_ln>
-1.66179110337111

> <r_i_glide_gscore>
-7.19921891299337

> <r_i_glide_lipo>
-3.4497755031624

> <r_i_glide_hbond>
-0.531528578301004

> <r_i_glide_metal>
0

> <r_i_glide_rewards>
-1.01123733139961

> <r_i_glide_evdw>
-36.0701141357422

> <r_i_glide_ecoul>
-7.32862615585327

> <r_i_glide_erotb>
0.696122130034739

> <r_i_glide_esite>
0

> <r_i_glide_emodel>
-60.729527457281

> <r_i_glide_energy>
-43.3987402915955

> <r_i_glide_einternal>
2.98268628120422

> <i_i_glide_confnum>
8

> <i_i_glide_posenum>
17

> <r_i_glide_eff_state_penalty>
0

> <s_user_duplicate_titles>
CHEMBL267_lig3144

> <i_f3d_flags>
0

> <s_m_subgroup_title>
dock_pv

> <s_m_subgroupid>
dock_pv

> <b_m_subgroup_collapsed>
1

$$$$
CHEMBL267_lig3876
                    3D
 Schrodinger Suite 2021-1.
 48 50  0  0  1  0            999 V2000
    8.3259   11.2817    3.9878 C   0  0  0  0  0  0
    7.1297   10.8039    4.5693 C   0  0  0  0  0  0
    7.1142    9.6899    5.3483 N   0  0  0  0  0  0
    8.2648    9.0193    5.5868 C   0  0  0  0  0  0
    9.4800    9.4370    5.0453 C   0  0  0  0  0  0
    9.5215   10.5761    4.2394 C   0  0  0  0  0  0
    8.2593    7.8676    6.3861 N   0  0  0  0  0  0
    5.8976   11.4655    4.3787 N   0  0  0  0  0  0
    7.2434    7.3141    7.1190 C   0  0  0  0  0  0
    5.9896    7.8298    7.4878 C   0  0  0  0  0  0
    5.3514    6.8459    8.2210 C   0  0  0  0  0  0
    6.2623    5.8242    8.2415 N   0  0  0  0  0  0
    7.3978    6.0974    7.5894 N   0  0  0  0  0  0
    4.0061    6.7620    8.8939 C   0  0  0  0  0  0
    8.3401   12.4907    3.1592 C   0  0  0  0  0  0
    8.3513   13.4457    2.5071 N   0  0  0  0  0  0
    4.6872   11.0177    5.0641 C   0  0  0  0  0  0
   10.8688   10.9976    3.6568 C   0  0  0  0  0  0
    3.4335   11.8522    4.7537 C   0  0  0  0  0  0
    2.3301   11.3785    5.5283 O   0  0  0  0  0  0
    1.7883   10.1348    5.2626 C   0  0  0  0  0  0
    1.9502    9.4286    4.0567 C   0  0  0  0  0  0
    1.3202    8.1946    3.8850 C   0  0  0  0  0  0
    0.5514    7.6859    4.9338 C   0  0  0  0  0  0
    0.3928    8.3378    6.1164 N   0  0  0  0  0  0
    1.0006    9.5442    6.2549 C   0  0  0  0  0  0
   -0.2054    6.3816    4.7865 C   0  0  0  0  0  0
   10.3820    8.8755    5.2465 H   0  0  0  0  0  0
    9.1385    7.3735    6.3202 H   0  0  0  0  0  0
    5.8785   12.3394    3.8726 H   0  0  0  0  0  0
    5.5956    8.8033    7.2387 H   0  0  0  0  0  0
    6.1168    4.9375    8.7066 H   0  0  0  0  0  0
    3.4491    7.6949    8.8048 H   0  0  0  0  0  0
    4.0988    6.5433    9.9585 H   0  0  0  0  0  0
    3.3871    5.9758    8.4577 H   0  0  0  0  0  0
    4.5240    9.9661    4.8188 H   0  0  0  0  0  0
    4.8765   11.0468    6.1386 H   0  0  0  0  0  0
   10.8219   11.0066    2.5668 H   0  0  0  0  0  0
   11.1281   12.0079    3.9786 H   0  0  0  0  0  0
   11.6806   10.3321    3.9528 H   0  0  0  0  0  0
    3.6064   12.8901    5.0395 H   0  0  0  0  0  0
    3.1987   11.8625    3.6885 H   0  0  0  0  0  0
    2.5365    9.8273    3.2429 H   0  0  0  0  0  0
    1.4115    7.6587    2.9508 H   0  0  0  0  0  0
    0.8525   10.0515    7.1969 H   0  0  0  0  0  0
    0.2289    5.7572    4.0033 H   0  0  0  0  0  0
   -0.1996    5.8135    5.7181 H   0  0  0  0  0  0
   -1.2403    6.5933    4.5179 H   0  0  0  0  0  0
  1  2  2  0  0  0
  1  6  1  0  0  0
  1 15  1  0  0  0
  2  3  1  0  0  0
  2  8  1  0  0  0
  3  4  2  0  0  0
  4  5  1  0  0  0
  4  7  1  0  0  0
  5  6  2  0  0  0
  5 28  1  0  0  0
  6 18  1  0  0  0
  7  9  1  0  0  0
  7 29  1  0  0  0
  8 17  1  0  0  0
  8 30  1  0  0  0
  9 10  1  0  0  0
  9 13  2  0  0  0
 10 11  2  0  0  0
 10 31  1  0  0  0
 11 12  1  0  0  0
 11 14  1  0  0  0
 12 13  1  0  0  0
 12 32  1  0  0  0
 14 33  1  0  0  0
 14 34  1  0  0  0
 14 35  1  0  0  0
 15 16  3  0  0  0
 17 19  1  0  0  0
 17 36  1  0  0  0
 17 37  1  0  0  0
 18 38  1  0  0  0
 18 39  1  0  0  0
 18 40  1  0  0  0
 19 20  1  0  0  0
 19 41  1  0  0  0
 19 42  1  0  0  0
 20 21  1  0  0  0
 21 22  2  0  0  0
 21 26  1  0  0  0
 22 23  1  0  0  0
 22 43  1  0  0  0
 23 24  2  0  0  0
 23 44  1  0  0  0
 24 25  1  0  0  0
 24 27  1  0  0  0
 25 26  2  0  0  0
 26 45  1  0  0  0
 27 46  1  0  0  0
 27 47  1  0  0  0
 27 48  1  0  0  0
M  END
> <s_m_entry_id>
32133

> <s_m_entry_name>
dock_pv.396

> <s_m_Source_Path>
/home/csk/Desktop/cluster/DUD-E-result/src

> <s_m_Source_File>
dock_pv.maegz

> <i_m_Source_File_Index>
396

> <chembl_id>
CHEMBL3893914

> <chembl_pref_name>
None

> <i_lp_mmshare_version>
53161

> <r_lp_tautomer_probability>
0.842599999161192

> <s_lp_Force_Field>
OPLS_2005

> <r_lp_Energy>
16.668714

> <b_lp_Chiralities_Consistent>
1

> <s_lp_Variant>
CHEMBL267_lig3876-1

> <s_i_glide_gridfile>
glide-grid_3el8

> <i_i_glide_lignum>
4785

> <i_i_glide_rotatable_bonds>
7

> <r_i_docking_score>
-7.19768488086868

> <r_i_glide_ligand_efficiency>
-0.266580921513655

> <r_i_glide_ligand_efficiency_sa>
-0.799742763662357

> <r_i_glide_ligand_efficiency_ln>
-1.67550237715694

> <r_i_glide_gscore>
-7.19768488086868

> <r_i_glide_lipo>
-3.02592869965284

> <r_i_glide_hbond>
-0.436511381474541

> <r_i_glide_metal>
0

> <r_i_glide_rewards>
-1.8299601778707

> <r_i_glide_evdw>
-39.2340240478516

> <r_i_glide_ecoul>
-4.37609386444092

> <r_i_glide_erotb>
0.71283066018811

> <r_i_glide_esite>
0

> <r_i_glide_emodel>
-58.7379548949862

> <r_i_glide_energy>
-43.6101179122925

> <r_i_glide_einternal>
6.19170379638672

> <i_i_glide_confnum>
9

> <i_i_glide_posenum>
255

> <r_i_glide_eff_state_penalty>
0

> <s_user_duplicate_titles>
CHEMBL267_lig3876

> <i_f3d_flags>
0

> <s_m_subgroup_title>
dock_pv

> <s_m_subgroupid>
dock_pv

> <b_m_subgroup_collapsed>
1

$$$$
CHEMBL267_lig2958
                    3D
 Schrodinger Suite 2021-1.
 48 51  0  0  1  0            999 V2000
    1.7904    6.6510    9.5027 N   0  0  0  0  0  0
    2.6482    7.6971    9.4973 C   0  0  0  0  0  0
    2.8223    8.5968    8.5069 N   0  0  0  0  0  0
    1.0872    6.4163    8.3644 C   0  0  0  0  0  0
    3.7958    7.8377   10.8154 S   0  0  0  0  0  0
    0.2027    5.3423    8.3094 N   0  0  0  0  0  0
    2.3104    8.8717    6.1366 N   0  0  0  0  0  0
    1.5087    8.2618    5.2334 N   0  0  0  0  0  0
    0.8818    7.2894    5.8569 C   0  0  0  0  0  0
    1.2970    7.2066    7.2217 C   0  0  0  0  0  0
    2.1943    8.2770    7.3772 C   0  0  0  0  0  0
    3.1394   10.0095    5.7364 C   0  0  0  0  0  0
    4.3982    9.6300    4.9044 C   0  0  2  0  0  0
    5.5497    8.8594    5.5794 C   0  0  0  0  0  0
    5.0326   11.1437    4.1989 Cl  0  0  0  0  0  0
    5.6396    8.6368    6.9496 C   0  0  0  0  0  0
    6.7094    7.9524    7.5183 C   0  0  0  0  0  0
    7.7402    7.5028    6.7030 C   0  0  0  0  0  0
    7.6908    7.7454    5.3363 C   0  0  0  0  0  0
    6.5951    8.4057    4.7881 C   0  0  0  0  0  0
    3.3050    6.6591   12.0878 C   0  0  0  0  0  0
   -0.1637    4.6002    9.5058 C   0  0  0  0  0  0
   -0.6648    3.2382    9.0889 C   0  0  0  0  0  0
   -2.0307    2.9563    9.1231 C   0  0  0  0  0  0
   -2.4686    1.6780    8.7887 C   0  0  0  0  0  0
   -1.5580    0.6983    8.3954 C   0  0  0  0  0  0
   -0.1959    0.9741    8.3875 C   0  0  0  0  0  0
    0.2541    2.2484    8.7283 C   0  0  0  0  0  0
   -1.9929   -0.5382    8.0626 F   0  0  0  0  0  0
   -0.5180    5.4144    7.5991 H   0  0  0  0  0  0
    0.1810    6.6521    5.3355 H   0  0  0  0  0  0
    3.4132   10.5811    6.6209 H   0  0  0  0  0  0
    2.4992   10.6659    5.1443 H   0  0  0  0  0  0
    4.0668    9.0369    4.0504 H   0  0  0  0  0  0
    4.8940    9.0325    7.5877 H   0  0  0  0  0  0
    6.7471    7.7981    8.5846 H   0  0  0  0  0  0
    8.5882    6.9872    7.1275 H   0  0  0  0  0  0
    8.5017    7.4328    4.6984 H   0  0  0  0  0  0
    6.5657    8.5908    3.7265 H   0  0  0  0  0  0
    4.1392    6.4427   12.7561 H   0  0  0  0  0  0
    2.4671    7.0364   12.6728 H   0  0  0  0  0  0
    2.9959    5.7481   11.5868 H   0  0  0  0  0  0
    0.6846    4.4724   10.1801 H   0  0  0  0  0  0
   -0.9316    5.1428   10.0601 H   0  0  0  0  0  0
   -2.7448    3.7155    9.4100 H   0  0  0  0  0  0
   -3.5245    1.4507    8.7959 H   0  0  0  0  0  0
    0.5079    0.2005    8.1210 H   0  0  0  0  0  0
    1.3135    2.4617    8.7285 H   0  0  0  0  0  0
  1  2  2  0  0  0
  1  4  1  0  0  0
  2  5  1  0  0  0
  2  3  1  0  0  0
  3 11  2  0  0  0
  4 10  2  0  0  0
  4  6  1  0  0  0
  5 21  1  0  0  0
  6 22  1  0  0  0
  6 30  1  0  0  0
  7  8  1  0  0  0
  7 11  1  0  0  0
  7 12  1  0  0  0
  8  9  2  0  0  0
  9 10  1  0  0  0
  9 31  1  0  0  0
 10 11  1  0  0  0
 12 13  1  0  0  0
 12 32  1  0  0  0
 12 33  1  0  0  0
 13 14  1  0  0  0
 13 15  1  0  0  0
 13 34  1  0  0  0
 14 16  2  0  0  0
 14 20  1  0  0  0
 16 17  1  0  0  0
 16 35  1  0  0  0
 17 18  2  0  0  0
 17 36  1  0  0  0
 18 19  1  0  0  0
 18 37  1  0  0  0
 19 20  2  0  0  0
 19 38  1  0  0  0
 20 39  1  0  0  0
 21 40  1  0  0  0
 21 41  1  0  0  0
 21 42  1  0  0  0
 22 23  1  0  0  0
 22 43  1  0  0  0
 22 44  1  0  0  0
 23 24  2  0  0  0
 23 28  1  0  0  0
 24 25  1  0  0  0
 24 45  1  0  0  0
 25 26  2  0  0  0
 25 46  1  0  0  0
 26 27  1  0  0  0
 26 29  1  0  0  0
 27 28  2  0  0  0
 27 47  1  0  0  0
 28 48  1  0  0  0
M  END
> <s_m_entry_id>
32134

> <s_m_entry_name>
dock_pv.397

> <s_m_Source_Path>
/home/csk/Desktop/cluster/DUD-E-result/src

> <s_m_Source_File>
dock_pv.maegz

> <i_m_Source_File_Index>
397

> <chembl_id>
CHEMBL241540

> <chembl_pref_name>
None

> <i_lp_mmshare_version>
53161

> <r_lp_tautomer_probability>
1

> <s_lp_Force_Field>
OPLS_2005

> <r_lp_Energy>
9.658534

> <b_lp_Chiralities_Consistent>
1

> <s_lp_Variant>
CHEMBL267_lig2958-1

> <s_i_glide_gridfile>
glide-grid_3el8

> <i_i_glide_lignum>
3367

> <i_i_glide_rotatable_bonds>
7

> <r_i_docking_score>
-7.19761311793871

> <r_i_glide_ligand_efficiency>
-0.24819355579099

> <r_i_glide_ligand_efficiency_sa>
-0.762529236627571

> <r_i_glide_ligand_efficiency_ln>
-1.64807088828718

> <r_i_glide_gscore>
-7.19761311793871

> <r_i_glide_lipo>
-3.94024940136849

> <r_i_glide_hbond>
-0.316202885212438

> <r_i_glide_metal>
0

> <r_i_glide_rewards>
-1.13808357842431

> <r_i_glide_evdw>
-37.1329612731934

> <r_i_glide_ecoul>
-3.81340861320496

> <r_i_glide_erotb>
0.650691763995007

> <r_i_glide_esite>
-0.0251096612880665

> <r_i_glide_emodel>
-54.4096464089015

> <r_i_glide_energy>
-40.9463698863983

> <r_i_glide_einternal>
11.5413722991943

> <i_i_glide_confnum>
4

> <i_i_glide_posenum>
307

> <r_i_glide_eff_state_penalty>
0

> <s_user_duplicate_titles>
CHEMBL267_lig2958

> <i_f3d_flags>
0

> <s_m_subgroup_title>
dock_pv

> <s_m_subgroupid>
dock_pv

> <b_m_subgroup_collapsed>
1

$$$$
CHEMBL267_lig3557
                    3D
 Schrodinger Suite 2021-1.
 40 43  0  0  1  0            999 V2000
    7.3729    5.5635    7.9883 Cl  0  0  0  0  0  0
    6.9819   11.0256    4.1630 O   0  0  0  0  0  0
   -0.1887    6.3271    8.7880 O   0  0  0  0  0  0
    3.9649    9.0373    6.1733 N   0  0  0  0  0  0
    2.4114   10.7772    5.5931 N   0  0  0  0  0  0
    3.0831   12.7747    4.4572 N   0  0  0  0  0  0
    5.2234   13.1267    3.7165 N   0  0  0  0  0  0
    0.9008   12.5020    5.1973 N   0  0  0  0  0  0
    3.6822   10.2761    5.5372 C   0  0  0  0  0  0
    4.7029   11.0183    4.8926 C   0  0  0  0  0  0
    5.3108    8.6033    6.3202 C   0  0  0  0  0  0
    6.3575    9.2949    5.6634 C   0  0  0  0  0  0
    6.0870   10.4790    4.8150 C   0  0  0  0  0  0
    2.9106    8.3244    6.7805 C   0  0  0  0  0  0
    4.3337   12.2772    4.3649 C   0  0  0  0  0  0
    5.6717    7.4673    7.0800 C   0  0  0  0  0  0
    7.6865    8.8663    5.8008 C   0  0  0  0  0  0
    1.8302    7.7577    6.0550 C   0  0  0  0  0  0
    2.1798   11.9943    5.0701 C   0  0  0  0  0  0
    6.9950    7.0409    7.1879 C   0  0  0  0  0  0
    2.8951    8.1992    8.1795 C   0  0  0  0  0  0
    8.0047    7.7582    6.5691 C   0  0  0  0  0  0
    0.8034    7.0852    6.7322 C   0  0  0  0  0  0
    1.8805    7.5098    8.8377 C   0  0  0  0  0  0
    0.8264    6.9613    8.1190 C   0  0  0  0  0  0
    1.7166    7.8284    4.5354 C   0  0  0  0  0  0
   -0.8962    5.9964    8.2135 H   0  0  0  0  0  0
    6.1746   12.8056    3.5828 H   0  0  0  0  0  0
    4.8953   14.0061    3.3487 H   0  0  0  0  0  0
    0.2012   11.9328    5.6445 H   0  0  0  0  0  0
    0.6960   13.4011    4.7914 H   0  0  0  0  0  0
    4.9275    6.8515    7.5582 H   0  0  0  0  0  0
    8.4957    9.3869    5.3057 H   0  0  0  0  0  0
    3.6879    8.6362    8.7691 H   0  0  0  0  0  0
    9.0328    7.4375    6.6431 H   0  0  0  0  0  0
   -0.0191    6.6585    6.1752 H   0  0  0  0  0  0
    1.9050    7.4170    9.9136 H   0  0  0  0  0  0
    0.8576    8.4386    4.2539 H   0  0  0  0  0  0
    2.5982    8.2371    4.0480 H   0  0  0  0  0  0
    1.5531    6.8310    4.1248 H   0  0  0  0  0  0
  1 20  1  0  0  0
  2 13  2  0  0  0
  3 25  1  0  0  0
  3 27  1  0  0  0
  4  9  1  0  0  0
  4 11  1  0  0  0
  4 14  1  0  0  0
  5  9  2  0  0  0
  5 19  1  0  0  0
  6 15  1  0  0  0
  6 19  2  0  0  0
  7 15  1  0  0  0
  7 28  1  0  0  0
  7 29  1  0  0  0
  8 19  1  0  0  0
  8 30  1  0  0  0
  8 31  1  0  0  0
  9 10  1  0  0  0
 10 13  1  0  0  0
 10 15  2  0  0  0
 11 12  1  0  0  0
 11 16  2  0  0  0
 12 13  1  0  0  0
 12 17  2  0  0  0
 14 18  1  0  0  0
 14 21  2  0  0  0
 16 20  1  0  0  0
 16 32  1  0  0  0
 17 22  1  0  0  0
 17 33  1  0  0  0
 18 23  2  0  0  0
 18 26  1  0  0  0
 20 22  2  0  0  0
 21 24  1  0  0  0
 21 34  1  0  0  0
 22 35  1  0  0  0
 23 25  1  0  0  0
 23 36  1  0  0  0
 24 25  2  0  0  0
 24 37  1  0  0  0
 26 38  1  0  0  0
 26 39  1  0  0  0
 26 40  1  0  0  0
M  END
> <s_m_entry_id>
32135

> <s_m_entry_name>
dock_pv.398

> <s_m_Source_Path>
/home/csk/Desktop/cluster/DUD-E-result/src

> <s_m_Source_File>
dock_pv.maegz

> <i_m_Source_File_Index>
398

> <chembl_id>
CHEMBL1995592

> <chembl_pref_name>
None

> <i_lp_mmshare_version>
53161

> <r_lp_tautomer_probability>
1

> <s_lp_Force_Field>
OPLS_2005

> <r_lp_Energy>
20.496291

> <b_lp_Chiralities_Consistent>
1

> <s_lp_Variant>
CHEMBL267_lig3557-1

> <s_i_glide_gridfile>
glide-grid_3el8

> <i_i_glide_lignum>
4284

> <i_i_glide_rotatable_bonds>
2

> <r_i_docking_score>
-7.19626565817641

> <r_i_glide_ligand_efficiency>
-0.2767794483914

> <r_i_glide_ligand_efficiency_sa>
-0.819958026784983

> <r_i_glide_ligand_efficiency_ln>
-1.69001937694915

> <r_i_glide_gscore>
-7.19626565817641

> <r_i_glide_lipo>
-2.72418573243048

> <r_i_glide_hbond>
-0.32

> <r_i_glide_metal>
0

> <r_i_glide_rewards>
-1.47075565819688

> <r_i_glide_evdw>
-35.1933670043945

> <r_i_glide_ecoul>
-7.09372329711914

> <r_i_glide_erotb>
0.142402577238549

> <r_i_glide_esite>
0

> <r_i_glide_emodel>
-57.9835983075989

> <r_i_glide_energy>
-42.2870903015137

> <r_i_glide_einternal>
1.24703395366669

> <i_i_glide_confnum>
3

> <i_i_glide_posenum>
374

> <r_i_glide_eff_state_penalty>
0

> <s_user_duplicate_titles>
CHEMBL267_lig3557

> <i_f3d_flags>
0

> <s_m_subgroup_title>
dock_pv

> <s_m_subgroupid>
dock_pv

> <b_m_subgroup_collapsed>
1

$$$$
CHEMBL267_lig1541
                    3D
 Schrodinger Suite 2021-1.
 43 46  0  0  1  0            999 V2000
    7.5003    6.4888    7.5879 N   0  0  0  0  0  0
    7.8862    7.4372    6.7009 C   0  0  0  0  0  0
    7.1107    8.3679    6.0942 N   0  0  0  0  0  0
    6.1984    6.4900    7.9715 C   0  0  0  0  0  0
    5.2891    7.4481    7.4666 C   0  0  0  0  0  0
    5.8294    8.3366    6.4863 C   0  0  0  0  0  0
    4.8004    9.1250    5.9873 N   0  0  0  0  0  0
    3.6708    8.8275    6.7245 C   0  0  0  0  0  0
    3.8977    7.7937    7.6223 C   0  0  0  0  0  0
    2.8890    7.1808    8.5248 C   0  0  0  0  0  0
    1.6670    6.7649    7.9918 C   0  0  0  0  0  0
    0.7249    6.1499    8.8103 C   0  0  0  0  0  0
    0.9980    5.9664   10.1637 C   0  0  0  0  0  0
    2.2100    6.3900   10.7043 C   0  0  0  0  0  0
    3.1599    6.9935    9.8826 C   0  0  0  0  0  0
    5.7975    5.4373    8.7879 N   0  0  0  0  0  0
    4.9392   10.1598    4.9333 C   0  0  2  0  0  0
    5.2622   11.5346    5.5859 C   0  0  0  0  0  0
    3.8539   10.2287    3.8293 C   0  0  0  0  0  0
    2.7967    9.3097    3.7421 C   0  0  0  0  0  0
    1.8242    9.4366    2.7550 C   0  0  0  0  0  0
    1.9143   10.4645    1.8235 C   0  0  0  0  0  0
    2.9757   11.3629    1.8668 C   0  0  0  0  0  0
    3.9406   11.2421    2.8625 C   0  0  0  0  0  0
    4.0934   12.2243    5.9880 O   0  0  0  0  0  0
    8.9288    7.4367    6.4149 H   0  0  0  0  0  0
    2.7626    9.3841    6.5430 H   0  0  0  0  0  0
    1.4534    6.8930    6.9403 H   0  0  0  0  0  0
   -0.2069    5.8037    8.3919 H   0  0  0  0  0  0
    0.2631    5.4864   10.7956 H   0  0  0  0  0  0
    2.4222    6.2384   11.7523 H   0  0  0  0  0  0
    4.1042    7.3121   10.3000 H   0  0  0  0  0  0
    4.8368    5.3795    9.0965 H   0  0  0  0  0  0
    6.4917    4.7605    9.0828 H   0  0  0  0  0  0
    5.8312    9.8713    4.3746 H   0  0  0  0  0  0
    5.9255   11.4225    6.4450 H   0  0  0  0  0  0
    5.8031   12.1715    4.8850 H   0  0  0  0  0  0
    2.7055    8.4786    4.4216 H   0  0  0  0  0  0
    1.0100    8.7267    2.6999 H   0  0  0  0  0  0
    1.1671   10.5495    1.0482 H   0  0  0  0  0  0
    3.0554   12.1469    1.1263 H   0  0  0  0  0  0
    4.7590   11.9473    2.8703 H   0  0  0  0  0  0
    3.5344   12.3445    5.2143 H   0  0  0  0  0  0
  1  2  2  0  0  0
  1  4  1  0  0  0
  2  3  1  0  0  0
  2 26  1  0  0  0
  3  6  2  0  0  0
  4  5  2  0  0  0
  4 16  1  0  0  0
  5  9  1  0  0  0
  5  6  1  0  0  0
  6  7  1  0  0  0
  7 17  1  0  0  0
  7  8  1  0  0  0
  8  9  2  0  0  0
  8 27  1  0  0  0
  9 10  1  0  0  0
 10 15  1  0  0  0
 10 11  2  0  0  0
 11 12  1  0  0  0
 11 28  1  0  0  0
 12 13  2  0  0  0
 12 29  1  0  0  0
 13 14  1  0  0  0
 13 30  1  0  0  0
 14 15  2  0  0  0
 14 31  1  0  0  0
 15 32  1  0  0  0
 16 33  1  0  0  0
 16 34  1  0  0  0
 17 18  1  0  0  0
 17 19  1  0  0  0
 17 35  1  0  0  0
 18 25  1  0  0  0
 18 36  1  0  0  0
 18 37  1  0  0  0
 19 20  2  0  0  0
 19 24  1  0  0  0
 20 21  1  0  0  0
 20 38  1  0  0  0
 21 22  2  0  0  0
 21 39  1  0  0  0
 22 23  1  0  0  0
 22 40  1  0  0  0
 23 24  2  0  0  0
 23 41  1  0  0  0
 24 42  1  0  0  0
 25 43  1  0  0  0
M  END
> <s_m_entry_id>
32136

> <s_m_entry_name>
dock_pv.399

> <s_m_Source_Path>
/home/csk/Desktop/cluster/DUD-E-result/src

> <s_m_Source_File>
dock_pv.maegz

> <i_m_Source_File_Index>
399

> <chembl_id>
CHEMBL511124

> <chembl_pref_name>
None

> <i_lp_mmshare_version>
53161

> <r_lp_tautomer_probability>
1

> <s_lp_Force_Field>
OPLS_2005

> <r_lp_Energy>
17.607851

> <b_lp_Chiralities_Consistent>
1

> <s_lp_Variant>
CHEMBL267_lig1541-1

> <s_i_glide_gridfile>
glide-grid_3el8

> <i_i_glide_lignum>
1722

> <i_i_glide_rotatable_bonds>
5

> <r_i_docking_score>
-7.1913315052819

> <r_i_glide_ligand_efficiency>
-0.287653260211276

> <r_i_glide_ligand_efficiency_sa>
-0.841103234410063

> <r_i_glide_ligand_efficiency_ln>
-1.70456107356669

> <r_i_glide_gscore>
-7.1913315052819

> <r_i_glide_lipo>
-2.25783294531436

> <r_i_glide_hbond>
-0.42859485385438

> <r_i_glide_metal>
0

> <r_i_glide_rewards>
-2.3550590477943

> <r_i_glide_evdw>
-36.427417755127

> <r_i_glide_ecoul>
-6.78457355499268

> <r_i_glide_erotb>
0.689212262686391

> <r_i_glide_esite>
0

> <r_i_glide_emodel>
-59.5587661443516

> <r_i_glide_energy>
-43.2119913101196

> <r_i_glide_einternal>
4.39590167999268

> <i_i_glide_confnum>
87

> <i_i_glide_posenum>
304

> <r_i_glide_eff_state_penalty>
0

> <s_user_duplicate_titles>
CHEMBL267_lig1541,281508

> <i_f3d_flags>
0

> <s_m_subgroup_title>
dock_pv

> <s_m_subgroupid>
dock_pv

> <b_m_subgroup_collapsed>
1

$$$$
CHEMBL267_lig2731
                    3D
 Schrodinger Suite 2021-1.
 46 48  0  0  1  0            999 V2000
   -0.1563    6.2806    4.3625 C   0  0  0  0  0  0
    0.1087    7.4872    5.2862 C   0  0  0  0  0  0
    0.5590    8.7146    4.4675 C   0  0  0  0  0  0
    1.0581    7.1188    6.3538 N   0  0  0  0  0  0
    0.6703    6.1863    7.2560 N   0  0  0  0  0  0
    1.6729    5.9215    8.0641 C   0  0  0  0  0  0
    1.5963    4.8675    9.1689 C   0  0  0  0  0  0
    0.4075    3.9146    9.0806 C   0  0  0  0  0  0
   -0.8693    4.3780    9.3652 C   0  0  0  0  0  0
   -1.9752    3.5534    9.1882 C   0  0  0  0  0  0
   -1.8052    2.2418    8.7613 C   0  0  0  0  0  0
   -0.5211    1.7123    8.5725 C   0  0  0  0  0  0
   -0.2645    0.3381    8.3852 N   0  0  0  0  0  0
   -1.4551   -0.9975    8.2750 S   0  0  0  0  0  0
   -2.7552   -0.5693    8.7956 O   0  0  0  0  0  0
   -0.7916   -2.1613    8.8686 O   0  0  0  0  0  0
   -1.6586   -1.3581    6.5355 C   0  0  0  0  0  0
   -2.8749   -1.3265    5.9659 C   0  0  0  0  0  0
    0.5760    2.5772    8.7154 C   0  0  0  0  0  0
    2.7843    6.7504    7.7218 C   0  0  0  0  0  0
    4.1026    6.9629    8.1447 C   0  0  0  0  0  0
    4.6525    6.2369    9.1880 N   0  0  0  0  0  0
    4.9172    7.8369    7.5108 N   0  0  0  0  0  0
    4.3886    8.5094    6.4577 C   0  0  0  0  0  0
    3.1296    8.4057    5.9603 N   0  0  0  0  0  0
    2.3647    7.5145    6.6080 C   0  0  0  0  0  0
   -0.8838    6.5309    3.5884 H   0  0  0  0  0  0
    0.7557    5.9486    3.8654 H   0  0  0  0  0  0
   -0.5616    5.4377    4.9181 H   0  0  0  0  0  0
   -0.8318    7.7435    5.7816 H   0  0  0  0  0  0
   -0.1965    8.9870    3.7293 H   0  0  0  0  0  0
    0.7224    9.5830    5.1084 H   0  0  0  0  0  0
    1.4764    8.5146    3.9115 H   0  0  0  0  0  0
    1.5695    5.3700   10.1370 H   0  0  0  0  0  0
    2.5112    4.2748    9.1757 H   0  0  0  0  0  0
   -1.0022    5.4091    9.6579 H   0  0  0  0  0  0
   -2.9690    3.9419    9.3548 H   0  0  0  0  0  0
   -2.7027    1.6641    8.6255 H   0  0  0  0  0  0
    0.6937    0.0431    8.4930 H   0  0  0  0  0  0
   -0.7568   -1.6084    6.0008 H   0  0  0  0  0  0
   -3.7632   -1.0595    6.5244 H   0  0  0  0  0  0
   -3.0020   -1.5644    4.9241 H   0  0  0  0  0  0
    1.5816    2.2367    8.5677 H   0  0  0  0  0  0
    4.0727    5.6561    9.7798 H   0  0  0  0  0  0
    5.6130    6.4195    9.4294 H   0  0  0  0  0  0
    5.0384    9.2120    5.9581 H   0  0  0  0  0  0
  1  2  1  0  0  0
  1 27  1  0  0  0
  1 28  1  0  0  0
  1 29  1  0  0  0
  2  3  1  0  0  0
  2  4  1  0  0  0
  2 30  1  0  0  0
  3 31  1  0  0  0
  3 32  1  0  0  0
  3 33  1  0  0  0
  4  5  1  0  0  0
  4 26  1  0  0  0
  5  6  2  0  0  0
  6  7  1  0  0  0
  6 20  1  0  0  0
  7  8  1  0  0  0
  7 34  1  0  0  0
  7 35  1  0  0  0
  8  9  2  0  0  0
  8 19  1  0  0  0
  9 10  1  0  0  0
  9 36  1  0  0  0
 10 11  2  0  0  0
 10 37  1  0  0  0
 11 12  1  0  0  0
 11 38  1  0  0  0
 12 13  1  0  0  0
 12 19  2  0  0  0
 13 14  1  0  0  0
 13 39  1  0  0  0
 14 15  2  0  0  0
 14 16  2  0  0  0
 14 17  1  0  0  0
 17 18  2  0  0  0
 17 40  1  0  0  0
 18 41  1  0  0  0
 18 42  1  0  0  0
 19 43  1  0  0  0
 20 21  2  0  0  0
 20 26  1  0  0  0
 21 22  1  0  0  0
 21 23  1  0  0  0
 22 44  1  0  0  0
 22 45  1  0  0  0
 23 24  2  0  0  0
 24 25  1  0  0  0
 24 46  1  0  0  0
 25 26  2  0  0  0
M  END
> <s_m_entry_id>
32137

> <s_m_entry_name>
dock_pv.400

> <s_m_Source_Path>
/home/csk/Desktop/cluster/DUD-E-result/src

> <s_m_Source_File>
dock_pv.maegz

> <i_m_Source_File_Index>
400

> <chembl_id>
CHEMBL2216823

> <chembl_pref_name>
None

> <i_lp_mmshare_version>
53161

> <r_lp_tautomer_probability>
1

> <s_lp_Force_Field>
OPLS_2005

> <r_lp_Energy>
1.731076

> <b_lp_Chiralities_Consistent>
1

> <s_lp_Variant>
CHEMBL267_lig2731-1

> <s_i_glide_gridfile>
glide-grid_3el8

> <i_i_glide_lignum>
3095

> <i_i_glide_rotatable_bonds>
6

> <r_i_docking_score>
-7.19069195551211

> <r_i_glide_ligand_efficiency>
-0.276565075212004

> <r_i_glide_ligand_efficiency_sa>
-0.81932294708454

> <r_i_glide_ligand_efficiency_ln>
-1.68871041116725

> <r_i_glide_gscore>
-7.19069195551211

> <r_i_glide_lipo>
-2.96259714915788

> <r_i_glide_hbond>
-0.278656685698342

> <r_i_glide_metal>
0

> <r_i_glide_rewards>
-1.9177812170449

> <r_i_glide_evdw>
-42.4074554443359

> <r_i_glide_ecoul>
-3.7940719127655

> <r_i_glide_erotb>
0.696179488506132

> <r_i_glide_esite>
-0.0383528329855027

> <r_i_glide_emodel>
-61.7375627991935

> <r_i_glide_energy>
-46.2015273571014

> <r_i_glide_einternal>
6.29419374465942

> <i_i_glide_confnum>
22

> <i_i_glide_posenum>
367

> <r_i_glide_eff_state_penalty>
0

> <s_user_duplicate_titles>
CHEMBL267_lig2731

> <i_f3d_flags>
0

> <s_m_subgroup_title>
dock_pv

> <s_m_subgroupid>
dock_pv

> <b_m_subgroup_collapsed>
1

$$$$
CHEMBL267_lig1112
                    3D
 Schrodinger Suite 2021-1.
 53 57  0  0  1  0            999 V2000
    6.2975   10.1037    5.2413 C   0  0  0  0  0  0
    7.6277    9.7114    5.1875 C   0  0  0  0  0  0
    8.0558    8.5691    5.8487 C   0  0  0  0  0  0
    5.3444    9.3783    5.9728 C   0  0  0  0  0  0
    5.7827    8.2368    6.7243 C   0  0  0  0  0  0
    7.1504    7.8200    6.6248 C   0  0  0  0  0  0
    7.6229    6.7044    7.2482 N   0  0  0  0  0  0
    6.7331    6.0058    7.9881 C   0  0  0  0  0  0
    5.4445    6.3302    8.2223 N   0  0  0  0  0  0
    4.9670    7.4308    7.5886 C   0  0  0  0  0  0
    3.6111    7.7250    7.8003 N   0  0  0  0  0  0
    2.6735    7.0887    8.6340 C   0  0  0  0  0  0
    1.5370    6.4492    8.0939 C   0  0  0  0  0  0
    0.5974    5.8314    8.9380 C   0  0  0  0  0  0
    0.7597    5.8372   10.3281 C   0  0  0  0  0  0
    2.8271    7.0440   10.0244 C   0  0  0  0  0  0
    1.8965    6.4530   10.8364 C   0  0  0  0  0  0
    2.2494    6.6370   12.1368 O   0  0  0  0  0  0
    3.5769    7.0851   12.0946 C   0  0  0  0  0  0
    3.7987    7.5945   10.8051 O   0  0  0  0  0  0
    1.2569    6.3966    6.3863 Cl  0  0  0  0  0  0
    4.0004    9.7120    5.9918 O   0  0  0  0  0  0
    3.5251   10.8329    5.2517 C   0  0  0  0  0  0
    1.9795   10.8248    5.2752 C   0  0  0  0  0  0
    1.3909   12.1134    4.6597 C   0  0  0  0  0  0
    1.5545   12.1796    3.1250 C   0  0  0  0  0  0
    0.9812   10.9956    2.4737 N   0  0  2  0  0  0
    1.5249    9.7281    2.9788 C   0  0  0  0  0  0
    1.3892    9.6142    4.5137 C   0  0  0  0  0  0
    1.1297   11.0748    1.0231 C   0  0  0  0  0  0
    6.0245   10.9900    4.6910 H   0  0  0  0  0  0
    8.3337   10.2892    4.6089 H   0  0  0  0  0  0
    9.0872    8.2511    5.7786 H   0  0  0  0  0  0
    7.0963    5.1105    8.4735 H   0  0  0  0  0  0
    3.2594    8.4640    7.2052 H   0  0  0  0  0  0
   -0.2716    5.3528    8.5110 H   0  0  0  0  0  0
    0.0197    5.3838   10.9737 H   0  0  0  0  0  0
    3.7982    7.8360   12.8536 H   0  0  0  0  0  0
    4.2348    6.2412   12.2965 H   0  0  0  0  0  0
    3.8778   10.8038    4.2205 H   0  0  0  0  0  0
    3.9060   11.7461    5.7128 H   0  0  0  0  0  0
    1.6352   10.7691    6.3086 H   0  0  0  0  0  0
    1.8801   12.9837    5.0989 H   0  0  0  0  0  0
    0.3384   12.2372    4.9185 H   0  0  0  0  0  0
    2.6060   12.2790    2.8487 H   0  0  0  0  0  0
    1.0512   13.0703    2.7443 H   0  0  0  0  0  0
    2.5676    9.6248    2.6765 H   0  0  0  0  0  0
    0.9886    8.9043    2.5034 H   0  0  0  0  0  0
    0.3445    9.4401    4.7748 H   0  0  0  0  0  0
    1.8959    8.7030    4.8306 H   0  0  0  0  0  0
    2.1798   11.0590    0.7270 H   0  0  0  0  0  0
    0.6286   10.2370    0.5369 H   0  0  0  0  0  0
    0.6816   11.9909    0.6357 H   0  0  0  0  0  0
  1  2  1  0  0  0
  1  4  2  0  0  0
  1 31  1  0  0  0
  2  3  2  0  0  0
  2 32  1  0  0  0
  3  6  1  0  0  0
  3 33  1  0  0  0
  4  5  1  0  0  0
  4 22  1  0  0  0
  5 10  2  0  0  0
  5  6  1  0  0  0
  6  7  2  0  0  0
  7  8  1  0  0  0
  8  9  2  0  0  0
  8 34  1  0  0  0
  9 10  1  0  0  0
 10 11  1  0  0  0
 11 12  1  0  0  0
 11 35  1  0  0  0
 12 16  2  0  0  0
 12 13  1  0  0  0
 13 21  1  0  0  0
 13 14  2  0  0  0
 14 15  1  0  0  0
 14 36  1  0  0  0
 15 17  2  0  0  0
 15 37  1  0  0  0
 16 17  1  0  0  0
 16 20  1  0  0  0
 17 18  1  0  0  0
 18 19  1  0  0  0
 19 20  1  0  0  0
 19 38  1  0  0  0
 19 39  1  0  0  0
 22 23  1  0  0  0
 23 24  1  0  0  0
 23 40  1  0  0  0
 23 41  1  0  0  0
 24 25  1  0  0  0
 24 29  1  0  0  0
 24 42  1  0  0  0
 25 26  1  0  0  0
 25 43  1  0  0  0
 25 44  1  0  0  0
 26 27  1  0  0  0
 26 45  1  0  0  0
 26 46  1  0  0  0
 27 28  1  0  0  0
 27 30  1  0  0  0
 28 29  1  0  0  0
 28 47  1  0  0  0
 28 48  1  0  0  0
 29 49  1  0  0  0
 29 50  1  0  0  0
 30 51  1  0  0  0
 30 52  1  0  0  0
 30 53  1  0  0  0
M  END
> <s_m_entry_id>
32138

> <s_m_entry_name>
dock_pv.401

> <s_m_Source_Path>
/home/csk/Desktop/cluster/DUD-E-result/src

> <s_m_Source_File>
dock_pv.maegz

> <i_m_Source_File_Index>
401

> <chembl_id>
CHEMBL439182

> <chembl_pref_name>
None

> <i_lp_mmshare_version>
53161

> <r_lp_tautomer_probability>
0.999978000241998

> <s_lp_Force_Field>
OPLS_2005

> <r_lp_Energy>
43.24032

> <b_lp_Chiralities_Consistent>
1

> <s_lp_Variant>
CHEMBL267_lig1112-1

> <s_i_glide_gridfile>
glide-grid_3el8

> <i_i_glide_lignum>
1254

> <i_i_glide_rotatable_bonds>
5

> <r_i_docking_score>
-7.1895232647845

> <r_i_glide_ligand_efficiency>
-0.239650775492817

> <r_i_glide_ligand_efficiency_sa>
-0.744650678844096

> <r_i_glide_ligand_efficiency_ln>
-1.63353802188924

> <r_i_glide_gscore>
-7.1895232647845

> <r_i_glide_lipo>
-3.08486926041301

> <r_i_glide_hbond>
-0.0869700261574537

> <r_i_glide_metal>
0

> <r_i_glide_rewards>
-1.80746654302339

> <r_i_glide_evdw>
-42.7046661376953

> <r_i_glide_ecoul>
-4.13066101074219

> <r_i_glide_erotb>
0.544615023305441

> <r_i_glide_esite>
0

> <r_i_glide_emodel>
-64.8419427298962

> <r_i_glide_energy>
-46.8353271484375

> <r_i_glide_einternal>
2.04170227050781

> <i_i_glide_confnum>
22

> <i_i_glide_posenum>
120

> <r_i_glide_eff_state_penalty>
0

> <s_user_duplicate_titles>
CHEMBL267_lig1112,361479

> <i_f3d_flags>
0

> <s_m_subgroup_title>
dock_pv

> <s_m_subgroupid>
dock_pv

> <b_m_subgroup_collapsed>
1

$$$$
CHEMBL267_lig1879
                    3D
 Schrodinger Suite 2021-1.
 37 40  0  0  1  0            999 V2000
    7.5172    7.2015    7.1894 N   0  0  0  0  0  0
    7.7570    8.1399    6.2390 C   0  0  0  0  0  0
    6.8473    8.9209    5.5972 N   0  0  0  0  0  0
    6.2277    7.0369    7.5713 C   0  0  0  0  0  0
    5.1988    7.8369    7.0391 C   0  0  0  0  0  0
    5.5872    8.7344    6.0189 C   0  0  0  0  0  0
    4.4063    9.3038    5.5548 N   0  0  0  0  0  0
    3.3515    8.8817    6.2900 N   0  0  0  0  0  0
    3.7832    8.0230    7.1825 C   0  0  0  0  0  0
    2.8633    7.4130    8.1850 C   0  0  0  0  0  0
    3.2857    7.3023    9.5123 C   0  0  0  0  0  0
    2.4684    6.7184   10.4757 C   0  0  0  0  0  0
    1.2158    6.2147   10.1094 C   0  0  0  0  0  0
    0.7795    6.3271    8.7887 C   0  0  0  0  0  0
    1.6002    6.9249    7.8291 C   0  0  0  0  0  0
    5.9462    5.9492    8.3880 N   0  0  0  0  0  0
    0.1978    5.4377   11.2667 Cl  0  0  0  0  0  0
    2.9228    6.6372   11.7655 O   0  0  0  0  0  0
    4.1565   10.3078    4.5039 C   0  0  1  0  0  0
    4.3287   11.7273    5.0098 C   0  0  0  0  0  0
    5.7980   11.9991    4.7243 C   0  0  0  0  0  0
    6.0660   11.2800    3.5198 O   0  0  0  0  0  0
    5.1066   10.2401    3.2994 C   0  0  0  0  0  0
    8.7888    8.2590    5.9404 H   0  0  0  0  0  0
    4.2451    7.6990    9.8060 H   0  0  0  0  0  0
   -0.1954    5.9418    8.5139 H   0  0  0  0  0  0
    1.2587    6.9945    6.8064 H   0  0  0  0  0  0
    4.9871    5.7477    8.6325 H   0  0  0  0  0  0
    6.6990    5.3471    8.6897 H   0  0  0  0  0  0
    3.8195    6.2936   11.8238 H   0  0  0  0  0  0
    3.1204   10.1280    4.2039 H   0  0  0  0  0  0
    3.7023   12.4111    4.4345 H   0  0  0  0  0  0
    4.0678   11.8549    6.0618 H   0  0  0  0  0  0
    6.0064   13.0629    4.6061 H   0  0  0  0  0  0
    6.4257   11.6137    5.5278 H   0  0  0  0  0  0
    5.5917    9.2660    3.2204 H   0  0  0  0  0  0
    4.5425   10.4491    2.3897 H   0  0  0  0  0  0
  1  2  2  0  0  0
  1  4  1  0  0  0
  2  3  1  0  0  0
  2 24  1  0  0  0
  3  6  2  0  0  0
  4  5  2  0  0  0
  4 16  1  0  0  0
  5  9  1  0  0  0
  5  6  1  0  0  0
  6  7  1  0  0  0
  7  8  1  0  0  0
  7 19  1  0  0  0
  8  9  2  0  0  0
  9 10  1  0  0  0
 10 15  1  0  0  0
 10 11  2  0  0  0
 11 12  1  0  0  0
 11 25  1  0  0  0
 12 13  2  0  0  0
 12 18  1  0  0  0
 13 14  1  0  0  0
 13 17  1  0  0  0
 14 15  2  0  0  0
 14 26  1  0  0  0
 15 27  1  0  0  0
 16 28  1  0  0  0
 16 29  1  0  0  0
 18 30  1  0  0  0
 19 20  1  0  0  0
 19 23  1  0  0  0
 19 31  1  0  0  0
 20 21  1  0  0  0
 20 32  1  0  0  0
 20 33  1  0  0  0
 21 22  1  0  0  0
 21 34  1  0  0  0
 21 35  1  0  0  0
 22 23  1  0  0  0
 23 36  1  0  0  0
 23 37  1  0  0  0
M  END
> <s_m_entry_id>
32139

> <s_m_entry_name>
dock_pv.402

> <s_m_Source_Path>
/home/csk/Desktop/cluster/DUD-E-result/src

> <s_m_Source_File>
dock_pv.maegz

> <i_m_Source_File_Index>
402

> <chembl_id>
CHEMBL1241678

> <chembl_pref_name>
None

> <i_lp_mmshare_version>
53161

> <r_lp_tautomer_probability>
0.999999999997365

> <s_lp_Force_Field>
OPLS_2005

> <r_lp_Energy>
25.617012

> <b_lp_Chiralities_Consistent>
1

> <s_lp_Variant>
CHEMBL267_lig1879-1

> <s_i_glide_gridfile>
glide-grid_3el8

> <i_i_glide_lignum>
2147

> <i_i_glide_rotatable_bonds>
3

> <r_i_docking_score>
-7.18813859297909

> <r_i_glide_ligand_efficiency>
-0.312527764912134

> <r_i_glide_ligand_efficiency_sa>
-0.888787389991502

> <r_i_glide_ligand_efficiency_ln>
-1.73815709021953

> <r_i_glide_gscore>
-7.18813859297909

> <r_i_glide_lipo>
-2.31944868408629

> <r_i_glide_hbond>
-0.163996983991357

> <r_i_glide_metal>
0

> <r_i_glide_rewards>
-2.25403623956218

> <r_i_glide_evdw>
-39.9303169250488

> <r_i_glide_ecoul>
-5.308189868927

> <r_i_glide_erotb>
0.342087641252232

> <r_i_glide_esite>
0

> <r_i_glide_emodel>
-59.9358833236193

> <r_i_glide_energy>
-45.2385067939758

> <r_i_glide_einternal>
6.45649290084839

> <i_i_glide_confnum>
50

> <i_i_glide_posenum>
381

> <r_i_glide_eff_state_penalty>
0

> <s_user_duplicate_titles>
CHEMBL267_lig1879

> <i_f3d_flags>
0

> <s_m_subgroup_title>
dock_pv

> <s_m_subgroupid>
dock_pv

> <b_m_subgroup_collapsed>
1

$$$$
CHEMBL267_lig509
                    3D
 Schrodinger Suite 2021-1.
 30 32  0  0  1  0            999 V2000
   -0.6019    5.0370   10.6224 O   0  0  0  0  0  0
    0.5137    5.5347   10.0061 C   0  0  0  0  0  0
    1.5738    5.9774   10.7882 C   0  0  0  0  0  0
    2.7394    6.4348   10.1837 C   0  0  0  0  0  0
    2.8450    6.4654    8.7890 C   0  0  0  0  0  0
    1.7597    6.0493    8.0099 C   0  0  0  0  0  0
    0.6006    5.5789    8.6173 C   0  0  0  0  0  0
    4.1122    6.8711    8.1449 C   0  0  0  0  0  0
    5.2624    6.2489    8.4766 C   0  0  0  0  0  0
    6.4912    6.5334    7.9880 O   0  0  0  0  0  0
    6.5978    7.5443    7.0612 C   0  0  0  0  0  0
    7.8756    7.7777    6.5712 C   0  0  0  0  0  0
    8.0772    8.7800    5.6354 C   0  0  0  0  0  0
    9.3389    9.0371    5.1848 O   0  0  0  0  0  0
    7.0048    9.5406    5.1891 C   0  0  0  0  0  0
    5.7203    9.3007    5.6701 C   0  0  0  0  0  0
    4.7062   10.0824    5.1859 O   0  0  0  0  0  0
    5.4921    8.2895    6.6211 C   0  0  0  0  0  0
    4.1327    7.9866    7.1840 C   0  0  0  0  0  0
    3.1405    8.6363    6.8464 O   0  0  0  0  0  0
   -1.4409    5.3246   10.2323 H   0  0  0  0  0  0
    1.5021    5.9375   11.8662 H   0  0  0  0  0  0
    3.5697    6.7417   10.8043 H   0  0  0  0  0  0
    1.8288    6.0544    6.9316 H   0  0  0  0  0  0
   -0.2021    5.2171    7.9975 H   0  0  0  0  0  0
    5.3108    5.4346    9.1879 H   0  0  0  0  0  0
    8.7031    7.1858    6.9276 H   0  0  0  0  0  0
    9.9463    8.3264    5.4087 H   0  0  0  0  0  0
    7.1717   10.3253    4.4667 H   0  0  0  0  0  0
    3.8667    9.8245    5.5847 H   0  0  0  0  0  0
  1  2  1  0  0  0
  1 21  1  0  0  0
  2  3  2  0  0  0
  2  7  1  0  0  0
  3  4  1  0  0  0
  3 22  1  0  0  0
  4  5  2  0  0  0
  4 23  1  0  0  0
  5  6  1  0  0  0
  5  8  1  0  0  0
  6  7  2  0  0  0
  6 24  1  0  0  0
  7 25  1  0  0  0
  8  9  2  0  0  0
  8 19  1  0  0  0
  9 10  1  0  0  0
  9 26  1  0  0  0
 10 11  1  0  0  0
 11 12  2  0  0  0
 11 18  1  0  0  0
 12 13  1  0  0  0
 12 27  1  0  0  0
 13 14  1  0  0  0
 13 15  2  0  0  0
 14 28  1  0  0  0
 15 16  1  0  0  0
 15 29  1  0  0  0
 16 17  1  0  0  0
 16 18  2  0  0  0
 17 30  1  0  0  0
 18 19  1  0  0  0
 19 20  2  0  0  0
M  END
> <s_m_entry_id>
32140

> <s_m_entry_name>
dock_pv.403

> <s_m_Source_Path>
/home/csk/Desktop/cluster/DUD-E-result/src

> <s_m_Source_File>
dock_pv.maegz

> <i_m_Source_File_Index>
403

> <chembl_id>
CHEMBL44

> <chembl_pref_name>
GENISTEIN

> <i_lp_mmshare_version>
53161

> <r_lp_tautomer_probability>
0.999999999997365

> <s_lp_Force_Field>
OPLS_2005

> <r_lp_Energy>
19.365893

> <b_lp_Chiralities_Consistent>
1

> <s_lp_Variant>
CHEMBL267_lig509-1

> <s_i_glide_gridfile>
glide-grid_3el8

> <i_i_glide_lignum>
601

> <i_i_glide_rotatable_bonds>
4

> <r_i_docking_score>
-7.18745614232241

> <r_i_glide_ligand_efficiency>
-0.35937280711612

> <r_i_glide_ligand_efficiency_sa>
-0.97548787758706

> <r_i_glide_ligand_efficiency_ln>
-1.79878321425413

> <r_i_glide_gscore>
-7.18745614232241

> <r_i_glide_lipo>
-2.85788497229991

> <r_i_glide_hbond>
-0.390049047409427

> <r_i_glide_metal>
0

> <r_i_glide_rewards>
-1.74327825693069

> <r_i_glide_evdw>
-30.2775993347168

> <r_i_glide_ecoul>
-6.1815824508667

> <r_i_glide_erotb>
0.244873468683471

> <r_i_glide_esite>
0

> <r_i_glide_emodel>
-51.1576890316035

> <r_i_glide_energy>
-36.4591817855835

> <r_i_glide_einternal>
3.63194680213928

> <i_i_glide_confnum>
4

> <i_i_glide_posenum>
70

> <r_i_glide_eff_state_penalty>
0

> <s_user_duplicate_titles>
CHEMBL267_lig509

> <i_f3d_flags>
0

> <s_m_subgroup_title>
dock_pv

> <s_m_subgroupid>
dock_pv

> <b_m_subgroup_collapsed>
1

$$$$
CHEMBL267_lig2125
                    3D
 Schrodinger Suite 2021-1.
 48 51  0  0  1  0            999 V2000
   -1.3675    3.8360    9.2036 C   0  0  0  0  0  0
    0.0496    4.2568    8.7871 C   0  0  0  0  0  0
    0.9460    3.0141    8.6423 C   0  0  0  0  0  0
    0.5248    5.1776    9.7728 O   0  0  0  0  0  0
    1.7289    5.8037    9.5584 C   0  0  0  0  0  0
    2.6339    5.8181    8.5051 C   0  0  0  0  0  0
    3.6991    6.6108    8.9600 C   0  0  0  0  0  0
    3.4833    7.1106   10.1578 N   0  0  0  0  0  0
    2.2915    6.6115   10.5077 N   0  0  0  0  0  0
    4.8551    6.8204    8.2463 N   0  0  0  0  0  0
    6.0094    6.0756    8.3868 C   0  0  0  0  0  0
    7.0002    6.4408    7.5973 N   0  0  0  0  0  0
    6.4822    7.4813    6.8798 C   0  0  0  0  0  0
    7.0503    8.2618    5.8641 C   0  0  0  0  0  0
    6.2265    9.2203    5.2622 C   0  0  0  0  0  0
    4.8972    9.3675    5.6747 C   0  0  0  0  0  0
    4.1110   10.3224    5.0088 N   0  0  0  0  0  0
    2.6879   10.5394    5.2978 C   0  0  1  0  0  0
    2.1322   11.7240    4.4908 C   0  0  0  0  0  0
    1.8510    9.2672    5.0917 C   0  0  0  0  0  0
    1.1780    8.6693    6.1659 C   0  0  0  0  0  0
    0.4453    7.5025    5.9323 C   0  0  0  0  0  0
    0.3962    6.9737    4.6421 C   0  0  0  0  0  0
   -0.2860    5.8371    4.3870 F   0  0  0  0  0  0
    1.0738    7.6348    3.6198 C   0  0  0  0  0  0
    1.7922    8.7670    3.8260 N   0  0  0  0  0  0
    4.3378    8.6351    6.6799 N   0  0  0  0  0  0
    5.1363    7.7242    7.2392 C   0  0  0  0  0  0
   -1.7768    3.0790    8.5349 H   0  0  0  0  0  0
   -2.0556    4.6750    9.1880 H   0  0  0  0  0  0
   -1.3777    3.4366   10.2162 H   0  0  0  0  0  0
   -0.0177    4.7632    7.8229 H   0  0  0  0  0  0
    0.4678    2.2471    8.0328 H   0  0  0  0  0  0
    1.8790    3.2525    8.1468 H   0  0  0  0  0  0
    1.1808    2.5759    9.6132 H   0  0  0  0  0  0
    2.5597    5.3096    7.5570 H   0  0  0  0  0  0
    1.8759    6.7921   11.4088 H   0  0  0  0  0  0
    6.0415    5.2730    9.1104 H   0  0  0  0  0  0
    8.0722    8.1111    5.5445 H   0  0  0  0  0  0
    6.6198    9.8329    4.4641 H   0  0  0  0  0  0
    4.5969   11.0506    4.5061 H   0  0  0  0  0  0
    2.6266   10.8135    6.3511 H   0  0  0  0  0  0
    1.0843   11.9058    4.7357 H   0  0  0  0  0  0
    2.6814   12.6412    4.7025 H   0  0  0  0  0  0
    2.1923   11.5411    3.4170 H   0  0  0  0  0  0
    1.2445    9.0823    7.1623 H   0  0  0  0  0  0
   -0.0737    7.0092    6.7382 H   0  0  0  0  0  0
    1.0549    7.2498    2.6134 H   0  0  0  0  0  0
  1  2  1  0  0  0
  1 29  1  0  0  0
  1 30  1  0  0  0
  1 31  1  0  0  0
  2  3  1  0  0  0
  2  4  1  0  0  0
  2 32  1  0  0  0
  3 33  1  0  0  0
  3 34  1  0  0  0
  3 35  1  0  0  0
  4  5  1  0  0  0
  5  6  2  0  0  0
  5  9  1  0  0  0
  6  7  1  0  0  0
  6 36  1  0  0  0
  7  8  2  0  0  0
  7 10  1  0  0  0
  8  9  1  0  0  0
  9 37  1  0  0  0
 10 11  1  0  0  0
 10 28  1  0  0  0
 11 12  2  0  0  0
 11 38  1  0  0  0
 12 13  1  0  0  0
 13 14  2  0  0  0
 13 28  1  0  0  0
 14 15  1  0  0  0
 14 39  1  0  0  0
 15 16  2  0  0  0
 15 40  1  0  0  0
 16 17  1  0  0  0
 16 27  1  0  0  0
 17 18  1  0  0  0
 17 41  1  0  0  0
 18 19  1  0  0  0
 18 20  1  0  0  0
 18 42  1  0  0  0
 19 43  1  0  0  0
 19 44  1  0  0  0
 19 45  1  0  0  0
 20 21  2  0  0  0
 20 26  1  0  0  0
 21 22  1  0  0  0
 21 46  1  0  0  0
 22 23  2  0  0  0
 22 47  1  0  0  0
 23 24  1  0  0  0
 23 25  1  0  0  0
 25 26  2  0  0  0
 25 48  1  0  0  0
 27 28  2  0  0  0
M  END
> <s_m_entry_id>
32141

> <s_m_entry_name>
dock_pv.404

> <s_m_Source_Path>
/home/csk/Desktop/cluster/DUD-E-result/src

> <s_m_Source_File>
dock_pv.maegz

> <i_m_Source_File_Index>
404

> <chembl_id>
CHEMBL2151321

> <chembl_pref_name>
None

> <i_lp_mmshare_version>
53161

> <r_lp_tautomer_probability>
1

> <s_lp_Force_Field>
OPLS_2005

> <r_lp_Energy>
10.638005

> <b_lp_Chiralities_Consistent>
1

> <s_lp_Variant>
CHEMBL267_lig2125-1

> <s_i_glide_gridfile>
glide-grid_3el8

> <i_i_glide_lignum>
2410

> <i_i_glide_rotatable_bonds>
6

> <r_i_docking_score>
-7.1868091624168

> <r_i_glide_ligand_efficiency>
-0.2566717558006

> <r_i_glide_ligand_efficiency_sa>
-0.779406622190352

> <r_i_glide_ligand_efficiency_ln>
-1.65892656857193

> <r_i_glide_gscore>
-7.1868091624168

> <r_i_glide_lipo>
-2.89169958091295

> <r_i_glide_hbond>
0

> <r_i_glide_metal>
0

> <r_i_glide_rewards>
-2.48072885733135

> <r_i_glide_evdw>
-44.0806579589844

> <r_i_glide_ecoul>
-1.85010778903961

> <r_i_glide_erotb>
0.667168342132654

> <r_i_glide_esite>
0

> <r_i_glide_emodel>
-63.005433799416

> <r_i_glide_energy>
-45.930765748024

> <r_i_glide_einternal>
4.75410652160645

> <i_i_glide_confnum>
11

> <i_i_glide_posenum>
292

> <r_i_glide_eff_state_penalty>
0

> <s_user_duplicate_titles>
CHEMBL267_lig2125

> <i_f3d_flags>
0

> <s_m_subgroup_title>
dock_pv

> <s_m_subgroupid>
dock_pv

> <b_m_subgroup_collapsed>
1

$$$$
CHEMBL267_lig653
                    3D
 Schrodinger Suite 2021-1.
 38 41  0  0  1  0            999 V2000
    3.5661    9.3352    6.3804 N   0  0  0  0  0  0
    3.9624   10.4319    5.5889 C   0  0  0  0  0  0
    4.7395    8.6112    6.6701 C   0  0  0  0  0  0
    5.3692   10.3791    5.4003 C   0  0  0  0  0  0
    5.8496    9.2588    6.0687 C   0  0  0  0  0  0
    2.2063    9.0369    6.7860 C   0  0  0  0  0  0
    4.9459    7.4343    7.4066 C   0  0  0  0  0  0
    3.2205   11.4987    5.0439 C   0  0  0  0  0  0
    6.0242   11.3735    4.6611 C   0  0  0  0  0  0
    7.1476    8.7423    6.2251 C   0  0  0  0  0  0
    3.9022   12.4901    4.3349 C   0  0  0  0  0  0
    6.2424    6.9653    7.5880 C   0  0  0  0  0  0
    7.3340    7.6070    7.0085 C   0  0  0  0  0  0
    5.2867   12.4340    4.1497 C   0  0  0  0  0  0
    1.2486    9.5675    6.2203 O   0  0  0  0  0  0
    1.9284    8.0853    7.9261 C   0  0  0  0  0  0
    6.4105    5.8100    8.3129 O   0  0  0  0  0  0
    3.1672   13.5243    3.8116 O   0  0  0  0  0  0
    8.5988    7.1099    7.1880 O   0  0  0  0  0  0
    5.9692   13.4233    3.4856 O   0  0  0  0  0  0
    0.9771    7.0701    7.7613 C   0  0  0  0  0  0
    2.5986    8.2086    9.1526 C   0  0  0  0  0  0
    2.4080    7.2561   10.1521 C   0  0  0  0  0  0
    0.7475    6.1516    8.7827 C   0  0  0  0  0  0
    1.4772    6.2369    9.9657 C   0  0  0  0  0  0
    4.1410    6.8450    7.8086 H   0  0  0  0  0  0
    2.1515   11.5813    5.1687 H   0  0  0  0  0  0
    7.0942   11.3434    4.5171 H   0  0  0  0  0  0
    7.9931    9.2323    5.7655 H   0  0  0  0  0  0
    5.5989    5.4510    8.6785 H   0  0  0  0  0  0
    3.6252   13.9960    3.1126 H   0  0  0  0  0  0
    9.2403    7.4415    6.5516 H   0  0  0  0  0  0
    5.5484   14.2866    3.5000 H   0  0  0  0  0  0
    0.4216    6.9751    6.8375 H   0  0  0  0  0  0
    3.3140    9.0026    9.3142 H   0  0  0  0  0  0
    2.9612    7.3196   11.0784 H   0  0  0  0  0  0
    0.0132    5.3688    8.6518 H   0  0  0  0  0  0
    1.3113    5.5119   10.7497 H   0  0  0  0  0  0
  1  2  1  0  0  0
  1  3  1  0  0  0
  1  6  1  0  0  0
  2  4  2  0  0  0
  2  8  1  0  0  0
  3  5  2  0  0  0
  3  7  1  0  0  0
  4  9  1  0  0  0
  4  5  1  0  0  0
  5 10  1  0  0  0
  6 15  2  0  0  0
  6 16  1  0  0  0
  7 12  2  0  0  0
  7 26  1  0  0  0
  8 11  2  0  0  0
  8 27  1  0  0  0
  9 14  2  0  0  0
  9 28  1  0  0  0
 10 13  2  0  0  0
 10 29  1  0  0  0
 11 14  1  0  0  0
 11 18  1  0  0  0
 12 13  1  0  0  0
 12 17  1  0  0  0
 13 19  1  0  0  0
 14 20  1  0  0  0
 16 21  2  0  0  0
 16 22  1  0  0  0
 17 30  1  0  0  0
 18 31  1  0  0  0
 19 32  1  0  0  0
 20 33  1  0  0  0
 21 24  1  0  0  0
 21 34  1  0  0  0
 22 23  2  0  0  0
 22 35  1  0  0  0
 23 25  1  0  0  0
 23 36  1  0  0  0
 24 25  2  0  0  0
 24 37  1  0  0  0
 25 38  1  0  0  0
M  END
> <s_m_entry_id>
32143

> <s_m_entry_name>
dock_pv.406

> <s_m_Source_Path>
/home/csk/Desktop/cluster/DUD-E-result/src

> <s_m_Source_File>
dock_pv.maegz

> <i_m_Source_File_Index>
406

> <chembl_id>
CHEMBL307112

> <chembl_pref_name>
None

> <i_lp_mmshare_version>
53161

> <r_lp_tautomer_probability>
1

> <s_lp_Force_Field>
OPLS_2005

> <r_lp_Energy>
29.11227

> <b_lp_Chiralities_Consistent>
1

> <s_lp_Variant>
CHEMBL267_lig653-1

> <s_i_glide_gridfile>
glide-grid_3el8

> <i_i_glide_lignum>
772

> <i_i_glide_rotatable_bonds>
6

> <r_i_docking_score>
-7.18298547748526

> <r_i_glide_ligand_efficiency>
-0.28731941909941

> <r_i_glide_ligand_efficiency_sa>
-0.840127077078271

> <r_i_glide_ligand_efficiency_ln>
-1.70258281486862

> <r_i_glide_gscore>
-7.18298547748526

> <r_i_glide_lipo>
-2.89088488750394

> <r_i_glide_hbond>
0

> <r_i_glide_metal>
0

> <r_i_glide_rewards>
-2.04457184277646

> <r_i_glide_evdw>
-33.5513343811035

> <r_i_glide_ecoul>
-6.03774213790894

> <r_i_glide_erotb>
0.335699292536652

> <r_i_glide_esite>
0

> <r_i_glide_emodel>
-56.975586720192

> <r_i_glide_energy>
-39.5890765190125

> <r_i_glide_einternal>
0.776687860488892

> <i_i_glide_confnum>
4

> <i_i_glide_posenum>
314

> <r_i_glide_eff_state_penalty>
0

> <s_user_duplicate_titles>
CHEMBL267_lig653

> <i_f3d_flags>
0

> <s_m_subgroup_title>
dock_pv

> <s_m_subgroupid>
dock_pv

> <b_m_subgroup_collapsed>
1

$$$$
CHEMBL267_lig1978
                    3D
 Schrodinger Suite 2021-1.
 39 41  0  0  1  0            999 V2000
    3.6056    9.5647    5.1129 C   0  0  0  0  0  0
    4.7999    9.2645    5.7716 C   0  0  0  0  0  0
    4.8803    8.3796    6.7962 N   0  0  0  0  0  0
    2.4204    8.9122    5.4735 C   0  0  0  0  0  0
    2.4846    7.9448    6.5143 C   0  0  0  0  0  0
    3.7508    7.7651    7.1410 C   0  0  0  0  0  0
    3.7040    6.5880    8.4281 S   0  0  0  0  0  0
    2.0432    6.1599    8.0234 C   0  0  0  0  0  0
    1.5027    7.0448    7.0670 C   0  0  0  0  0  0
    6.1277    9.9079    5.3755 C   0  0  0  0  0  0
    1.1552    9.2540    4.7001 C   0  0  0  0  0  0
    0.2034    7.0365    6.6127 N   0  0  0  0  0  0
    1.4942    4.9704    8.6721 C   0  0  0  0  0  0
    0.1976    4.7027    8.3883 N   0  0  0  0  0  0
    2.1979    4.2370    9.3670 O   0  0  0  0  0  0
   -0.5422    3.5439    8.5274 N   0  0  0  0  0  0
   -0.0018    2.3933    8.3884 C   0  0  0  0  0  0
   -0.7784    1.1475    8.3880 C   0  0  0  0  0  0
   -2.1143    0.9933    8.7292 N   0  0  0  0  0  0
   -2.3979   -0.3325    8.4991 C   0  0  0  0  0  0
   -1.3684   -1.0317    8.1038 N   0  0  0  0  0  0
   -0.3905   -0.1500    8.0467 C   0  0  0  0  0  0
   -3.0655    1.9991    9.1882 C   0  0  0  0  0  0
    6.5962   10.6371    6.3868 F   0  0  0  0  0  0
    7.0191    8.9590    5.0911 F   0  0  0  0  0  0
    6.0093   10.6995    4.3083 F   0  0  0  0  0  0
    3.5991   10.2876    4.3087 H   0  0  0  0  0  0
    0.7719    8.3694    4.1914 H   0  0  0  0  0  0
    1.3188   10.0231    3.9432 H   0  0  0  0  0  0
    0.3857    9.6140    5.3830 H   0  0  0  0  0  0
   -0.4944    6.3467    6.8702 H   0  0  0  0  0  0
   -0.0926    7.6729    5.8857 H   0  0  0  0  0  0
   -0.3918    5.5090    8.2467 H   0  0  0  0  0  0
    1.0592    2.2369    8.2227 H   0  0  0  0  0  0
   -3.4010   -0.7012    8.6509 H   0  0  0  0  0  0
    0.5989   -0.4505    7.7373 H   0  0  0  0  0  0
   -4.0530    1.5537    9.3113 H   0  0  0  0  0  0
   -2.7376    2.4048   10.1447 H   0  0  0  0  0  0
   -3.1361    2.7975    8.4493 H   0  0  0  0  0  0
  1  2  2  0  0  0
  1  4  1  0  0  0
  1 27  1  0  0  0
  2  3  1  0  0  0
  2 10  1  0  0  0
  3  6  2  0  0  0
  4  5  2  0  0  0
  4 11  1  0  0  0
  5  9  1  0  0  0
  5  6  1  0  0  0
  6  7  1  0  0  0
  7  8  1  0  0  0
  8 13  1  0  0  0
  8  9  2  0  0  0
  9 12  1  0  0  0
 10 24  1  0  0  0
 10 25  1  0  0  0
 10 26  1  0  0  0
 11 28  1  0  0  0
 11 29  1  0  0  0
 11 30  1  0  0  0
 12 31  1  0  0  0
 12 32  1  0  0  0
 13 14  1  0  0  0
 13 15  2  0  0  0
 14 16  1  0  0  0
 14 33  1  0  0  0
 16 17  2  0  0  0
 17 18  1  0  0  0
 17 34  1  0  0  0
 18 19  1  0  0  0
 18 22  2  0  0  0
 19 20  1  0  0  0
 19 23  1  0  0  0
 20 21  2  0  0  0
 20 35  1  0  0  0
 21 22  1  0  0  0
 22 36  1  0  0  0
 23 37  1  0  0  0
 23 38  1  0  0  0
 23 39  1  0  0  0
M  END
> <s_m_entry_id>
32144

> <s_m_entry_name>
dock_pv.407

> <s_m_Source_Path>
/home/csk/Desktop/cluster/DUD-E-result/src

> <s_m_Source_File>
dock_pv.maegz

> <i_m_Source_File_Index>
407

> <chembl_id>
CHEMBL1765554

> <chembl_pref_name>
None

> <i_lp_mmshare_version>
53161

> <r_lp_tautomer_probability>
1

> <s_lp_Force_Field>
OPLS_2005

> <r_lp_Energy>
29.552696

> <b_lp_Chiralities_Consistent>
1

> <s_lp_Variant>
CHEMBL267_lig1978-1

> <s_i_glide_gridfile>
glide-grid_3el8

> <i_i_glide_lignum>
2260

> <i_i_glide_rotatable_bonds>
5

> <r_i_docking_score>
-7.17989747165941

> <r_i_glide_ligand_efficiency>
-0.276149902756131

> <r_i_glide_ligand_efficiency_sa>
-0.818093000317641

> <r_i_glide_ligand_efficiency_ln>
-1.68617536205404

> <r_i_glide_gscore>
-7.17989747165941

> <r_i_glide_lipo>
-2.0906914235067

> <r_i_glide_hbond>
-0.562104676106387

> <r_i_glide_metal>
0

> <r_i_glide_rewards>
-2.36417269042359

> <r_i_glide_evdw>
-38.3911628723145

> <r_i_glide_ecoul>
-4.43659830093384

> <r_i_glide_erotb>
0.531340737793865

> <r_i_glide_esite>
-0.109221530660789

> <r_i_glide_emodel>
-53.362482839089

> <r_i_glide_energy>
-42.8277611732483

> <r_i_glide_einternal>
11.8338632583618

> <i_i_glide_confnum>
5

> <i_i_glide_posenum>
370

> <r_i_glide_eff_state_penalty>
0

> <s_user_duplicate_titles>
CHEMBL267_lig1978

> <i_f3d_flags>
0

> <s_m_subgroup_title>
dock_pv

> <s_m_subgroupid>
dock_pv

> <b_m_subgroup_collapsed>
1

$$$$
CHEMBL267_lig1539
                    3D
 Schrodinger Suite 2021-1.
 33 36  0  0  1  0            999 V2000
    7.4976    6.4994    7.5880 N   0  0  0  0  0  0
    7.8772    7.4500    6.7002 C   0  0  0  0  0  0
    7.0955    8.3840    6.1038 N   0  0  0  0  0  0
    6.1962    6.4943    7.9749 C   0  0  0  0  0  0
    5.2761    7.4352    7.4609 C   0  0  0  0  0  0
    5.8126    8.3312    6.4886 C   0  0  0  0  0  0
    4.7645    9.0863    5.9888 N   0  0  0  0  0  0
    3.6162    8.7183    6.6535 C   0  0  0  0  0  0
    3.8701    7.7305    7.5909 C   0  0  0  0  0  0
    2.8703    7.1014    8.4969 C   0  0  0  0  0  0
    3.1390    6.9536    9.8609 C   0  0  0  0  0  0
    2.1980    6.3530   10.6938 C   0  0  0  0  0  0
    0.9958    5.8900   10.1611 C   0  0  0  0  0  0
    0.7242    6.0327    8.8027 C   0  0  0  0  0  0
    1.6588    6.6438    7.9709 C   0  0  0  0  0  0
    5.7975    5.4370    8.7853 N   0  0  0  0  0  0
    4.8411   10.1261    4.9714 C   0  0  0  0  0  0
    5.4277    9.7833    3.6149 C   0  0  0  0  0  0
    3.9473   10.0185    3.7497 C   0  0  0  0  0  0
    8.9188    7.4418    6.4073 H   0  0  0  0  0  0
    2.6877    9.2137    6.4085 H   0  0  0  0  0  0
    4.0740    7.3030   10.2762 H   0  0  0  0  0  0
    2.4079    6.2348   11.7463 H   0  0  0  0  0  0
    0.2687    5.4176   10.8070 H   0  0  0  0  0  0
   -0.2023    5.6611    8.3939 H   0  0  0  0  0  0
    1.4467    6.7452    6.9165 H   0  0  0  0  0  0
    4.8339    5.3760    9.0852 H   0  0  0  0  0  0
    6.4938    4.7643    9.0865 H   0  0  0  0  0  0
    5.0437   11.1142    5.3866 H   0  0  0  0  0  0
    6.0407   10.5340    3.1151 H   0  0  0  0  0  0
    5.7930    8.7701    3.4416 H   0  0  0  0  0  0
    3.2701    9.1689    3.6585 H   0  0  0  0  0  0
    3.5171   10.9324    3.3399 H   0  0  0  0  0  0
  1  4  1  0  0  0
  1  2  2  0  0  0
  2  3  1  0  0  0
  2 20  1  0  0  0
  3  6  2  0  0  0
  4  5  2  0  0  0
  4 16  1  0  0  0
  5  9  1  0  0  0
  5  6  1  0  0  0
  6  7  1  0  0  0
  7 17  1  0  0  0
  7  8  1  0  0  0
  8  9  2  0  0  0
  8 21  1  0  0  0
  9 10  1  0  0  0
 10 11  2  0  0  0
 10 15  1  0  0  0
 11 12  1  0  0  0
 11 22  1  0  0  0
 12 13  2  0  0  0
 12 23  1  0  0  0
 13 14  1  0  0  0
 13 24  1  0  0  0
 14 15  2  0  0  0
 14 25  1  0  0  0
 15 26  1  0  0  0
 16 27  1  0  0  0
 16 28  1  0  0  0
 17 18  1  0  0  0
 17 19  1  0  0  0
 17 29  1  0  0  0
 18 19  1  0  0  0
 18 30  1  0  0  0
 18 31  1  0  0  0
 19 32  1  0  0  0
 19 33  1  0  0  0
M  END
> <s_m_entry_id>
32145

> <s_m_entry_name>
dock_pv.408

> <s_m_Source_Path>
/home/csk/Desktop/cluster/DUD-E-result/src

> <s_m_Source_File>
dock_pv.maegz

> <i_m_Source_File_Index>
408

> <chembl_id>
CHEMBL509767

> <chembl_pref_name>
None

> <i_lp_mmshare_version>
53161

> <r_lp_tautomer_probability>
1

> <s_lp_Force_Field>
OPLS_2005

> <r_lp_Energy>
23.156407

> <b_lp_Chiralities_Consistent>
1

> <s_lp_Variant>
CHEMBL267_lig1539-1

> <s_i_glide_gridfile>
glide-grid_3el8

> <i_i_glide_lignum>
1720

> <i_i_glide_rotatable_bonds>
2

> <r_i_docking_score>
-7.17900537515631

> <r_i_glide_ligand_efficiency>
-0.377842388166122

> <r_i_glide_ligand_efficiency_sa>
-1.00823525054995

> <r_i_glide_ligand_efficiency_ln>
-1.82003205349964

> <r_i_glide_gscore>
-7.17900537515631

> <r_i_glide_lipo>
-2.18177240404402

> <r_i_glide_hbond>
-0.422228941127475

> <r_i_glide_metal>
0

> <r_i_glide_rewards>
-2.85387171380329

> <r_i_glide_evdw>
-31.0125198364258

> <r_i_glide_ecoul>
-4.86241340637207

> <r_i_glide_erotb>
0.558855686595573

> <r_i_glide_esite>
0

> <r_i_glide_emodel>
-50.6609390581636

> <r_i_glide_energy>
-35.8749332427979

> <r_i_glide_einternal>
0.292605817317963

> <i_i_glide_confnum>
4

> <i_i_glide_posenum>
329

> <r_i_glide_eff_state_penalty>
0

> <s_user_duplicate_titles>
CHEMBL267_lig1539,460057

> <i_f3d_flags>
0

> <s_m_subgroup_title>
dock_pv

> <s_m_subgroupid>
dock_pv

> <b_m_subgroup_collapsed>
1

$$$$
CHEMBL267_lig2957
                    3D
 Schrodinger Suite 2021-1.
 48 51  0  0  1  0            999 V2000
    1.8500    6.7015    9.3732 N   0  0  0  0  0  0
    2.6530    7.7787    9.3073 C   0  0  0  0  0  0
    2.6852    8.7126    8.3173 N   0  0  0  0  0  0
    0.9867    6.4934    8.3570 C   0  0  0  0  0  0
    3.7980    7.9393   10.6317 S   0  0  0  0  0  0
    0.1980    5.3496    8.3706 N   0  0  0  0  0  0
    1.6065    9.1739    6.1361 N   0  0  0  0  0  0
    0.6214    8.6005    5.4078 N   0  0  0  0  0  0
    0.1993    7.5485    6.0606 C   0  0  0  0  0  0
    0.9181    7.3881    7.2810 C   0  0  0  0  0  0
    1.8080    8.4822    7.3270 C   0  0  0  0  0  0
    2.2999   10.3426    5.5752 C   0  0  0  0  0  0
    3.4438   10.0296    4.5635 C   0  0  1  0  0  0
    4.7268    9.4639    5.1833 C   0  0  0  0  0  0
    2.8756    9.0381    3.1888 Cl  0  0  0  0  0  0
    5.9464   10.1295    5.0062 C   0  0  0  0  0  0
    7.1104    9.6284    5.5888 C   0  0  0  0  0  0
    7.0493    8.4885    6.3899 C   0  0  0  0  0  0
    5.8414    7.8370    6.5801 C   0  0  0  0  0  0
    4.7004    8.2876    5.9346 C   0  0  0  0  0  0
    3.3391    6.7745   11.9489 C   0  0  0  0  0  0
    0.1199    4.5118    9.5557 C   0  0  0  0  0  0
   -0.4892    3.1943    9.1557 C   0  0  0  0  0  0
    0.3458    2.1448    8.7691 C   0  0  0  0  0  0
   -0.2021    0.9228    8.3881 C   0  0  0  0  0  0
   -1.5840    0.7634    8.3881 C   0  0  0  0  0  0
   -2.4152    1.8089    8.7881 C   0  0  0  0  0  0
   -1.8751    3.0369    9.1539 C   0  0  0  0  0  0
    8.4620    7.8375    7.1377 Cl  0  0  0  0  0  0
   -0.6570    5.4115    7.8216 H   0  0  0  0  0  0
   -0.5828    6.9199    5.6570 H   0  0  0  0  0  0
    2.7025   10.9389    6.3880 H   0  0  0  0  0  0
    1.5493   10.9682    5.0885 H   0  0  0  0  0  0
    3.7057   10.9858    4.1073 H   0  0  0  0  0  0
    6.0010   11.0293    4.4105 H   0  0  0  0  0  0
    8.0521   10.1301    5.4283 H   0  0  0  0  0  0
    5.7958    6.9450    7.1883 H   0  0  0  0  0  0
    3.8007    7.7035    6.0193 H   0  0  0  0  0  0
    4.1960    6.5845   12.5963 H   0  0  0  0  0  0
    2.5265    7.1561   12.5639 H   0  0  0  0  0  0
    2.9979    5.8369   11.5191 H   0  0  0  0  0  0
    1.1055    4.3427    9.9928 H   0  0  0  0  0  0
   -0.4866    4.9995   10.3215 H   0  0  0  0  0  0
    1.4161    2.2718    8.7775 H   0  0  0  0  0  0
    0.4403    0.1048    8.0955 H   0  0  0  0  0  0
   -2.0193   -0.1776    8.0855 H   0  0  0  0  0  0
   -3.4872    1.6737    8.7880 H   0  0  0  0  0  0
   -2.5252    3.8516    9.4426 H   0  0  0  0  0  0
  1  2  2  0  0  0
  1  4  1  0  0  0
  2  5  1  0  0  0
  2  3  1  0  0  0
  3 11  2  0  0  0
  4 10  2  0  0  0
  4  6  1  0  0  0
  5 21  1  0  0  0
  6 22  1  0  0  0
  6 30  1  0  0  0
  7  8  1  0  0  0
  7 11  1  0  0  0
  7 12  1  0  0  0
  8  9  2  0  0  0
  9 10  1  0  0  0
  9 31  1  0  0  0
 10 11  1  0  0  0
 12 13  1  0  0  0
 12 32  1  0  0  0
 12 33  1  0  0  0
 13 14  1  0  0  0
 13 15  1  0  0  0
 13 34  1  0  0  0
 14 16  2  0  0  0
 14 20  1  0  0  0
 16 17  1  0  0  0
 16 35  1  0  0  0
 17 18  2  0  0  0
 17 36  1  0  0  0
 18 19  1  0  0  0
 18 29  1  0  0  0
 19 20  2  0  0  0
 19 37  1  0  0  0
 20 38  1  0  0  0
 21 39  1  0  0  0
 21 40  1  0  0  0
 21 41  1  0  0  0
 22 23  1  0  0  0
 22 42  1  0  0  0
 22 43  1  0  0  0
 23 24  2  0  0  0
 23 28  1  0  0  0
 24 25  1  0  0  0
 24 44  1  0  0  0
 25 26  2  0  0  0
 25 45  1  0  0  0
 26 27  1  0  0  0
 26 46  1  0  0  0
 27 28  2  0  0  0
 27 47  1  0  0  0
 28 48  1  0  0  0
M  END
> <s_m_entry_id>
32146

> <s_m_entry_name>
dock_pv.409

> <s_m_Source_Path>
/home/csk/Desktop/cluster/DUD-E-result/src

> <s_m_Source_File>
dock_pv.maegz

> <i_m_Source_File_Index>
409

> <chembl_id>
CHEMBL241749

> <chembl_pref_name>
None

> <i_lp_mmshare_version>
53161

> <r_lp_tautomer_probability>
1

> <s_lp_Force_Field>
OPLS_2005

> <r_lp_Energy>
7.432869

> <b_lp_Chiralities_Consistent>
1

> <s_lp_Variant>
CHEMBL267_lig2957-2

> <s_i_glide_gridfile>
glide-grid_3el8

> <i_i_glide_lignum>
3366

> <i_i_glide_rotatable_bonds>
7

> <r_i_docking_score>
-7.17591934987634

> <r_i_glide_ligand_efficiency>
-0.247445494823322

> <r_i_glide_ligand_efficiency_sa>
-0.760230956332545

> <r_i_glide_ligand_efficiency_ln>
-1.64310356550739

> <r_i_glide_gscore>
-7.17591934987634

> <r_i_glide_lipo>
-3.74370951173693

> <r_i_glide_hbond>
-0.32

> <r_i_glide_metal>
0

> <r_i_glide_rewards>
-0.923114393004454

> <r_i_glide_evdw>
-41.8727416992188

> <r_i_glide_ecoul>
-4.58433866500854

> <r_i_glide_erotb>
0.607658884890606

> <r_i_glide_esite>
-0.0154664453133369

> <r_i_glide_emodel>
-62.2788690105663

> <r_i_glide_energy>
-46.4570803642273

> <r_i_glide_einternal>
4.51050472259521

> <i_i_glide_confnum>
35

> <i_i_glide_posenum>
35

> <r_i_glide_eff_state_penalty>
0

> <s_user_duplicate_titles>
CHEMBL267_lig2957

> <i_f3d_flags>
0

> <s_m_subgroup_title>
dock_pv

> <s_m_subgroupid>
dock_pv

> <b_m_subgroup_collapsed>
1

$$$$
CHEMBL267_lig1016
                    3D
 Schrodinger Suite 2021-1.
 51 54  0  0  1  0            999 V2000
    3.7967    9.7948    4.8473 C   0  0  0  0  0  0
    4.8284   10.0591    3.9376 C   0  0  0  0  0  0
    6.1288    9.6468    4.2445 C   0  0  0  0  0  0
    4.0616    9.1865    6.0786 C   0  0  0  0  0  0
    5.3594    8.7058    6.3816 C   0  0  0  0  0  0
    6.4039    8.9384    5.4341 C   0  0  0  0  0  0
    7.6798    8.5133    5.6423 N   0  0  0  0  0  0
    7.9221    7.8705    6.8068 C   0  0  0  0  0  0
    7.0313    7.6325    7.7942 N   0  0  0  0  0  0
    5.7542    8.0307    7.5830 C   0  0  0  0  0  0
    4.9399    7.8313    8.7100 N   0  0  0  0  0  0
    3.7005    7.2046    8.9381 C   0  0  0  0  0  0
    2.9706    6.6032    7.9121 C   0  0  0  0  0  0
    1.7768    5.9323    8.1769 C   0  0  0  0  0  0
    1.2919    5.8631    9.4802 C   0  0  0  0  0  0
    2.0077    6.4561   10.5200 C   0  0  0  0  0  0
    3.2068    7.1298   10.2519 C   0  0  0  0  0  0
    4.5038   10.7002    2.7550 O   0  0  0  0  0  0
    2.3523   10.1188    4.4794 C   0  0  0  0  0  0
    5.5257   11.3499    2.0053 C   0  0  0  0  0  0
    1.3994    6.3311   12.1323 Cl  0  0  0  0  0  0
    3.8954    7.7013   11.2722 F   0  0  0  0  0  0
    1.7407    9.0022    3.7397 N   0  0  1  0  0  0
    1.5234    7.7676    4.5361 C   0  0  1  0  0  0
    0.5910    9.4530    2.9562 C   0  0  0  0  0  0
    0.4076    7.8884    5.6013 C   0  0  0  0  0  0
   -0.5559    7.0370    5.2246 N   0  0  0  0  0  0
   -0.3482    6.3530    3.9629 C   0  0  0  0  0  0
    1.1340    6.5469    3.7118 C   0  0  0  0  0  0
    0.4115    8.5943    6.6099 O   0  0  0  0  0  0
    6.9468    9.8400    3.5698 H   0  0  0  0  0  0
    3.2599    9.0358    6.7877 H   0  0  0  0  0  0
    8.9391    7.5405    6.9676 H   0  0  0  0  0  0
    5.4810    7.9059    9.5581 H   0  0  0  0  0  0
    3.3376    6.6389    6.9019 H   0  0  0  0  0  0
    1.2250    5.4658    7.3726 H   0  0  0  0  0  0
    0.3663    5.3428    9.6850 H   0  0  0  0  0  0
    2.3578   11.0172    3.8597 H   0  0  0  0  0  0
    1.7733   10.3801    5.3663 H   0  0  0  0  0  0
    5.0699   11.9158    1.1935 H   0  0  0  0  0  0
    6.0879   12.0533    2.6218 H   0  0  0  0  0  0
    6.2171   10.6373    1.5543 H   0  0  0  0  0  0
    2.4233    7.5030    5.0814 H   0  0  0  0  0  0
    0.8751   10.2312    2.2464 H   0  0  0  0  0  0
    0.1600    8.6358    2.3885 H   0  0  0  0  0  0
   -0.2014    9.8357    3.5880 H   0  0  0  0  0  0
   -1.4036    6.9199    5.7665 H   0  0  0  0  0  0
   -0.9657    6.8028    3.1880 H   0  0  0  0  0  0
   -0.5999    5.2956    4.0301 H   0  0  0  0  0  0
    1.6962    5.6865    4.0768 H   0  0  0  0  0  0
    1.3973    6.6217    2.6552 H   0  0  0  0  0  0
  1  2  1  0  0  0
  1 19  1  0  0  0
  1  4  2  0  0  0
  2 18  1  0  0  0
  2  3  2  0  0  0
  3  6  1  0  0  0
  3 31  1  0  0  0
  4  5  1  0  0  0
  4 32  1  0  0  0
  5 10  2  0  0  0
  5  6  1  0  0  0
  6  7  2  0  0  0
  7  8  1  0  0  0
  8  9  2  0  0  0
  8 33  1  0  0  0
  9 10  1  0  0  0
 10 11  1  0  0  0
 11 12  1  0  0  0
 11 34  1  0  0  0
 12 17  2  0  0  0
 12 13  1  0  0  0
 13 14  2  0  0  0
 13 35  1  0  0  0
 14 15  1  0  0  0
 14 36  1  0  0  0
 15 16  2  0  0  0
 15 37  1  0  0  0
 16 17  1  0  0  0
 16 21  1  0  0  0
 17 22  1  0  0  0
 18 20  1  0  0  0
 19 23  1  0  0  0
 19 38  1  0  0  0
 19 39  1  0  0  0
 20 40  1  0  0  0
 20 41  1  0  0  0
 20 42  1  0  0  0
 23 24  1  0  0  0
 23 25  1  0  0  0
 24 26  1  0  0  0
 24 29  1  0  0  0
 24 43  1  0  0  0
 25 44  1  0  0  0
 25 45  1  0  0  0
 25 46  1  0  0  0
 26 27  1  0  0  0
 26 30  2  0  0  0
 27 28  1  0  0  0
 27 47  1  0  0  0
 28 29  1  0  0  0
 28 48  1  0  0  0
 28 49  1  0  0  0
 29 50  1  0  0  0
 29 51  1  0  0  0
M  END
> <s_m_entry_id>
32147

> <s_m_entry_name>
dock_pv.410

> <s_m_Source_Path>
/home/csk/Desktop/cluster/DUD-E-result/src

> <s_m_Source_File>
dock_pv.maegz

> <i_m_Source_File_Index>
410

> <chembl_id>
CHEMBL378370

> <chembl_pref_name>
None

> <i_lp_mmshare_version>
53161

> <r_lp_tautomer_probability>
0.999978000241998

> <s_lp_Force_Field>
OPLS_2005

> <r_lp_Energy>
36.49988

> <b_lp_Chiralities_Consistent>
1

> <s_lp_Variant>
CHEMBL267_lig1016-2

> <s_i_glide_gridfile>
glide-grid_3el8

> <i_i_glide_lignum>
1155

> <i_i_glide_rotatable_bonds>
6

> <r_i_docking_score>
-7.1719782642707

> <r_i_glide_ligand_efficiency>
-0.239065942142357

> <r_i_glide_ligand_efficiency_sa>
-0.742833465649041

> <r_i_glide_ligand_efficiency_ln>
-1.62955160660441

> <r_i_glide_gscore>
-7.1719782642707

> <r_i_glide_lipo>
-3.23977020807859

> <r_i_glide_hbond>
-0.274218533703491

> <r_i_glide_metal>
0

> <r_i_glide_rewards>
-1.66142559481175

> <r_i_glide_evdw>
-41.9674911499023

> <r_i_glide_ecoul>
-2.90659546852112

> <r_i_glide_erotb>
0.537799950096419

> <r_i_glide_esite>
0

> <r_i_glide_emodel>
-58.1621111959932

> <r_i_glide_energy>
-44.8740866184235

> <r_i_glide_einternal>
8.25565433502197

> <i_i_glide_confnum>
7

> <i_i_glide_posenum>
11

> <r_i_glide_eff_state_penalty>
0

> <s_user_duplicate_titles>
CHEMBL267_lig1016

> <i_f3d_flags>
0

> <s_m_subgroup_title>
dock_pv

> <s_m_subgroupid>
dock_pv

> <b_m_subgroup_collapsed>
1

$$$$
CHEMBL267_lig1474
                    3D
 Schrodinger Suite 2021-1.
 35 36  0  0  1  0            999 V2000
    6.2940    7.4431    7.2858 C   0  0  0  0  0  0
    5.1095    8.1586    7.1227 C   0  0  0  0  0  0
    3.9114    7.6838    7.6648 C   0  0  0  0  0  0
    3.9015    6.4759    8.3882 C   0  0  0  0  0  0
    5.0929    5.7597    8.5373 C   0  0  0  0  0  0
    6.2808    6.2286    7.9835 C   0  0  0  0  0  0
    7.3980    5.4370    8.0098 O   0  0  0  0  0  0
    7.4482    7.9310    6.7244 O   0  0  0  0  0  0
    2.6422    8.5059    7.4857 C   0  0  0  0  0  0
    2.6792    5.9878    9.0868 C   0  0  0  0  0  0
    1.7741    5.1747    8.3996 C   0  0  0  0  0  0
    0.6073    4.7053    9.0027 C   0  0  0  0  0  0
    0.3335    5.0857   10.3222 C   0  0  0  0  0  0
    1.2243    5.8863   11.0307 C   0  0  0  0  0  0
    2.4203    6.3178   10.4323 C   0  0  0  0  0  0
    0.8906    6.2364   12.3152 O   0  0  0  0  0  0
    3.3981    7.1630   11.2031 C   0  0  0  0  0  0
    3.7916    6.6371   12.3880 O   0  0  0  0  0  0
    3.7987    8.2375   10.7844 O   0  0  0  0  0  0
   -0.2069    3.8922    8.2398 O   0  0  0  0  0  0
   -1.4375    3.4252    8.7879 C   0  0  0  0  0  0
    5.1190    9.0875    6.5721 H   0  0  0  0  0  0
    5.0862    4.8240    9.0769 H   0  0  0  0  0  0
    7.3241    4.6799    8.6034 H   0  0  0  0  0  0
    7.3177    8.7465    6.2372 H   0  0  0  0  0  0
    2.8080    9.4016    6.8860 H   0  0  0  0  0  0
    1.8731    7.9077    6.9962 H   0  0  0  0  0  0
    2.2517    8.8123    8.4566 H   0  0  0  0  0  0
    1.9801    4.9031    7.3755 H   0  0  0  0  0  0
   -0.5704    4.7643   10.8173 H   0  0  0  0  0  0
    1.5575    6.7735   12.7487 H   0  0  0  0  0  0
    3.7979    5.6746   12.3089 H   0  0  0  0  0  0
   -2.0067    2.9111    8.0130 H   0  0  0  0  0  0
   -1.2604    2.7093    9.5879 H   0  0  0  0  0  0
   -2.0618    4.2371    9.1662 H   0  0  0  0  0  0
  1  6  1  0  0  0
  1  2  2  0  0  0
  1  8  1  0  0  0
  2  3  1  0  0  0
  2 22  1  0  0  0
  3  4  2  0  0  0
  3  9  1  0  0  0
  4  5  1  0  0  0
  4 10  1  0  0  0
  5  6  2  0  0  0
  5 23  1  0  0  0
  6  7  1  0  0  0
  7 24  1  0  0  0
  8 25  1  0  0  0
  9 26  1  0  0  0
  9 27  1  0  0  0
  9 28  1  0  0  0
 10 11  2  0  0  0
 10 15  1  0  0  0
 11 12  1  0  0  0
 11 29  1  0  0  0
 12 13  2  0  0  0
 12 20  1  0  0  0
 13 14  1  0  0  0
 13 30  1  0  0  0
 14 15  2  0  0  0
 14 16  1  0  0  0
 15 17  1  0  0  0
 16 31  1  0  0  0
 17 18  1  0  0  0
 17 19  2  0  0  0
 18 32  1  0  0  0
 20 21  1  0  0  0
 21 33  1  0  0  0
 21 34  1  0  0  0
 21 35  1  0  0  0
M  END
> <s_m_entry_id>
32148

> <s_m_entry_name>
dock_pv.411

> <s_m_Source_Path>
/home/csk/Desktop/cluster/DUD-E-result/src

> <s_m_Source_File>
dock_pv.maegz

> <i_m_Source_File_Index>
411

> <chembl_id>
CHEMBL483531

> <chembl_pref_name>
ALTENUSIN

> <i_lp_mmshare_version>
53161

> <r_lp_tautomer_probability>
0.999999999999776

> <s_lp_Force_Field>
OPLS_2005

> <r_lp_Energy>
26.560899

> <b_lp_Chiralities_Consistent>
1

> <s_lp_Variant>
CHEMBL267_lig1474-1

> <s_i_glide_gridfile>
glide-grid_3el8

> <i_i_glide_lignum>
1649

> <i_i_glide_rotatable_bonds>
7

> <r_i_docking_score>
-7.17044393129697

> <r_i_glide_ligand_efficiency>
-0.341449711014141

> <r_i_glide_ligand_efficiency_sa>
-0.942033861779248

> <r_i_glide_ligand_efficiency_ln>
-1.77287777276693

> <r_i_glide_gscore>
-7.17044393129697

> <r_i_glide_lipo>
-2.56334054468177

> <r_i_glide_hbond>
-0.181753221797953

> <r_i_glide_metal>
0

> <r_i_glide_rewards>
-1.55742880464984

> <r_i_glide_evdw>
-32.7956161499023

> <r_i_glide_ecoul>
-11.0712537765503

> <r_i_glide_erotb>
0.432547513810254

> <r_i_glide_esite>
0

> <r_i_glide_emodel>
-59.7180325077136

> <r_i_glide_energy>
-43.8668699264526

> <r_i_glide_einternal>
3.11424040794373

> <i_i_glide_confnum>
12

> <i_i_glide_posenum>
390

> <r_i_glide_eff_state_penalty>
0

> <s_user_duplicate_titles>
CHEMBL267_lig1474

> <i_f3d_flags>
0

> <s_m_subgroup_title>
dock_pv

> <s_m_subgroupid>
dock_pv

> <b_m_subgroup_collapsed>
1

$$$$
CHEMBL267_lig3212
                    3D
 Schrodinger Suite 2021-1.
 29 31  0  0  1  0            999 V2000
    2.9179    8.9679    6.1089 F   0  0  0  0  0  0
    2.6042    6.7105   10.5105 N   0  0  0  0  0  0
    0.5829    5.8567   10.9995 N   0  0  0  0  0  0
    1.2283    6.2300   12.1693 N   0  0  0  0  0  0
    3.3965    7.0369   12.7856 N   0  0  0  0  0  0
    1.4080    6.1948    9.9834 C   0  0  0  0  0  0
    3.4491    7.1823    8.3157 C   0  0  0  0  0  0
    4.5097    7.7644    7.4423 C   0  0  0  0  0  0
    2.4428    6.6377   11.8789 C   0  0  0  0  0  0
    3.6056    7.1859    9.7047 C   0  0  0  0  0  0
    1.2513    6.1352    8.5892 C   0  0  0  0  0  0
    2.2744    6.6371    7.7786 C   0  0  0  0  0  0
    4.2006    8.6264    6.3757 C   0  0  0  0  0  0
    5.8591    7.4686    7.6855 C   0  0  0  0  0  0
    6.8769    8.0239    6.9060 C   0  0  0  0  0  0
    5.2129    9.1653    5.5811 C   0  0  0  0  0  0
    6.5481    8.8673    5.8445 C   0  0  0  0  0  0
    8.3277    7.7035    7.2127 C   0  0  0  0  0  0
    3.2040    7.0366   13.7821 H   0  0  0  0  0  0
    4.3732    7.1166   12.5366 H   0  0  0  0  0  0
    4.4702    7.5939   10.2042 H   0  0  0  0  0  0
    0.3431    5.7375    8.1581 H   0  0  0  0  0  0
    2.1428    6.6100    6.7059 H   0  0  0  0  0  0
    6.1209    6.7988    8.4920 H   0  0  0  0  0  0
    4.9589    9.8249    4.7645 H   0  0  0  0  0  0
    7.3233    9.2987    5.2278 H   0  0  0  0  0  0
    8.9911    7.9642    6.3870 H   0  0  0  0  0  0
    8.4465    6.6377    7.3960 H   0  0  0  0  0  0
    8.6457    8.2367    8.1088 H   0  0  0  0  0  0
  1 13  1  0  0  0
  2  6  1  0  0  0
  2  9  1  0  0  0
  2 10  1  0  0  0
  3  4  1  0  0  0
  3  6  2  0  0  0
  4  9  2  0  0  0
  5  9  1  0  0  0
  5 19  1  0  0  0
  5 20  1  0  0  0
  6 11  1  0  0  0
  7  8  1  0  0  0
  7 10  2  0  0  0
  7 12  1  0  0  0
  8 13  1  0  0  0
  8 14  2  0  0  0
 10 21  1  0  0  0
 11 12  2  0  0  0
 11 22  1  0  0  0
 12 23  1  0  0  0
 13 16  2  0  0  0
 14 15  1  0  0  0
 14 24  1  0  0  0
 15 17  2  0  0  0
 15 18  1  0  0  0
 16 17  1  0  0  0
 16 25  1  0  0  0
 17 26  1  0  0  0
 18 27  1  0  0  0
 18 28  1  0  0  0
 18 29  1  0  0  0
M  END
> <s_m_entry_id>
32149

> <s_m_entry_name>
dock_pv.412

> <s_m_Source_Path>
/home/csk/Desktop/cluster/DUD-E-result/src

> <s_m_Source_File>
dock_pv.maegz

> <i_m_Source_File_Index>
412

> <chembl_id>
CHEMBL2002323

> <chembl_pref_name>
None

> <i_lp_mmshare_version>
53161

> <r_lp_tautomer_probability>
1

> <s_lp_Force_Field>
OPLS_2005

> <r_lp_Energy>
17.964088

> <b_lp_Chiralities_Consistent>
1

> <s_lp_Variant>
CHEMBL267_lig3212-1

> <s_i_glide_gridfile>
glide-grid_3el8

> <i_i_glide_lignum>
3755

> <i_i_glide_rotatable_bonds>
1

> <r_i_docking_score>
-7.17027748088406

> <r_i_glide_ligand_efficiency>
-0.398348748938003

> <r_i_glide_ligand_efficiency_sa>
-1.04396905466733

> <r_i_glide_ligand_efficiency_ln>
-1.84308285354241

> <r_i_glide_gscore>
-7.17027748088406

> <r_i_glide_lipo>
-2.37680839017431

> <r_i_glide_hbond>
-0.366523467985025

> <r_i_glide_metal>
0

> <r_i_glide_rewards>
-2.86244885466268

> <r_i_glide_evdw>
-29.8428592681885

> <r_i_glide_ecoul>
-2.45234203338623

> <r_i_glide_erotb>
0.295497500355323

> <r_i_glide_esite>
0

> <r_i_glide_emodel>
-45.4348099281844

> <r_i_glide_energy>
-32.2952013015747

> <r_i_glide_einternal>
0.0420217029750347

> <i_i_glide_confnum>
3

> <i_i_glide_posenum>
216

> <r_i_glide_eff_state_penalty>
0

> <s_user_duplicate_titles>
CHEMBL267_lig3212

> <i_f3d_flags>
0

> <s_m_subgroup_title>
dock_pv

> <s_m_subgroupid>
dock_pv

> <b_m_subgroup_collapsed>
1

$$$$
CHEMBL267_lig1495
                    3D
 Schrodinger Suite 2021-1.
 54 57  0  0  1  0            999 V2000
    2.1355    6.6370   12.4262 N   0  0  0  0  0  0
    3.3616    7.0370   12.0187 C   0  0  0  0  0  0
    3.7980    7.1442   10.7410 N   0  0  0  0  0  0
    1.3508    6.0417   11.5025 C   0  0  0  0  0  0
    1.7746    5.8797   10.1720 C   0  0  0  0  0  0
    2.9924    6.5413    9.8550 C   0  0  0  0  0  0
    3.1498    6.4821    8.4826 N   0  0  0  0  0  0
    2.1913    5.6213    7.9880 C   0  0  0  0  0  0
    1.3532    5.1732    8.9939 C   0  0  0  0  0  0
    0.3018    4.1313    8.8971 C   0  0  0  0  0  0
    0.6173    2.8465    8.4597 C   0  0  0  0  0  0
   -0.3535    1.8428    8.3880 C   0  0  0  0  0  0
   -1.6777    2.1602    8.7355 C   0  0  0  0  0  0
   -1.9968    3.4370    9.1880 C   0  0  0  0  0  0
   -1.0020    4.4058    9.2792 C   0  0  0  0  0  0
    4.1156    7.1543    7.7176 C   0  0  0  0  0  0
    3.7024    7.9561    6.6526 C   0  0  0  0  0  0
    4.6528    8.6370    5.9019 C   0  0  0  0  0  0
    6.0091    8.5324    6.2240 C   0  0  0  0  0  0
    6.4145    7.7393    7.2992 C   0  0  0  0  0  0
    5.4684    7.0431    8.0411 C   0  0  0  0  0  0
    0.1285    5.5735   11.9522 N   0  0  0  0  0  0
    7.0618    9.2171    5.3666 C   0  0  0  0  0  0
    0.0700    0.5911    7.9880 O   0  0  0  0  0  0
   -0.8869   -0.4508    7.8384 C   0  0  0  0  0  0
    6.9771   10.7581    5.2926 C   0  0  0  0  0  0
    5.7980   11.2884    4.5968 N   0  0  0  0  0  0
    5.8226   10.9984    3.1627 C   0  0  0  0  0  0
    5.7069   12.7328    4.7880 C   0  0  0  0  0  0
    3.9977    7.4664   12.7801 H   0  0  0  0  0  0
    2.1980    5.3739    6.9363 H   0  0  0  0  0  0
    1.6379    2.6370    8.1846 H   0  0  0  0  0  0
   -2.4680    1.4276    8.6720 H   0  0  0  0  0  0
   -3.0134    3.6825    9.4554 H   0  0  0  0  0  0
   -1.2657    5.4041    9.5880 H   0  0  0  0  0  0
    2.6558    8.0488    6.3989 H   0  0  0  0  0  0
    4.3274    9.2310    5.0617 H   0  0  0  0  0  0
    7.4606    7.6401    7.5491 H   0  0  0  0  0  0
    5.7889    6.4122    8.8573 H   0  0  0  0  0  0
   -0.5005    5.1221   11.3028 H   0  0  0  0  0  0
   -0.1361    5.7510   12.9086 H   0  0  0  0  0  0
    6.9980    8.7647    4.3864 H   0  0  0  0  0  0
    8.0534    8.9529    5.7371 H   0  0  0  0  0  0
   -0.3838   -1.3504    7.4836 H   0  0  0  0  0  0
   -1.3666   -0.6912    8.7880 H   0  0  0  0  0  0
   -1.6522   -0.1893    7.1052 H   0  0  0  0  0  0
    7.8798   11.1428    4.8131 H   0  0  0  0  0  0
    6.9980   11.1292    6.3180 H   0  0  0  0  0  0
    4.9509   11.4285    2.6668 H   0  0  0  0  0  0
    5.7917    9.9261    2.9722 H   0  0  0  0  0  0
    6.7153   11.4048    2.6836 H   0  0  0  0  0  0
    4.8198   13.1357    4.2971 H   0  0  0  0  0  0
    5.6223   12.9744    5.8480 H   0  0  0  0  0  0
    6.5796   13.2529    4.3879 H   0  0  0  0  0  0
  1  2  2  0  0  0
  1  4  1  0  0  0
  2  3  1  0  0  0
  2 30  1  0  0  0
  3  6  2  0  0  0
  4  5  2  0  0  0
  4 22  1  0  0  0
  5  9  1  0  0  0
  5  6  1  0  0  0
  6  7  1  0  0  0
  7  8  1  0  0  0
  7 16  1  0  0  0
  8  9  2  0  0  0
  8 31  1  0  0  0
  9 10  1  0  0  0
 10 15  1  0  0  0
 10 11  2  0  0  0
 11 12  1  0  0  0
 11 32  1  0  0  0
 12 24  1  0  0  0
 12 13  2  0  0  0
 13 14  1  0  0  0
 13 33  1  0  0  0
 14 15  2  0  0  0
 14 34  1  0  0  0
 15 35  1  0  0  0
 16 17  2  0  0  0
 16 21  1  0  0  0
 17 18  1  0  0  0
 17 36  1  0  0  0
 18 19  2  0  0  0
 18 37  1  0  0  0
 19 20  1  0  0  0
 19 23  1  0  0  0
 20 21  2  0  0  0
 20 38  1  0  0  0
 21 39  1  0  0  0
 22 40  1  0  0  0
 22 41  1  0  0  0
 23 26  1  0  0  0
 23 42  1  0  0  0
 23 43  1  0  0  0
 24 25  1  0  0  0
 25 44  1  0  0  0
 25 45  1  0  0  0
 25 46  1  0  0  0
 26 27  1  0  0  0
 26 47  1  0  0  0
 26 48  1  0  0  0
 27 28  1  0  0  0
 27 29  1  0  0  0
 28 49  1  0  0  0
 28 50  1  0  0  0
 28 51  1  0  0  0
 29 52  1  0  0  0
 29 53  1  0  0  0
 29 54  1  0  0  0
M  END
> <s_m_entry_id>
32150

> <s_m_entry_name>
dock_pv.413

> <s_m_Source_Path>
/home/csk/Desktop/cluster/DUD-E-result/src

> <s_m_Source_File>
dock_pv.maegz

> <i_m_Source_File_Index>
413

> <chembl_id>
CHEMBL470746

> <chembl_pref_name>
None

> <i_lp_mmshare_version>
53161

> <r_lp_tautomer_probability>
1

> <s_lp_Force_Field>
OPLS_2005

> <r_lp_Energy>
24.968357

> <b_lp_Chiralities_Consistent>
1

> <s_lp_Variant>
CHEMBL267_lig1495-1

> <s_i_glide_gridfile>
glide-grid_3el8

> <i_i_glide_lignum>
1676

> <i_i_glide_rotatable_bonds>
6

> <r_i_docking_score>
-7.16960288830134

> <r_i_glide_ligand_efficiency>
-0.247227685803494

> <r_i_glide_ligand_efficiency_sa>
-0.759561778016894

> <r_i_glide_ligand_efficiency_ln>
-1.64165725597836

> <r_i_glide_gscore>
-7.16960288830134

> <r_i_glide_lipo>
-4.40825915526938

> <r_i_glide_hbond>
0

> <r_i_glide_metal>
0

> <r_i_glide_rewards>
-1.1975831515337

> <r_i_glide_evdw>
-39.8544883728027

> <r_i_glide_ecoul>
-0.599107205867767

> <r_i_glide_erotb>
0.518829918022052

> <r_i_glide_esite>
0

> <r_i_glide_emodel>
-44.1133889337609

> <r_i_glide_energy>
-40.4535955786705

> <r_i_glide_einternal>
5.14669895172119

> <i_i_glide_confnum>
2

> <i_i_glide_posenum>
49

> <r_i_glide_eff_state_penalty>
0

> <s_user_duplicate_titles>
CHEMBL267_lig1495,460060

> <i_f3d_flags>
0

> <s_m_subgroup_title>
dock_pv

> <s_m_subgroupid>
dock_pv

> <b_m_subgroup_collapsed>
1

$$$$
CHEMBL267_lig3671
                    3D
 Schrodinger Suite 2021-1.
 34 36  0  0  1  0            999 V2000
   -1.0562    2.2771    8.3879 Cl  0  0  0  0  0  0
    1.7001    9.3685    5.4064 O   0  0  0  0  0  0
    0.1981    7.8375    7.9879 O   0  0  0  0  0  0
    4.6292    8.6313    6.6278 N   0  0  0  0  0  0
    3.1750    7.4001    9.4364 N   0  0  0  0  0  0
    8.1978    6.6373    7.5879 N   0  0  0  0  0  0
    3.3547    8.4272    7.1124 C   0  0  0  0  0  0
    2.7489    7.9364    8.2339 C   0  0  0  0  0  0
    2.0504    8.7983    6.4384 C   0  0  0  0  0  0
    1.3503    8.1065    7.6615 C   0  0  0  0  0  0
    5.8059    7.9758    7.0111 C   0  0  0  0  0  0
    2.4000    6.7486   10.4925 C   0  0  0  0  0  0
    1.5333    5.6063    9.9790 C   0  0  0  0  0  0
    5.8001    6.7754    7.7344 C   0  0  0  0  0  0
    7.0293    8.5016    6.5899 C   0  0  0  0  0  0
    2.0780    4.6370    9.1354 C   0  0  0  0  0  0
    0.1977    5.5077   10.3803 C   0  0  0  0  0  0
    7.0057    6.1305    7.9864 C   0  0  0  0  0  0
    8.1981    7.8076    6.9017 C   0  0  0  0  0  0
   -0.0603    3.5350    9.0223 C   0  0  0  0  0  0
    1.2801    3.6032    8.6578 C   0  0  0  0  0  0
   -0.6006    4.4764    9.8927 C   0  0  0  0  0  0
    4.7599    9.2753    5.8609 H   0  0  0  0  0  0
    4.1541    7.4834    9.6729 H   0  0  0  0  0  0
    1.7980    7.4793   11.0222 H   0  0  0  0  0  0
    3.0930    6.3387   11.2293 H   0  0  0  0  0  0
    4.8856    6.2866    8.0237 H   0  0  0  0  0  0
    7.0789    9.4185    6.0209 H   0  0  0  0  0  0
    3.1169    4.6906    8.8464 H   0  0  0  0  0  0
   -0.2387    6.2357   11.0482 H   0  0  0  0  0  0
    7.0260    5.1813    8.5049 H   0  0  0  0  0  0
    9.1636    8.1738    6.5814 H   0  0  0  0  0  0
    1.6964    2.8630    7.9920 H   0  0  0  0  0  0
   -1.6406    4.4160   10.1785 H   0  0  0  0  0  0
  1 20  1  0  0  0
  2  9  2  0  0  0
  3 10  2  0  0  0
  4  7  1  0  0  0
  4 11  1  0  0  0
  4 23  1  0  0  0
  5  8  1  0  0  0
  5 12  1  0  0  0
  5 24  1  0  0  0
  6 18  2  0  0  0
  6 19  1  0  0  0
  7  8  2  0  0  0
  7  9  1  0  0  0
  8 10  1  0  0  0
  9 10  1  0  0  0
 11 14  2  0  0  0
 11 15  1  0  0  0
 12 13  1  0  0  0
 12 25  1  0  0  0
 12 26  1  0  0  0
 13 16  2  0  0  0
 13 17  1  0  0  0
 14 18  1  0  0  0
 14 27  1  0  0  0
 15 19  2  0  0  0
 15 28  1  0  0  0
 16 21  1  0  0  0
 16 29  1  0  0  0
 17 22  2  0  0  0
 17 30  1  0  0  0
 18 31  1  0  0  0
 19 32  1  0  0  0
 20 21  2  0  0  0
 20 22  1  0  0  0
 21 33  1  0  0  0
 22 34  1  0  0  0
M  END
> <s_m_entry_id>
32151

> <s_m_entry_name>
dock_pv.414

> <s_m_Source_Path>
/home/csk/Desktop/cluster/DUD-E-result/src

> <s_m_Source_File>
dock_pv.maegz

> <i_m_Source_File_Index>
414

> <chembl_id>
CHEMBL1980489

> <chembl_pref_name>
None

> <i_lp_mmshare_version>
53161

> <r_lp_tautomer_probability>
1

> <s_lp_Force_Field>
OPLS_2005

> <r_lp_Energy>
48.203541

> <b_lp_Chiralities_Consistent>
1

> <s_lp_Variant>
CHEMBL267_lig3671-1

> <s_i_glide_gridfile>
glide-grid_3el8

> <i_i_glide_lignum>
4455

> <i_i_glide_rotatable_bonds>
5

> <r_i_docking_score>
-7.16414770536961

> <r_i_glide_ligand_efficiency>
-0.325643077516801

> <r_i_glide_ligand_efficiency_sa>
-0.91246471001758

> <r_i_glide_ligand_efficiency_ln>
-1.75117901782921

> <r_i_glide_gscore>
-7.16414770536961

> <r_i_glide_lipo>
-3.2418268227687

> <r_i_glide_hbond>
-0.48

> <r_i_glide_metal>
0

> <r_i_glide_rewards>
-2.01942907463545

> <r_i_glide_evdw>
-34.285945892334

> <r_i_glide_ecoul>
-4.3487663269043

> <r_i_glide_erotb>
0.943720435686883

> <r_i_glide_esite>
0

> <r_i_glide_emodel>
-54.4523615456347

> <r_i_glide_energy>
-38.6347122192383

> <r_i_glide_einternal>
3.05036997795105

> <i_i_glide_confnum>
56

> <i_i_glide_posenum>
377

> <r_i_glide_eff_state_penalty>
0

> <s_user_duplicate_titles>
CHEMBL267_lig3671

> <i_f3d_flags>
0

> <s_m_subgroup_title>
dock_pv

> <s_m_subgroupid>
dock_pv

> <b_m_subgroup_collapsed>
1

$$$$
CHEMBL267_lig3483
                    3D
 Schrodinger Suite 2021-1.
 36 38  0  0  1  0            999 V2000
    2.7983    8.3138    8.9197 F   0  0  0  0  0  0
    2.6212    7.0371   11.3038 F   0  0  0  0  0  0
    5.6135   10.2369    2.3942 O   0  0  0  0  0  0
    0.3622    7.5787    4.4101 N   0  0  0  0  0  0
    1.6082    8.9327    2.7882 N   0  0  0  0  0  0
    0.3977    7.0864    5.6619 N   0  0  0  0  0  0
    2.7782    9.6077    2.7877 N   0  0  0  0  0  0
    4.5676    9.8935    4.3994 N   0  0  0  0  0  0
    2.5035    8.6373    4.8064 C   0  0  0  0  0  0
    1.3859    8.3336    4.0095 C   0  0  0  0  0  0
    1.4504    7.3202    6.5079 C   0  0  0  0  0  0
    3.3334    9.4372    3.9700 C   0  0  0  0  0  0
    1.3773    6.6733    7.8633 C   0  0  0  0  0  0
    2.5458    8.0963    6.0986 C   0  0  0  0  0  0
    2.0554    7.1854    8.9920 C   0  0  0  0  0  0
    1.9411    6.5633   10.2361 C   0  0  0  0  0  0
    0.5980    5.5189    8.0504 C   0  0  0  0  0  0
    5.6271   10.1971    3.6257 C   0  0  0  0  0  0
    1.1124    5.4617   10.3942 C   0  0  0  0  0  0
    0.4478    4.9249    9.3012 C   0  0  0  0  0  0
    6.9302   10.5104    4.3761 C   0  0  0  0  0  0
    7.4547    9.3770    5.2973 C   0  0  0  0  0  0
    6.7377    9.2476    6.6534 C   0  0  0  0  0  0
    1.0409    8.8677    1.9488 H   0  0  0  0  0  0
    4.7267    9.8602    5.3935 H   0  0  0  0  0  0
    3.4059    8.2577    6.7263 H   0  0  0  0  0  0
    0.0607    5.0825    7.2229 H   0  0  0  0  0  0
    0.9968    5.0357   11.3771 H   0  0  0  0  0  0
   -0.1924    4.0630    9.4234 H   0  0  0  0  0  0
    6.8145   11.4402    4.9317 H   0  0  0  0  0  0
    7.6910   10.7108    3.6207 H   0  0  0  0  0  0
    8.5138    9.5596    5.4903 H   0  0  0  0  0  0
    7.4227    8.4142    4.7879 H   0  0  0  0  0  0
    7.2908    8.5816    7.3143 H   0  0  0  0  0  0
    5.7386    8.8269    6.5486 H   0  0  0  0  0  0
    6.6490   10.2100    7.1574 H   0  0  0  0  0  0
  1 15  1  0  0  0
  2 16  1  0  0  0
  3 18  2  0  0  0
  4  6  1  0  0  0
  4 10  2  0  0  0
  5  7  1  0  0  0
  5 10  1  0  0  0
  5 24  1  0  0  0
  6 11  2  0  0  0
  7 12  2  0  0  0
  8 12  1  0  0  0
  8 18  1  0  0  0
  8 25  1  0  0  0
  9 10  1  0  0  0
  9 12  1  0  0  0
  9 14  2  0  0  0
 11 13  1  0  0  0
 11 14  1  0  0  0
 13 15  1  0  0  0
 13 17  2  0  0  0
 14 26  1  0  0  0
 15 16  2  0  0  0
 16 19  1  0  0  0
 17 20  1  0  0  0
 17 27  1  0  0  0
 18 21  1  0  0  0
 19 20  2  0  0  0
 19 28  1  0  0  0
 20 29  1  0  0  0
 21 22  1  0  0  0
 21 30  1  0  0  0
 21 31  1  0  0  0
 22 23  1  0  0  0
 22 32  1  0  0  0
 22 33  1  0  0  0
 23 34  1  0  0  0
 23 35  1  0  0  0
 23 36  1  0  0  0
M  END
> <s_m_entry_id>
32152

> <s_m_entry_name>
dock_pv.415

> <s_m_Source_Path>
/home/csk/Desktop/cluster/DUD-E-result/src

> <s_m_Source_File>
dock_pv.maegz

> <i_m_Source_File_Index>
415

> <chembl_id>
CHEMBL1979970

> <chembl_pref_name>
None

> <i_lp_mmshare_version>
53161

> <r_lp_tautomer_probability>
1

> <s_lp_Force_Field>
OPLS_2005

> <r_lp_Energy>
28.511558

> <b_lp_Chiralities_Consistent>
1

> <s_lp_Variant>
CHEMBL267_lig3483-1

> <s_i_glide_gridfile>
glide-grid_3el8

> <i_i_glide_lignum>
4181

> <i_i_glide_rotatable_bonds>
5

> <r_i_docking_score>
-7.16158586056598

> <r_i_glide_ligand_efficiency>
-0.311373298285477

> <r_i_glide_ligand_efficiency_sa>
-0.885504240476043

> <r_i_glide_ligand_efficiency_ln>
-1.73173639875517

> <r_i_glide_gscore>
-7.16158586056598

> <r_i_glide_lipo>
-2.09793001558112

> <r_i_glide_hbond>
-0.381128977031811

> <r_i_glide_metal>
0

> <r_i_glide_rewards>
-3.0229183896643

> <r_i_glide_evdw>
-32.5882911682129

> <r_i_glide_ecoul>
-4.89859247207642

> <r_i_glide_erotb>
0.740156331747379

> <r_i_glide_esite>
-0.035561380814017

> <r_i_glide_emodel>
-55.4260729145115

> <r_i_glide_energy>
-37.4868836402893

> <r_i_glide_einternal>
2.87351059913635

> <i_i_glide_confnum>
6

> <i_i_glide_posenum>
156

> <r_i_glide_eff_state_penalty>
0

> <s_user_duplicate_titles>
CHEMBL267_lig3483

> <i_f3d_flags>
0

> <s_m_subgroup_title>
dock_pv

> <s_m_subgroupid>
dock_pv

> <b_m_subgroup_collapsed>
1

$$$$
CHEMBL267_lig872
                    3D
 Schrodinger Suite 2021-1.
 47 51  0  0  1  0            999 V2000
    4.5589    9.4417    5.9880 C   0  0  0  0  0  0
    5.5064    8.7719    6.7505 N   0  0  0  0  0  0
    3.2748    8.9815    6.3879 C   0  0  0  0  0  0
    3.4860    7.9756    7.3935 C   0  0  0  0  0  0
    4.8455    7.8762    7.5608 C   0  0  0  0  0  0
    4.7886   10.3889    5.0654 N   0  0  0  0  0  0
    2.1878    9.6074    5.7473 C   0  0  0  0  0  0
    2.3736   10.5642    4.8073 N   0  0  0  0  0  0
    6.9526    8.9994    6.6952 C   0  0  2  0  0  0
    2.5011    7.1637    8.1176 C   0  0  0  0  0  0
    3.6552   10.8958    4.5152 C   0  0  0  0  0  0
    7.7980    7.0370    5.7263 N   0  0  1  0  0  0
    7.8367    6.9329    7.1725 O   0  0  0  0  0  0
    7.5278    8.4291    5.4335 C   0  0  0  0  0  0
   -0.1749    4.7431   10.1365 O   0  0  0  0  0  0
    2.5837    7.0350    9.5059 C   0  0  0  0  0  0
    1.5073    6.5158    7.3936 C   0  0  0  0  0  0
    7.7787    8.2370    7.7296 C   0  0  0  0  0  0
    0.8733    9.2922    6.0673 N   0  0  0  0  0  0
    0.6892    5.5569    9.4497 C   0  0  0  0  0  0
    0.5980    5.7202    8.0633 C   0  0  0  0  0  0
    1.6684    6.2313   10.1737 C   0  0  0  0  0  0
   -0.6754    3.6252    9.5166 C   0  0  0  0  0  0
   -2.0527    3.4370    9.5244 C   0  0  0  0  0  0
    0.1692    2.6729    8.9296 C   0  0  0  0  0  0
   -0.3769    1.5140    8.3880 C   0  0  0  0  0  0
   -2.5997    2.2923    8.9607 C   0  0  0  0  0  0
   -1.7588    1.3372    8.3880 C   0  0  0  0  0  0
    5.3954    7.2195    8.2183 H   0  0  0  0  0  0
    7.0378   10.0843    6.7619 H   0  0  0  0  0  0
    3.7901   11.6580    3.7608 H   0  0  0  0  0  0
    8.7458    6.8169    5.4177 H   0  0  0  0  0  0
    6.8746    8.5514    4.5682 H   0  0  0  0  0  0
    8.4637    8.9343    5.1882 H   0  0  0  0  0  0
    3.3586    7.5419   10.0627 H   0  0  0  0  0  0
    1.4555    6.6004    6.3173 H   0  0  0  0  0  0
    8.7881    8.6370    7.8297 H   0  0  0  0  0  0
    7.3298    8.2370    8.7222 H   0  0  0  0  0  0
    0.6990    8.5589    6.7382 H   0  0  0  0  0  0
    0.1247    9.7474    5.5667 H   0  0  0  0  0  0
   -0.1708    5.2114    7.5019 H   0  0  0  0  0  0
    1.7306    6.1083   11.2450 H   0  0  0  0  0  0
   -2.6820    4.1891    9.9694 H   0  0  0  0  0  0
    1.2401    2.8125    8.9398 H   0  0  0  0  0  0
    0.2634    0.7555    7.9635 H   0  0  0  0  0  0
   -3.6705    2.1472    8.9494 H   0  0  0  0  0  0
   -2.1902    0.4513    7.9449 H   0  0  0  0  0  0
  1  2  1  0  0  0
  1  3  1  0  0  0
  1  6  2  0  0  0
  2  5  1  0  0  0
  2  9  1  0  0  0
  3  4  1  0  0  0
  3  7  2  0  0  0
  4 10  1  0  0  0
  4  5  2  0  0  0
  5 29  1  0  0  0
  6 11  1  0  0  0
  7 19  1  0  0  0
  7  8  1  0  0  0
  8 11  2  0  0  0
  9 14  1  0  0  0
  9 18  1  0  0  0
  9 30  1  0  0  0
 10 16  1  0  0  0
 10 17  2  0  0  0
 11 31  1  0  0  0
 12 14  1  0  0  0
 12 13  1  0  0  0
 12 32  1  0  0  0
 13 18  1  0  0  0
 14 33  1  0  0  0
 14 34  1  0  0  0
 15 20  1  0  0  0
 15 23  1  0  0  0
 16 22  2  0  0  0
 16 35  1  0  0  0
 17 21  1  0  0  0
 17 36  1  0  0  0
 18 37  1  0  0  0
 18 38  1  0  0  0
 19 39  1  0  0  0
 19 40  1  0  0  0
 20 21  2  0  0  0
 20 22  1  0  0  0
 21 41  1  0  0  0
 22 42  1  0  0  0
 23 24  2  0  0  0
 23 25  1  0  0  0
 24 27  1  0  0  0
 24 43  1  0  0  0
 25 26  2  0  0  0
 25 44  1  0  0  0
 26 28  1  0  0  0
 26 45  1  0  0  0
 27 28  2  0  0  0
 27 46  1  0  0  0
 28 47  1  0  0  0
M  END
> <s_m_entry_id>
32153

> <s_m_entry_name>
dock_pv.416

> <s_m_Source_Path>
/home/csk/Desktop/cluster/DUD-E-result/src

> <s_m_Source_File>
dock_pv.maegz

> <i_m_Source_File_Index>
416

> <chembl_id>
CHEMBL296534

> <chembl_pref_name>
None

> <i_lp_mmshare_version>
53161

> <r_lp_tautomer_probability>
1

> <s_lp_Force_Field>
OPLS_2005

> <r_lp_Energy>
37.120302

> <b_lp_Chiralities_Consistent>
1

> <s_lp_Variant>
CHEMBL267_lig872-1

> <s_i_glide_gridfile>
glide-grid_3el8

> <i_i_glide_lignum>
1002

> <i_i_glide_rotatable_bonds>
4

> <r_i_docking_score>
-7.16152570788568

> <r_i_glide_ligand_efficiency>
-0.255768775281631

> <r_i_glide_ligand_efficiency_sa>
-0.776664641507678

> <r_i_glide_ligand_efficiency_ln>
-1.65309040491167

> <r_i_glide_gscore>
-7.16152570788568

> <r_i_glide_lipo>
-3.35412449975285

> <r_i_glide_hbond>
-0.32

> <r_i_glide_metal>
0

> <r_i_glide_rewards>
-1.55146678861134

> <r_i_glide_evdw>
-35.4747505187988

> <r_i_glide_ecoul>
-4.77717590332031

> <r_i_glide_erotb>
0.554379491916492

> <r_i_glide_esite>
0

> <r_i_glide_emodel>
-57.0821618767048

> <r_i_glide_energy>
-40.2519264221191

> <r_i_glide_einternal>
1.15447723865509

> <i_i_glide_confnum>
8

> <i_i_glide_posenum>
138

> <r_i_glide_eff_state_penalty>
0

> <s_user_duplicate_titles>
CHEMBL267_lig872,67935

> <i_f3d_flags>
0

> <s_m_subgroup_title>
dock_pv

> <s_m_subgroupid>
dock_pv

> <b_m_subgroup_collapsed>
1

$$$$
CHEMBL267_lig1868
                    3D
 Schrodinger Suite 2021-1.
 36 38  0  0  1  0            999 V2000
    1.8169    6.6370   12.3888 N   0  0  0  0  0  0
    0.5981    6.0687   12.2661 C   0  0  0  0  0  0
    0.0826    5.4389   11.1841 N   0  0  0  0  0  0
    2.5727    6.7158   11.2698 C   0  0  0  0  0  0
    2.1104    6.1900   10.0557 C   0  0  0  0  0  0
    0.8679    5.5210   10.1054 C   0  0  0  0  0  0
    0.6887    4.9707    8.8486 N   0  0  0  0  0  0
    1.6805    5.3713    8.0102 N   0  0  0  0  0  0
    2.5300    6.0969    8.7001 C   0  0  0  0  0  0
    3.7939    6.6264    8.1370 C   0  0  0  0  0  0
    3.8542    7.7440    7.2983 C   0  0  0  0  0  0
    5.0879    8.1981    6.8200 C   0  0  0  0  0  0
    6.2685    7.5336    7.1885 C   0  0  0  0  0  0
    6.1933    6.3910    7.9904 C   0  0  0  0  0  0
    4.9659    5.9475    8.4681 C   0  0  0  0  0  0
    3.7953    7.3711   11.3712 N   0  0  0  0  0  0
   -0.2354    3.9224    8.3900 C   0  0  0  0  0  0
   -1.5496    3.8201    9.1883 C   0  0  0  0  0  0
    0.5080    2.5749    8.3797 C   0  0  0  0  0  0
    7.5998    8.0300    6.7727 C   0  0  0  0  0  0
    8.6536    7.5480    7.1855 O   0  0  0  0  0  0
    5.1221    9.2815    6.0068 F   0  0  0  0  0  0
   -0.0675    6.2372   13.0948 H   0  0  0  0  0  0
    2.9475    8.2620    7.0234 H   0  0  0  0  0  0
    7.0814    5.8440    8.2786 H   0  0  0  0  0  0
    4.9261    5.0676    9.0979 H   0  0  0  0  0  0
    4.4149    7.3617   10.5760 H   0  0  0  0  0  0
    4.1015    7.6668   12.2854 H   0  0  0  0  0  0
   -0.5163    4.2008    7.3786 H   0  0  0  0  0  0
   -2.2183    3.0854    8.7388 H   0  0  0  0  0  0
   -1.3914    3.5125   10.2218 H   0  0  0  0  0  0
   -2.0848    4.7639    9.1882 H   0  0  0  0  0  0
   -0.1198    1.7730    7.9898 H   0  0  0  0  0  0
    1.3985    2.6371    7.7557 H   0  0  0  0  0  0
    0.8264    2.2850    9.3825 H   0  0  0  0  0  0
    7.5940    8.8649    6.0709 H   0  0  0  0  0  0
  1  2  2  0  0  0
  1  4  1  0  0  0
  2  3  1  0  0  0
  2 23  1  0  0  0
  3  6  2  0  0  0
  4  5  2  0  0  0
  4 16  1  0  0  0
  5  9  1  0  0  0
  5  6  1  0  0  0
  6  7  1  0  0  0
  7 17  1  0  0  0
  7  8  1  0  0  0
  8  9  2  0  0  0
  9 10  1  0  0  0
 10 11  2  0  0  0
 10 15  1  0  0  0
 11 12  1  0  0  0
 11 24  1  0  0  0
 12 13  2  0  0  0
 12 22  1  0  0  0
 13 14  1  0  0  0
 13 20  1  0  0  0
 14 15  2  0  0  0
 14 25  1  0  0  0
 15 26  1  0  0  0
 16 27  1  0  0  0
 16 28  1  0  0  0
 17 18  1  0  0  0
 17 19  1  0  0  0
 17 29  1  0  0  0
 18 30  1  0  0  0
 18 31  1  0  0  0
 18 32  1  0  0  0
 19 33  1  0  0  0
 19 34  1  0  0  0
 19 35  1  0  0  0
 20 21  2  0  0  0
 20 36  1  0  0  0
M  END
> <s_m_entry_id>
32154

> <s_m_entry_name>
dock_pv.417

> <s_m_Source_Path>
/home/csk/Desktop/cluster/DUD-E-result/src

> <s_m_Source_File>
dock_pv.maegz

> <i_m_Source_File_Index>
417

> <chembl_id>
CHEMBL1241860

> <chembl_pref_name>
None

> <i_lp_mmshare_version>
53161

> <r_lp_tautomer_probability>
1

> <s_lp_Force_Field>
OPLS_2005

> <r_lp_Energy>
14.13241

> <b_lp_Chiralities_Consistent>
1

> <s_lp_Variant>
CHEMBL267_lig1868-1

> <s_i_glide_gridfile>
glide-grid_3el8

> <i_i_glide_lignum>
2136

> <i_i_glide_rotatable_bonds>
3

> <r_i_docking_score>
-7.16140137566281

> <r_i_glide_ligand_efficiency>
-0.325518244348309

> <r_i_glide_ligand_efficiency_sa>
-0.912114922570058

> <r_i_glide_ligand_efficiency_ln>
-1.75050771467406

> <r_i_glide_gscore>
-7.16140137566281

> <r_i_glide_lipo>
-2.4601024661534

> <r_i_glide_hbond>
-0.0129060333534974

> <r_i_glide_metal>
0

> <r_i_glide_rewards>
-3.16310624632612

> <r_i_glide_evdw>
-34.2620048522949

> <r_i_glide_ecoul>
-0.114571742713451

> <r_i_glide_erotb>
0.204999374191978

> <r_i_glide_esite>
0

> <r_i_glide_emodel>
-41.3645419932743

> <r_i_glide_energy>
-34.3765765950084

> <r_i_glide_einternal>
7.43671941757202

> <i_i_glide_confnum>
1

> <i_i_glide_posenum>
24

> <r_i_glide_eff_state_penalty>
0

> <s_user_duplicate_titles>
CHEMBL267_lig1868

> <i_f3d_flags>
0

> <s_m_subgroup_title>
dock_pv

> <s_m_subgroupid>
dock_pv

> <b_m_subgroup_collapsed>
1

$$$$
CHEMBL267_lig783
                    3D
 Schrodinger Suite 2021-1.
 31 33  0  0  1  0            999 V2000
    3.5635    8.6370    6.7247 C   0  0  0  0  0  0
    3.7194    7.6613    7.6624 C   0  0  0  0  0  0
    4.8872    8.8764    6.1035 C   0  0  0  0  0  0
    5.0958    7.1713    7.6562 C   0  0  0  0  0  0
    5.8014    7.9300    6.7429 C   0  0  0  0  0  0
    2.3235    9.3739    6.3880 C   0  0  0  0  0  0
    2.6956    7.0435    8.5415 C   0  0  0  0  0  0
    5.1544    9.7032    5.2314 O   0  0  0  0  0  0
    1.2868    9.2973    7.0534 O   0  0  0  0  0  0
    7.7980    6.6538    7.1606 N   0  0  0  0  0  0
    7.1606    7.6802    6.5398 C   0  0  0  0  0  0
    2.4364   10.1516    5.2849 O   0  0  0  0  0  0
    5.7321    6.1144    8.3145 C   0  0  0  0  0  0
    7.0673    5.8631    7.9880 C   0  0  0  0  0  0
    1.5235    6.4914    8.0122 C   0  0  0  0  0  0
    2.9217    6.9739    9.9221 C   0  0  0  0  0  0
    1.3296   10.8727    4.7722 C   0  0  0  0  0  0
    0.5908    5.8879    8.8507 C   0  0  0  0  0  0
    1.9863    6.3752   10.7620 C   0  0  0  0  0  0
    0.8213    5.8370   10.2225 C   0  0  0  0  0  0
    7.7524    8.2555    5.8418 H   0  0  0  0  0  0
    5.2078    5.4723    9.0083 H   0  0  0  0  0  0
    7.5908    5.0370    8.4400 H   0  0  0  0  0  0
    1.3360    6.5217    6.9484 H   0  0  0  0  0  0
    3.8255    7.3828   10.3507 H   0  0  0  0  0  0
    1.6600   11.5409    3.9770 H   0  0  0  0  0  0
    0.5980   10.1824    4.3530 H   0  0  0  0  0  0
    0.8477   11.4742    5.5446 H   0  0  0  0  0  0
   -0.3102    5.4584    8.4392 H   0  0  0  0  0  0
    2.1665    6.3242   11.8259 H   0  0  0  0  0  0
    0.0910    5.3723   10.8699 H   0  0  0  0  0  0
  1  2  2  0  0  0
  1  3  1  0  0  0
  1  6  1  0  0  0
  2  4  1  0  0  0
  2  7  1  0  0  0
  3  5  1  0  0  0
  3  8  2  0  0  0
  4 13  2  0  0  0
  4  5  1  0  0  0
  5 11  2  0  0  0
  6  9  2  0  0  0
  6 12  1  0  0  0
  7 15  1  0  0  0
  7 16  2  0  0  0
 10 11  1  0  0  0
 10 14  2  0  0  0
 11 21  1  0  0  0
 12 17  1  0  0  0
 13 14  1  0  0  0
 13 22  1  0  0  0
 14 23  1  0  0  0
 15 18  2  0  0  0
 15 24  1  0  0  0
 16 19  1  0  0  0
 16 25  1  0  0  0
 17 26  1  0  0  0
 17 27  1  0  0  0
 17 28  1  0  0  0
 18 20  1  0  0  0
 18 29  1  0  0  0
 19 20  2  0  0  0
 19 30  1  0  0  0
 20 31  1  0  0  0
M  END
> <s_m_entry_id>
32155

> <s_m_entry_name>
dock_pv.418

> <s_m_Source_Path>
/home/csk/Desktop/cluster/DUD-E-result/src

> <s_m_Source_File>
dock_pv.maegz

> <i_m_Source_File_Index>
418

> <chembl_id>
CHEMBL98447

> <chembl_pref_name>
None

> <i_lp_mmshare_version>
53161

> <r_lp_tautomer_probability>
1

> <s_lp_Force_Field>
OPLS_2005

> <r_lp_Energy>
31.532111

> <b_lp_Chiralities_Consistent>
1

> <s_lp_Variant>
CHEMBL267_lig783-1

> <s_i_glide_gridfile>
glide-grid_3el8

> <i_i_glide_lignum>
911

> <i_i_glide_rotatable_bonds>
3

> <r_i_docking_score>
-7.16123092521007

> <r_i_glide_ligand_efficiency>
-0.358061546260504

> <r_i_glide_ligand_efficiency_sa>
-0.971928568024177

> <r_i_glide_ligand_efficiency_ln>
-1.79221990737646

> <r_i_glide_gscore>
-7.16123092521007

> <r_i_glide_lipo>
-2.54934766395513

> <r_i_glide_hbond>
-0.213483264544541

> <r_i_glide_metal>
0

> <r_i_glide_rewards>
-3.01924519275424

> <r_i_glide_evdw>
-28.812349319458

> <r_i_glide_ecoul>
-2.9617338180542

> <r_i_glide_erotb>
0.505722734724871

> <r_i_glide_esite>
0

> <r_i_glide_emodel>
-45.6634585921607

> <r_i_glide_energy>
-31.7740831375122

> <r_i_glide_einternal>
1.37550389766693

> <i_i_glide_confnum>
8

> <i_i_glide_posenum>
59

> <r_i_glide_eff_state_penalty>
0

> <s_user_duplicate_titles>
CHEMBL267_lig783

> <i_f3d_flags>
0

> <s_m_subgroup_title>
dock_pv

> <s_m_subgroupid>
dock_pv

> <b_m_subgroup_collapsed>
1

$$$$
CHEMBL267_lig2925
                    3D
 Schrodinger Suite 2021-1.
 46 49  0  0  1  0            999 V2000
    0.4632    5.4473   10.8252 N   0  0  0  0  0  0
    1.5078    6.1778   11.2146 C   0  0  0  0  0  0
    2.2782    6.2655   10.0263 C   0  0  0  0  0  0
    1.7387    5.4443    8.9900 C   0  0  0  0  0  0
    0.6500    4.8841    9.5652 N   0  0  0  0  0  0
    3.4101    7.0090    9.9376 C   0  0  0  0  0  0
    4.1622    7.3196    8.7052 C   0  0  0  0  0  0
    3.5937    8.2450    7.8395 C   0  0  0  0  0  0
    4.2260    8.6366    6.6526 C   0  0  0  0  0  0
    5.5136    8.1600    6.4010 C   0  0  0  0  0  0
    6.1135    7.2495    7.2729 C   0  0  0  0  0  0
    5.4138    6.7908    8.3879 C   0  0  0  0  0  0
   -0.0869    3.7820    9.1166 C   0  0  0  0  0  0
    0.5780    2.6361    8.6714 C   0  0  0  0  0  0
   -0.1393    1.4781    8.3893 C   0  0  0  0  0  0
   -1.5264    1.4541    8.5214 C   0  0  0  0  0  0
   -2.2022    2.6087    8.9458 C   0  0  0  0  0  0
   -1.4784    3.7646    9.2373 C   0  0  0  0  0  0
    1.7011    6.6409   12.3339 O   0  0  0  0  0  0
    2.1788    5.2230    7.8616 O   0  0  0  0  0  0
    3.6700    9.5118    5.7382 O   0  0  0  0  0  0
    2.2739    9.8407    5.8001 C   0  0  0  0  0  0
    1.4092    8.6824    5.3114 C   0  0  0  0  0  0
    1.1236    8.5651    3.9509 C   0  0  0  0  0  0
    0.3443    7.5048    3.5002 C   0  0  0  0  0  0
   -0.1007    6.5325    4.3870 C   0  0  0  0  0  0
    0.1980    6.6369    5.7374 C   0  0  0  0  0  0
    0.9045    7.7332    6.2055 C   0  0  0  0  0  0
   -3.9072    2.6165    9.2192 Cl  0  0  0  0  0  0
   -2.3468   -0.0492    8.2787 Cl  0  0  0  0  0  0
   -0.3201    5.0414   11.3168 H   0  0  0  0  0  0
    3.7875    7.4945   10.8286 H   0  0  0  0  0  0
    2.6635    8.6954    8.1365 H   0  0  0  0  0  0
    6.0321    8.4689    5.5063 H   0  0  0  0  0  0
    7.0945    6.8577    7.0482 H   0  0  0  0  0  0
    5.8606    6.0491    9.0361 H   0  0  0  0  0  0
    1.6554    2.6343    8.5992 H   0  0  0  0  0  0
    0.3854    0.5809    8.0886 H   0  0  0  0  0  0
   -2.0075    4.6373    9.5906 H   0  0  0  0  0  0
    1.9570   10.1832    6.7858 H   0  0  0  0  0  0
    2.1114   10.7007    5.1486 H   0  0  0  0  0  0
    1.4889    9.2979    3.2461 H   0  0  0  0  0  0
    0.0787    7.4388    2.4584 H   0  0  0  0  0  0
   -0.6878    5.7013    4.0242 H   0  0  0  0  0  0
   -0.1422    5.8820    6.4318 H   0  0  0  0  0  0
    1.0547    7.8037    7.2667 H   0  0  0  0  0  0
  1  5  1  0  0  0
  1  2  1  0  0  0
  1 31  1  0  0  0
  2  3  1  0  0  0
  2 19  2  0  0  0
  3  4  1  0  0  0
  3  6  2  0  0  0
  4  5  1  0  0  0
  4 20  2  0  0  0
  5 13  1  0  0  0
  6  7  1  0  0  0
  6 32  1  0  0  0
  7  8  2  0  0  0
  7 12  1  0  0  0
  8  9  1  0  0  0
  8 33  1  0  0  0
  9 10  2  0  0  0
  9 21  1  0  0  0
 10 11  1  0  0  0
 10 34  1  0  0  0
 11 12  2  0  0  0
 11 35  1  0  0  0
 12 36  1  0  0  0
 13 18  1  0  0  0
 13 14  2  0  0  0
 14 15  1  0  0  0
 14 37  1  0  0  0
 15 16  2  0  0  0
 15 38  1  0  0  0
 16 17  1  0  0  0
 16 30  1  0  0  0
 17 18  2  0  0  0
 17 29  1  0  0  0
 18 39  1  0  0  0
 21 22  1  0  0  0
 22 23  1  0  0  0
 22 40  1  0  0  0
 22 41  1  0  0  0
 23 24  2  0  0  0
 23 28  1  0  0  0
 24 25  1  0  0  0
 24 42  1  0  0  0
 25 26  2  0  0  0
 25 43  1  0  0  0
 26 27  1  0  0  0
 26 44  1  0  0  0
 27 28  2  0  0  0
 27 45  1  0  0  0
 28 46  1  0  0  0
M  END
> <s_m_entry_id>
32156

> <s_m_entry_name>
dock_pv.419

> <s_m_Source_Path>
/home/csk/Desktop/cluster/DUD-E-result/src

> <s_m_Source_File>
dock_pv.maegz

> <i_m_Source_File_Index>
419

> <chembl_id>
CHEMBL207360

> <chembl_pref_name>
None

> <i_lp_mmshare_version>
53161

> <r_lp_tautomer_probability>
0.499933002277922

> <s_lp_Force_Field>
OPLS_2005

> <r_lp_Energy>
41.098212

> <b_lp_Chiralities_Consistent>
1

> <s_lp_Variant>
CHEMBL267_lig2925-1

> <s_i_glide_gridfile>
glide-grid_3el8

> <i_i_glide_lignum>
3323

> <i_i_glide_rotatable_bonds>
5

> <r_i_docking_score>
-7.16010107592671

> <r_i_glide_ligand_efficiency>
-0.238670035864224

> <r_i_glide_ligand_efficiency_sa>
-0.74160329279371

> <r_i_glide_ligand_efficiency_ln>
-1.62685298000033

> <r_i_glide_gscore>
-7.16010107592671

> <r_i_glide_lipo>
-3.67395576148145

> <r_i_glide_hbond>
0

> <r_i_glide_metal>
0

> <r_i_glide_rewards>
-1.34014277155618

> <r_i_glide_evdw>
-44.8939819335938

> <r_i_glide_ecoul>
-2.78925800323486

> <r_i_glide_erotb>
0.517085254275833

> <r_i_glide_esite>
0

> <r_i_glide_emodel>
-63.0534967679018

> <r_i_glide_energy>
-47.6832399368286

> <r_i_glide_einternal>
6.5781102180481

> <i_i_glide_confnum>
2

> <i_i_glide_posenum>
49

> <r_i_glide_eff_state_penalty>
0

> <s_user_duplicate_titles>
CHEMBL267_lig2925

> <i_f3d_flags>
0

> <s_m_subgroup_title>
dock_pv

> <s_m_subgroupid>
dock_pv

> <b_m_subgroup_collapsed>
1

$$$$
CHEMBL267_lig3025
                    3D
 Schrodinger Suite 2021-1.
 44 46  0  0  1  0            999 V2000
    1.8186    6.6666    9.4593 N   0  0  0  0  0  0
    2.6839    7.7091    9.4746 C   0  0  0  0  0  0
    2.8619    8.6370    8.5087 N   0  0  0  0  0  0
    1.0832    6.4725    8.3334 C   0  0  0  0  0  0
    1.2475    7.3321    7.2271 C   0  0  0  0  0  0
    2.1537    8.3959    7.4056 C   0  0  0  0  0  0
    2.2430    9.0520    6.1921 N   0  0  0  0  0  0
    1.3945    8.5057    5.2916 N   0  0  0  0  0  0
    0.7831    7.5010    5.8838 C   0  0  0  0  0  0
    3.0967   10.1969    5.8418 C   0  0  0  0  0  0
    4.3913    9.9128    5.0155 C   0  0  1  0  0  0
    5.5160    9.0638    5.6467 C   0  0  0  0  0  0
    4.0060    9.4370    3.3436 Cl  0  0  0  0  0  0
    6.8525    9.3923    5.3805 C   0  0  0  0  0  0
    7.8916    8.6843    5.9879 C   0  0  0  0  0  0
    7.6034    7.6928    6.9191 C   0  0  0  0  0  0
    6.2882    7.3515    7.1880 C   0  0  0  0  0  0
    5.2613    7.9837    6.4977 C   0  0  0  0  0  0
    3.7980    7.8370   10.8207 S   0  0  0  0  0  0
    3.2606    6.6677   12.0851 C   0  0  0  0  0  0
    0.1980    5.3898    8.2735 N   0  0  0  0  0  0
   -0.2018    4.6725    9.4810 C   0  0  0  0  0  0
   -1.1505    3.4977    9.1880 C   0  0  0  0  0  0
   -0.4584    2.3075    8.5076 C   0  0  0  0  0  0
    8.5980    7.0371    7.5535 F   0  0  0  0  0  0
    0.0603    6.8998    5.3496 H   0  0  0  0  0  0
    2.4739   10.9222    5.3157 H   0  0  0  0  0  0
    3.3980   10.6761    6.7704 H   0  0  0  0  0  0
    4.8350   10.9021    4.8891 H   0  0  0  0  0  0
    7.0918   10.1971    4.7004 H   0  0  0  0  0  0
    8.9205    8.9299    5.7691 H   0  0  0  0  0  0
    6.0674    6.5483    7.8760 H   0  0  0  0  0  0
    4.2780    7.5897    6.6343 H   0  0  0  0  0  0
    4.0641    6.4762   12.7963 H   0  0  0  0  0  0
    2.3881    7.0370   12.6225 H   0  0  0  0  0  0
    2.9906    5.7436   11.5880 H   0  0  0  0  0  0
   -0.5412    5.4900    7.5877 H   0  0  0  0  0  0
   -0.6619    5.3686   10.1846 H   0  0  0  0  0  0
    0.6960    4.3156    9.9886 H   0  0  0  0  0  0
   -1.9800    3.8370    8.5666 H   0  0  0  0  0  0
   -1.6139    3.1682   10.1168 H   0  0  0  0  0  0
   -1.1778    1.5261    8.2593 H   0  0  0  0  0  0
    0.2993    1.8673    9.1572 H   0  0  0  0  0  0
    0.0357    2.6132    7.5880 H   0  0  0  0  0  0
  1  2  2  0  0  0
  1  4  1  0  0  0
  2  3  1  0  0  0
  2 19  1  0  0  0
  3  6  2  0  0  0
  4  5  2  0  0  0
  4 21  1  0  0  0
  5  9  1  0  0  0
  5  6  1  0  0  0
  6  7  1  0  0  0
  7  8  1  0  0  0
  7 10  1  0  0  0
  8  9  2  0  0  0
  9 26  1  0  0  0
 10 11  1  0  0  0
 10 27  1  0  0  0
 10 28  1  0  0  0
 11 12  1  0  0  0
 11 13  1  0  0  0
 11 29  1  0  0  0
 12 14  2  0  0  0
 12 18  1  0  0  0
 14 15  1  0  0  0
 14 30  1  0  0  0
 15 16  2  0  0  0
 15 31  1  0  0  0
 16 17  1  0  0  0
 16 25  1  0  0  0
 17 18  2  0  0  0
 17 32  1  0  0  0
 18 33  1  0  0  0
 19 20  1  0  0  0
 20 34  1  0  0  0
 20 35  1  0  0  0
 20 36  1  0  0  0
 21 22  1  0  0  0
 21 37  1  0  0  0
 22 23  1  0  0  0
 22 38  1  0  0  0
 22 39  1  0  0  0
 23 24  1  0  0  0
 23 40  1  0  0  0
 23 41  1  0  0  0
 24 42  1  0  0  0
 24 43  1  0  0  0
 24 44  1  0  0  0
M  END
> <s_m_entry_id>
32157

> <s_m_entry_name>
dock_pv.420

> <s_m_Source_Path>
/home/csk/Desktop/cluster/DUD-E-result/src

> <s_m_Source_File>
dock_pv.maegz

> <i_m_Source_File_Index>
420

> <chembl_id>
CHEMBL443929

> <chembl_pref_name>
None

> <i_lp_mmshare_version>
53161

> <r_lp_tautomer_probability>
1

> <s_lp_Force_Field>
OPLS_2005

> <r_lp_Energy>
6.634862

> <b_lp_Chiralities_Consistent>
1

> <s_lp_Variant>
CHEMBL267_lig3025-2

> <s_i_glide_gridfile>
glide-grid_3el8

> <i_i_glide_lignum>
3443

> <i_i_glide_rotatable_bonds>
7

> <r_i_docking_score>
-7.15477041012343

> <r_i_glide_ligand_efficiency>
-0.286190816404937

> <r_i_glide_ligand_efficiency_sa>
-0.836827022783778

> <r_i_glide_ligand_efficiency_ln>
-1.69589499836653

> <r_i_glide_gscore>
-7.15477041012343

> <r_i_glide_lipo>
-3.35522693348597

> <r_i_glide_hbond>
-0.32

> <r_i_glide_metal>
0

> <r_i_glide_rewards>
-1.50229607214406

> <r_i_glide_evdw>
-37.8117485046387

> <r_i_glide_ecoul>
-4.92600202560425

> <r_i_glide_erotb>
0.671970365904035

> <r_i_glide_esite>
-0.0197300413248674

> <r_i_glide_emodel>
-56.4540288390814

> <r_i_glide_energy>
-42.7377505302429

> <r_i_glide_einternal>
7.61325693130493

> <i_i_glide_confnum>
2

> <i_i_glide_posenum>
343

> <r_i_glide_eff_state_penalty>
0

> <s_user_duplicate_titles>
CHEMBL267_lig3025

> <i_f3d_flags>
0

> <s_m_subgroup_title>
dock_pv

> <s_m_subgroupid>
dock_pv

> <b_m_subgroup_collapsed>
1

$$$$
CHEMBL267_lig3010
                    3D
 Schrodinger Suite 2021-1.
 36 38  0  0  1  0            999 V2000
    2.8022    6.3148    9.5993 C   0  0  0  0  0  0
    3.4138    6.7955    8.4374 C   0  0  0  0  0  0
    2.5980    7.1916    7.3681 C   0  0  0  0  0  0
    1.2034    7.1367    7.4558 C   0  0  0  0  0  0
    0.6165    6.6370    8.6237 C   0  0  0  0  0  0
    1.4127    6.2370    9.6940 C   0  0  0  0  0  0
    4.8221    6.8329    8.3880 N   0  0  0  0  0  0
    5.7275    7.4370    7.4971 C   0  0  0  0  0  0
    7.0180    7.0232    7.5880 N   0  0  0  0  0  0
    7.9055    7.5832    6.7260 C   0  0  0  0  0  0
    7.5281    8.5268    5.7702 C   0  0  0  0  0  0
    6.1785    8.8984    5.7326 C   0  0  0  0  0  0
    5.2836    8.3654    6.6094 N   0  0  0  0  0  0
    5.6391    9.8770    4.7270 C   0  0  0  0  0  0
    6.3621   10.4196    3.7727 N   0  0  0  0  0  0
    5.6679   11.2377    2.9978 C   0  0  0  0  0  0
    4.3243   11.3715    3.3365 C   0  0  0  0  0  0
    3.9678   10.3803    4.7140 S   0  0  0  0  0  0
    0.3365    7.6458    6.3044 C   0  0  0  0  0  0
    6.4036   11.9298    1.8667 C   0  0  0  0  0  0
   -0.0179    6.6278    5.5218 F   0  0  0  0  0  0
   -0.7566    8.2370    6.7871 F   0  0  0  0  0  0
    0.9845    8.5424    5.5578 F   0  0  0  0  0  0
    6.5980   11.0370    0.7880 O   0  0  0  0  0  0
    0.8253    5.7829   10.8434 O   0  0  0  0  0  0
    3.3980    5.9941   10.4409 H   0  0  0  0  0  0
    3.0291    7.5358    6.4432 H   0  0  0  0  0  0
   -0.4597    6.5658    8.7006 H   0  0  0  0  0  0
    5.2712    6.2099    9.0425 H   0  0  0  0  0  0
    8.9333    7.2570    6.7964 H   0  0  0  0  0  0
    8.2565    8.9434    5.0906 H   0  0  0  0  0  0
    3.5632   11.9717    2.8599 H   0  0  0  0  0  0
    7.3844   12.2810    2.1914 H   0  0  0  0  0  0
    5.8717   12.8187    1.5239 H   0  0  0  0  0  0
    6.3911   11.5264   -0.0332 H   0  0  0  0  0  0
   -0.1335    5.7399   10.7879 H   0  0  0  0  0  0
  1  6  1  0  0  0
  1  2  2  0  0  0
  1 26  1  0  0  0
  2  7  1  0  0  0
  2  3  1  0  0  0
  3  4  2  0  0  0
  3 27  1  0  0  0
  4 19  1  0  0  0
  4  5  1  0  0  0
  5  6  2  0  0  0
  5 28  1  0  0  0
  6 25  1  0  0  0
  7  8  1  0  0  0
  7 29  1  0  0  0
  8 13  1  0  0  0
  8  9  2  0  0  0
  9 10  1  0  0  0
 10 11  2  0  0  0
 10 30  1  0  0  0
 11 12  1  0  0  0
 11 31  1  0  0  0
 12 13  2  0  0  0
 12 14  1  0  0  0
 14 15  2  0  0  0
 14 18  1  0  0  0
 15 16  1  0  0  0
 16 17  2  0  0  0
 16 20  1  0  0  0
 17 18  1  0  0  0
 17 32  1  0  0  0
 19 21  1  0  0  0
 19 22  1  0  0  0
 19 23  1  0  0  0
 20 24  1  0  0  0
 20 33  1  0  0  0
 20 34  1  0  0  0
 24 35  1  0  0  0
 25 36  1  0  0  0
M  END
> <s_m_entry_id>
32158

> <s_m_entry_name>
dock_pv.421

> <s_m_Source_Path>
/home/csk/Desktop/cluster/DUD-E-result/src

> <s_m_Source_File>
dock_pv.maegz

> <i_m_Source_File_Index>
421

> <chembl_id>
CHEMBL485730

> <chembl_pref_name>
None

> <i_lp_mmshare_version>
53161

> <r_lp_tautomer_probability>
0.999999987636

> <s_lp_Force_Field>
OPLS_2005

> <r_lp_Energy>
3.95787

> <b_lp_Chiralities_Consistent>
1

> <s_lp_Variant>
CHEMBL267_lig3010-1

> <s_i_glide_gridfile>
glide-grid_3el8

> <i_i_glide_lignum>
3427

> <i_i_glide_rotatable_bonds>
7

> <r_i_docking_score>
-7.14991671763238

> <r_i_glide_ligand_efficiency>
-0.285996668705295

> <r_i_glide_ligand_efficiency_sa>
-0.8362593314668

> <r_i_glide_ligand_efficiency_ln>
-1.69474452779272

> <r_i_glide_gscore>
-7.14991671763238

> <r_i_glide_lipo>
-2.06494313956326

> <r_i_glide_hbond>
-0.456

> <r_i_glide_metal>
0

> <r_i_glide_rewards>
-1.89009273859938

> <r_i_glide_evdw>
-35.2380828857422

> <r_i_glide_ecoul>
-9.86035060882568

> <r_i_glide_erotb>
0.568103168586722

> <r_i_glide_esite>
-0.0660272724454939

> <r_i_glide_emodel>
-64.9116335013946

> <r_i_glide_energy>
-45.0984334945679

> <r_i_glide_einternal>
1.92290437221527

> <i_i_glide_confnum>
7

> <i_i_glide_posenum>
175

> <r_i_glide_eff_state_penalty>
0

> <s_user_duplicate_titles>
CHEMBL267_lig3010

> <i_f3d_flags>
0

> <s_m_subgroup_title>
dock_pv

> <s_m_subgroupid>
dock_pv

> <b_m_subgroup_collapsed>
1

$$$$
CHEMBL267_lig313
                    3D
 Schrodinger Suite 2021-1.
 34 36  0  0  1  0            999 V2000
    6.1857    7.5161    7.3244 C   0  0  0  0  0  0
    6.3695    6.2192    7.9880 C   0  0  0  0  0  0
    7.3123    8.2370    6.7247 C   0  0  0  0  0  0
    4.9446    8.0733    7.3072 C   0  0  0  0  0  0
    5.2751    5.7026    8.6586 O   0  0  0  0  0  0
    4.0016    6.2395    8.5983 C   0  0  0  0  0  0
    3.7764    7.4370    7.9178 C   0  0  0  0  0  0
    7.0078    8.9712    5.6246 N   0  0  0  0  0  0
    2.9455    5.5482    9.1880 C   0  0  0  0  0  0
    7.3980    5.4900    7.9880 N   0  0  0  0  0  0
    8.4421    8.1939    7.2138 O   0  0  0  0  0  0
    7.8218    9.8403    4.8721 C   0  0  0  0  0  0
    9.2231    9.7463    4.7880 C   0  0  0  0  0  0
    2.4802    7.9431    7.8055 C   0  0  0  0  0  0
    1.6509    6.0586    9.0833 C   0  0  0  0  0  0
    9.9435   10.6370    3.9908 C   0  0  0  0  0  0
    1.4193    7.2471    8.3880 C   0  0  0  0  0  0
    0.5980    5.3968    9.6519 O   0  0  0  0  0  0
   11.3064   10.5396    3.9115 O   0  0  0  0  0  0
    7.8859   11.7214    3.3406 C   0  0  0  0  0  0
    7.1628   10.8292    4.1337 C   0  0  0  0  0  0
    9.2753   11.6254    3.2710 C   0  0  0  0  0  0
    4.7830    9.0370    6.8462 H   0  0  0  0  0  0
    6.0464    8.9414    5.3262 H   0  0  0  0  0  0
    3.1361    4.6229    9.7089 H   0  0  0  0  0  0
    7.2392    4.6543    8.5420 H   0  0  0  0  0  0
    9.7569    8.9733    5.3204 H   0  0  0  0  0  0
    2.2892    8.8585    7.2642 H   0  0  0  0  0  0
    0.4122    7.6206    8.2919 H   0  0  0  0  0  0
    0.8457    4.5809   10.0911 H   0  0  0  0  0  0
   11.6729    9.8371    4.4543 H   0  0  0  0  0  0
    7.3702   12.4859    2.7773 H   0  0  0  0  0  0
    6.0866   10.9198    4.1709 H   0  0  0  0  0  0
    9.8340   12.3145    2.6546 H   0  0  0  0  0  0
  1  2  1  0  0  0
  1  3  1  0  0  0
  1  4  2  0  0  0
  2  5  1  0  0  0
  2 10  2  0  0  0
  3  8  1  0  0  0
  3 11  2  0  0  0
  4  7  1  0  0  0
  4 23  1  0  0  0
  5  6  1  0  0  0
  6  7  1  0  0  0
  6  9  2  0  0  0
  7 14  2  0  0  0
  8 12  1  0  0  0
  8 24  1  0  0  0
  9 15  1  0  0  0
  9 25  1  0  0  0
 10 26  1  0  0  0
 12 13  1  0  0  0
 12 21  2  0  0  0
 13 16  2  0  0  0
 13 27  1  0  0  0
 14 17  1  0  0  0
 14 28  1  0  0  0
 15 17  2  0  0  0
 15 18  1  0  0  0
 16 19  1  0  0  0
 16 22  1  0  0  0
 17 29  1  0  0  0
 18 30  1  0  0  0
 19 31  1  0  0  0
 20 21  1  0  0  0
 20 22  2  0  0  0
 20 32  1  0  0  0
 21 33  1  0  0  0
 22 34  1  0  0  0
M  END
> <s_m_entry_id>
32161

> <s_m_entry_name>
dock_pv.424

> <s_m_Source_Path>
/home/csk/Desktop/cluster/DUD-E-result/src

> <s_m_Source_File>
dock_pv.maegz

> <i_m_Source_File_Index>
424

> <chembl_id>
CHEMBL79253

> <chembl_pref_name>
None

> <i_lp_mmshare_version>
53161

> <r_lp_tautomer_probability>
0.999999999997365

> <s_lp_Force_Field>
OPLS_2005

> <r_lp_Energy>
37.652327

> <b_lp_Chiralities_Consistent>
1

> <s_lp_Variant>
CHEMBL267_lig313-1

> <s_i_glide_gridfile>
glide-grid_3el8

> <i_i_glide_lignum>
379

> <i_i_glide_rotatable_bonds>
5

> <r_i_docking_score>
-7.14264155644586

> <r_i_glide_ligand_efficiency>
-0.324665525292994

> <r_i_glide_ligand_efficiency_sa>
-0.909725570241527

> <r_i_glide_ligand_efficiency_ln>
-1.7459221305764

> <r_i_glide_gscore>
-7.14264155644586

> <r_i_glide_lipo>
-2.5188108869032

> <r_i_glide_hbond>
-0.478646459771873

> <r_i_glide_metal>
0

> <r_i_glide_rewards>
-2.40280953157184

> <r_i_glide_evdw>
-30.7707233428955

> <r_i_glide_ecoul>
-5.53240060806274

> <r_i_glide_erotb>
0.626021580155232

> <r_i_glide_esite>
0

> <r_i_glide_emodel>
-55.011451506437

> <r_i_glide_energy>
-36.3031239509583

> <r_i_glide_einternal>
1.39431500434875

> <i_i_glide_confnum>
8

> <i_i_glide_posenum>
378

> <r_i_glide_eff_state_penalty>
0

> <s_user_duplicate_titles>
CHEMBL267_lig313

> <i_f3d_flags>
0

> <s_m_subgroup_title>
dock_pv

> <s_m_subgroupid>
dock_pv

> <b_m_subgroup_collapsed>
1

$$$$
CHEMBL267_lig1270
                    3D
 Schrodinger Suite 2021-1.
 29 33  0  0  1  0            999 V2000
    4.4808   11.3544    4.3052 C   0  0  0  0  0  0
    3.6033   12.2572    3.7088 C   0  0  0  0  0  0
    2.2419   12.2352    3.9953 C   0  0  0  0  0  0
    1.6934   11.3116    4.8842 C   0  0  0  0  0  0
    3.9733   10.4063    5.2111 C   0  0  0  0  0  0
    2.5700   10.4005    5.4829 C   0  0  0  0  0  0
    2.3183    9.3865    6.3884 N   0  0  0  0  0  0
    4.5673    9.3798    5.9850 C   0  0  0  0  0  0
    3.5122    8.7879    6.7141 C   0  0  0  0  0  0
    5.0775    7.2849    7.7957 C   0  0  0  0  0  0
    3.7602    7.7475    7.6340 C   0  0  0  0  0  0
    2.8534    7.0993    8.4274 N   0  0  0  0  0  0
    3.6023    6.2361    9.0706 C   0  0  0  0  0  0
    4.9390    6.2854    8.7327 N   0  0  0  0  0  0
    5.8754    8.8694    6.1755 C   0  0  0  0  0  0
    6.1292    7.8361    7.0560 C   0  0  0  0  0  0
    7.5736    7.5035    6.9860 C   0  0  0  0  0  0
    8.0834    8.3645    6.0901 N   0  0  0  0  0  0
    7.1915    9.2369    5.5810 C   0  0  0  0  0  0
    8.1977    6.6368    7.5881 O   0  0  0  0  0  0
    7.4565   10.1341    4.7874 O   0  0  0  0  0  0
    5.5299   11.3996    4.0636 H   0  0  0  0  0  0
    3.9880   12.9855    3.0099 H   0  0  0  0  0  0
    1.5944   12.9517    3.5100 H   0  0  0  0  0  0
    0.6345   11.3088    5.0956 H   0  0  0  0  0  0
    1.4162    9.1347    6.7624 H   0  0  0  0  0  0
    3.2664    5.5199    9.8072 H   0  0  0  0  0  0
    5.6456    5.6829    9.1301 H   0  0  0  0  0  0
    9.0566    8.3548    5.8224 H   0  0  0  0  0  0
  1  2  2  0  0  0
  1  5  1  0  0  0
  1 22  1  0  0  0
  2  3  1  0  0  0
  2 23  1  0  0  0
  3  4  2  0  0  0
  3 24  1  0  0  0
  4  6  1  0  0  0
  4 25  1  0  0  0
  5  6  2  0  0  0
  5  8  1  0  0  0
  6  7  1  0  0  0
  7  9  1  0  0  0
  7 26  1  0  0  0
  8  9  2  0  0  0
  8 15  1  0  0  0
  9 11  1  0  0  0
 10 16  1  0  0  0
 10 11  2  0  0  0
 10 14  1  0  0  0
 11 12  1  0  0  0
 12 13  2  0  0  0
 13 14  1  0  0  0
 13 27  1  0  0  0
 14 28  1  0  0  0
 15 16  2  0  0  0
 15 19  1  0  0  0
 16 17  1  0  0  0
 17 18  1  0  0  0
 17 20  2  0  0  0
 18 19  1  0  0  0
 18 29  1  0  0  0
 19 21  2  0  0  0
M  END
> <s_m_entry_id>
32162

> <s_m_entry_name>
dock_pv.425

> <s_m_Source_Path>
/home/csk/Desktop/cluster/DUD-E-result/src

> <s_m_Source_File>
dock_pv.maegz

> <i_m_Source_File_Index>
425

> <chembl_id>
CHEMBL240747

> <chembl_pref_name>
GRANULATIMIDE

> <i_lp_mmshare_version>
53161

> <r_lp_tautomer_probability>
1

> <s_lp_Force_Field>
OPLS_2005

> <r_lp_Energy>
65.772182

> <b_lp_Chiralities_Consistent>
1

> <s_lp_Variant>
CHEMBL267_lig1270-1

> <s_i_glide_gridfile>
glide-grid_3el8

> <i_i_glide_lignum>
1423

> <i_i_glide_rotatable_bonds>
0

> <r_i_docking_score>
-7.137603701564

> <r_i_glide_ligand_efficiency>
-0.339885890550667

> <r_i_glide_ligand_efficiency_sa>
-0.937719399699426

> <r_i_glide_ligand_efficiency_ln>
-1.76475809232538

> <r_i_glide_gscore>
-7.137603701564

> <r_i_glide_lipo>
-1.53985392083224

> <r_i_glide_hbond>
-0.32

> <r_i_glide_metal>
0

> <r_i_glide_rewards>
-2.89161758812007

> <r_i_glide_evdw>
-30.0583763122559

> <r_i_glide_ecoul>
-5.88808917999268

> <r_i_glide_erotb>
0

> <r_i_glide_esite>
0

> <r_i_glide_emodel>
-50.9231039743489

> <r_i_glide_energy>
-35.9464654922485

> <r_i_glide_einternal>
0

> <i_i_glide_confnum>
1

> <i_i_glide_posenum>
266

> <r_i_glide_eff_state_penalty>
0

> <s_user_duplicate_titles>
CHEMBL267_lig1270,405943

> <i_f3d_flags>
0

> <s_m_subgroup_title>
dock_pv

> <s_m_subgroupid>
dock_pv

> <b_m_subgroup_collapsed>
1

$$$$
CHEMBL267_lig3851
                    3D
 Schrodinger Suite 2021-1.
 52 57  0  0  1  0            999 V2000
    1.5109    6.3658   11.7670 C   0  0  0  0  0  0
    0.2695    5.8368   11.4131 C   0  0  0  0  0  0
   -0.1225    5.5896   10.1366 N   0  0  0  0  0  0
    2.4575    6.6352   10.7806 C   0  0  0  0  0  0
    2.0887    6.4165    9.4443 C   0  0  0  0  0  0
    0.7778    5.9127    9.2059 C   0  0  0  0  0  0
    0.5983    5.8548    7.8465 N   0  0  0  0  0  0
    1.7483    6.2651    7.2225 C   0  0  0  0  0  0
    2.7126    6.5915    8.1646 C   0  0  0  0  0  0
    4.0957    7.0399    7.8940 C   0  0  0  0  0  0
    4.2522    8.0423    6.9915 N   0  0  0  0  0  0
    5.5246    8.3133    6.5840 C   0  0  0  0  0  0
    6.6134    7.5704    7.0686 C   0  0  0  0  0  0
    6.3384    6.5545    7.9881 C   0  0  0  0  0  0
    5.0848    6.2850    8.4328 N   0  0  0  0  0  0
    7.8850    7.8114    6.6692 F   0  0  0  0  0  0
    5.7565    9.3698    5.6833 N   0  0  0  0  0  0
    4.7050   10.2896    5.2279 C   0  0  1  0  0  0
    5.3374   11.6847    4.9363 C   0  0  1  0  0  0
    4.1574   12.6431    4.6248 C   0  0  0  0  0  0
    3.3324   12.1465    3.4038 C   0  0  0  0  0  0
    3.9204   10.8249    2.8256 C   0  0  1  0  0  0
    3.9508    9.7374    3.9535 C   0  0  2  0  0  0
    1.7984    6.6370   13.0561 F   0  0  0  0  0  0
    2.5341    9.2136    4.2568 C   0  0  0  0  0  0
    1.8504    9.4085    5.3117 N   0  0  0  0  0  0
    1.7635    8.3488    3.2862 C   0  0  0  0  0  0
    0.6213    7.9114    4.1647 C   0  0  0  0  0  0
    0.6775    8.6366    5.2637 O   0  0  0  0  0  0
   -0.2134    7.0313    3.9840 O   0  0  0  0  0  0
    6.2233   11.5968    3.6580 C   0  0  0  0  0  0
    5.3977   11.1093    2.4325 C   0  0  0  0  0  0
   -0.4671    5.6291   12.1749 H   0  0  0  0  0  0
    3.4317    7.0228   11.0393 H   0  0  0  0  0  0
   -0.2520    5.5945    7.3577 H   0  0  0  0  0  0
    1.7969    6.2699    6.1438 H   0  0  0  0  0  0
    7.1219    5.9221    8.3759 H   0  0  0  0  0  0
    6.6864    9.4789    5.3044 H   0  0  0  0  0  0
    4.0124   10.4216    6.0592 H   0  0  0  0  0  0
    5.9069   12.0494    5.7922 H   0  0  0  0  0  0
    3.5093   12.7300    5.4982 H   0  0  0  0  0  0
    4.5368   13.6491    4.4367 H   0  0  0  0  0  0
    2.2877   12.0093    3.6864 H   0  0  0  0  0  0
    3.3218   12.9138    2.6278 H   0  0  0  0  0  0
    3.3537   10.4966    1.9530 H   0  0  0  0  0  0
    4.5020    8.8832    3.5560 H   0  0  0  0  0  0
    1.3934    8.9235    2.4372 H   0  0  0  0  0  0
    2.3337    7.4980    2.9191 H   0  0  0  0  0  0
    6.6568   12.5756    3.4446 H   0  0  0  0  0  0
    7.0744   10.9363    3.8259 H   0  0  0  0  0  0
    5.4310   11.8591    1.6400 H   0  0  0  0  0  0
    5.8536   10.2172    2.0035 H   0  0  0  0  0  0
  1  2  2  0  0  0
  1  4  1  0  0  0
  1 24  1  0  0  0
  2  3  1  0  0  0
  2 33  1  0  0  0
  3  6  2  0  0  0
  4  5  2  0  0  0
  4 34  1  0  0  0
  5  6  1  0  0  0
  5  9  1  0  0  0
  6  7  1  0  0  0
  7  8  1  0  0  0
  7 35  1  0  0  0
  8  9  2  0  0  0
  8 36  1  0  0  0
  9 10  1  0  0  0
 10 11  2  0  0  0
 10 15  1  0  0  0
 11 12  1  0  0  0
 12 13  2  0  0  0
 12 17  1  0  0  0
 13 14  1  0  0  0
 13 16  1  0  0  0
 14 15  2  0  0  0
 14 37  1  0  0  0
 17 18  1  0  0  0
 17 38  1  0  0  0
 18 19  1  0  0  0
 18 23  1  0  0  0
 18 39  1  0  0  0
 19 20  1  0  0  0
 19 31  1  0  0  0
 19 40  1  0  0  0
 20 21  1  0  0  0
 20 41  1  0  0  0
 20 42  1  0  0  0
 21 22  1  0  0  0
 21 43  1  0  0  0
 21 44  1  0  0  0
 22 23  1  0  0  0
 22 32  1  0  0  0
 22 45  1  0  0  0
 23 46  1  0  0  0
 23 25  1  0  0  0
 25 26  2  0  0  0
 25 27  1  0  0  0
 26 29  1  0  0  0
 27 47  1  0  0  0
 27 48  1  0  0  0
 27 28  1  0  0  0
 28 30  2  0  0  0
 28 29  1  0  0  0
 31 32  1  0  0  0
 31 49  1  0  0  0
 31 50  1  0  0  0
 32 51  1  0  0  0
 32 52  1  0  0  0
M  END
> <s_m_entry_id>
32163

> <s_m_entry_name>
dock_pv.426

> <s_m_Source_Path>
/home/csk/Desktop/cluster/DUD-E-result/src

> <s_m_Source_File>
dock_pv.maegz

> <i_m_Source_File_Index>
426

> <chembl_id>
CHEMBL3401979

> <chembl_pref_name>
None

> <i_lp_mmshare_version>
53161

> <r_lp_tautomer_probability>
0.242421138833119

> <s_lp_Force_Field>
OPLS_2005

> <r_lp_Energy>
44.393981

> <b_lp_Chiralities_Consistent>
1

> <s_lp_Variant>
CHEMBL267_lig3851-2

> <s_i_glide_gridfile>
glide-grid_3el8

> <i_i_glide_lignum>
4737

> <i_i_glide_rotatable_bonds>
4

> <r_i_docking_score>
-7.13596965091604

> <r_i_glide_ligand_efficiency>
-0.222999051591126

> <r_i_glide_ligand_efficiency_sa>
-0.707977857349442

> <r_i_glide_ligand_efficiency_ln>
-1.59793812402616

> <r_i_glide_gscore>
-7.13596965091604

> <r_i_glide_lipo>
-2.69218809765558

> <r_i_glide_hbond>
-0.316057332065051

> <r_i_glide_metal>
0

> <r_i_glide_rewards>
-2.08030344559181

> <r_i_glide_evdw>
-47.2719268798828

> <r_i_glide_ecoul>
-0.65977543592453

> <r_i_glide_erotb>
0.41514188377921

> <r_i_glide_esite>
0

> <r_i_glide_emodel>
-62.9113200428965

> <r_i_glide_energy>
-47.9317023158073

> <r_i_glide_einternal>
8.79537773132324

> <i_i_glide_confnum>
1

> <i_i_glide_posenum>
264

> <r_i_glide_eff_state_penalty>
0

> <s_user_duplicate_titles>
CHEMBL267_lig3851

> <i_f3d_flags>
0

> <s_m_subgroup_title>
dock_pv

> <s_m_subgroupid>
dock_pv

> <b_m_subgroup_collapsed>
1

$$$$
CHEMBL267_lig3387
                    3D
 Schrodinger Suite 2021-1.
 43 46  0  0  1  0            999 V2000
    7.8113    6.7563    7.1488 O   0  0  0  0  0  0
   -0.5884    3.3549    8.4958 O   0  0  0  0  0  0
    8.0777    8.5505    5.6919 N   0  0  0  0  0  0
    5.1709    6.7881    8.1616 N   0  0  0  0  0  0
    1.1757    5.1247    9.8675 N   0  0  0  0  0  0
    3.8938   13.5056    3.8834 N   0  0  0  0  0  0
    5.9804    8.3777    6.5669 C   0  0  0  0  0  0
    6.0539    9.5565    5.7224 C   0  0  0  0  0  0
    7.3844    9.6246    5.1880 C   0  0  0  0  0  0
    7.2629    7.8384    6.5176 C   0  0  0  0  0  0
    4.8236    7.8372    7.3725 C   0  0  0  0  0  0
    5.1571   10.5793    5.3601 C   0  0  0  0  0  0
    7.8043   10.6419    4.3267 C   0  0  0  0  0  0
    5.5716   11.5993    4.5017 C   0  0  0  0  0  0
    3.5084    8.3341    7.3831 C   0  0  0  0  0  0
    6.8671   11.6171    3.9878 C   0  0  0  0  0  0
    2.9705    6.7751    9.1497 C   0  0  0  0  0  0
    4.2601    6.2699    9.0082 C   0  0  0  0  0  0
    2.5810    7.8075    8.2920 C   0  0  0  0  0  0
    2.0701    6.2217   10.2496 C   0  0  0  0  0  0
    4.6380   12.6619    4.1547 C   0  0  0  0  0  0
   -0.2020    5.5038    9.5879 C   0  0  0  0  0  0
    1.6745    4.1613    8.8850 C   0  0  0  0  0  0
   -1.0902    4.2364    9.4933 C   0  0  0  0  0  0
    0.7376    2.9356    8.7890 C   0  0  0  0  0  0
    7.1128    6.3642    7.6835 H   0  0  0  0  0  0
    9.0379    8.2792    5.5305 H   0  0  0  0  0  0
    4.1534   10.6022    5.7472 H   0  0  0  0  0  0
    8.8108   10.6799    3.9347 H   0  0  0  0  0  0
    3.1914    9.1326    6.7397 H   0  0  0  0  0  0
    7.1704   12.4165    3.3234 H   0  0  0  0  0  0
    4.6061    5.4361    9.5882 H   0  0  0  0  0  0
    1.5814    8.2126    8.3432 H   0  0  0  0  0  0
    2.7098    5.8609   11.0567 H   0  0  0  0  0  0
    1.5057    7.0377   10.7006 H   0  0  0  0  0  0
   -0.5778    6.1195   10.4060 H   0  0  0  0  0  0
   -0.2590    6.1176    8.6880 H   0  0  0  0  0  0
    1.8187    4.6346    7.9124 H   0  0  0  0  0  0
    2.6523    3.8368    9.2150 H   0  0  0  0  0  0
   -2.1066    4.5162    9.2170 H   0  0  0  0  0  0
   -1.1647    3.7355   10.4596 H   0  0  0  0  0  0
    1.0525    2.2726    7.9864 H   0  0  0  0  0  0
    0.7696    2.3475    9.7077 H   0  0  0  0  0  0
  1 10  1  0  0  0
  1 26  1  0  0  0
  2 24  1  0  0  0
  2 25  1  0  0  0
  3  9  1  0  0  0
  3 10  1  0  0  0
  3 27  1  0  0  0
  4 11  1  0  0  0
  4 18  2  0  0  0
  5 20  1  0  0  0
  5 22  1  0  0  0
  5 23  1  0  0  0
  6 21  3  0  0  0
  7  8  1  0  0  0
  7 10  2  0  0  0
  7 11  1  0  0  0
  8  9  1  0  0  0
  8 12  2  0  0  0
  9 13  2  0  0  0
 11 15  2  0  0  0
 12 14  1  0  0  0
 12 28  1  0  0  0
 13 16  1  0  0  0
 13 29  1  0  0  0
 14 16  2  0  0  0
 14 21  1  0  0  0
 15 19  1  0  0  0
 15 30  1  0  0  0
 16 31  1  0  0  0
 17 18  1  0  0  0
 17 19  2  0  0  0
 17 20  1  0  0  0
 18 32  1  0  0  0
 19 33  1  0  0  0
 20 34  1  0  0  0
 20 35  1  0  0  0
 22 24  1  0  0  0
 22 36  1  0  0  0
 22 37  1  0  0  0
 23 25  1  0  0  0
 23 38  1  0  0  0
 23 39  1  0  0  0
 24 40  1  0  0  0
 24 41  1  0  0  0
 25 42  1  0  0  0
 25 43  1  0  0  0
M  END
> <s_m_entry_id>
32164

> <s_m_entry_name>
dock_pv.427

> <s_m_Source_Path>
/home/csk/Desktop/cluster/DUD-E-result/src

> <s_m_Source_File>
dock_pv.maegz

> <i_m_Source_File_Index>
427

> <chembl_id>
CHEMBL1969664

> <chembl_pref_name>
AZD-1080

> <i_lp_mmshare_version>
53161

> <r_lp_tautomer_probability>
1

> <s_lp_Force_Field>
OPLS_2005

> <r_lp_Energy>
28.483927

> <b_lp_Chiralities_Consistent>
1

> <s_lp_Variant>
CHEMBL267_lig3387-1

> <s_i_glide_gridfile>
glide-grid_3el8

> <i_i_glide_lignum>
4029

> <i_i_glide_rotatable_bonds>
4

> <r_i_docking_score>
-7.13377027096633

> <r_i_glide_ligand_efficiency>
-0.285350810838653

> <r_i_glide_ligand_efficiency_sa>
-0.834370831610401

> <r_i_glide_ligand_efficiency_ln>
-1.6909173360629

> <r_i_glide_gscore>
-7.13377027096633

> <r_i_glide_lipo>
-3.12207746557138

> <r_i_glide_hbond>
-0.351448278578482

> <r_i_glide_metal>
0

> <r_i_glide_rewards>
-1.40299904291357

> <r_i_glide_evdw>
-40.0244827270508

> <r_i_glide_ecoul>
-5.08049583435059

> <r_i_glide_erotb>
0.506053027602229

> <r_i_glide_esite>
0

> <r_i_glide_emodel>
-56.7948139865497

> <r_i_glide_energy>
-45.1049785614014

> <r_i_glide_einternal>
10.7575817108154

> <i_i_glide_confnum>
55

> <i_i_glide_posenum>
18

> <r_i_glide_eff_state_penalty>
0

> <s_user_duplicate_titles>
CHEMBL267_lig3387

> <i_f3d_flags>
0

> <s_m_subgroup_title>
dock_pv

> <s_m_subgroupid>
dock_pv

> <b_m_subgroup_collapsed>
1

$$$$
CHEMBL267_lig2190
                    3D
 Schrodinger Suite 2021-1.
 33 35  0  0  1  0            999 V2000
    2.6720    6.2630    8.9625 C   0  0  0  0  0  0
    1.4094    6.7539    8.5890 C   0  0  0  0  0  0
    1.3479    7.7486    7.6058 C   0  0  0  0  0  0
    2.4202    8.3103    6.9856 N   0  0  0  0  0  0
    3.8086    6.7979    8.3331 C   0  0  0  0  0  0
    3.6032    7.8221    7.3661 C   0  0  0  0  0  0
    4.8422    8.1941    6.8869 N   0  0  0  0  0  0
    5.8240    7.4370    7.4963 C   0  0  0  0  0  0
    5.2216    6.5626    8.3880 C   0  0  0  0  0  0
    7.2334    7.5971    7.1110 C   0  0  0  0  0  0
    0.1980    6.3299    9.1667 N   0  0  0  0  0  0
    0.1362    5.2437   10.1397 C   0  0  0  0  0  0
    7.4039    8.5649    6.1721 O   0  0  0  0  0  0
   -0.1773    3.9239    9.4746 C   0  0  0  0  0  0
    8.6780    8.7977    5.5880 C   0  0  0  0  0  0
    8.1380    6.9053    7.5880 O   0  0  0  0  0  0
    0.6867    2.9533    8.9734 C   0  0  0  0  0  0
    0.0424    1.8587    8.3880 C   0  0  0  0  0  0
   -1.3345    1.9882    8.3880 C   0  0  0  0  0  0
   -1.8285    3.4370    9.1880 S   0  0  0  0  0  0
    2.7919    5.4891    9.7042 H   0  0  0  0  0  0
    0.3916    8.1367    7.2881 H   0  0  0  0  0  0
    5.0521    8.8847    6.1810 H   0  0  0  0  0  0
    5.7428    5.8370    8.9970 H   0  0  0  0  0  0
   -0.5656    6.2455    8.5031 H   0  0  0  0  0  0
    1.0252    5.1970   10.7665 H   0  0  0  0  0  0
   -0.6752    5.4782   10.8293 H   0  0  0  0  0  0
    8.7076    9.7980    5.1563 H   0  0  0  0  0  0
    8.8626    8.0827    4.7880 H   0  0  0  0  0  0
    9.4880    8.7222    6.3156 H   0  0  0  0  0  0
    1.7613    3.0370    9.0390 H   0  0  0  0  0  0
    0.5606    1.0082    7.9706 H   0  0  0  0  0  0
   -2.0765    1.3099    7.9880 H   0  0  0  0  0  0
  1  5  1  0  0  0
  1  2  2  0  0  0
  1 21  1  0  0  0
  2  3  1  0  0  0
  2 11  1  0  0  0
  3  4  2  0  0  0
  3 22  1  0  0  0
  4  6  1  0  0  0
  5  6  2  0  0  0
  5  9  1  0  0  0
  6  7  1  0  0  0
  7  8  1  0  0  0
  7 23  1  0  0  0
  8  9  2  0  0  0
  8 10  1  0  0  0
  9 24  1  0  0  0
 10 13  1  0  0  0
 10 16  2  0  0  0
 11 12  1  0  0  0
 11 25  1  0  0  0
 12 14  1  0  0  0
 12 26  1  0  0  0
 12 27  1  0  0  0
 13 15  1  0  0  0
 14 17  2  0  0  0
 14 20  1  0  0  0
 15 28  1  0  0  0
 15 29  1  0  0  0
 15 30  1  0  0  0
 17 18  1  0  0  0
 17 31  1  0  0  0
 18 19  2  0  0  0
 18 32  1  0  0  0
 19 20  1  0  0  0
 19 33  1  0  0  0
M  END
> <s_m_entry_id>
32166

> <s_m_entry_name>
dock_pv.429

> <s_m_Source_Path>
/home/csk/Desktop/cluster/DUD-E-result/src

> <s_m_Source_File>
dock_pv.maegz

> <i_m_Source_File_Index>
429

> <chembl_id>
CHEMBL3347389

> <chembl_pref_name>
None

> <i_lp_mmshare_version>
53161

> <r_lp_tautomer_probability>
1

> <s_lp_Force_Field>
OPLS_2005

> <r_lp_Energy>
6.488602

> <b_lp_Chiralities_Consistent>
1

> <s_lp_Variant>
CHEMBL267_lig2190-1

> <s_i_glide_gridfile>
glide-grid_3el8

> <i_i_glide_lignum>
2480

> <i_i_glide_rotatable_bonds>
5

> <r_i_docking_score>
-7.1308737002712

> <r_i_glide_ligand_efficiency>
-0.35654368501356

> <r_i_glide_ligand_efficiency_sa>
-0.967808458720041

> <r_i_glide_ligand_efficiency_ln>
-1.78462249522255

> <r_i_glide_gscore>
-7.1308737002712

> <r_i_glide_lipo>
-2.33616436880221

> <r_i_glide_hbond>
-0.471033072243218

> <r_i_glide_metal>
0

> <r_i_glide_rewards>
-2.53590338375803

> <r_i_glide_evdw>
-35.5140533447266

> <r_i_glide_ecoul>
-5.77331638336182

> <r_i_glide_erotb>
0.880527889070613

> <r_i_glide_esite>
-0.0266006397977518

> <r_i_glide_emodel>
-57.156352114625

> <r_i_glide_energy>
-41.2873697280884

> <r_i_glide_einternal>
3.45967936515808

> <i_i_glide_confnum>
5

> <i_i_glide_posenum>
313

> <r_i_glide_eff_state_penalty>
0

> <s_user_duplicate_titles>
CHEMBL267_lig2190

> <i_f3d_flags>
0

> <s_m_subgroup_title>
dock_pv

> <s_m_subgroupid>
dock_pv

> <b_m_subgroup_collapsed>
1

$$$$
CHEMBL267_lig676
                    3D
 Schrodinger Suite 2021-1.
 39 42  0  0  1  0            999 V2000
    3.7896    9.4630    6.2173 N   0  0  0  0  0  0
    4.8684    8.6505    6.5497 C   0  0  0  0  0  0
    4.2250   10.5156    5.4048 C   0  0  0  0  0  0
    6.0149    9.1913    5.9177 C   0  0  0  0  0  0
    5.6191   10.3224    5.1940 C   0  0  0  0  0  0
    4.9531    7.5262    7.3827 C   0  0  0  0  0  0
    3.5665   11.6299    4.8434 C   0  0  0  0  0  0
    7.2643    8.5908    6.1147 C   0  0  0  0  0  0
    6.2159    6.9688    7.5883 C   0  0  0  0  0  0
    6.3429   11.2226    4.3970 C   0  0  0  0  0  0
    7.3570    7.4982    6.9709 C   0  0  0  0  0  0
    2.4227    9.2300    6.6874 C   0  0  0  0  0  0
    4.3249   12.5193    4.0716 C   0  0  0  0  0  0
    5.6814   12.3145    3.8465 C   0  0  0  0  0  0
    2.2320   11.8706    5.0470 O   0  0  0  0  0  0
    6.3002    5.8536    8.3879 O   0  0  0  0  0  0
    8.5977    6.9614    7.1882 O   0  0  0  0  0  0
    1.6093    8.2945    5.8076 C   0  0  0  0  0  0
    3.7312   13.6292    3.5239 O   0  0  0  0  0  0
    1.0416    7.1414    6.3545 C   0  0  0  0  0  0
    1.3899    8.6118    4.4647 C   0  0  0  0  0  0
    0.5973    7.7858    3.6774 C   0  0  0  0  0  0
    0.2540    6.3156    5.5590 C   0  0  0  0  0  0
    0.0328    6.6379    4.2234 C   0  0  0  0  0  0
    4.0806    7.1089    7.8623 H   0  0  0  0  0  0
    8.1483    8.9940    5.6435 H   0  0  0  0  0  0
    7.4019   11.0893    4.2290 H   0  0  0  0  0  0
    1.8956   10.1776    6.7670 H   0  0  0  0  0  0
    2.4756    8.8542    7.7103 H   0  0  0  0  0  0
    6.2411   13.0175    3.2460 H   0  0  0  0  0  0
    1.9719   12.6588    4.5604 H   0  0  0  0  0  0
    5.4613    5.5785    8.7640 H   0  0  0  0  0  0
    9.2546    7.2490    6.5449 H   0  0  0  0  0  0
    4.3401   14.1427    2.9864 H   0  0  0  0  0  0
    1.1935    6.8865    7.3934 H   0  0  0  0  0  0
    1.8138    9.5034    4.0287 H   0  0  0  0  0  0
    0.4034    8.0502    2.6521 H   0  0  0  0  0  0
   -0.2019    5.4366    5.9854 H   0  0  0  0  0  0
   -0.5923    6.0081    3.6055 H   0  0  0  0  0  0
  1  2  1  0  0  0
  1  3  1  0  0  0
  1 12  1  0  0  0
  2  4  2  0  0  0
  2  6  1  0  0  0
  3  5  2  0  0  0
  3  7  1  0  0  0
  4  8  1  0  0  0
  4  5  1  0  0  0
  5 10  1  0  0  0
  6  9  2  0  0  0
  6 25  1  0  0  0
  7 13  2  0  0  0
  7 15  1  0  0  0
  8 11  2  0  0  0
  8 26  1  0  0  0
  9 11  1  0  0  0
  9 16  1  0  0  0
 10 14  2  0  0  0
 10 27  1  0  0  0
 11 17  1  0  0  0
 12 18  1  0  0  0
 12 28  1  0  0  0
 12 29  1  0  0  0
 13 14  1  0  0  0
 13 19  1  0  0  0
 14 30  1  0  0  0
 15 31  1  0  0  0
 16 32  1  0  0  0
 17 33  1  0  0  0
 18 20  1  0  0  0
 18 21  2  0  0  0
 19 34  1  0  0  0
 20 23  2  0  0  0
 20 35  1  0  0  0
 21 22  1  0  0  0
 21 36  1  0  0  0
 22 24  2  0  0  0
 22 37  1  0  0  0
 23 24  1  0  0  0
 23 38  1  0  0  0
 24 39  1  0  0  0
M  END
> <s_m_entry_id>
32167

> <s_m_entry_name>
dock_pv.430

> <s_m_Source_Path>
/home/csk/Desktop/cluster/DUD-E-result/src

> <s_m_Source_File>
dock_pv.maegz

> <i_m_Source_File_Index>
430

> <chembl_id>
CHEMBL308438

> <chembl_pref_name>
None

> <i_lp_mmshare_version>
53161

> <r_lp_tautomer_probability>
1

> <s_lp_Force_Field>
OPLS_2005

> <r_lp_Energy>
17.676303

> <b_lp_Chiralities_Consistent>
1

> <s_lp_Variant>
CHEMBL267_lig676-1

> <s_i_glide_gridfile>
glide-grid_3el8

> <i_i_glide_lignum>
795

> <i_i_glide_rotatable_bonds>
6

> <r_i_docking_score>
-7.12977459695088

> <r_i_glide_ligand_efficiency>
-0.29707394153962

> <r_i_glide_ligand_efficiency_sa>
-0.856909528162321

> <r_i_glide_ligand_efficiency_ln>
-1.7064822250883

> <r_i_glide_gscore>
-7.12977459695088

> <r_i_glide_lipo>
-3.08655762712251

> <r_i_glide_hbond>
0

> <r_i_glide_metal>
0

> <r_i_glide_rewards>
-1.91233975544047

> <r_i_glide_evdw>
-31.5191764831543

> <r_i_glide_ecoul>
-6.11235427856445

> <r_i_glide_erotb>
0.361934751554487

> <r_i_glide_esite>
0

> <r_i_glide_emodel>
-54.1760930430166

> <r_i_glide_energy>
-37.6315307617188

> <r_i_glide_einternal>
0.785711109638214

> <i_i_glide_confnum>
2

> <i_i_glide_posenum>
175

> <r_i_glide_eff_state_penalty>
0

> <s_user_duplicate_titles>
CHEMBL267_lig676

> <i_f3d_flags>
0

> <s_m_subgroup_title>
dock_pv

> <s_m_subgroupid>
dock_pv

> <b_m_subgroup_collapsed>
1

$$$$
CHEMBL267_lig3561
                    3D
 Schrodinger Suite 2021-1.
 20 22  0  0  1  0            999 V2000
    0.1997    8.6578    7.5862 Cl  0  0  0  0  0  0
    5.6390    6.6904    8.3868 O   0  0  0  0  0  0
    8.5774    6.6376    7.5880 O   0  0  0  0  0  0
    5.8484    9.1299    5.7647 N   0  0  0  0  0  0
    7.9801    8.2375    6.0969 N   0  0  0  0  0  0
    5.4306    8.2872    6.7578 C   0  0  0  0  0  0
    4.1323    8.0576    7.3091 C   0  0  0  0  0  0
    6.2905    7.4368    7.4500 C   0  0  0  0  0  0
    4.3290    7.0745    8.3134 C   0  0  0  0  0  0
    7.7069    7.3591    7.1129 C   0  0  0  0  0  0
    2.8397    8.5514    7.0872 C   0  0  0  0  0  0
    3.2843    6.5726    9.0983 C   0  0  0  0  0  0
    1.7899    8.0541    7.8627 C   0  0  0  0  0  0
    7.1037    9.1001    5.4596 C   0  0  0  0  0  0
    2.0078    7.0844    8.8470 C   0  0  0  0  0  0
    8.9399    8.2045    5.7849 H   0  0  0  0  0  0
    2.6616    9.2974    6.3252 H   0  0  0  0  0  0
    3.4608    5.8223    9.8580 H   0  0  0  0  0  0
    7.5045    9.7485    4.6859 H   0  0  0  0  0  0
    1.1707    6.7188    9.4258 H   0  0  0  0  0  0
  1 13  1  0  0  0
  2  8  1  0  0  0
  2  9  1  0  0  0
  3 10  2  0  0  0
  4  6  1  0  0  0
  4 14  2  0  0  0
  5 10  1  0  0  0
  5 14  1  0  0  0
  5 16  1  0  0  0
  6  7  1  0  0  0
  6  8  2  0  0  0
  7  9  1  0  0  0
  7 11  2  0  0  0
  8 10  1  0  0  0
  9 12  2  0  0  0
 11 13  1  0  0  0
 11 17  1  0  0  0
 12 15  1  0  0  0
 12 18  1  0  0  0
 13 15  2  0  0  0
 14 19  1  0  0  0
 15 20  1  0  0  0
M  END
> <s_m_entry_id>
32168

> <s_m_entry_name>
dock_pv.431

> <s_m_Source_Path>
/home/csk/Desktop/cluster/DUD-E-result/src

> <s_m_Source_File>
dock_pv.maegz

> <i_m_Source_File_Index>
431

> <chembl_id>
CHEMBL1992323

> <chembl_pref_name>
None

> <i_lp_mmshare_version>
53161

> <r_lp_tautomer_probability>
1

> <s_lp_Force_Field>
OPLS_2005

> <r_lp_Energy>
20.344558

> <b_lp_Chiralities_Consistent>
1

> <s_lp_Variant>
CHEMBL267_lig3561-1

> <s_i_glide_gridfile>
glide-grid_3el8

> <i_i_glide_lignum>
4289

> <i_i_glide_rotatable_bonds>
0

> <r_i_docking_score>
-7.12904810119274

> <r_i_glide_ligand_efficiency>
-0.475269873412849

> <r_i_glide_ligand_efficiency_sa>
-1.17211629931823

> <r_i_glide_ligand_efficiency_ln>
-1.92258672740559

> <r_i_glide_gscore>
-7.12904810119274

> <r_i_glide_lipo>
-1.65502637826136

> <r_i_glide_hbond>
-0.330012849836682

> <r_i_glide_metal>
0

> <r_i_glide_rewards>
-2.98810577212729

> <r_i_glide_evdw>
-23.6033992767334

> <r_i_glide_ecoul>
-6.50488758087158

> <r_i_glide_erotb>
0

> <r_i_glide_esite>
0

> <r_i_glide_emodel>
-43.2060093542774

> <r_i_glide_energy>
-30.108286857605

> <r_i_glide_einternal>
0

> <i_i_glide_confnum>
1

> <i_i_glide_posenum>
241

> <r_i_glide_eff_state_penalty>
0

> <s_user_duplicate_titles>
CHEMBL267_lig3561

> <i_f3d_flags>
0

> <s_m_subgroup_title>
dock_pv

> <s_m_subgroupid>
dock_pv

> <b_m_subgroup_collapsed>
1

$$$$
CHEMBL267_lig1505
                    3D
 Schrodinger Suite 2021-1.
 59 62  0  0  1  0            999 V2000
    0.4875    7.7960    3.5547 N   0  0  0  0  0  0
   -0.1838    7.0368    4.4462 C   0  0  0  0  0  0
    0.1971    6.7402    5.7095 N   0  0  0  0  0  0
    1.6728    8.3115    3.9429 C   0  0  0  0  0  0
    2.1854    8.0905    5.2384 C   0  0  0  0  0  0
    1.3723    7.2682    6.0789 C   0  0  0  0  0  0
    1.9994    7.1393    7.3169 N   0  0  0  0  0  0
    3.2021    7.8155    7.2147 C   0  0  0  0  0  0
    3.3661    8.4309    5.9882 C   0  0  0  0  0  0
    4.5417    9.2376    5.5706 C   0  0  0  0  0  0
    5.8288    8.7408    5.8077 C   0  0  0  0  0  0
    6.9639    9.4555    5.3909 C   0  0  0  0  0  0
    6.7896   10.6700    4.7275 C   0  0  0  0  0  0
    5.5106   11.1811    4.4999 C   0  0  0  0  0  0
    4.3914   10.4670    4.9238 C   0  0  0  0  0  0
    1.5621    6.4289    8.4713 C   0  0  0  0  0  0
    1.9927    6.8479    9.7397 C   0  0  0  0  0  0
    1.5042    6.2369   10.8903 C   0  0  0  0  0  0
    0.5790    5.2054   10.7860 C   0  0  0  0  0  0
    0.1404    4.7474    9.5430 C   0  0  0  0  0  0
    0.6330    5.3738    8.3889 C   0  0  0  0  0  0
    2.3571    9.0367    2.9764 N   0  0  0  0  0  0
    8.2637    9.0370    5.5880 O   0  0  0  0  0  0
   -0.7631    3.7013    9.5641 O   0  0  0  0  0  0
   -1.1547    3.0043    8.3765 C   0  0  0  0  0  0
   -1.3873    1.5467    8.7881 C   0  0  0  0  0  0
   -1.8020    0.6398    7.7235 N   0  0  1  0  0  0
   -2.0289   -0.7222    8.2057 C   0  0  0  0  0  0
   -0.7636   -1.4058    8.7705 C   0  0  0  0  0  0
   -1.1171   -2.6973    9.2467 O   0  0  0  0  0  0
   -0.1204   -3.2986   10.0626 C   0  0  0  0  0  0
    8.5057    7.9263    6.4464 C   0  0  0  0  0  0
   -1.1332    6.6365    4.1159 H   0  0  0  0  0  0
    3.8849    7.8164    8.0510 H   0  0  0  0  0  0
    5.9349    7.7871    6.3019 H   0  0  0  0  0  0
    7.6543   11.2294    4.3985 H   0  0  0  0  0  0
    5.3908   12.1295    3.9963 H   0  0  0  0  0  0
    3.4054   10.8741    4.7542 H   0  0  0  0  0  0
    2.6850    7.6663    9.8615 H   0  0  0  0  0  0
    1.8324    6.5712   11.8638 H   0  0  0  0  0  0
    0.1973    4.7436   11.6804 H   0  0  0  0  0  0
    0.2752    5.0375    7.4339 H   0  0  0  0  0  0
    3.2718    9.4129    3.1806 H   0  0  0  0  0  0
    1.9289    9.1152    2.0639 H   0  0  0  0  0  0
   -0.3950    3.0235    7.5984 H   0  0  0  0  0  0
   -2.0760    3.4367    7.9883 H   0  0  0  0  0  0
   -2.1312    1.5236    9.5871 H   0  0  0  0  0  0
   -0.4356    1.2055    9.1875 H   0  0  0  0  0  0
   -2.6595    0.9941    7.2637 H   0  0  0  0  0  0
   -2.4057   -1.3103    7.3703 H   0  0  0  0  0  0
   -2.8228   -0.7143    8.9521 H   0  0  0  0  0  0
   -0.3410   -0.8261    9.5898 H   0  0  0  0  0  0
    0.0080   -1.4809    8.0029 H   0  0  0  0  0  0
   -0.4014   -4.3284   10.2713 H   0  0  0  0  0  0
   -0.0289   -2.7760   11.0152 H   0  0  0  0  0  0
    0.8615   -3.3135    9.5880 H   0  0  0  0  0  0
    9.5764    7.8461    6.6310 H   0  0  0  0  0  0
    8.0216    8.0458    7.4170 H   0  0  0  0  0  0
    8.1695    6.9958    5.9885 H   0  0  0  0  0  0
  1  4  1  0  0  0
  1  2  2  0  0  0
  2  3  1  0  0  0
  2 33  1  0  0  0
  3  6  2  0  0  0
  4  5  2  0  0  0
  4 22  1  0  0  0
  5  9  1  0  0  0
  5  6  1  0  0  0
  6  7  1  0  0  0
  7  8  1  0  0  0
  7 16  1  0  0  0
  8  9  2  0  0  0
  8 34  1  0  0  0
  9 10  1  0  0  0
 10 11  2  0  0  0
 10 15  1  0  0  0
 11 12  1  0  0  0
 11 35  1  0  0  0
 12 23  1  0  0  0
 12 13  2  0  0  0
 13 14  1  0  0  0
 13 36  1  0  0  0
 14 15  2  0  0  0
 14 37  1  0  0  0
 15 38  1  0  0  0
 16 17  2  0  0  0
 16 21  1  0  0  0
 17 18  1  0  0  0
 17 39  1  0  0  0
 18 19  2  0  0  0
 18 40  1  0  0  0
 19 20  1  0  0  0
 19 41  1  0  0  0
 20 21  2  0  0  0
 20 24  1  0  0  0
 21 42  1  0  0  0
 22 43  1  0  0  0
 22 44  1  0  0  0
 23 32  1  0  0  0
 24 25  1  0  0  0
 25 26  1  0  0  0
 25 45  1  0  0  0
 25 46  1  0  0  0
 26 27  1  0  0  0
 26 47  1  0  0  0
 26 48  1  0  0  0
 27 28  1  0  0  0
 27 49  1  0  0  0
 28 29  1  0  0  0
 28 50  1  0  0  0
 28 51  1  0  0  0
 29 30  1  0  0  0
 29 52  1  0  0  0
 29 53  1  0  0  0
 30 31  1  0  0  0
 31 54  1  0  0  0
 31 55  1  0  0  0
 31 56  1  0  0  0
 32 57  1  0  0  0
 32 58  1  0  0  0
 32 59  1  0  0  0
M  END
> <s_m_entry_id>
32169

> <s_m_entry_name>
dock_pv.432

> <s_m_Source_Path>
/home/csk/Desktop/cluster/DUD-E-result/src

> <s_m_Source_File>
dock_pv.maegz

> <i_m_Source_File_Index>
432

> <chembl_id>
CHEMBL475354

> <chembl_pref_name>
None

> <i_lp_mmshare_version>
53161

> <r_lp_tautomer_probability>
1

> <s_lp_Force_Field>
OPLS_2005

> <r_lp_Energy>
30.245074

> <b_lp_Chiralities_Consistent>
1

> <s_lp_Variant>
CHEMBL267_lig1505-1

> <s_i_glide_gridfile>
glide-grid_3el8

> <i_i_glide_lignum>
1686

> <i_i_glide_rotatable_bonds>
10

> <r_i_docking_score>
-7.12644061588363

> <r_i_glide_ligand_efficiency>
-0.222701269246363

> <r_i_glide_ligand_efficiency_sa>
-0.707032457335865

> <r_i_glide_ligand_efficiency_ln>
-1.59580431333071

> <r_i_glide_gscore>
-7.12644061588363

> <r_i_glide_lipo>
-3.35459879988918

> <r_i_glide_hbond>
-0.16

> <r_i_glide_metal>
0

> <r_i_glide_rewards>
-1.34098696005663

> <r_i_glide_evdw>
-50.3046989440918

> <r_i_glide_ecoul>
-4.00381803512573

> <r_i_glide_erotb>
0.847475820409538

> <r_i_glide_esite>
-0.00252302387390713

> <r_i_glide_emodel>
-72.1636768010292

> <r_i_glide_energy>
-54.3085169792175

> <r_i_glide_einternal>
9.90384864807129

> <i_i_glide_confnum>
3

> <i_i_glide_posenum>
110

> <r_i_glide_eff_state_penalty>
0

> <s_user_duplicate_titles>
CHEMBL267_lig1505,459186

> <i_f3d_flags>
0

> <s_m_subgroup_title>
dock_pv

> <s_m_subgroupid>
dock_pv

> <b_m_subgroup_collapsed>
1

$$$$
CHEMBL267_lig1769
                    3D
 Schrodinger Suite 2021-1.
 40 43  0  0  1  0            999 V2000
    4.3324    7.7140    7.4583 N   0  0  0  0  0  0
    4.3820    8.5484    6.3851 C   0  0  0  0  0  0
    3.3241    8.8865    5.5933 N   0  0  0  0  0  0
    3.1560    7.1318    7.7869 C   0  0  0  0  0  0
    2.0344    7.4071    6.9873 C   0  0  0  0  0  0
    2.1666    8.2966    5.8929 C   0  0  0  0  0  0
    0.9849    8.4339    5.2105 N   0  0  0  0  0  0
    0.1572    7.6438    5.8453 C   0  0  0  0  0  0
    0.7106    7.0228    6.9378 N   0  0  0  0  0  0
    3.1937    6.3056    8.9110 N   0  0  0  0  0  0
    2.0974    5.8159    9.6189 C   0  0  0  0  0  0
    1.8652    6.2693   10.9156 C   0  0  0  0  0  0
    0.7139    5.8782   11.5913 C   0  0  0  0  0  0
   -0.2017    5.0365   10.9693 C   0  0  0  0  0  0
    0.0403    4.5206    9.6898 C   0  0  0  0  0  0
    1.2150    4.9061    9.0309 C   0  0  0  0  0  0
    5.6361    8.9860    5.9587 N   0  0  0  0  0  0
    6.8964    8.5483    6.5869 C   0  0  0  0  0  0
    8.0722    8.6128    5.5893 C   0  0  0  0  0  0
    8.2047    9.9250    5.0682 O   0  0  0  0  0  0
    7.0236   10.4034    4.4349 C   0  0  0  0  0  0
    5.8219   10.3386    5.3984 C   0  0  0  0  0  0
   -0.9308    3.5987    9.0522 N   0  3  0  0  0  0
   -2.0237    3.4372    9.5879 O   0  0  0  0  0  0
   -0.6014    3.0380    8.0111 O   0  5  0  0  0  0
    0.2031    6.3771    7.5306 H   0  0  0  0  0  0
   -0.8721    7.4410    5.5851 H   0  0  0  0  0  0
    4.0723    6.3314    9.4113 H   0  0  0  0  0  0
    2.5565    6.9502   11.3887 H   0  0  0  0  0  0
    0.5242    6.2410   12.5891 H   0  0  0  0  0  0
   -1.0910    4.7537   11.5046 H   0  0  0  0  0  0
    1.4320    4.5336    8.0397 H   0  0  0  0  0  0
    6.8074    7.5101    6.9097 H   0  0  0  0  0  0
    7.0953    9.1414    7.4812 H   0  0  0  0  0  0
    9.0001    8.3501    6.0986 H   0  0  0  0  0  0
    7.9445    7.8817    4.7889 H   0  0  0  0  0  0
    7.1972   11.4339    4.1236 H   0  0  0  0  0  0
    6.8159    9.8372    3.5251 H   0  0  0  0  0  0
    5.9305   11.0613    6.2098 H   0  0  0  0  0  0
    4.9418   10.6459    4.8298 H   0  0  0  0  0  0
  1  2  2  0  0  0
  1  4  1  0  0  0
  2 17  1  0  0  0
  2  3  1  0  0  0
  3  6  2  0  0  0
  4 10  1  0  0  0
  4  5  2  0  0  0
  5  9  1  0  0  0
  5  6  1  0  0  0
  6  7  1  0  0  0
  7  8  2  0  0  0
  8  9  1  0  0  0
  8 27  1  0  0  0
  9 26  1  0  0  0
 10 11  1  0  0  0
 10 28  1  0  0  0
 11 12  2  0  0  0
 11 16  1  0  0  0
 12 13  1  0  0  0
 12 29  1  0  0  0
 13 14  2  0  0  0
 13 30  1  0  0  0
 14 15  1  0  0  0
 14 31  1  0  0  0
 15 16  2  0  0  0
 15 23  1  0  0  0
 16 32  1  0  0  0
 17 18  1  0  0  0
 17 22  1  0  0  0
 18 19  1  0  0  0
 18 33  1  0  0  0
 18 34  1  0  0  0
 19 20  1  0  0  0
 19 35  1  0  0  0
 19 36  1  0  0  0
 20 21  1  0  0  0
 21 22  1  0  0  0
 21 37  1  0  0  0
 21 38  1  0  0  0
 22 39  1  0  0  0
 22 40  1  0  0  0
 23 24  2  0  0  0
 23 25  1  0  0  0
M  CHG  2  23   1  25  -1
M  END
> <s_m_entry_id>
32170

> <s_m_entry_name>
dock_pv.433

> <s_m_Source_Path>
/home/csk/Desktop/cluster/DUD-E-result/src

> <s_m_Source_File>
dock_pv.maegz

> <i_m_Source_File_Index>
433

> <chembl_id>
CHEMBL1173115

> <chembl_pref_name>
None

> <i_lp_mmshare_version>
53161

> <r_lp_tautomer_probability>
0.0419191988452545

> <s_lp_Force_Field>
OPLS_2005

> <r_lp_Energy>
24.929767

> <b_lp_Chiralities_Consistent>
1

> <s_lp_Variant>
CHEMBL267_lig1769-2

> <s_i_glide_gridfile>
glide-grid_3el8

> <i_i_glide_lignum>
2017

> <i_i_glide_rotatable_bonds>
4

> <r_i_docking_score>
-7.12130868353209

> <r_i_glide_ligand_efficiency>
-0.284852347341283

> <r_i_glide_ligand_efficiency_sa>
-0.832913315503804

> <r_i_glide_ligand_efficiency_ln>
-1.68796356639735

> <r_i_glide_gscore>
-7.12130868353209

> <r_i_glide_lipo>
-2.4503353251849

> <r_i_glide_hbond>
0

> <r_i_glide_metal>
0

> <r_i_glide_rewards>
-2.52106139888203

> <r_i_glide_evdw>
-42.0152740478516

> <r_i_glide_ecoul>
-3.58055067062378

> <r_i_glide_erotb>
0.487934343520986

> <r_i_glide_esite>
0

> <r_i_glide_emodel>
-56.5108161489195

> <r_i_glide_energy>
-45.5958247184753

> <r_i_glide_einternal>
15.5404872894287

> <i_i_glide_confnum>
19

> <i_i_glide_posenum>
395

> <r_i_glide_eff_state_penalty>
0

> <s_user_duplicate_titles>
CHEMBL267_lig1769,650878

> <i_f3d_flags>
0

> <s_m_subgroup_title>
dock_pv

> <s_m_subgroupid>
dock_pv

> <b_m_subgroup_collapsed>
1

$$$$
CHEMBL267_lig3005
                    3D
 Schrodinger Suite 2021-1.
 51 53  0  0  1  0            999 V2000
   -2.3453   -2.3734    9.0582 C   0  0  0  0  0  0
   -2.5243   -1.5599    7.7641 C   0  0  1  0  0  0
   -3.9398   -1.7293    7.1683 C   0  0  0  0  0  0
   -4.1060   -0.9636    5.9880 O   0  0  0  0  0  0
   -2.2020   -0.1519    7.9823 N   0  0  0  0  0  0
   -0.9753    0.3652    8.0963 C   0  0  0  0  0  0
    0.0475   -0.3095    7.9875 O   0  0  0  0  0  0
   -0.9406    1.7819    8.4028 C   0  0  0  0  0  0
    0.5884    2.6362    8.3921 S   0  0  0  0  0  0
   -0.1887    4.0043    9.0812 C   0  0  0  0  0  0
   -1.4627    3.8385    9.3132 N   0  0  0  0  0  0
   -1.9179    2.6593    8.9298 C   0  0  0  0  0  0
   -3.3971    2.4676    9.2269 C   0  0  0  0  0  0
    0.6167    5.1908    9.4642 C   0  0  0  0  0  0
    0.8200    5.5231   10.8048 C   0  0  0  0  0  0
    1.7593    6.5211   11.0707 C   0  0  0  0  0  0
    2.3949    7.2015   10.0825 N   0  0  0  0  0  0
    2.0666    6.8783    8.8059 C   0  0  0  0  0  0
    2.6295    7.7200    7.8367 N   0  0  0  0  0  0
    2.3347    7.9924    6.4885 C   0  0  0  0  0  0
    1.3893    7.2872    5.7322 C   0  0  0  0  0  0
    1.1319    7.6401    4.4065 C   0  0  0  0  0  0
    0.1202    6.8538    3.6012 C   0  0  0  0  0  0
    1.8078    8.7154    3.8280 C   0  0  0  0  0  0
    2.7581    9.4247    4.5654 C   0  0  0  0  0  0
    3.4956   10.5928    3.9376 C   0  0  0  0  0  0
    3.0169    9.0565    5.8893 C   0  0  0  0  0  0
    1.2265    5.8674    8.4533 N   0  0  0  0  0  0
   -2.6016   -3.4133    8.8915 H   0  0  0  0  0  0
   -1.3129   -2.3529    9.4107 H   0  0  0  0  0  0
   -3.0019   -2.0191    9.8530 H   0  0  0  0  0  0
   -1.8256   -1.9589    7.0230 H   0  0  0  0  0  0
   -4.7051   -1.4237    7.8835 H   0  0  0  0  0  0
   -4.1160   -2.7710    6.8996 H   0  0  0  0  0  0
   -4.1265   -0.0055    6.2045 H   0  0  0  0  0  0
   -2.9392    0.5115    7.7685 H   0  0  0  0  0  0
   -3.8266    1.5427    8.8498 H   0  0  0  0  0  0
   -3.5889    2.4738   10.3005 H   0  0  0  0  0  0
   -3.9953    3.2714    8.7945 H   0  0  0  0  0  0
    0.3328    4.9807   11.6018 H   0  0  0  0  0  0
    2.0114    6.7892   12.0872 H   0  0  0  0  0  0
    3.2762    8.3754    8.2458 H   0  0  0  0  0  0
    0.8395    6.4584    6.1446 H   0  0  0  0  0  0
    0.6040    5.9692    3.1880 H   0  0  0  0  0  0
   -0.7167    6.5317    4.2255 H   0  0  0  0  0  0
   -0.2971    7.4495    2.7882 H   0  0  0  0  0  0
    1.6034    8.9880    2.8016 H   0  0  0  0  0  0
    2.8946   11.0655    3.1595 H   0  0  0  0  0  0
    3.7075   11.3621    4.6806 H   0  0  0  0  0  0
    4.4376   10.2609    3.5009 H   0  0  0  0  0  0
    3.7507    9.6123    6.4542 H   0  0  0  0  0  0
  1  2  1  0  0  0
  1 29  1  0  0  0
  1 30  1  0  0  0
  1 31  1  0  0  0
  2  3  1  0  0  0
  2  5  1  0  0  0
  2 32  1  0  0  0
  3  4  1  0  0  0
  3 33  1  0  0  0
  3 34  1  0  0  0
  4 35  1  0  0  0
  5  6  1  0  0  0
  5 36  1  0  0  0
  6  7  2  0  0  0
  6  8  1  0  0  0
  8 12  2  0  0  0
  8  9  1  0  0  0
  9 10  1  0  0  0
 10 11  2  0  0  0
 10 14  1  0  0  0
 11 12  1  0  0  0
 12 13  1  0  0  0
 13 37  1  0  0  0
 13 38  1  0  0  0
 13 39  1  0  0  0
 14 28  2  0  0  0
 14 15  1  0  0  0
 15 16  2  0  0  0
 15 40  1  0  0  0
 16 17  1  0  0  0
 16 41  1  0  0  0
 17 18  2  0  0  0
 18 28  1  0  0  0
 18 19  1  0  0  0
 19 20  1  0  0  0
 19 42  1  0  0  0
 20 21  2  0  0  0
 20 27  1  0  0  0
 21 22  1  0  0  0
 21 43  1  0  0  0
 22 23  1  0  0  0
 22 24  2  0  0  0
 23 44  1  0  0  0
 23 45  1  0  0  0
 23 46  1  0  0  0
 24 25  1  0  0  0
 24 47  1  0  0  0
 25 26  1  0  0  0
 25 27  2  0  0  0
 26 48  1  0  0  0
 26 49  1  0  0  0
 26 50  1  0  0  0
 27 51  1  0  0  0
M  END
> <s_m_entry_id>
32171

> <s_m_entry_name>
dock_pv.434

> <s_m_Source_Path>
/home/csk/Desktop/cluster/DUD-E-result/src

> <s_m_Source_File>
dock_pv.maegz

> <i_m_Source_File_Index>
434

> <chembl_id>
CHEMBL512172

> <chembl_pref_name>
None

> <i_lp_mmshare_version>
53161

> <r_lp_tautomer_probability>
0.999999987636

> <s_lp_Force_Field>
OPLS_2005

> <r_lp_Energy>
10.516285

> <b_lp_Chiralities_Consistent>
1

> <s_lp_Variant>
CHEMBL267_lig3005-1

> <s_i_glide_gridfile>
glide-grid_3el8

> <i_i_glide_lignum>
3422

> <i_i_glide_rotatable_bonds>
8

> <r_i_docking_score>
-7.1199585232822

> <r_i_glide_ligand_efficiency>
-0.254284232974364

> <r_i_glide_ligand_efficiency_sa>
-0.772156696714155

> <r_i_glide_ligand_efficiency_ln>
-1.64349547823961

> <r_i_glide_gscore>
-7.1199585232822

> <r_i_glide_lipo>
-3.34755192432998

> <r_i_glide_hbond>
-0.144

> <r_i_glide_metal>
0

> <r_i_glide_rewards>
-1.30816799397935

> <r_i_glide_evdw>
-41.9275016784668

> <r_i_glide_ecoul>
-6.78531742095947

> <r_i_glide_erotb>
0.867249166651777

> <r_i_glide_esite>
-0.0733150745573876

> <r_i_glide_emodel>
-59.601450669015

> <r_i_glide_energy>
-48.7128190994263

> <r_i_glide_einternal>
18.4575519561768

> <i_i_glide_confnum>
1

> <i_i_glide_posenum>
18

> <r_i_glide_eff_state_penalty>
0

> <s_user_duplicate_titles>
CHEMBL267_lig3005

> <i_f3d_flags>
0

> <s_m_subgroup_title>
dock_pv

> <s_m_subgroupid>
dock_pv

> <b_m_subgroup_collapsed>
1

$$$$
CHEMBL267_lig850
                    3D
 Schrodinger Suite 2021-1.
 40 43  0  0  1  0            999 V2000
    3.2565    7.2536    9.1044 C   0  0  0  0  0  0
    2.0098    6.7830    9.6278 C   0  0  0  0  0  0
    0.7099    6.4412    9.1877 C   0  0  0  0  0  0
    4.0999    7.4715   10.0824 N   0  0  0  0  0  0
    3.5326    7.0875   11.2770 N   0  0  0  0  0  0
    2.2787    6.6601   11.0153 C   0  0  0  0  0  0
   -0.1325    5.9444   10.1118 N   0  0  0  0  0  0
    3.5321    7.4817    7.7758 N   0  0  0  0  0  0
    0.1981    6.6319    7.9053 N   0  0  0  0  0  0
    1.3904    6.2370   11.9198 N   0  0  0  0  0  0
    0.1981    5.8369   11.4116 C   0  0  0  0  0  0
    4.7517    7.8373    7.1737 C   0  0  0  0  0  0
    0.5639    7.5543    6.9260 C   0  0  0  0  0  0
    4.7084    8.5769    5.9895 C   0  0  0  0  0  0
    5.8824    8.9310    5.3258 C   0  0  0  0  0  0
    0.6782    7.1081    5.6134 C   0  0  0  0  0  0
    5.7963    9.8374    3.8600 Cl  0  0  0  0  0  0
    1.0187    7.9993    4.5987 C   0  0  0  0  0  0
    1.0976    9.8021    6.2054 C   0  0  0  0  0  0
    7.1763    7.7972    7.0192 C   0  0  0  0  0  0
    5.9978    7.4385    7.6762 C   0  0  0  0  0  0
    0.7686    8.9064    7.2234 C   0  0  0  0  0  0
    7.1184    8.5435    5.8428 C   0  0  0  0  0  0
    1.2260    9.3485    4.8933 C   0  0  0  0  0  0
    1.1577    7.4882    3.1879 C   0  0  0  0  0  0
   -1.0879    5.7345    9.8425 H   0  0  0  0  0  0
    2.7607    7.4915    7.1253 H   0  0  0  0  0  0
   -0.7270    6.2338    7.7430 H   0  0  0  0  0  0
   -0.5833    5.4852   12.0725 H   0  0  0  0  0  0
    3.7612    8.8785    5.5732 H   0  0  0  0  0  0
    0.5057    6.0662    5.3810 H   0  0  0  0  0  0
    1.2570   10.8466    6.4276 H   0  0  0  0  0  0
    8.1322    7.4872    7.4143 H   0  0  0  0  0  0
    6.0582    6.8330    8.5679 H   0  0  0  0  0  0
    0.6823    9.2648    8.2380 H   0  0  0  0  0  0
    8.0310    8.8121    5.3300 H   0  0  0  0  0  0
    1.4847   10.0448    4.1086 H   0  0  0  0  0  0
    1.6857    8.1925    2.5440 H   0  0  0  0  0  0
    0.1628    7.3014    2.7880 H   0  0  0  0  0  0
    1.7131    6.5488    3.1679 H   0  0  0  0  0  0
  1  2  1  0  0  0
  1  4  2  0  0  0
  1  8  1  0  0  0
  2  3  2  0  0  0
  2  6  1  0  0  0
  3  7  1  0  0  0
  3  9  1  0  0  0
  4  5  1  0  0  0
  5  6  2  0  0  0
  6 10  1  0  0  0
  7 11  1  0  0  0
  7 26  1  0  0  0
  8 12  1  0  0  0
  8 27  1  0  0  0
  9 13  1  0  0  0
  9 28  1  0  0  0
 10 11  2  0  0  0
 11 29  1  0  0  0
 12 14  2  0  0  0
 12 21  1  0  0  0
 13 16  2  0  0  0
 13 22  1  0  0  0
 14 15  1  0  0  0
 14 30  1  0  0  0
 15 17  1  0  0  0
 15 23  2  0  0  0
 16 18  1  0  0  0
 16 31  1  0  0  0
 18 25  1  0  0  0
 18 24  2  0  0  0
 19 22  2  0  0  0
 19 24  1  0  0  0
 19 32  1  0  0  0
 20 21  2  0  0  0
 20 23  1  0  0  0
 20 33  1  0  0  0
 21 34  1  0  0  0
 22 35  1  0  0  0
 23 36  1  0  0  0
 24 37  1  0  0  0
 25 38  1  0  0  0
 25 39  1  0  0  0
 25 40  1  0  0  0
M  END
> <s_m_entry_id>
32172

> <s_m_entry_name>
dock_pv.435

> <s_m_Source_Path>
/home/csk/Desktop/cluster/DUD-E-result/src

> <s_m_Source_File>
dock_pv.maegz

> <i_m_Source_File_Index>
435

> <chembl_id>
CHEMBL120069

> <chembl_pref_name>
None

> <i_lp_mmshare_version>
53161

> <r_lp_tautomer_probability>
1

> <s_lp_Force_Field>
OPLS_2005

> <r_lp_Energy>
42.288136

> <b_lp_Chiralities_Consistent>
1

> <s_lp_Variant>
CHEMBL267_lig850-1

> <s_i_glide_gridfile>
glide-grid_3el8

> <i_i_glide_lignum>
978

> <i_i_glide_rotatable_bonds>
4

> <r_i_docking_score>
-7.11601586278266

> <r_i_glide_ligand_efficiency>
-0.284640634511306

> <r_i_glide_ligand_efficiency_sa>
-0.832294263434208

> <r_i_glide_ligand_efficiency_ln>
-1.6867090092667

> <r_i_glide_gscore>
-7.11601586278266

> <r_i_glide_lipo>
-2.81092914768258

> <r_i_glide_hbond>
-0.392249148855053

> <r_i_glide_metal>
0

> <r_i_glide_rewards>
-1.70493970268702

> <r_i_glide_evdw>
-39.9643783569336

> <r_i_glide_ecoul>
-4.90250301361084

> <r_i_glide_erotb>
0.61968710242638

> <r_i_glide_esite>
-0.0939905960960747

> <r_i_glide_emodel>
-59.131005512399

> <r_i_glide_energy>
-44.8668813705444

> <r_i_glide_einternal>
9.30429935455322

> <i_i_glide_confnum>
13

> <i_i_glide_posenum>
118

> <r_i_glide_eff_state_penalty>
0

> <s_user_duplicate_titles>
CHEMBL267_lig850

> <i_f3d_flags>
0

> <s_m_subgroup_title>
dock_pv

> <s_m_subgroupid>
dock_pv

> <b_m_subgroup_collapsed>
1

$$$$
CHEMBL267_lig2917
                    3D
 Schrodinger Suite 2021-1.
 49 52  0  0  1  0            999 V2000
    3.7829    8.6370    5.5881 N   0  0  0  0  0  0
    2.4680    8.3346    5.4565 C   0  0  0  0  0  0
    1.6671    7.7629    6.3915 N   0  0  0  0  0  0
    4.4043    8.3267    6.7600 C   0  0  0  0  0  0
    3.6297    7.8550    7.8467 C   0  0  0  0  0  0
    2.2800    7.5595    7.5589 C   0  0  0  0  0  0
    1.7772    6.9438    8.6872 N   0  0  0  0  0  0
    2.6478    7.0376    9.7153 N   0  0  0  0  0  0
    3.7530    7.5444    9.2391 C   0  0  0  0  0  0
    0.5225    6.2055    8.8261 C   0  0  0  0  0  0
    0.6639    4.9746    9.7556 C   0  0  2  0  0  0
   -0.1105    3.7631    9.2542 C   0  0  0  0  0  0
    0.5861    2.6369    8.8026 C   0  0  0  0  0  0
   -0.1111    1.5064    8.3880 C   0  0  0  0  0  0
   -1.5015    1.5180    8.3880 C   0  0  0  0  0  0
   -2.2020    2.6460    8.8045 C   0  0  0  0  0  0
   -1.5063    3.7672    9.2436 C   0  0  0  0  0  0
    5.8017    8.3729    6.7699 N   0  0  0  0  0  0
    0.1980    5.4370   11.4190 Cl  0  0  0  0  0  0
    1.7853    8.6121    3.8524 S   0  0  0  0  0  0
    0.1980    7.7328    3.7664 C   0  0  0  0  0  0
    6.6300    7.9605    7.9161 C   0  0  0  0  0  0
    7.9876    7.3581    7.5052 C   0  0  0  0  0  0
    8.6813    8.2370    6.6422 O   0  0  0  0  0  0
    7.9532    8.4720    5.4485 C   0  0  0  0  0  0
    6.5964    9.1300    5.7781 C   0  0  0  0  0  0
    0.2876    6.2042    3.8678 C   0  0  0  0  0  0
    4.5980    7.6709    9.8945 H   0  0  0  0  0  0
    0.2211    5.8875    7.8258 H   0  0  0  0  0  0
   -0.2551    6.8817    9.1719 H   0  0  0  0  0  0
    1.7079    4.6609    9.8192 H   0  0  0  0  0  0
    1.6654    2.6244    8.8005 H   0  0  0  0  0  0
    0.4208    0.6225    8.0672 H   0  0  0  0  0  0
   -2.0494    0.6496    8.0508 H   0  0  0  0  0  0
   -3.2828    2.6469    8.7884 H   0  0  0  0  0  0
   -2.0526    4.6368    9.5768 H   0  0  0  0  0  0
   -0.4576    8.1135    4.5484 H   0  0  0  0  0  0
   -0.2552    7.9970    2.8102 H   0  0  0  0  0  0
    6.7528    8.7914    8.6125 H   0  0  0  0  0  0
    6.1295    7.1546    8.4466 H   0  0  0  0  0  0
    7.8548    6.3818    7.0335 H   0  0  0  0  0  0
    8.5980    7.1921    8.3879 H   0  0  0  0  0  0
    7.8107    7.5394    4.8973 H   0  0  0  0  0  0
    8.5393    9.1250    4.7998 H   0  0  0  0  0  0
    6.0547    9.2183    4.8363 H   0  0  0  0  0  0
    6.7422   10.1478    6.1421 H   0  0  0  0  0  0
   -0.6661    5.7441    3.6044 H   0  0  0  0  0  0
    1.0430    5.8104    3.1881 H   0  0  0  0  0  0
    0.5442    5.8734    4.8735 H   0  0  0  0  0  0
  1  2  1  0  0  0
  1  4  2  0  0  0
  2 20  1  0  0  0
  2  3  2  0  0  0
  3  6  1  0  0  0
  4  5  1  0  0  0
  4 18  1  0  0  0
  5  9  1  0  0  0
  5  6  2  0  0  0
  6  7  1  0  0  0
  7  8  1  0  0  0
  7 10  1  0  0  0
  8  9  2  0  0  0
  9 28  1  0  0  0
 10 11  1  0  0  0
 10 29  1  0  0  0
 10 30  1  0  0  0
 11 19  1  0  0  0
 11 12  1  0  0  0
 11 31  1  0  0  0
 12 13  2  0  0  0
 12 17  1  0  0  0
 13 14  1  0  0  0
 13 32  1  0  0  0
 14 15  2  0  0  0
 14 33  1  0  0  0
 15 16  1  0  0  0
 15 34  1  0  0  0
 16 17  2  0  0  0
 16 35  1  0  0  0
 17 36  1  0  0  0
 18 22  1  0  0  0
 18 26  1  0  0  0
 20 21  1  0  0  0
 21 27  1  0  0  0
 21 37  1  0  0  0
 21 38  1  0  0  0
 22 23  1  0  0  0
 22 39  1  0  0  0
 22 40  1  0  0  0
 23 24  1  0  0  0
 23 41  1  0  0  0
 23 42  1  0  0  0
 24 25  1  0  0  0
 25 26  1  0  0  0
 25 43  1  0  0  0
 25 44  1  0  0  0
 26 45  1  0  0  0
 26 46  1  0  0  0
 27 47  1  0  0  0
 27 48  1  0  0  0
 27 49  1  0  0  0
M  END
> <s_m_entry_id>
32173

> <s_m_entry_name>
dock_pv.436

> <s_m_Source_Path>
/home/csk/Desktop/cluster/DUD-E-result/src

> <s_m_Source_File>
dock_pv.maegz

> <i_m_Source_File_Index>
436

> <chembl_id>
CHEMBL416439

> <chembl_pref_name>
None

> <i_lp_mmshare_version>
53161

> <r_lp_tautomer_probability>
1

> <s_lp_Force_Field>
OPLS_2005

> <r_lp_Energy>
17.675846

> <b_lp_Chiralities_Consistent>
1

> <s_lp_Variant>
CHEMBL267_lig2917-1

> <s_i_glide_gridfile>
glide-grid_3el8

> <i_i_glide_lignum>
3309

> <i_i_glide_rotatable_bonds>
6

> <r_i_docking_score>
-7.11432998327069

> <r_i_glide_ligand_efficiency>
-0.2634937030841

> <r_i_glide_ligand_efficiency_sa>
-0.790481108383867

> <r_i_glide_ligand_efficiency_ln>
-1.65609873120902

> <r_i_glide_gscore>
-7.11432998327069

> <r_i_glide_lipo>
-3.72222311961527

> <r_i_glide_hbond>
0

> <r_i_glide_metal>
0

> <r_i_glide_rewards>
-1.4987959904479

> <r_i_glide_evdw>
-46.944263458252

> <r_i_glide_ecoul>
-0.986062228679657

> <r_i_glide_erotb>
0.601811634007015

> <r_i_glide_esite>
0

> <r_i_glide_emodel>
-64.1121399175404

> <r_i_glide_energy>
-47.9303256869316

> <r_i_glide_einternal>
7.34659099578857

> <i_i_glide_confnum>
5

> <i_i_glide_posenum>
326

> <r_i_glide_eff_state_penalty>
0

> <s_user_duplicate_titles>
CHEMBL267_lig2917

> <i_f3d_flags>
0

> <s_m_subgroup_title>
dock_pv

> <s_m_subgroupid>
dock_pv

> <b_m_subgroup_collapsed>
1

$$$$
CHEMBL267_lig532
                    3D
 Schrodinger Suite 2021-1.
 28 30  0  0  1  0            999 V2000
    1.2367    7.3624    5.4822 C   0  0  0  0  0  0
    2.1562    8.3527    5.5774 C   0  0  0  0  0  0
    2.8164    8.5969    6.7489 N   0  0  0  0  0  0
    2.5022    9.1651    4.5364 N   0  0  0  0  0  0
    0.5984    7.1294    4.1944 C   0  0  0  0  0  0
    0.8552    6.4771    6.6736 C   0  0  0  0  0  0
    2.6128    7.8556    7.9238 C   0  0  0  0  0  0
    1.0124    7.9797    3.2228 N   0  0  0  0  0  0
    1.9329    8.9739    3.3944 C   0  0  0  0  0  0
    1.6595    6.8217    7.9291 C   0  0  0  0  0  0
    3.3457    8.1446    9.0702 C   0  0  0  0  0  0
   -0.2239    6.2455    3.9880 O   0  0  0  0  0  0
    1.4683    6.1075    9.1181 C   0  0  0  0  0  0
    3.1482    7.4373   10.2524 C   0  0  0  0  0  0
    2.1982    6.4080   10.2686 C   0  0  0  0  0  0
    3.9079    7.8367   11.3318 O   0  0  0  0  0  0
    3.7239    7.2124   12.5982 C   0  0  0  0  0  0
    3.4996    9.3356    6.7355 H   0  0  0  0  0  0
    1.0328    5.4370    6.4256 H   0  0  0  0  0  0
   -0.2020    6.5916    6.8918 H   0  0  0  0  0  0
    2.1694    9.5904    2.5310 H   0  0  0  0  0  0
    4.0769    8.9280    9.0568 H   0  0  0  0  0  0
    0.5981    7.8368    2.3067 H   0  0  0  0  0  0
    0.7416    5.3080    9.1513 H   0  0  0  0  0  0
    2.0184    5.8307   11.1618 H   0  0  0  0  0  0
    4.1980    7.8340   13.3554 H   0  0  0  0  0  0
    4.1978    6.2370   12.6341 H   0  0  0  0  0  0
    2.6770    7.1044   12.8843 H   0  0  0  0  0  0
  1  6  1  0  0  0
  1  2  2  0  0  0
  1  5  1  0  0  0
  2  3  1  0  0  0
  2  4  1  0  0  0
  3  7  1  0  0  0
  3 18  1  0  0  0
  4  9  2  0  0  0
  5  8  1  0  0  0
  5 12  2  0  0  0
  6 10  1  0  0  0
  6 19  1  0  0  0
  6 20  1  0  0  0
  7 10  2  0  0  0
  7 11  1  0  0  0
  8  9  1  0  0  0
  8 23  1  0  0  0
  9 21  1  0  0  0
 10 13  1  0  0  0
 11 14  2  0  0  0
 11 22  1  0  0  0
 13 15  2  0  0  0
 13 24  1  0  0  0
 14 15  1  0  0  0
 14 16  1  0  0  0
 15 25  1  0  0  0
 16 17  1  0  0  0
 17 26  1  0  0  0
 17 27  1  0  0  0
 17 28  1  0  0  0
M  END
> <s_m_entry_id>
32174

> <s_m_entry_name>
dock_pv.437

> <s_m_Source_Path>
/home/csk/Desktop/cluster/DUD-E-result/src

> <s_m_Source_File>
dock_pv.maegz

> <i_m_Source_File_Index>
437

> <chembl_id>
CHEMBL266404

> <chembl_pref_name>
None

> <i_lp_mmshare_version>
53161

> <r_lp_tautomer_probability>
0.994035648421939

> <s_lp_Force_Field>
OPLS_2005

> <r_lp_Energy>
22.589655

> <b_lp_Chiralities_Consistent>
1

> <s_lp_Variant>
CHEMBL267_lig532-1

> <s_i_glide_gridfile>
glide-grid_3el8

> <i_i_glide_lignum>
632

> <i_i_glide_rotatable_bonds>
1

> <r_i_docking_score>
-7.11393905076675

> <r_i_glide_ligand_efficiency>
-0.41846700298628

> <r_i_glide_ligand_efficiency_sa>
-1.07599650006037

> <r_i_glide_ligand_efficiency_ln>
-1.85586827871129

> <r_i_glide_gscore>
-7.11393905076675

> <r_i_glide_lipo>
-1.82709737118155

> <r_i_glide_hbond>
-0.32

> <r_i_glide_metal>
0

> <r_i_glide_rewards>
-2.67945054020147

> <r_i_glide_evdw>
-28.6215515136719

> <r_i_glide_ecoul>
-5.34846782684326

> <r_i_glide_erotb>
0

> <r_i_glide_esite>
-0.0540433896736415

> <r_i_glide_emodel>
-47.6254233371272

> <r_i_glide_energy>
-33.9700193405151

> <r_i_glide_einternal>
0.0427609942853451

> <i_i_glide_confnum>
1

> <i_i_glide_posenum>
86

> <r_i_glide_eff_state_penalty>
0

> <s_user_duplicate_titles>
CHEMBL267_lig532,1415

> <i_f3d_flags>
0

> <s_m_subgroup_title>
dock_pv

> <s_m_subgroupid>
dock_pv

> <b_m_subgroup_collapsed>
1

$$$$
CHEMBL267_lig3854
                    3D
 Schrodinger Suite 2021-1.
 51 56  0  0  1  0            999 V2000
    7.1904    8.9482    5.9897 C   0  0  0  0  0  0
    8.1988    8.0734    6.3871 C   0  0  0  0  0  0
    8.0168    6.9919    7.1892 N   0  0  0  0  0  0
    5.8917    8.7395    6.4440 C   0  0  0  0  0  0
    5.6426    7.6372    7.2828 C   0  0  0  0  0  0
    6.7575    6.8061    7.5967 C   0  0  0  0  0  0
    6.2935    5.7765    8.3879 N   0  0  0  0  0  0
    4.9487    5.9483    8.6039 C   0  0  0  0  0  0
    4.4816    7.0628    7.9237 C   0  0  0  0  0  0
    3.0612    7.4995    7.7899 C   0  0  0  0  0  0
    2.8284    8.5217    6.9288 N   0  0  0  0  0  0
    1.5393    8.7483    6.5662 C   0  0  0  0  0  0
    0.4905    8.0074    7.1251 C   0  0  0  0  0  0
    0.8221    7.0117    8.0482 C   0  0  0  0  0  0
    2.1083    6.7323    8.3842 N   0  0  0  0  0  0
   -0.7983    8.2371    6.7878 F   0  0  0  0  0  0
    1.2537    9.7114    5.5839 N   0  0  0  0  0  0
    2.2935   10.4641    4.8660 C   0  0  1  0  0  0
    3.0869    9.5448    3.8786 C   0  0  1  0  0  0
    2.1980    9.2073    2.6448 C   0  0  0  0  0  0
    1.7940   10.4960    1.8665 C   0  0  0  0  0  0
    2.2556   11.7717    2.6305 C   0  0  1  0  0  0
    1.6292   11.6368    4.0606 C   0  0  2  0  0  0
    7.4682    9.9935    5.1798 F   0  0  0  0  0  0
    1.5115   12.9386    4.8586 C   0  0  0  0  0  0
    0.9947   12.9163    6.0982 N   0  0  0  0  0  0
    1.7875   14.1228    4.5181 N   0  0  0  0  0  0
    1.3980   14.9337    5.5863 O   0  0  0  0  0  0
    0.9135   14.2012    6.5781 C   0  0  0  0  0  0
    0.5179   14.6370    7.6556 O   0  0  0  0  0  0
    4.2906   10.3931    3.3821 C   0  0  0  0  0  0
    3.8070   11.7191    2.7275 C   0  0  0  0  0  0
    9.2099    8.2373    6.0466 H   0  0  0  0  0  0
    5.1039    9.4135    6.1528 H   0  0  0  0  0  0
    6.8166    5.0008    8.7761 H   0  0  0  0  0  0
    4.4013    5.2221    9.1871 H   0  0  0  0  0  0
    0.0571    6.3975    8.5032 H   0  0  0  0  0  0
    0.3295    9.6692    5.1772 H   0  0  0  0  0  0
    2.9994   10.8442    5.6085 H   0  0  0  0  0  0
    3.4462    8.6371    4.3602 H   0  0  0  0  0  0
    2.6950    8.4947    1.9883 H   0  0  0  0  0  0
    1.2970    8.6879    2.9762 H   0  0  0  0  0  0
    2.2424   10.4819    0.8720 H   0  0  0  0  0  0
    0.7172   10.5114    1.6915 H   0  0  0  0  0  0
    1.9147   12.6663    2.1056 H   0  0  0  0  0  0
    0.5980   11.3687    3.8666 H   0  0  0  0  0  0
    0.6981   12.1041    6.6169 H   0  0  0  0  0  0
    4.9778   10.6128    4.1995 H   0  0  0  0  0  0
    4.8732    9.8153    2.6623 H   0  0  0  0  0  0
    4.1686   12.5711    3.3052 H   0  0  0  0  0  0
    4.2485   11.8313    1.7353 H   0  0  0  0  0  0
  1  2  2  0  0  0
  1  4  1  0  0  0
  1 24  1  0  0  0
  2  3  1  0  0  0
  2 33  1  0  0  0
  3  6  2  0  0  0
  4  5  2  0  0  0
  4 34  1  0  0  0
  5  6  1  0  0  0
  5  9  1  0  0  0
  6  7  1  0  0  0
  7  8  1  0  0  0
  7 35  1  0  0  0
  8  9  2  0  0  0
  8 36  1  0  0  0
  9 10  1  0  0  0
 10 11  2  0  0  0
 10 15  1  0  0  0
 11 12  1  0  0  0
 12 13  2  0  0  0
 12 17  1  0  0  0
 13 14  1  0  0  0
 13 16  1  0  0  0
 14 15  2  0  0  0
 14 37  1  0  0  0
 17 18  1  0  0  0
 17 38  1  0  0  0
 18 19  1  0  0  0
 18 23  1  0  0  0
 18 39  1  0  0  0
 19 20  1  0  0  0
 19 31  1  0  0  0
 19 40  1  0  0  0
 20 21  1  0  0  0
 20 41  1  0  0  0
 20 42  1  0  0  0
 21 22  1  0  0  0
 21 43  1  0  0  0
 21 44  1  0  0  0
 22 23  1  0  0  0
 22 32  1  0  0  0
 22 45  1  0  0  0
 23 46  1  0  0  0
 23 25  1  0  0  0
 25 26  1  0  0  0
 25 27  2  0  0  0
 26 47  1  0  0  0
 26 29  1  0  0  0
 27 28  1  0  0  0
 28 29  1  0  0  0
 29 30  2  0  0  0
 31 32  1  0  0  0
 31 48  1  0  0  0
 31 49  1  0  0  0
 32 50  1  0  0  0
 32 51  1  0  0  0
M  END
> <s_m_entry_id>
32175

> <s_m_entry_name>
dock_pv.438

> <s_m_Source_Path>
/home/csk/Desktop/cluster/DUD-E-result/src

> <s_m_Source_File>
dock_pv.maegz

> <i_m_Source_File_Index>
438

> <chembl_id>
CHEMBL3401982

> <chembl_pref_name>
None

> <i_lp_mmshare_version>
53161

> <r_lp_tautomer_probability>
0.999997670184715

> <s_lp_Force_Field>
OPLS_2005

> <r_lp_Energy>
49.19449

> <b_lp_Chiralities_Consistent>
1

> <s_lp_Variant>
CHEMBL267_lig3854-1

> <s_i_glide_gridfile>
glide-grid_3el8

> <i_i_glide_lignum>
4741

> <i_i_glide_rotatable_bonds>
4

> <r_i_docking_score>
-7.11199868633319

> <r_i_glide_ligand_efficiency>
-0.222249958947912

> <r_i_glide_ligand_efficiency_sa>
-0.70559963645247

> <r_i_glide_ligand_efficiency_ln>
-1.59257037163224

> <r_i_glide_gscore>
-7.11199868633319

> <r_i_glide_lipo>
-1.70602364639527

> <r_i_glide_hbond>
-0.357722662113299

> <r_i_glide_metal>
0

> <r_i_glide_rewards>
-2.20606655776844

> <r_i_glide_evdw>
-44.200798034668

> <r_i_glide_ecoul>
-5.6959981918335

> <r_i_glide_erotb>
0.289414789100423

> <r_i_glide_esite>
-0.0671609786481761

> <r_i_glide_emodel>
-68.0262857366362

> <r_i_glide_energy>
-49.8967962265015

> <r_i_glide_einternal>
4.32489442825317

> <i_i_glide_confnum>
1

> <i_i_glide_posenum>
238

> <r_i_glide_eff_state_penalty>
0

> <s_user_duplicate_titles>
CHEMBL267_lig3854

> <i_f3d_flags>
0

> <s_m_subgroup_title>
dock_pv

> <s_m_subgroupid>
dock_pv

> <b_m_subgroup_collapsed>
1

$$$$
CHEMBL267_lig3403
                    3D
 Schrodinger Suite 2021-1.
 27 29  0  0  1  0            999 V2000
    3.1504    7.1441    8.5511 C   0  0  0  0  0  0
    1.8512    6.6907    8.3375 C   0  0  0  0  0  0
    1.1950    7.0055    7.1508 C   0  0  0  0  0  0
    3.7825    7.9148    7.5802 C   0  0  0  0  0  0
    3.1275    8.2695    6.3883 C   0  0  0  0  0  0
    1.8114    7.7880    6.1621 C   0  0  0  0  0  0
    1.1552    8.1141    4.9393 N   0  0  0  0  0  0
    3.8448    9.1485    5.3913 C   0  0  0  0  0  0
    3.0536    9.4347    4.1943 C   0  0  0  0  0  0
    1.8232    8.9334    4.0370 C   0  0  0  0  0  0
    1.3020    9.3249    2.8163 N   0  0  0  0  0  0
    2.2874   10.1552    2.2144 O   0  0  0  0  0  0
    3.3626   10.2100    3.0134 C   0  0  0  0  0  0
    3.8039    6.8485    9.6976 F   0  0  0  0  0  0
    1.0433    5.7385    9.5318 Cl  0  0  0  0  0  0
   -0.1347    7.5074    4.5681 C   0  0  0  0  0  0
   -0.0146    6.0351    4.1747 C   0  0  0  0  0  0
    4.4022   10.8131    2.7576 O   0  0  0  0  0  0
    4.9851    9.5699    5.5893 O   0  0  0  0  0  0
    0.1982    6.6252    7.0165 H   0  0  0  0  0  0
    4.7963    8.2369    7.7750 H   0  0  0  0  0  0
    0.9947    8.6744    2.0992 H   0  0  0  0  0  0
   -0.8442    7.6154    5.3898 H   0  0  0  0  0  0
   -0.5999    8.0365    3.7400 H   0  0  0  0  0  0
   -0.9536    5.6604    3.7664 H   0  0  0  0  0  0
    0.7678    5.8817    3.4315 H   0  0  0  0  0  0
    0.2269    5.4368    5.0469 H   0  0  0  0  0  0
  1  2  2  0  0  0
  1  4  1  0  0  0
  1 14  1  0  0  0
  2  3  1  0  0  0
  2 15  1  0  0  0
  3  6  2  0  0  0
  3 20  1  0  0  0
  4  5  2  0  0  0
  4 21  1  0  0  0
  5  6  1  0  0  0
  5  8  1  0  0  0
  6  7  1  0  0  0
  7 16  1  0  0  0
  7 10  1  0  0  0
  8  9  1  0  0  0
  8 19  2  0  0  0
  9 10  2  0  0  0
  9 13  1  0  0  0
 10 11  1  0  0  0
 11 12  1  0  0  0
 11 22  1  0  0  0
 12 13  1  0  0  0
 13 18  2  0  0  0
 16 17  1  0  0  0
 16 23  1  0  0  0
 16 24  1  0  0  0
 17 25  1  0  0  0
 17 26  1  0  0  0
 17 27  1  0  0  0
M  END
> <s_m_entry_id>
32176

> <s_m_entry_name>
dock_pv.439

> <s_m_Source_Path>
/home/csk/Desktop/cluster/DUD-E-result/src

> <s_m_Source_File>
dock_pv.maegz

> <i_m_Source_File_Index>
439

> <chembl_id>
CHEMBL468280

> <chembl_pref_name>
None

> <i_lp_mmshare_version>
53161

> <r_lp_tautomer_probability>
1

> <s_lp_Force_Field>
OPLS_2005

> <r_lp_Energy>
15.818075

> <b_lp_Chiralities_Consistent>
1

> <s_lp_Variant>
CHEMBL267_lig3403-1

> <s_i_glide_gridfile>
glide-grid_3el8

> <i_i_glide_lignum>
4059

> <i_i_glide_rotatable_bonds>
1

> <r_i_docking_score>
-7.11105286479367

> <r_i_glide_ligand_efficiency>
-0.374265940252298

> <r_i_glide_ligand_efficiency_sa>
-0.998691851049506

> <r_i_glide_ligand_efficiency_ln>
-1.80280463263661

> <r_i_glide_gscore>
-7.11105286479367

> <r_i_glide_lipo>
-1.96532490209684

> <r_i_glide_hbond>
-0.32

> <r_i_glide_metal>
0

> <r_i_glide_rewards>
-2.69079963852739

> <r_i_glide_evdw>
-26.8841762542725

> <r_i_glide_ecoul>
-5.08159875869751

> <r_i_glide_erotb>
0

> <r_i_glide_esite>
-0.0284796976511926

> <r_i_glide_emodel>
-44.9066690773287

> <r_i_glide_energy>
-31.96577501297

> <r_i_glide_einternal>
0.372716873884201

> <i_i_glide_confnum>
1

> <i_i_glide_posenum>
161

> <r_i_glide_eff_state_penalty>
0

> <s_user_duplicate_titles>
CHEMBL267_lig3403

> <i_f3d_flags>
0

> <s_m_subgroup_title>
dock_pv

> <s_m_subgroupid>
dock_pv

> <b_m_subgroup_collapsed>
1

$$$$
CHEMBL267_lig3209
                    3D
 Schrodinger Suite 2021-1.
 34 36  0  0  1  0            999 V2000
    0.6072    6.2399    8.6492 S   0  0  0  0  0  0
    8.8834    8.2369    6.5106 F   0  0  0  0  0  0
    7.8124    8.5396    8.3696 F   0  0  0  0  0  0
    7.5311    6.7199    7.2305 F   0  0  0  0  0  0
    5.3217   11.6211    2.9887 F   0  0  0  0  0  0
    5.3980   12.8311    4.7876 F   0  0  0  0  0  0
    7.2179   12.0166    3.9431 F   0  0  0  0  0  0
    1.3758    6.2367   11.5806 O   0  0  0  0  0  0
    0.7937    7.6172    4.8238 N   0  0  0  0  0  0
    3.4411    7.0370   11.3062 N   0  0  0  0  0  0
    2.8146    8.2733    6.0212 C   0  0  0  0  0  0
    2.3035    7.6716    7.2021 C   0  0  0  0  0  0
    4.1806    8.8643    5.9342 C   0  0  0  0  0  0
    1.0507    6.9984    7.1283 C   0  0  0  0  0  0
    6.5697    8.7346    6.4223 C   0  0  0  0  0  0
    5.7109   10.5334    5.0291 C   0  0  0  0  0  0
    4.4185   10.0240    5.1882 C   0  0  0  0  0  0
    5.2726    8.2303    6.5375 C   0  0  0  0  0  0
    2.8321    7.6126    8.5272 C   0  0  0  0  0  0
    2.0489    6.8805    9.4151 C   0  0  0  0  0  0
    6.7819    9.8839    5.6536 C   0  0  0  0  0  0
    7.7252    8.0372    7.1375 C   0  0  0  0  0  0
    5.9254   11.7756    4.1680 C   0  0  0  0  0  0
    1.9907    8.2368    4.8869 C   0  0  0  0  0  0
    0.3380    6.9876    5.9257 C   0  0  0  0  0  0
    2.2516    6.6636   10.8334 C   0  0  0  0  0  0
    4.1982    7.2386   10.6752 H   0  0  0  0  0  0
    3.6303    6.9124   12.2898 H   0  0  0  0  0  0
    3.5924   10.5284    4.7071 H   0  0  0  0  0  0
    5.1165    7.3160    7.0915 H   0  0  0  0  0  0
    3.7480    8.1085    8.8065 H   0  0  0  0  0  0
    7.7836   10.2757    5.5479 H   0  0  0  0  0  0
    2.3200    8.6675    3.9518 H   0  0  0  0  0  0
   -0.6019    6.4704    5.8301 H   0  0  0  0  0  0
  1 14  1  0  0  0
  1 20  1  0  0  0
  2 22  1  0  0  0
  3 22  1  0  0  0
  4 22  1  0  0  0
  5 23  1  0  0  0
  6 23  1  0  0  0
  7 23  1  0  0  0
  8 26  2  0  0  0
  9 24  2  0  0  0
  9 25  1  0  0  0
 10 26  1  0  0  0
 10 27  1  0  0  0
 10 28  1  0  0  0
 11 12  2  0  0  0
 11 13  1  0  0  0
 11 24  1  0  0  0
 12 14  1  0  0  0
 12 19  1  0  0  0
 13 17  2  0  0  0
 13 18  1  0  0  0
 14 25  2  0  0  0
 15 18  2  0  0  0
 15 21  1  0  0  0
 15 22  1  0  0  0
 16 17  1  0  0  0
 16 21  2  0  0  0
 16 23  1  0  0  0
 17 29  1  0  0  0
 18 30  1  0  0  0
 19 20  2  0  0  0
 19 31  1  0  0  0
 20 26  1  0  0  0
 21 32  1  0  0  0
 24 33  1  0  0  0
 25 34  1  0  0  0
M  END
> <s_m_entry_id>
32177

> <s_m_entry_name>
dock_pv.440

> <s_m_Source_Path>
/home/csk/Desktop/cluster/DUD-E-result/src

> <s_m_Source_File>
dock_pv.maegz

> <i_m_Source_File_Index>
440

> <chembl_id>
CHEMBL2002322

> <chembl_pref_name>
None

> <i_lp_mmshare_version>
53161

> <r_lp_tautomer_probability>
1

> <s_lp_Force_Field>
OPLS_2005

> <r_lp_Energy>
13.760191

> <b_lp_Chiralities_Consistent>
1

> <s_lp_Variant>
CHEMBL267_lig3209-1

> <s_i_glide_gridfile>
glide-grid_3el8

> <i_i_glide_lignum>
3752

> <i_i_glide_rotatable_bonds>
4

> <r_i_docking_score>
-7.11007105522087

> <r_i_glide_ligand_efficiency>
-0.273464271354649

> <r_i_glide_ligand_efficiency_sa>
-0.810136827858199

> <r_i_glide_ligand_efficiency_ln>
-1.6697768572726

> <r_i_glide_gscore>
-7.11007105522087

> <r_i_glide_lipo>
-2.66927247384534

> <r_i_glide_hbond>
0

> <r_i_glide_metal>
0

> <r_i_glide_rewards>
-2.48161059781687

> <r_i_glide_evdw>
-38.0715103149414

> <r_i_glide_ecoul>
-1.21776056289673

> <r_i_glide_erotb>
0.128025880035849

> <r_i_glide_esite>
-0.000974263412935328

> <r_i_glide_emodel>
-55.4290260391056

> <r_i_glide_energy>
-39.2892708778381

> <r_i_glide_einternal>
0.460339188575745

> <i_i_glide_confnum>
1

> <i_i_glide_posenum>
44

> <r_i_glide_eff_state_penalty>
0

> <s_user_duplicate_titles>
CHEMBL267_lig3209

> <i_f3d_flags>
0

> <s_m_subgroup_title>
dock_pv

> <s_m_subgroupid>
dock_pv

> <b_m_subgroup_collapsed>
1

$$$$
CHEMBL267_lig417
                    3D
 Schrodinger Suite 2021-1.
 54 57  0  0  1  0            999 V2000
    2.0192    6.1321    9.3681 C   0  0  0  0  0  0
    1.0214    5.2693    8.9410 N   0  0  0  0  0  0
    2.4042    6.9183    8.2482 C   0  0  0  0  0  0
    1.4135    6.7208    7.2259 C   0  0  0  0  0  0
    0.6399    5.6709    7.6814 C   0  0  0  0  0  0
   -0.7300    0.8479    8.3785 C   0  0  0  0  0  0
   -0.5992    2.1787    8.7878 N   0  0  0  0  0  0
    0.4506    4.1319    9.6695 C   0  0  2  0  0  0
    2.5875    6.1941   10.5794 N   0  0  0  0  0  0
    3.5923    7.6503    8.4209 C   0  0  0  0  0  0
    4.1979    7.7421    9.6251 N   0  0  0  0  0  0
    0.7223    2.7852    8.9856 C   0  0  0  0  0  0
   -2.0137    0.4037    8.4042 O   0  0  0  0  0  0
    1.2363    7.4739    5.9591 C   0  0  0  0  0  0
    3.6476    7.0370   10.6426 C   0  0  0  0  0  0
   -1.0535    4.2393    9.8390 C   0  0  0  0  0  0
   -1.7168    3.0406    9.1668 C   0  0  0  0  0  0
    0.1980    0.1511    7.9882 O   0  0  0  0  0  0
   -2.4270   -0.8919    7.9224 C   0  0  0  0  0  0
    1.5911    8.8257    5.8872 C   0  0  0  0  0  0
    0.7204    6.8274    4.8356 C   0  0  0  0  0  0
    4.2494    8.2369    7.3479 N   0  0  0  0  0  0
    0.9720    8.8582    3.5718 C   0  0  0  0  0  0
    1.4677    9.5184    4.6889 C   0  0  0  0  0  0
    0.5839    7.5258    3.6446 C   0  0  0  0  0  0
    0.8495    9.5230    2.3880 O   0  0  0  0  0  0
   -3.9096   -1.0075    8.3376 C   0  0  0  0  0  0
   -1.6561   -2.0465    8.5836 C   0  0  0  0  0  0
   -2.2293   -1.0239    6.3886 C   0  0  0  0  0  0
   -0.1978    5.1750    7.2101 H   0  0  0  0  0  0
    0.9170    4.1782   10.6504 H   0  0  0  0  0  0
    1.3438    2.1400    9.6087 H   0  0  0  0  0  0
    1.1984    2.9022    8.0111 H   0  0  0  0  0  0
    4.1465    7.1019   11.5998 H   0  0  0  0  0  0
   -1.4041    5.1799    9.4280 H   0  0  0  0  0  0
   -1.3086    4.2478   10.8991 H   0  0  0  0  0  0
   -2.2925    3.3441    8.2920 H   0  0  0  0  0  0
   -2.4086    2.5416    9.8475 H   0  0  0  0  0  0
    1.9526    9.3489    6.7595 H   0  0  0  0  0  0
    0.4223    5.7910    4.8797 H   0  0  0  0  0  0
    3.8623    8.1389    6.4206 H   0  0  0  0  0  0
    5.1316    8.6963    7.5132 H   0  0  0  0  0  0
    1.7478   10.5595    4.6262 H   0  0  0  0  0  0
    0.1605    7.0370    2.7877 H   0  0  0  0  0  0
    0.5980    8.9156    1.6744 H   0  0  0  0  0  0
   -4.3714   -1.9133    7.9439 H   0  0  0  0  0  0
   -4.4991   -0.1632    7.9854 H   0  0  0  0  0  0
   -4.0160   -1.0233    9.4230 H   0  0  0  0  0  0
   -0.6568   -2.1631    8.1691 H   0  0  0  0  0  0
   -1.5240   -1.9038    9.6418 H   0  0  0  0  0  0
   -2.2005   -2.9708    8.4492 H   0  0  0  0  0  0
   -1.1760   -1.1077    6.1190 H   0  0  0  0  0  0
   -2.7358   -1.9049    5.9939 H   0  0  0  0  0  0
   -2.6035   -0.1630    5.8454 H   0  0  0  0  0  0
  1  2  1  0  0  0
  1  3  2  0  0  0
  1  9  1  0  0  0
  2  5  1  0  0  0
  2  8  1  0  0  0
  3  4  1  0  0  0
  3 10  1  0  0  0
  4 14  1  0  0  0
  4  5  2  0  0  0
  5 30  1  0  0  0
  6  7  1  0  0  0
  6 13  1  0  0  0
  6 18  2  0  0  0
  7 12  1  0  0  0
  7 17  1  0  0  0
  8 12  1  0  0  0
  8 16  1  0  0  0
  8 31  1  0  0  0
  9 15  2  0  0  0
 10 22  1  0  0  0
 10 11  2  0  0  0
 11 15  1  0  0  0
 12 32  1  0  0  0
 12 33  1  0  0  0
 13 19  1  0  0  0
 14 20  1  0  0  0
 14 21  2  0  0  0
 15 34  1  0  0  0
 16 17  1  0  0  0
 16 35  1  0  0  0
 16 36  1  0  0  0
 17 37  1  0  0  0
 17 38  1  0  0  0
 19 27  1  0  0  0
 19 28  1  0  0  0
 19 29  1  0  0  0
 20 24  2  0  0  0
 20 39  1  0  0  0
 21 25  1  0  0  0
 21 40  1  0  0  0
 22 41  1  0  0  0
 22 42  1  0  0  0
 23 25  2  0  0  0
 23 26  1  0  0  0
 23 24  1  0  0  0
 24 43  1  0  0  0
 25 44  1  0  0  0
 26 45  1  0  0  0
 27 46  1  0  0  0
 27 47  1  0  0  0
 27 48  1  0  0  0
 28 49  1  0  0  0
 28 50  1  0  0  0
 28 51  1  0  0  0
 29 52  1  0  0  0
 29 53  1  0  0  0
 29 54  1  0  0  0
M  END
> <s_m_entry_id>
32178

> <s_m_entry_name>
dock_pv.441

> <s_m_Source_Path>
/home/csk/Desktop/cluster/DUD-E-result/src

> <s_m_Source_File>
dock_pv.maegz

> <i_m_Source_File_Index>
441

> <chembl_id>
CHEMBL422565

> <chembl_pref_name>
None

> <i_lp_mmshare_version>
53161

> <r_lp_tautomer_probability>
0.999999999997365

> <s_lp_Force_Field>
OPLS_2005

> <r_lp_Energy>
35.179155

> <b_lp_Chiralities_Consistent>
1

> <s_lp_Variant>
CHEMBL267_lig417-1

> <s_i_glide_gridfile>
glide-grid_3el8

> <i_i_glide_lignum>
494

> <i_i_glide_rotatable_bonds>
6

> <r_i_docking_score>
-7.10310413919361

> <r_i_glide_ligand_efficiency>
-0.244934625489435

> <r_i_glide_ligand_efficiency_sa>
-0.752516770239603

> <r_i_glide_ligand_efficiency_ln>
-1.62643072869547

> <r_i_glide_gscore>
-7.10310413919361

> <r_i_glide_lipo>
-2.33597178956095

> <r_i_glide_hbond>
-0.32

> <r_i_glide_metal>
0

> <r_i_glide_rewards>
-1.88415353909582

> <r_i_glide_evdw>
-45.037712097168

> <r_i_glide_ecoul>
-5.40847778320312

> <r_i_glide_erotb>
0.500178461802028

> <r_i_glide_esite>
0

> <r_i_glide_emodel>
-56.6780526063527

> <r_i_glide_energy>
-50.4461898803711

> <r_i_glide_einternal>
10.8850688934326

> <i_i_glide_confnum>
15

> <i_i_glide_posenum>
133

> <r_i_glide_eff_state_penalty>
0

> <s_user_duplicate_titles>
CHEMBL267_lig417,282759

> <i_f3d_flags>
0

> <s_m_subgroup_title>
dock_pv

> <s_m_subgroupid>
dock_pv

> <b_m_subgroup_collapsed>
1

$$$$
CHEMBL267_lig3190
                    3D
 Schrodinger Suite 2021-1.
 36 38  0  0  1  0            999 V2000
    0.6416    5.5350   11.5312 O   0  0  0  0  0  0
    2.0009    8.9277    3.4670 N   0  0  0  0  0  0
    0.9663    8.1135    3.1881 N   0  0  0  0  0  0
    3.7938    7.3116   11.0105 N   0  0  0  0  0  0
   -1.3779    3.4371    9.1837 N   0  0  0  0  0  0
    1.4045    7.6336    5.2912 C   0  0  0  0  0  0
    2.2801    8.6265    4.7715 C   0  0  0  0  0  0
    2.5228    7.7182    7.4378 C   0  0  0  0  0  0
    1.5316    7.1834    6.6052 C   0  0  0  0  0  0
    0.5452    7.3162    4.2261 C   0  0  0  0  0  0
    2.6072    7.3083    8.8806 C   0  0  0  0  0  0
    3.3031    9.1309    5.5795 C   0  0  0  0  0  0
    3.4104    8.6519    6.8854 C   0  0  0  0  0  0
    1.5543    6.6208    9.5101 C   0  0  0  0  0  0
    1.6239    6.2382   10.8566 C   0  0  0  0  0  0
    3.7143    7.6110    9.6913 C   0  0  0  0  0  0
    2.7560    6.6371   11.5649 C   0  0  0  0  0  0
   -0.5906    6.3377    4.1752 C   0  0  0  0  0  0
   -0.4857    5.0135   10.8239 C   0  0  0  0  0  0
   -0.1559    3.8690    9.8442 C   0  0  0  0  0  0
    0.5659    8.0818    2.2546 H   0  0  0  0  0  0
   -1.8022    4.1931    8.6581 H   0  0  0  0  0  0
   -1.2132    2.6714    8.5455 H   0  0  0  0  0  0
    0.8475    6.4232    6.9438 H   0  0  0  0  0  0
    4.0009    9.8622    5.2003 H   0  0  0  0  0  0
    4.2161    9.0368    7.4787 H   0  0  0  0  0  0
    0.6585    6.3891    8.9643 H   0  0  0  0  0  0
    4.5844    8.1197    9.3094 H   0  0  0  0  0  0
    2.8526    6.4181   12.6165 H   0  0  0  0  0  0
   -1.4016    6.6383    4.8351 H   0  0  0  0  0  0
   -1.0021    6.2373    3.1880 H   0  0  0  0  0  0
   -0.2621    5.3494    4.4882 H   0  0  0  0  0  0
   -0.9957    5.8161   10.2951 H   0  0  0  0  0  0
   -1.1949    4.6451   11.5668 H   0  0  0  0  0  0
    0.2973    3.0373   10.3833 H   0  0  0  0  0  0
    0.5711    4.1740    9.0924 H   0  0  0  0  0  0
  1 15  1  0  0  0
  1 19  1  0  0  0
  2  3  1  0  0  0
  2  7  2  0  0  0
  3 21  1  0  0  0
  3 10  1  0  0  0
  4 16  1  0  0  0
  4 17  2  0  0  0
  5 20  1  0  0  0
  5 22  1  0  0  0
  5 23  1  0  0  0
  6  9  1  0  0  0
  6  7  1  0  0  0
  6 10  2  0  0  0
  7 12  1  0  0  0
  8 13  1  0  0  0
  8 11  1  0  0  0
  8  9  2  0  0  0
  9 24  1  0  0  0
 10 18  1  0  0  0
 11 14  1  0  0  0
 11 16  2  0  0  0
 12 25  1  0  0  0
 12 13  2  0  0  0
 13 26  1  0  0  0
 14 15  2  0  0  0
 14 27  1  0  0  0
 15 17  1  0  0  0
 16 28  1  0  0  0
 17 29  1  0  0  0
 18 30  1  0  0  0
 18 31  1  0  0  0
 18 32  1  0  0  0
 19 20  1  0  0  0
 19 33  1  0  0  0
 19 34  1  0  0  0
 20 35  1  0  0  0
 20 36  1  0  0  0
M  END
> <s_m_entry_id>
32179

> <s_m_entry_name>
dock_pv.442

> <s_m_Source_Path>
/home/csk/Desktop/cluster/DUD-E-result/src

> <s_m_Source_File>
dock_pv.maegz

> <i_m_Source_File_Index>
442

> <chembl_id>
CHEMBL1967887

> <chembl_pref_name>
None

> <i_lp_mmshare_version>
53161

> <r_lp_tautomer_probability>
0.0196078431372549

> <s_lp_Force_Field>
OPLS_2005

> <r_lp_Energy>
34.252731

> <b_lp_Chiralities_Consistent>
1

> <s_lp_Variant>
CHEMBL267_lig3190-2

> <s_i_glide_gridfile>
glide-grid_3el8

> <i_i_glide_lignum>
3721

> <i_i_glide_rotatable_bonds>
4

> <r_i_docking_score>
-7.10213762397992

> <r_i_glide_ligand_efficiency>
-0.355106881198996

> <r_i_glide_ligand_efficiency_sa>
-0.963908373138092

> <r_i_glide_ligand_efficiency_ln>
-1.77743080310607

> <r_i_glide_gscore>
-7.10213762397992

> <r_i_glide_lipo>
-2.60775366405007

> <r_i_glide_hbond>
-0.52514044214483

> <r_i_glide_metal>
0

> <r_i_glide_rewards>
-2.38920458018655

> <r_i_glide_evdw>
-30.4601726531982

> <r_i_glide_ecoul>
-4.97682237625122

> <r_i_glide_erotb>
0.743749189739538

> <r_i_glide_esite>
-0.0542561382404149

> <r_i_glide_emodel>
-51.8880781388744

> <r_i_glide_energy>
-35.4369950294495

> <r_i_glide_einternal>
1.69624030590057

> <i_i_glide_confnum>
9

> <i_i_glide_posenum>
178

> <r_i_glide_eff_state_penalty>
0

> <s_user_duplicate_titles>
CHEMBL267_lig3190,CHEMBL267_lig3190

> <i_f3d_flags>
0

> <s_m_subgroup_title>
dock_pv

> <s_m_subgroupid>
dock_pv

> <b_m_subgroup_collapsed>
1

$$$$
CHEMBL267_lig1468
                    3D
 Schrodinger Suite 2021-1.
 29 31  0  0  1  0            999 V2000
    4.2194    7.9500    7.3550 C   0  0  0  0  0  0
    4.0051    8.7907    6.3107 O   0  0  0  0  0  0
    1.8119    7.7875    5.7929 C   0  0  0  0  0  0
    2.9027    8.6370    5.4936 C   0  0  0  0  0  0
    2.9708    9.3512    4.2980 C   0  0  0  0  0  0
    1.9817    9.1867    3.3406 C   0  0  0  0  0  0
    0.9284    8.3185    3.5817 C   0  0  0  0  0  0
    0.8337    7.6031    4.7770 C   0  0  0  0  0  0
    3.0473    7.1976    7.9134 C   0  0  0  0  0  0
    1.8532    7.1364    7.1586 C   0  0  0  0  0  0
    0.7426    6.5201    7.7472 C   0  0  0  0  0  0
    0.8119    5.8943    8.9846 C   0  0  0  0  0  0
    1.9959    5.9133    9.6960 C   0  0  0  0  0  0
    3.0977    6.5834    9.1832 C   0  0  0  0  0  0
    4.1980    6.6370    9.9880 O   0  0  0  0  0  0
   -0.2832    5.2774    9.5189 O   0  0  0  0  0  0
    5.3630    7.9490    7.8097 O   0  0  0  0  0  0
    2.0587    9.8386    2.1421 O   0  0  0  0  0  0
   -0.3154    6.6067    4.8382 C   0  0  0  0  0  0
    3.8104    9.9988    4.0924 H   0  0  0  0  0  0
    0.1839    8.1772    2.8099 H   0  0  0  0  0  0
   -0.2020    6.5243    7.2590 H   0  0  0  0  0  0
    2.0415    5.4402   10.6662 H   0  0  0  0  0  0
    4.1974    5.9619   10.6793 H   0  0  0  0  0  0
   -1.1022    5.4346    9.0342 H   0  0  0  0  0  0
    1.3902    9.5247    1.5251 H   0  0  0  0  0  0
   -0.0073    5.6681    5.2954 H   0  0  0  0  0  0
   -0.6670    6.3306    3.8426 H   0  0  0  0  0  0
   -1.1588    7.0368    5.3777 H   0  0  0  0  0  0
  1  9  1  0  0  0
  1  2  1  0  0  0
  1 17  2  0  0  0
  2  4  1  0  0  0
  3 10  1  0  0  0
  3  4  1  0  0  0
  3  8  2  0  0  0
  4  5  2  0  0  0
  5  6  1  0  0  0
  5 20  1  0  0  0
  6  7  2  0  0  0
  6 18  1  0  0  0
  7  8  1  0  0  0
  7 21  1  0  0  0
  8 19  1  0  0  0
  9 10  2  0  0  0
  9 14  1  0  0  0
 10 11  1  0  0  0
 11 12  2  0  0  0
 11 22  1  0  0  0
 12 13  1  0  0  0
 12 16  1  0  0  0
 13 14  2  0  0  0
 13 23  1  0  0  0
 14 15  1  0  0  0
 15 24  1  0  0  0
 16 25  1  0  0  0
 18 26  1  0  0  0
 19 27  1  0  0  0
 19 28  1  0  0  0
 19 29  1  0  0  0
M  END
> <s_m_entry_id>
32180

> <s_m_entry_name>
dock_pv.443

> <s_m_Source_Path>
/home/csk/Desktop/cluster/DUD-E-result/src

> <s_m_Source_File>
dock_pv.maegz

> <i_m_Source_File_Index>
443

> <chembl_id>
CHEMBL519982

> <chembl_pref_name>
ALTERNARIOL

> <i_lp_mmshare_version>
53161

> <r_lp_tautomer_probability>
1

> <s_lp_Force_Field>
OPLS_2005

> <r_lp_Energy>
31.059856

> <b_lp_Chiralities_Consistent>
1

> <s_lp_Variant>
CHEMBL267_lig1468-1

> <s_i_glide_gridfile>
glide-grid_3el8

> <i_i_glide_lignum>
1640

> <i_i_glide_rotatable_bonds>
3

> <r_i_docking_score>
-7.100743493301

> <r_i_glide_ligand_efficiency>
-0.373723341752684

> <r_i_glide_ligand_efficiency_sa>
-0.997243980319962

> <r_i_glide_ligand_efficiency_ln>
-1.80019098553822

> <r_i_glide_gscore>
-7.100743493301

> <r_i_glide_lipo>
-1.91838432302509

> <r_i_glide_hbond>
-0.324101898986662

> <r_i_glide_metal>
0

> <r_i_glide_rewards>
-1.74012439393939

> <r_i_glide_evdw>
-27.413459777832

> <r_i_glide_ecoul>
-11.6497325897217

> <r_i_glide_erotb>
0

> <r_i_glide_esite>
0

> <r_i_glide_emodel>
-52.5293030251363

> <r_i_glide_energy>
-39.0631923675537

> <r_i_glide_einternal>
2.29755544662476

> <i_i_glide_confnum>
1

> <i_i_glide_posenum>
11

> <r_i_glide_eff_state_penalty>
0

> <s_user_duplicate_titles>
CHEMBL267_lig1468

> <i_f3d_flags>
0

> <s_m_subgroup_title>
dock_pv

> <s_m_subgroupid>
dock_pv

> <b_m_subgroup_collapsed>
1

$$$$
CHEMBL267_lig3835
                    3D
 Schrodinger Suite 2021-1.
 52 55  0  0  1  0            999 V2000
    3.9734   11.5843    1.3837 C   0  0  0  0  0  0
    3.7071   10.9471    2.5839 C   0  0  0  0  0  0
    2.4875   10.2955    2.7877 C   0  0  0  0  0  0
    1.5081   10.3609    1.7932 C   0  0  0  0  0  0
    1.7596   11.0370    0.5974 C   0  0  0  0  0  0
    2.9981   11.6445    0.3889 C   0  0  0  0  0  0
    5.2199   12.1029    1.1880 O   0  0  0  0  0  0
    2.2011    9.6034    3.9718 N   0  0  0  0  0  0
    5.1646    8.6424    5.8259 C   0  0  0  0  0  0
    4.7345    8.2641    7.0553 N   0  0  0  0  0  0
    3.4069    8.3546    7.1988 C   0  0  0  0  0  0
    2.4896    8.7442    6.2066 C   0  0  0  0  0  0
    3.0442    9.1131    4.9774 C   0  0  0  0  0  0
    4.3909    9.0508    4.7910 N   0  0  0  0  0  0
    1.3330    8.3159    8.0927 N   0  0  0  0  0  0
    2.6556    8.1620    8.3368 N   0  0  0  0  0  0
    1.2095    8.6548    6.8334 C   0  0  0  0  0  0
    3.1279    7.8428    9.6753 C   0  0  0  0  0  0
    3.2932    6.3257    9.9081 C   0  0  2  0  0  0
    4.4203    5.7108    9.0439 C   0  0  0  0  0  0
    1.9554    5.5809    9.8299 C   0  0  0  0  0  0
    1.6641    4.6716    8.8024 C   0  0  0  0  0  0
    0.4467    3.9975    8.7880 C   0  0  0  0  0  0
   -0.4831    4.2370    9.7938 C   0  0  0  0  0  0
   -0.2020    5.1385   10.8155 C   0  0  0  0  0  0
    1.0076    5.8192   10.8295 C   0  0  0  0  0  0
    6.9080    8.7020    5.5446 S   0  0  0  0  0  0
    7.7694    8.2278    7.0707 C   0  0  0  0  0  0
    7.8513    6.7175    7.2957 C   0  0  0  0  0  0
    4.4805   10.9594    3.3333 H   0  0  0  0  0  0
    0.5553    9.8693    1.9300 H   0  0  0  0  0  0
    1.0050   11.0695   -0.1743 H   0  0  0  0  0  0
    3.2074   12.1391   -0.5495 H   0  0  0  0  0  0
    5.3980   12.2420    0.2305 H   0  0  0  0  0  0
    1.2239    9.4093    4.1206 H   0  0  0  0  0  0
    0.2397    8.8543    6.3995 H   0  0  0  0  0  0
    2.4280    8.2703   10.3880 H   0  0  0  0  0  0
    4.0766    8.3545    9.8380 H   0  0  0  0  0  0
    3.6233    6.2370   10.9438 H   0  0  0  0  0  0
    4.5256    4.6370    9.1880 H   0  0  0  0  0  0
    4.2273    5.8442    7.9877 H   0  0  0  0  0  0
    5.3837    6.1697    9.2619 H   0  0  0  0  0  0
    2.3687    4.4763    8.0094 H   0  0  0  0  0  0
    0.2226    3.2924    8.0016 H   0  0  0  0  0  0
   -1.4324    3.7208    9.7838 H   0  0  0  0  0  0
   -0.9349    5.3201   11.5886 H   0  0  0  0  0  0
    1.2135    6.5150   11.6296 H   0  0  0  0  0  0
    8.7816    8.6279    7.0071 H   0  0  0  0  0  0
    7.2981    8.7204    7.9221 H   0  0  0  0  0  0
    8.4259    6.4859    8.1898 H   0  0  0  0  0  0
    6.8623    6.2745    7.4038 H   0  0  0  0  0  0
    8.3419    6.2372    6.4524 H   0  0  0  0  0  0
  1  2  1  0  0  0
  1  6  2  0  0  0
  1  7  1  0  0  0
  2  3  2  0  0  0
  2 30  1  0  0  0
  3  4  1  0  0  0
  3  8  1  0  0  0
  4  5  2  0  0  0
  4 31  1  0  0  0
  5  6  1  0  0  0
  5 32  1  0  0  0
  6 33  1  0  0  0
  7 34  1  0  0  0
  8 13  1  0  0  0
  8 35  1  0  0  0
  9 10  1  0  0  0
  9 14  2  0  0  0
  9 27  1  0  0  0
 10 11  2  0  0  0
 11 12  1  0  0  0
 11 16  1  0  0  0
 12 13  2  0  0  0
 12 17  1  0  0  0
 13 14  1  0  0  0
 15 16  1  0  0  0
 15 17  2  0  0  0
 16 18  1  0  0  0
 17 36  1  0  0  0
 18 19  1  0  0  0
 18 37  1  0  0  0
 18 38  1  0  0  0
 19 20  1  0  0  0
 19 21  1  0  0  0
 19 39  1  0  0  0
 20 40  1  0  0  0
 20 41  1  0  0  0
 20 42  1  0  0  0
 21 22  1  0  0  0
 21 26  2  0  0  0
 22 23  2  0  0  0
 22 43  1  0  0  0
 23 24  1  0  0  0
 23 44  1  0  0  0
 24 25  2  0  0  0
 24 45  1  0  0  0
 25 26  1  0  0  0
 25 46  1  0  0  0
 26 47  1  0  0  0
 27 28  1  0  0  0
 28 29  1  0  0  0
 28 48  1  0  0  0
 28 49  1  0  0  0
 29 50  1  0  0  0
 29 51  1  0  0  0
 29 52  1  0  0  0
M  END
> <s_m_entry_id>
32181

> <s_m_entry_name>
dock_pv.444

> <s_m_Source_Path>
/home/csk/Desktop/cluster/DUD-E-result/src

> <s_m_Source_File>
dock_pv.maegz

> <i_m_Source_File_Index>
444

> <chembl_id>
CHEMBL3394078

> <chembl_pref_name>
None

> <i_lp_mmshare_version>
53161

> <r_lp_tautomer_probability>
1

> <s_lp_Force_Field>
OPLS_2005

> <r_lp_Energy>
12.524294

> <b_lp_Chiralities_Consistent>
1

> <s_lp_Variant>
CHEMBL267_lig3835-1

> <s_i_glide_gridfile>
glide-grid_3el8

> <i_i_glide_lignum>
4715

> <i_i_glide_rotatable_bonds>
8

> <r_i_docking_score>
-7.09577036827253

> <r_i_glide_ligand_efficiency>
-0.244681736836984

> <r_i_glide_ligand_efficiency_sa>
-0.751739816178525

> <r_i_glide_ligand_efficiency_ln>
-1.62475148112293

> <r_i_glide_gscore>
-7.09577036827253

> <r_i_glide_lipo>
-2.79721345214904

> <r_i_glide_hbond>
-0.16

> <r_i_glide_metal>
0

> <r_i_glide_rewards>
-1.42744805958108

> <r_i_glide_evdw>
-39.8670997619629

> <r_i_glide_ecoul>
-9.56561470031738

> <r_i_glide_erotb>
0.717088336603337

> <r_i_glide_esite>
0

> <r_i_glide_emodel>
-66.6447111911986

> <r_i_glide_energy>
-49.4327144622803

> <r_i_glide_einternal>
7.99458265304565

> <i_i_glide_confnum>
13

> <i_i_glide_posenum>
139

> <r_i_glide_eff_state_penalty>
0

> <s_user_duplicate_titles>
CHEMBL267_lig3835

> <i_f3d_flags>
0

> <s_m_subgroup_title>
dock_pv

> <s_m_subgroupid>
dock_pv

> <b_m_subgroup_collapsed>
1

$$$$
CHEMBL267_lig327
                    3D
 Schrodinger Suite 2021-1.
 35 37  0  0  1  0            999 V2000
    4.7395    8.2054    7.0521 C   0  0  0  0  0  0
    3.5351    8.8112    6.4509 C   0  0  0  0  0  0
    2.3174    8.3328    6.8857 O   0  0  0  0  0  0
    4.5847    7.2057    7.9620 C   0  0  0  0  0  0
    2.1548    7.2717    7.7594 C   0  0  0  0  0  0
    6.1106    8.6370    6.7479 C   0  0  0  0  0  0
    0.8654    6.7979    8.0210 C   0  0  0  0  0  0
    3.2732    6.6630    8.3287 C   0  0  0  0  0  0
    6.2638    9.3185    5.5901 N   0  0  0  0  0  0
    3.4668    9.7301    5.5880 N   0  0  0  0  0  0
    0.7059    5.6739    8.8548 C   0  0  0  0  0  0
    7.0560    8.3866    7.5020 O   0  0  0  0  0  0
    7.4314    9.8412    5.0226 C   0  0  0  0  0  0
    3.1106    5.5398    9.1353 C   0  0  0  0  0  0
    8.6970    9.2594    5.1880 C   0  0  0  0  0  0
    1.8319    5.0466    9.3860 C   0  0  0  0  0  0
   -0.2020    7.4370    7.4385 O   0  0  0  0  0  0
    9.8138    9.8370    4.5870 C   0  0  0  0  0  0
   -0.5189    5.1447    9.1880 O   0  0  0  0  0  0
   11.0419    9.2642    4.7493 O   0  0  0  0  0  0
    8.4151   11.5430    3.6042 C   0  0  0  0  0  0
    7.2954   10.9733    4.2124 C   0  0  0  0  0  0
    9.6761   10.9804    3.8007 C   0  0  0  0  0  0
    5.4508    6.7532    8.4297 H   0  0  0  0  0  0
    5.3963    9.6020    5.1495 H   0  0  0  0  0  0
    2.4987    9.9268    5.3764 H   0  0  0  0  0  0
    3.9661    5.0370    9.5582 H   0  0  0  0  0  0
    8.8215    8.3610    5.7739 H   0  0  0  0  0  0
    1.7110    4.1603    9.9880 H   0  0  0  0  0  0
   -0.9414    6.8381    7.2562 H   0  0  0  0  0  0
   -1.2739    5.4473    8.6678 H   0  0  0  0  0  0
   10.9971    8.4094    5.1880 H   0  0  0  0  0  0
    8.3062   12.4226    2.9862 H   0  0  0  0  0  0
    6.3256   11.4248    4.0570 H   0  0  0  0  0  0
   10.5444   11.4200    3.3321 H   0  0  0  0  0  0
  1  2  1  0  0  0
  1  4  2  0  0  0
  1  6  1  0  0  0
  2  3  1  0  0  0
  2 10  2  0  0  0
  3  5  1  0  0  0
  4  8  1  0  0  0
  4 24  1  0  0  0
  5  8  1  0  0  0
  5  7  2  0  0  0
  6  9  1  0  0  0
  6 12  2  0  0  0
  7 17  1  0  0  0
  7 11  1  0  0  0
  8 14  2  0  0  0
  9 13  1  0  0  0
  9 25  1  0  0  0
 10 26  1  0  0  0
 11 16  2  0  0  0
 11 19  1  0  0  0
 13 15  1  0  0  0
 13 22  2  0  0  0
 14 16  1  0  0  0
 14 27  1  0  0  0
 15 18  2  0  0  0
 15 28  1  0  0  0
 16 29  1  0  0  0
 17 30  1  0  0  0
 18 20  1  0  0  0
 18 23  1  0  0  0
 19 31  1  0  0  0
 20 32  1  0  0  0
 21 22  1  0  0  0
 21 23  2  0  0  0
 21 33  1  0  0  0
 22 34  1  0  0  0
 23 35  1  0  0  0
M  END
> <s_m_entry_id>
32182

> <s_m_entry_name>
dock_pv.445

> <s_m_Source_Path>
/home/csk/Desktop/cluster/DUD-E-result/src

> <s_m_Source_File>
dock_pv.maegz

> <i_m_Source_File_Index>
445

> <chembl_id>
CHEMBL81043

> <chembl_pref_name>
None

> <i_lp_mmshare_version>
53161

> <r_lp_tautomer_probability>
0.999999999997365

> <s_lp_Force_Field>
OPLS_2005

> <r_lp_Energy>
38.831738

> <b_lp_Chiralities_Consistent>
1

> <s_lp_Variant>
CHEMBL267_lig327-1

> <s_i_glide_gridfile>
glide-grid_3el8

> <i_i_glide_lignum>
393

> <i_i_glide_rotatable_bonds>
6

> <r_i_docking_score>
-7.09209070515365

> <r_i_glide_ligand_efficiency>
-0.308351769789289

> <r_i_glide_ligand_efficiency_sa>
-0.876911415366034

> <r_i_glide_ligand_efficiency_ln>
-1.71493184002924

> <r_i_glide_gscore>
-7.09209070515365

> <r_i_glide_lipo>
-2.35099273833581

> <r_i_glide_hbond>
-0.20269086362508

> <r_i_glide_metal>
0

> <r_i_glide_rewards>
-1.63608170982681

> <r_i_glide_evdw>
-29.4174537658691

> <r_i_glide_ecoul>
-13.3490047454834

> <r_i_glide_erotb>
0.570898006750008

> <r_i_glide_esite>
0

> <r_i_glide_emodel>
-59.2774539593304

> <r_i_glide_energy>
-42.7664585113525

> <r_i_glide_einternal>
1.72053349018097

> <i_i_glide_confnum>
17

> <i_i_glide_posenum>
179

> <r_i_glide_eff_state_penalty>
0

> <s_user_duplicate_titles>
CHEMBL267_lig327

> <i_f3d_flags>
0

> <s_m_subgroup_title>
dock_pv

> <s_m_subgroupid>
dock_pv

> <b_m_subgroup_collapsed>
1

$$$$
CHEMBL267_lig731
                    3D
 Schrodinger Suite 2021-1.
 46 48  0  0  1  0            999 V2000
    3.5572   10.1629    3.6920 C   0  0  0  0  0  0
    4.3358    9.4683    4.5573 N   0  0  0  0  0  0
    1.3299    7.2024    7.7514 C   0  0  0  0  0  0
    5.6589    9.7617    4.6188 C   0  0  0  0  0  0
    2.1948    9.8461    3.6204 N   0  0  0  0  0  0
    4.0075   11.1288    2.8525 N   0  0  0  0  0  0
    1.0663    7.4911    6.2927 C   0  0  0  0  0  0
    6.4431    8.9796    5.6254 C   0  0  0  0  0  0
    1.7002    8.5732    5.6640 C   0  0  0  0  0  0
    1.4966    8.8373    4.3039 C   0  0  0  0  0  0
    2.3734    7.5661    8.2967 O   0  0  0  0  0  0
    8.5983    8.2368    6.4755 N   0  0  0  0  0  0
    0.3464    6.5569    8.4000 N   0  0  0  0  0  0
    6.2061   10.7543    3.7900 C   0  0  0  0  0  0
    5.3354   11.4119    2.9135 C   0  0  0  0  0  0
    7.8436    8.9293    5.5881 C   0  0  0  0  0  0
   -0.6031    3.4369    8.4213 N   0  0  0  0  0  0
    1.0011    4.6200    9.8912 C   0  0  0  0  0  0
    0.2155    6.6786    5.5257 C   0  0  0  0  0  0
   -0.0332    6.9688    4.1868 C   0  0  0  0  0  0
    5.8199    8.2484    6.6569 C   0  0  0  0  0  0
    0.4062    6.0418    9.7682 C   0  0  0  0  0  0
    7.9622    7.5482    7.4505 C   0  0  0  0  0  0
    0.5982    8.0540    3.5876 C   0  0  0  0  0  0
    0.8029    3.6652    8.7004 C   0  0  0  0  0  0
    6.5768    7.5262    7.5786 C   0  0  0  0  0  0
    1.6933   10.3104    2.8790 H   0  0  0  0  0  0
    2.3729    9.2037    6.2294 H   0  0  0  0  0  0
   -0.4898    6.3273    7.8763 H   0  0  0  0  0  0
    7.2496   11.0251    3.8205 H   0  0  0  0  0  0
    5.6928   12.1862    2.2486 H   0  0  0  0  0  0
    8.4062    9.4499    4.8290 H   0  0  0  0  0  0
   -1.0205    2.9066    9.1762 H   0  0  0  0  0  0
   -1.1047    4.3171    8.3889 H   0  0  0  0  0  0
    0.5984    4.1541   10.7921 H   0  0  0  0  0  0
    2.0771    4.7166   10.0406 H   0  0  0  0  0  0
   -0.2491    5.8055    5.9560 H   0  0  0  0  0  0
   -0.7033    6.3502    3.6042 H   0  0  0  0  0  0
    4.7434    8.2368    6.7577 H   0  0  0  0  0  0
   -0.6020    6.0396   10.1715 H   0  0  0  0  0  0
    0.9786    6.7233   10.4006 H   0  0  0  0  0  0
    8.5924    7.0100    8.1389 H   0  0  0  0  0  0
    0.4117    8.2665    2.5473 H   0  0  0  0  0  0
    1.2813    2.7046    8.9011 H   0  0  0  0  0  0
    1.2997    4.0832    7.8268 H   0  0  0  0  0  0
    6.0952    6.9688    8.3690 H   0  0  0  0  0  0
  1  2  1  0  0  0
  1  5  1  0  0  0
  1  6  2  0  0  0
  2  4  2  0  0  0
  3  7  1  0  0  0
  3 11  2  0  0  0
  3 13  1  0  0  0
  4  8  1  0  0  0
  4 14  1  0  0  0
  5 10  1  0  0  0
  5 27  1  0  0  0
  6 15  1  0  0  0
  7  9  2  0  0  0
  7 19  1  0  0  0
  8 16  1  0  0  0
  8 21  2  0  0  0
  9 10  1  0  0  0
  9 28  1  0  0  0
 10 24  2  0  0  0
 12 16  2  0  0  0
 12 23  1  0  0  0
 13 22  1  0  0  0
 13 29  1  0  0  0
 14 15  2  0  0  0
 14 30  1  0  0  0
 15 31  1  0  0  0
 16 32  1  0  0  0
 17 25  1  0  0  0
 17 33  1  0  0  0
 17 34  1  0  0  0
 18 22  1  0  0  0
 18 25  1  0  0  0
 18 35  1  0  0  0
 18 36  1  0  0  0
 19 20  2  0  0  0
 19 37  1  0  0  0
 20 24  1  0  0  0
 20 38  1  0  0  0
 21 26  1  0  0  0
 21 39  1  0  0  0
 22 40  1  0  0  0
 22 41  1  0  0  0
 23 26  2  0  0  0
 23 42  1  0  0  0
 24 43  1  0  0  0
 25 44  1  0  0  0
 25 45  1  0  0  0
 26 46  1  0  0  0
M  END
> <s_m_entry_id>
32183

> <s_m_entry_name>
dock_pv.446

> <s_m_Source_Path>
/home/csk/Desktop/cluster/DUD-E-result/src

> <s_m_Source_File>
dock_pv.maegz

> <i_m_Source_File_Index>
446

> <chembl_id>
CHEMBL59099

> <chembl_pref_name>
None

> <i_lp_mmshare_version>
53161

> <r_lp_tautomer_probability>
0.999999987636

> <s_lp_Force_Field>
OPLS_2005

> <r_lp_Energy>
12.693523

> <b_lp_Chiralities_Consistent>
1

> <s_lp_Variant>
CHEMBL267_lig731-1

> <s_i_glide_gridfile>
glide-grid_3el8

> <i_i_glide_lignum>
855

> <i_i_glide_rotatable_bonds>
8

> <r_i_docking_score>
-7.08932201389518

> <r_i_glide_ligand_efficiency>
-0.272666231303661

> <r_i_glide_ligand_efficiency_sa>
-0.807772637347283

> <r_i_glide_ligand_efficiency_ln>
-1.66490401300042

> <r_i_glide_gscore>
-7.08932201389518

> <r_i_glide_lipo>
-3.0397032994274

> <r_i_glide_hbond>
-0.676600643606361

> <r_i_glide_metal>
0

> <r_i_glide_rewards>
-1.34945701319355

> <r_i_glide_evdw>
-41.1211776733398

> <r_i_glide_ecoul>
-6.98627901077271

> <r_i_glide_erotb>
1.09778327140151

> <r_i_glide_esite>
-0.0173435937864806

> <r_i_glide_emodel>
-67.5920932808333

> <r_i_glide_energy>
-48.1074566841125

> <r_i_glide_einternal>
2.53689932823181

> <i_i_glide_confnum>
2

> <i_i_glide_posenum>
89

> <r_i_glide_eff_state_penalty>
0

> <s_user_duplicate_titles>
CHEMBL267_lig731

> <i_f3d_flags>
0

> <s_m_subgroup_title>
dock_pv

> <s_m_subgroupid>
dock_pv

> <b_m_subgroup_collapsed>
1

$$$$
CHEMBL267_lig2573
                    3D
 Schrodinger Suite 2021-1.
 59 64  0  0  1  0            999 V2000
   -2.3735    3.0147    9.0071 C   0  0  0  0  0  0
   -1.0621    3.7301    9.1875 C   0  0  0  0  0  0
   -0.0189    3.5904    8.4097 N   0  0  0  0  0  0
    0.9076    4.4576    8.9256 C   0  0  0  0  0  0
    2.1978    4.7414    8.4708 C   0  0  0  0  0  0
    2.9577    5.6712    9.1880 C   0  0  0  0  0  0
    2.4469    6.3164   10.3199 C   0  0  0  0  0  0
    1.1584    6.0591   10.7923 C   0  0  0  0  0  0
    0.4083    5.1269   10.0705 C   0  0  0  0  0  0
   -0.8615    4.6328   10.1978 N   0  0  0  0  0  0
    4.2493    5.9926    8.7387 N   0  0  0  0  0  0
    5.2184    5.0691    8.7842 N   0  0  0  0  0  0
    6.2731    5.6646    8.2939 C   0  0  0  0  0  0
    6.0191    6.9664    7.8395 C   0  0  0  0  0  0
    7.0019    7.8204    7.1531 C   0  0  0  0  0  0
    8.1827    7.7742    7.4962 O   0  0  0  0  0  0
    6.5997    8.6644    6.0139 C   0  0  0  0  0  0
    7.3223    9.5076    5.1883 C   0  0  0  0  0  0
    6.4020   10.1006    4.2617 C   0  0  0  0  0  0
    6.5168   11.0429    3.2275 C   0  0  0  0  0  0
    5.3663   11.4360    2.5440 C   0  0  0  0  0  0
    4.1129   10.9051    2.8623 C   0  0  0  0  0  0
    2.8660   11.4357    2.1526 C   0  0  0  0  0  0
    2.2129   12.5656    2.8343 N   0  0  0  0  0  0
    1.6868   12.2574    4.1732 C   0  0  0  0  0  0
    0.9504   13.4700    4.7862 C   0  0  0  0  0  0
    1.7980   14.6170    4.7873 O   0  0  0  0  0  0
    2.2077   14.9783    3.4687 C   0  0  0  0  0  0
    2.9852   13.8162    2.7998 C   0  0  0  0  0  0
    3.9718    9.9103    3.8357 C   0  0  0  0  0  0
    5.1214    9.5389    4.5375 C   0  0  0  0  0  0
    5.2973    8.6476    5.5714 N   0  0  0  0  0  0
    4.6780    7.1787    8.1822 C   0  0  0  0  0  0
    3.8213    8.2367    8.0412 N   0  0  0  0  0  0
   -2.3358    2.2926    8.1878 H   0  0  0  0  0  0
   -3.1863    3.7078    8.7885 H   0  0  0  0  0  0
   -2.6518    2.4583    9.9042 H   0  0  0  0  0  0
    2.5900    4.2659    7.5849 H   0  0  0  0  0  0
    3.0671    7.0218   10.8541 H   0  0  0  0  0  0
    0.7736    6.5465   11.6755 H   0  0  0  0  0  0
   -1.5915    4.9123   10.8383 H   0  0  0  0  0  0
    7.2121    5.1401    8.2073 H   0  0  0  0  0  0
    8.3851    9.6831    5.2522 H   0  0  0  0  0  0
    7.4737   11.4800    2.9806 H   0  0  0  0  0  0
    5.4449   12.1825    1.7635 H   0  0  0  0  0  0
    3.1313   11.7275    1.1351 H   0  0  0  0  0  0
    2.1485   10.6210    2.0470 H   0  0  0  0  0  0
    1.0061   11.4059    4.1082 H   0  0  0  0  0  0
    2.5009   11.9516    4.8305 H   0  0  0  0  0  0
    0.6635   13.2478    5.8150 H   0  0  0  0  0  0
    0.0251   13.6782    4.2452 H   0  0  0  0  0  0
    2.8449   15.8607    3.5317 H   0  0  0  0  0  0
    1.3437   15.2619    2.8670 H   0  0  0  0  0  0
    3.9478   13.6819    3.2935 H   0  0  0  0  0  0
    3.2078   14.0726    1.7622 H   0  0  0  0  0  0
    3.0046    9.4860    4.0662 H   0  0  0  0  0  0
    4.5879    8.0837    6.0225 H   0  0  0  0  0  0
    4.1347    9.1382    7.7135 H   0  0  0  0  0  0
    2.8654    8.1746    8.3618 H   0  0  0  0  0  0
  1  2  1  0  0  0
  1 35  1  0  0  0
  1 36  1  0  0  0
  1 37  1  0  0  0
  2  3  2  0  0  0
  2 10  1  0  0  0
  3  4  1  0  0  0
  4  5  2  0  0  0
  4  9  1  0  0  0
  5  6  1  0  0  0
  5 38  1  0  0  0
  6  7  2  0  0  0
  6 11  1  0  0  0
  7  8  1  0  0  0
  7 39  1  0  0  0
  8  9  2  0  0  0
  8 40  1  0  0  0
  9 10  1  0  0  0
 10 41  1  0  0  0
 11 12  1  0  0  0
 11 33  1  0  0  0
 12 13  2  0  0  0
 13 14  1  0  0  0
 13 42  1  0  0  0
 14 15  1  0  0  0
 14 33  2  0  0  0
 15 16  2  0  0  0
 15 17  1  0  0  0
 17 18  2  0  0  0
 17 32  1  0  0  0
 18 19  1  0  0  0
 18 43  1  0  0  0
 19 20  2  0  0  0
 19 31  1  0  0  0
 20 21  1  0  0  0
 20 44  1  0  0  0
 21 22  2  0  0  0
 21 45  1  0  0  0
 22 23  1  0  0  0
 22 30  1  0  0  0
 23 24  1  0  0  0
 23 46  1  0  0  0
 23 47  1  0  0  0
 24 25  1  0  0  0
 24 29  1  0  0  0
 25 26  1  0  0  0
 25 48  1  0  0  0
 25 49  1  0  0  0
 26 27  1  0  0  0
 26 50  1  0  0  0
 26 51  1  0  0  0
 27 28  1  0  0  0
 28 29  1  0  0  0
 28 52  1  0  0  0
 28 53  1  0  0  0
 29 54  1  0  0  0
 29 55  1  0  0  0
 30 31  2  0  0  0
 30 56  1  0  0  0
 31 32  1  0  0  0
 32 57  1  0  0  0
 33 34  1  0  0  0
 34 58  1  0  0  0
 34 59  1  0  0  0
M  END
> <s_m_entry_id>
32184

> <s_m_entry_name>
dock_pv.447

> <s_m_Source_Path>
/home/csk/Desktop/cluster/DUD-E-result/src

> <s_m_Source_File>
dock_pv.maegz

> <i_m_Source_File_Index>
447

> <chembl_id>
CHEMBL3681278

> <chembl_pref_name>
None

> <i_lp_mmshare_version>
53161

> <r_lp_tautomer_probability>
1

> <s_lp_Force_Field>
OPLS_2005

> <r_lp_Energy>
33.801975

> <b_lp_Chiralities_Consistent>
1

> <s_lp_Variant>
CHEMBL267_lig2573-1

> <s_i_glide_gridfile>
glide-grid_3el8

> <i_i_glide_lignum>
2885

> <i_i_glide_rotatable_bonds>
5

> <r_i_docking_score>
-7.08883271338897

> <r_i_glide_ligand_efficiency>
-0.208495079805558

> <r_i_glide_ligand_efficiency_sa>
-0.675443120252424

> <r_i_glide_ligand_efficiency_ln>
-1.56612198141024

> <r_i_glide_gscore>
-7.08883271338897

> <r_i_glide_lipo>
-3.36424990077786

> <r_i_glide_hbond>
-0.0650911303073876

> <r_i_glide_metal>
0

> <r_i_glide_rewards>
-1.23827880784855

> <r_i_glide_evdw>
-47.9701805114746

> <r_i_glide_ecoul>
-3.20539093017578

> <r_i_glide_erotb>
0.484109206512499

> <r_i_glide_esite>
-0.0260044158675775

> <r_i_glide_emodel>
-68.6290166633508

> <r_i_glide_energy>
-51.1755714416504

> <r_i_glide_einternal>
10.1410827636719

> <i_i_glide_confnum>
2

> <i_i_glide_posenum>
69

> <r_i_glide_eff_state_penalty>
0

> <s_user_duplicate_titles>
CHEMBL267_lig2573

> <i_f3d_flags>
0

> <s_m_subgroup_title>
dock_pv

> <s_m_subgroupid>
dock_pv

> <b_m_subgroup_collapsed>
1

$$$$
CHEMBL267_lig573
                    3D
 Schrodinger Suite 2021-1.
 48 51  0  0  1  0            999 V2000
    7.1248    8.7163    6.1212 N   0  0  0  0  0  0
    6.9607    8.0552    7.2906 C   0  0  0  0  0  0
    5.7937    7.6994    7.8806 N   0  0  0  0  0  0
    6.0033    9.0720    5.4520 C   0  0  0  0  0  0
    4.7177    8.7789    5.9507 C   0  0  0  0  0  0
    4.6999    8.0711    7.1921 C   0  0  0  0  0  0
    3.3709    7.8472    7.5395 N   0  0  0  0  0  0
    2.5891    8.3870    6.5405 C   0  0  0  0  0  0
    3.3464    8.9940    5.5564 C   0  0  0  0  0  0
    2.8057    9.7343    4.3827 C   0  0  0  0  0  0
    3.3459   10.9661    4.0014 C   0  0  0  0  0  0
    2.8411   11.6361    2.8899 C   0  0  0  0  0  0
    1.7905   11.0763    2.1661 C   0  0  0  0  0  0
    1.2352    9.8568    2.5502 C   0  0  0  0  0  0
    1.7451    9.1835    3.6558 C   0  0  0  0  0  0
    2.8534    7.2811    8.7266 C   0  0  0  0  0  0
    3.4422    7.5752    9.9611 C   0  0  0  0  0  0
    2.9184    7.0369   11.1322 C   0  0  0  0  0  0
    1.7986    6.2123   11.0773 C   0  0  0  0  0  0
    1.2418    5.8382    9.8491 C   0  0  0  0  0  0
    1.7678    6.3936    8.6718 C   0  0  0  0  0  0
    6.1960    9.7345    4.2468 N   0  0  0  0  0  0
    0.1104    4.8070    9.8553 C   0  0  0  0  0  0
   -0.2054    4.2413    8.5425 N   0  0  1  0  0  0
   -0.9748    2.9962    8.6323 C   0  0  0  0  0  0
   -2.3688    3.1753    9.2766 C   0  0  0  0  0  0
   -3.1099    1.9732    9.1880 O   0  0  0  0  0  0
    7.8665    7.7804    7.8126 H   0  0  0  0  0  0
    1.5137    8.3417    6.6322 H   0  0  0  0  0  0
    4.1443   11.4163    4.5739 H   0  0  0  0  0  0
    3.2570   12.5881    2.5931 H   0  0  0  0  0  0
    1.3991   11.5947    1.3038 H   0  0  0  0  0  0
    0.4139    9.4369    1.9880 H   0  0  0  0  0  0
    1.3190    8.2319    3.9396 H   0  0  0  0  0  0
    4.2939    8.2363   10.0271 H   0  0  0  0  0  0
    3.3732    7.2678   12.0855 H   0  0  0  0  0  0
    1.3987    5.8113   11.9968 H   0  0  0  0  0  0
    1.3470    6.1213    7.7148 H   0  0  0  0  0  0
    5.3941   10.0015    3.6955 H   0  0  0  0  0  0
    7.1402    9.9355    3.9550 H   0  0  0  0  0  0
   -0.7819    5.3229   10.2136 H   0  0  0  0  0  0
    0.3373    4.0290   10.5881 H   0  0  0  0  0  0
   -0.8125    4.9168    8.0796 H   0  0  0  0  0  0
   -0.3827    2.2673    9.1874 H   0  0  0  0  0  0
   -1.0932    2.6301    7.6124 H   0  0  0  0  0  0
   -2.9334    3.9693    8.7891 H   0  0  0  0  0  0
   -2.2780    3.4535   10.3269 H   0  0  0  0  0  0
   -3.4018    1.8368    8.2703 H   0  0  0  0  0  0
  1  2  2  0  0  0
  1  4  1  0  0  0
  2  3  1  0  0  0
  2 28  1  0  0  0
  3  6  2  0  0  0
  4  5  2  0  0  0
  4 22  1  0  0  0
  5  9  1  0  0  0
  5  6  1  0  0  0
  6  7  1  0  0  0
  7  8  1  0  0  0
  7 16  1  0  0  0
  8  9  2  0  0  0
  8 29  1  0  0  0
  9 10  1  0  0  0
 10 15  1  0  0  0
 10 11  2  0  0  0
 11 12  1  0  0  0
 11 30  1  0  0  0
 12 13  2  0  0  0
 12 31  1  0  0  0
 13 14  1  0  0  0
 13 32  1  0  0  0
 14 15  2  0  0  0
 14 33  1  0  0  0
 15 34  1  0  0  0
 16 17  2  0  0  0
 16 21  1  0  0  0
 17 18  1  0  0  0
 17 35  1  0  0  0
 18 19  2  0  0  0
 18 36  1  0  0  0
 19 20  1  0  0  0
 19 37  1  0  0  0
 20 21  2  0  0  0
 20 23  1  0  0  0
 21 38  1  0  0  0
 22 39  1  0  0  0
 22 40  1  0  0  0
 23 24  1  0  0  0
 23 41  1  0  0  0
 23 42  1  0  0  0
 24 25  1  0  0  0
 24 43  1  0  0  0
 25 26  1  0  0  0
 25 44  1  0  0  0
 25 45  1  0  0  0
 26 27  1  0  0  0
 26 46  1  0  0  0
 26 47  1  0  0  0
 27 48  1  0  0  0
M  END
> <s_m_entry_id>
32185

> <s_m_entry_name>
dock_pv.448

> <s_m_Source_Path>
/home/csk/Desktop/cluster/DUD-E-result/src

> <s_m_Source_File>
dock_pv.maegz

> <i_m_Source_File_Index>
448

> <chembl_id>
CHEMBL176702

> <chembl_pref_name>
None

> <i_lp_mmshare_version>
53161

> <r_lp_tautomer_probability>
1

> <s_lp_Force_Field>
OPLS_2005

> <r_lp_Energy>
27.301374

> <b_lp_Chiralities_Consistent>
1

> <s_lp_Variant>
CHEMBL267_lig573-1

> <s_i_glide_gridfile>
glide-grid_3el8

> <i_i_glide_lignum>
676

> <i_i_glide_rotatable_bonds>
7

> <r_i_docking_score>
-7.08769036321949

> <r_i_glide_ligand_efficiency>
-0.262507050489611

> <r_i_glide_ligand_efficiency_sa>
-0.787521150603652

> <r_i_glide_ligand_efficiency_ln>
-1.64989746684956

> <r_i_glide_gscore>
-7.08769036321949

> <r_i_glide_lipo>
-2.62974223332185

> <r_i_glide_hbond>
-0.456

> <r_i_glide_metal>
0

> <r_i_glide_rewards>
-1.89976608537864

> <r_i_glide_evdw>
-42.6025657653809

> <r_i_glide_ecoul>
-5.7484712600708

> <r_i_glide_erotb>
0.890216932760657

> <r_i_glide_esite>
0

> <r_i_glide_emodel>
-67.4394022683581

> <r_i_glide_energy>
-48.3510370254517

> <r_i_glide_einternal>
4.65485095977783

> <i_i_glide_confnum>
55

> <i_i_glide_posenum>
251

> <r_i_glide_eff_state_penalty>
0

> <s_user_duplicate_titles>
CHEMBL267_lig573,291250

> <i_f3d_flags>
0

> <s_m_subgroup_title>
dock_pv

> <s_m_subgroupid>
dock_pv

> <b_m_subgroup_collapsed>
1

$$$$
CHEMBL267_lig3129
                    3D
 Schrodinger Suite 2021-1.
 48 51  0  0  1  0            999 V2000
    0.8718    6.1409    7.3300 N   0  0  0  0  0  0
    1.2936    6.7554    6.1976 C   0  0  0  0  0  0
    2.4590    7.4373    6.0229 N   0  0  0  0  0  0
    1.6808    6.1808    8.4199 C   0  0  0  0  0  0
    2.9189    6.8338    8.3469 C   0  0  0  0  0  0
    3.2407    7.4371    7.1102 C   0  0  0  0  0  0
    4.4993    7.9933    7.2760 N   0  0  0  0  0  0
    4.9206    7.8370    8.5500 N   0  0  0  0  0  0
    4.0316    7.1194    9.1879 C   0  0  0  0  0  0
    1.2723    5.6034    9.6313 N   0  0  0  0  0  0
    5.2943    8.7964    6.3374 C   0  0  0  0  0  0
    6.6645    8.1998    5.8769 C   0  0  2  0  0  0
    7.5304    7.3203    7.1881 Cl  0  0  0  0  0  0
    7.5744    9.2386    5.1880 C   0  0  0  0  0  0
    8.9690    9.0751    5.1880 C   0  0  0  0  0  0
    9.7980    9.9974    4.5565 C   0  0  0  0  0  0
    9.2368   11.0889    3.9023 C   0  0  0  0  0  0
    7.8566   11.2638    3.8747 C   0  0  0  0  0  0
    7.0292   10.3418    4.5105 C   0  0  0  0  0  0
   -0.1299    5.2551    9.8712 C   0  0  0  0  0  0
   -0.5787    3.8849    9.3623 C   0  0  0  0  0  0
    0.2859    2.9431    8.7880 C   0  0  0  0  0  0
   -0.2037    1.6971    8.3880 C   0  0  0  0  0  0
   -1.5556    1.3833    8.5442 C   0  0  0  0  0  0
   -2.4074    2.2976    9.1657 C   0  0  0  0  0  0
   -1.9212    3.5428    9.5411 C   0  0  0  0  0  0
   -4.2031    1.8344    9.5880 Br  0  0  0  0  0  0
    0.1876    6.6399    4.8282 S   0  0  0  0  0  0
    0.8197    7.6975    3.5031 C   0  0  0  0  0  0
    4.1824    6.8322   10.2199 H   0  0  0  0  0  0
    1.8487    5.7895   10.4386 H   0  0  0  0  0  0
    5.4634    9.7703    6.7880 H   0  0  0  0  0  0
    4.6680    8.9748    5.4626 H   0  0  0  0  0  0
    6.4547    7.4368    5.1287 H   0  0  0  0  0  0
    9.4325    8.2370    5.6821 H   0  0  0  0  0  0
   10.8701    9.8618    4.5721 H   0  0  0  0  0  0
    9.8779   11.8049    3.4088 H   0  0  0  0  0  0
    7.4292   12.1116    3.3587 H   0  0  0  0  0  0
    5.9636   10.5023    4.4575 H   0  0  0  0  0  0
   -0.3179    5.3032   10.9447 H   0  0  0  0  0  0
   -0.7752    6.0127    9.4237 H   0  0  0  0  0  0
    1.3352    3.1630    8.6576 H   0  0  0  0  0  0
    0.4643    0.9665    7.9579 H   0  0  0  0  0  0
   -1.9324    0.4179    8.2399 H   0  0  0  0  0  0
   -2.6020    4.2370    9.9990 H   0  0  0  0  0  0
    0.0187    7.8715    2.7880 H   0  0  0  0  0  0
    1.1390    8.6638    3.8928 H   0  0  0  0  0  0
    1.6577    7.2231    2.9921 H   0  0  0  0  0  0
  1  2  2  0  0  0
  1  4  1  0  0  0
  2 28  1  0  0  0
  2  3  1  0  0  0
  3  6  2  0  0  0
  4  5  2  0  0  0
  4 10  1  0  0  0
  5  9  1  0  0  0
  5  6  1  0  0  0
  6  7  1  0  0  0
  7  8  1  0  0  0
  7 11  1  0  0  0
  8  9  2  0  0  0
  9 30  1  0  0  0
 10 20  1  0  0  0
 10 31  1  0  0  0
 11 12  1  0  0  0
 11 32  1  0  0  0
 11 33  1  0  0  0
 12 14  1  0  0  0
 12 13  1  0  0  0
 12 34  1  0  0  0
 14 15  2  0  0  0
 14 19  1  0  0  0
 15 16  1  0  0  0
 15 35  1  0  0  0
 16 17  2  0  0  0
 16 36  1  0  0  0
 17 18  1  0  0  0
 17 37  1  0  0  0
 18 19  2  0  0  0
 18 38  1  0  0  0
 19 39  1  0  0  0
 20 21  1  0  0  0
 20 40  1  0  0  0
 20 41  1  0  0  0
 21 22  2  0  0  0
 21 26  1  0  0  0
 22 23  1  0  0  0
 22 42  1  0  0  0
 23 24  2  0  0  0
 23 43  1  0  0  0
 24 25  1  0  0  0
 24 44  1  0  0  0
 25 26  2  0  0  0
 25 27  1  0  0  0
 26 45  1  0  0  0
 28 29  1  0  0  0
 29 46  1  0  0  0
 29 47  1  0  0  0
 29 48  1  0  0  0
M  END
> <s_m_entry_id>
32186

> <s_m_entry_name>
dock_pv.449

> <s_m_Source_Path>
/home/csk/Desktop/cluster/DUD-E-result/src

> <s_m_Source_File>
dock_pv.maegz

> <i_m_Source_File_Index>
449

> <chembl_id>
CHEMBL1629808

> <chembl_pref_name>
None

> <i_lp_mmshare_version>
53161

> <r_lp_tautomer_probability>
1

> <s_lp_Force_Field>
OPLS_2005

> <r_lp_Energy>
7.671416

> <b_lp_Chiralities_Consistent>
1

> <s_lp_Variant>
CHEMBL267_lig3129-1

> <s_i_glide_gridfile>
glide-grid_3el8

> <i_i_glide_lignum>
3621

> <i_i_glide_rotatable_bonds>
7

> <r_i_docking_score>
-7.08179379050981

> <r_i_glide_ligand_efficiency>
-0.244199785879648

> <r_i_glide_ligand_efficiency_sa>
-0.75025911014481

> <r_i_glide_ligand_efficiency_ln>
-1.6215511992307

> <r_i_glide_gscore>
-7.08179379050981

> <r_i_glide_lipo>
-3.83380583369475

> <r_i_glide_hbond>
0

> <r_i_glide_metal>
0

> <r_i_glide_rewards>
-0.842229188128317

> <r_i_glide_evdw>
-48.5660285949707

> <r_i_glide_ecoul>
-3.2543888092041

> <r_i_glide_erotb>
0.510700982442411

> <r_i_glide_esite>
0

> <r_i_glide_emodel>
-65.3866929560914

> <r_i_glide_energy>
-51.8204174041748

> <r_i_glide_einternal>
14.7735681533813

> <i_i_glide_confnum>
26

> <i_i_glide_posenum>
255

> <r_i_glide_eff_state_penalty>
0

> <s_user_duplicate_titles>
CHEMBL267_lig3129

> <i_f3d_flags>
0

> <s_m_subgroup_title>
dock_pv

> <s_m_subgroupid>
dock_pv

> <b_m_subgroup_collapsed>
1

$$$$
CHEMBL267_lig3406
                    3D
 Schrodinger Suite 2021-1.
 48 51  0  0  1  0            999 V2000
    3.1529    7.9008    7.4644 C   0  0  0  0  0  0
    2.7944    8.9939    6.6213 C   0  0  0  0  0  0
    1.4900    9.2048    6.6288 N   0  0  0  0  0  0
    0.9824    8.2579    7.3590 C   0  0  0  0  0  0
    1.9153    7.4307    7.9354 N   0  0  0  0  0  0
    1.6081    6.2447    8.7712 C   0  0  2  0  0  0
    1.6758    5.0077    7.8521 C   0  0  0  0  0  0
    1.5466    3.7158    8.6711 C   0  0  0  0  0  0
    0.1849    3.6423    9.3741 C   0  0  1  0  0  0
   -0.0452    4.9179   10.2268 C   0  0  0  0  0  0
    0.2092    6.2445    9.4563 C   0  0  0  0  0  0
   -0.8410    3.4375    8.4210 O   0  0  0  0  0  0
    4.5241    7.2934    7.7641 C   0  0  0  0  0  0
    5.5999    7.9872    7.2855 N   0  0  0  0  0  0
    6.8385    7.4192    7.4175 C   0  0  0  0  0  0
    7.0990    6.2153    7.9807 N   0  0  0  0  0  0
    6.0253    5.5320    8.4260 C   0  0  0  0  0  0
    4.7363    6.0509    8.3892 C   0  0  0  0  0  0
    7.9559    8.0373    6.8948 O   0  0  0  0  0  0
    7.7846    9.0372    5.8989 C   0  0  0  0  0  0
    3.6149    9.8718    5.7105 C   0  0  0  0  0  0
    4.5151    9.3038    4.8066 C   0  0  0  0  0  0
    5.2419   10.0978    3.9226 C   0  0  0  0  0  0
    5.0855   11.4797    3.9498 C   0  0  0  0  0  0
    4.1887   12.0672    4.8377 C   0  0  0  0  0  0
    3.4454   11.2639    5.7017 C   0  0  0  0  0  0
    5.8092   12.2525    3.1116 F   0  0  0  0  0  0
   -0.0711    8.0788    7.4855 H   0  0  0  0  0  0
    2.3439    6.2779    9.5726 H   0  0  0  0  0  0
    0.8196    5.0390    7.1868 H   0  0  0  0  0  0
    2.5825    4.9502    7.2502 H   0  0  0  0  0  0
    2.3347    3.6669    9.4233 H   0  0  0  0  0  0
    1.6780    2.8503    8.0215 H   0  0  0  0  0  0
    0.1975    2.7484    9.9884 H   0  0  0  0  0  0
    0.6041    4.8772   11.1026 H   0  0  0  0  0  0
   -1.0583    4.9159   10.6264 H   0  0  0  0  0  0
    0.1699    7.0369   10.1956 H   0  0  0  0  0  0
   -0.6016    6.4301    8.7525 H   0  0  0  0  0  0
   -1.6811    3.6941    8.8147 H   0  0  0  0  0  0
    6.1981    4.5569    8.8480 H   0  0  0  0  0  0
    3.9813    5.4155    8.7994 H   0  0  0  0  0  0
    8.7569    9.4193    5.5881 H   0  0  0  0  0  0
    7.1900    9.8796    6.2543 H   0  0  0  0  0  0
    7.3116    8.6118    5.0148 H   0  0  0  0  0  0
    4.6531    8.2369    4.7887 H   0  0  0  0  0  0
    5.9320    9.6487    3.2258 H   0  0  0  0  0  0
    4.0670   13.1398    4.8420 H   0  0  0  0  0  0
    2.7466   11.7316    6.3769 H   0  0  0  0  0  0
  1  5  1  0  0  0
  1 13  1  0  0  0
  1  2  2  0  0  0
  2  3  1  0  0  0
  2 21  1  0  0  0
  3  4  2  0  0  0
  4  5  1  0  0  0
  4 28  1  0  0  0
  5  6  1  0  0  0
  6 11  1  0  0  0
  6  7  1  0  0  0
  6 29  1  0  0  0
  7  8  1  0  0  0
  7 30  1  0  0  0
  7 31  1  0  0  0
  8  9  1  0  0  0
  8 32  1  0  0  0
  8 33  1  0  0  0
  9 10  1  0  0  0
  9 12  1  0  0  0
  9 34  1  0  0  0
 10 11  1  0  0  0
 10 35  1  0  0  0
 10 36  1  0  0  0
 11 37  1  0  0  0
 11 38  1  0  0  0
 12 39  1  0  0  0
 13 14  2  0  0  0
 13 18  1  0  0  0
 14 15  1  0  0  0
 15 16  2  0  0  0
 15 19  1  0  0  0
 16 17  1  0  0  0
 17 18  2  0  0  0
 17 40  1  0  0  0
 18 41  1  0  0  0
 19 20  1  0  0  0
 20 42  1  0  0  0
 20 43  1  0  0  0
 20 44  1  0  0  0
 21 22  2  0  0  0
 21 26  1  0  0  0
 22 23  1  0  0  0
 22 45  1  0  0  0
 23 24  2  0  0  0
 23 46  1  0  0  0
 24 25  1  0  0  0
 24 27  1  0  0  0
 25 26  2  0  0  0
 25 47  1  0  0  0
 26 48  1  0  0  0
M  END
> <s_m_entry_id>
32187

> <s_m_entry_name>
dock_pv.450

> <s_m_Source_Path>
/home/csk/Desktop/cluster/DUD-E-result/src

> <s_m_Source_File>
dock_pv.maegz

> <i_m_Source_File_Index>
450

> <chembl_id>
CHEMBL256835

> <chembl_pref_name>
None

> <i_lp_mmshare_version>
53161

> <r_lp_tautomer_probability>
1

> <s_lp_Force_Field>
OPLS_2005

> <r_lp_Energy>
25.848998

> <b_lp_Chiralities_Consistent>
1

> <s_lp_Variant>
CHEMBL267_lig3406-2

> <s_i_glide_gridfile>
glide-grid_3el8

> <i_i_glide_lignum>
4064

> <i_i_glide_rotatable_bonds>
5

> <r_i_docking_score>
-7.07982372581722

> <r_i_glide_ligand_efficiency>
-0.262215693548786

> <r_i_glide_ligand_efficiency_sa>
-0.786647079782138

> <r_i_glide_ligand_efficiency_ln>
-1.64806624335396

> <r_i_glide_gscore>
-7.07982372581722

> <r_i_glide_lipo>
-2.8074920978231

> <r_i_glide_hbond>
-0.253690325865472

> <r_i_glide_metal>
0

> <r_i_glide_rewards>
-2.27600284081671

> <r_i_glide_evdw>
-34.3608436584473

> <r_i_glide_ecoul>
-2.96429133415222

> <r_i_glide_erotb>
0.425932561610475

> <r_i_glide_esite>
-0.0058851398772188

> <r_i_glide_emodel>
-50.1540685495154

> <r_i_glide_energy>
-37.3251349925995

> <r_i_glide_einternal>
4.23801374435425

> <i_i_glide_confnum>
17

> <i_i_glide_posenum>
218

> <r_i_glide_eff_state_penalty>
0

> <s_user_duplicate_titles>
CHEMBL267_lig3406

> <i_f3d_flags>
0

> <s_m_subgroup_title>
dock_pv

> <s_m_subgroupid>
dock_pv

> <b_m_subgroup_collapsed>
1

$$$$
CHEMBL267_lig880
                    3D
 Schrodinger Suite 2021-1.
 45 48  0  0  1  0            999 V2000
    6.0135   10.3650    4.0882 C   0  0  0  0  0  0
    5.1321   10.7987    3.0628 C   0  0  0  0  0  0
    7.4003   10.6369    4.1467 N   0  0  0  0  0  0
    5.4661    9.5665    5.1539 C   0  0  0  0  0  0
    3.2238    9.8613    4.2431 N   0  0  0  0  0  0
    4.0534    9.3624    5.1892 C   0  0  0  0  0  0
    5.5778   11.3829    1.7465 C   0  0  0  0  0  0
    3.7677   10.5366    3.2129 C   0  0  0  0  0  0
    8.2352   11.6760    3.7033 C   0  0  0  0  0  0
    9.6152   11.4358    3.5784 C   0  0  0  0  0  0
    6.2430    8.9701    6.1943 C   0  0  0  0  0  0
   10.4666   12.4568    3.1511 C   0  0  0  0  0  0
    3.6381    7.3950    8.4088 C   0  0  0  0  0  0
    2.4238    6.8040    8.4152 C   0  0  0  0  0  0
    3.4681    8.6273    6.2422 C   0  0  0  0  0  0
    6.6116   11.0371    1.1872 O   0  0  0  0  0  0
    0.1968    5.4377   11.8009 N   0  0  0  0  0  0
    7.7393   12.9587    3.4381 C   0  0  0  0  0  0
    4.2534    8.0807    7.2582 C   0  0  0  0  0  0
    9.9582   13.7246    2.8684 C   0  0  0  0  0  0
   10.3127    9.8996    3.9881 Cl  0  0  0  0  0  0
    4.7058   12.2659    1.1882 O   0  0  0  0  0  0
    5.6368    8.2368    7.2118 C   0  0  0  0  0  0
    1.7230    6.2701    9.5963 C   0  0  0  0  0  0
    8.5945   13.9768    3.0158 C   0  0  0  0  0  0
   11.0189   14.9848    2.3589 Cl  0  0  0  0  0  0
   -0.1165    5.0372   10.5440 C   0  0  0  0  0  0
    1.2800    6.2369   11.9634 C   0  0  0  0  0  0
    0.6101    5.4380    9.4202 C   0  0  0  0  0  0
    2.0841    6.6380   10.8992 C   0  0  0  0  0  0
    7.8998    9.9919    4.7404 H   0  0  0  0  0  0
    3.0526   10.8345    2.4585 H   0  0  0  0  0  0
    7.3148    9.0886    6.2088 H   0  0  0  0  0  0
   11.5276   12.2719    3.0527 H   0  0  0  0  0  0
    4.2083    7.4311    9.3269 H   0  0  0  0  0  0
    1.8693    6.7476    7.4903 H   0  0  0  0  0  0
    2.3941    8.5199    6.2584 H   0  0  0  0  0  0
    6.6903   13.1801    3.5676 H   0  0  0  0  0  0
    4.9989   12.4742    0.2804 H   0  0  0  0  0  0
    6.2541    7.8149    7.9915 H   0  0  0  0  0  0
    8.1987   14.9609    2.8132 H   0  0  0  0  0  0
   -0.9955    4.4162   10.4419 H   0  0  0  0  0  0
    1.5088    6.5414   12.9757 H   0  0  0  0  0  0
    0.2906    5.1249    8.4388 H   0  0  0  0  0  0
    2.9288    7.2800   11.0943 H   0  0  0  0  0  0
  1  2  2  0  0  0
  1  3  1  0  0  0
  1  4  1  0  0  0
  2  7  1  0  0  0
  2  8  1  0  0  0
  3  9  1  0  0  0
  3 31  1  0  0  0
  4  6  1  0  0  0
  4 11  2  0  0  0
  5  6  1  0  0  0
  5  8  2  0  0  0
  6 15  2  0  0  0
  7 16  2  0  0  0
  7 22  1  0  0  0
  8 32  1  0  0  0
  9 10  1  0  0  0
  9 18  2  0  0  0
 10 12  2  0  0  0
 10 21  1  0  0  0
 11 23  1  0  0  0
 11 33  1  0  0  0
 12 20  1  0  0  0
 12 34  1  0  0  0
 13 19  1  0  0  0
 13 14  2  0  0  0
 13 35  1  0  0  0
 14 24  1  0  0  0
 14 36  1  0  0  0
 15 19  1  0  0  0
 15 37  1  0  0  0
 17 28  1  0  0  0
 17 27  2  0  0  0
 18 25  1  0  0  0
 18 38  1  0  0  0
 19 23  2  0  0  0
 20 25  2  0  0  0
 20 26  1  0  0  0
 22 39  1  0  0  0
 23 40  1  0  0  0
 24 29  2  0  0  0
 24 30  1  0  0  0
 25 41  1  0  0  0
 27 29  1  0  0  0
 27 42  1  0  0  0
 28 30  2  0  0  0
 28 43  1  0  0  0
 29 44  1  0  0  0
 30 45  1  0  0  0
M  END
> <s_m_entry_id>
32188

> <s_m_entry_name>
dock_pv.451

> <s_m_Source_Path>
/home/csk/Desktop/cluster/DUD-E-result/src

> <s_m_Source_File>
dock_pv.maegz

> <i_m_Source_File_Index>
451

> <chembl_id>
CHEMBL69599

> <chembl_pref_name>
None

> <i_lp_mmshare_version>
53161

> <r_lp_tautomer_probability>
1

> <s_lp_Force_Field>
OPLS_2005

> <r_lp_Energy>
30.82008

> <b_lp_Chiralities_Consistent>
1

> <s_lp_Variant>
CHEMBL267_lig880-1

> <s_i_glide_gridfile>
glide-grid_3el8

> <i_i_glide_lignum>
1011

> <i_i_glide_rotatable_bonds>
6

> <r_i_docking_score>
-7.07880613383845

> <r_i_glide_ligand_efficiency>
-0.235960204461282

> <r_i_glide_ligand_efficiency_sa>
-0.73318321658238

> <r_i_glide_ligand_efficiency_ln>
-1.60838188337853

> <r_i_glide_gscore>
-7.07880613383845

> <r_i_glide_lipo>
-3.47563927708612

> <r_i_glide_hbond>
-0.304

> <r_i_glide_metal>
0

> <r_i_glide_rewards>
-0.610997329328676

> <r_i_glide_evdw>
-39.0001220703125

> <r_i_glide_ecoul>
-7.99427604675293

> <r_i_glide_erotb>
0.523554664946617

> <r_i_glide_esite>
-0.0625766818417102

> <r_i_glide_emodel>
-64.373489408234

> <r_i_glide_energy>
-46.9943981170654

> <r_i_glide_einternal>
1.6874692440033

> <i_i_glide_confnum>
5

> <i_i_glide_posenum>
216

> <r_i_glide_eff_state_penalty>
0

> <s_user_duplicate_titles>
CHEMBL267_lig880

> <i_f3d_flags>
0

> <s_m_subgroup_title>
dock_pv

> <s_m_subgroupid>
dock_pv

> <b_m_subgroup_collapsed>
1

$$$$
CHEMBL267_lig2329
                    3D
 Schrodinger Suite 2021-1.
 52 55  0  0  1  0            999 V2000
    4.5801    9.8315    2.8241 N   0  0  0  0  0  0
    3.5980   10.8229    3.2249 C   0  0  1  0  0  0
    2.1679   10.4776    2.7539 C   0  0  0  0  0  0
    1.1717   11.6111    3.0779 C   0  0  0  0  0  0
    1.1988   12.0137    4.5681 C   0  0  0  0  0  0
    2.6295   12.3363    5.0444 C   0  0  0  0  0  0
    3.6295   11.1980    4.7387 C   0  0  1  0  0  0
    3.3260   10.0417    5.6016 N   0  0  0  0  0  0
    4.3169    9.1828    6.0980 C   0  0  0  0  0  0
    5.6022    9.3825    5.7127 N   0  0  0  0  0  0
    6.5307    8.5495    6.2237 C   0  0  0  0  0  0
    6.2228    7.5385    7.1373 C   0  0  0  0  0  0
    7.3429    6.6367    7.5880 C   0  0  0  0  0  0
    8.5129    7.0070    7.5879 O   0  0  0  0  0  0
    7.0105    5.4112    7.9879 N   0  0  0  0  0  0
    4.8645    7.4408    7.5402 C   0  0  0  0  0  0
    4.4622    6.5362    8.5411 N   0  0  0  0  0  0
    3.2350    6.3155    9.1795 C   0  0  0  0  0  0
    2.9686    6.9607   10.3889 C   0  0  0  0  0  0
    1.8240    6.6371   11.1189 C   0  0  0  0  0  0
    0.9229    5.6968   10.6342 C   0  0  0  0  0  0
    1.1916    5.0184    9.4400 C   0  0  0  0  0  0
    2.3504    5.3369    8.7101 C   0  0  0  0  0  0
    0.3272    3.9780    9.0296 N   0  0  0  0  0  0
    0.7892    2.8221    8.5264 N   0  0  0  0  0  0
   -0.3012    2.1102    8.3880 C   0  0  0  0  0  0
   -1.4055    2.8589    8.7880 C   0  0  0  0  0  0
   -1.0021    4.0244    9.2239 N   0  0  0  0  0  0
    3.9077    8.2380    6.9853 N   0  0  0  0  0  0
    5.4741   10.0789    3.2245 H   0  0  0  0  0  0
    4.3282    8.9514    3.2519 H   0  0  0  0  0  0
    3.8809   11.7357    2.6959 H   0  0  0  0  0  0
    2.1635   10.2952    1.6778 H   0  0  0  0  0  0
    1.8308    9.5524    3.2242 H   0  0  0  0  0  0
    1.4095   12.4827    2.4658 H   0  0  0  0  0  0
    0.1653   11.3086    2.7876 H   0  0  0  0  0  0
    0.5493   12.8746    4.7311 H   0  0  0  0  0  0
    0.7842   11.2059    5.1728 H   0  0  0  0  0  0
    2.6232   12.5588    6.1125 H   0  0  0  0  0  0
    2.9731   13.2508    4.5584 H   0  0  0  0  0  0
    4.6348   11.5564    4.9670 H   0  0  0  0  0  0
    2.3630    9.7844    5.7526 H   0  0  0  0  0  0
    7.5420    8.7058    5.8706 H   0  0  0  0  0  0
    7.7014    4.7854    8.3784 H   0  0  0  0  0  0
    6.0867    5.0546    7.7941 H   0  0  0  0  0  0
    5.2339    6.0672    8.9917 H   0  0  0  0  0  0
    3.6700    7.6795   10.7866 H   0  0  0  0  0  0
    1.6337    7.1018   12.0733 H   0  0  0  0  0  0
    0.0451    5.4592   11.2206 H   0  0  0  0  0  0
    2.5833    4.8036    7.7996 H   0  0  0  0  0  0
   -0.2999    1.0988    8.0065 H   0  0  0  0  0  0
   -2.4445    2.5574    8.7780 H   0  0  0  0  0  0
  1  2  1  0  0  0
  1 30  1  0  0  0
  1 31  1  0  0  0
  2  3  1  0  0  0
  2  7  1  0  0  0
  2 32  1  0  0  0
  3  4  1  0  0  0
  3 33  1  0  0  0
  3 34  1  0  0  0
  4  5  1  0  0  0
  4 35  1  0  0  0
  4 36  1  0  0  0
  5  6  1  0  0  0
  5 37  1  0  0  0
  5 38  1  0  0  0
  6  7  1  0  0  0
  6 39  1  0  0  0
  6 40  1  0  0  0
  7  8  1  0  0  0
  7 41  1  0  0  0
  8  9  1  0  0  0
  8 42  1  0  0  0
  9 10  2  0  0  0
  9 29  1  0  0  0
 10 11  1  0  0  0
 11 12  2  0  0  0
 11 43  1  0  0  0
 12 13  1  0  0  0
 12 16  1  0  0  0
 13 14  2  0  0  0
 13 15  1  0  0  0
 15 44  1  0  0  0
 15 45  1  0  0  0
 16 17  1  0  0  0
 16 29  2  0  0  0
 17 18  1  0  0  0
 17 46  1  0  0  0
 18 19  2  0  0  0
 18 23  1  0  0  0
 19 20  1  0  0  0
 19 47  1  0  0  0
 20 21  2  0  0  0
 20 48  1  0  0  0
 21 22  1  0  0  0
 21 49  1  0  0  0
 22 23  2  0  0  0
 22 24  1  0  0  0
 23 50  1  0  0  0
 24 25  1  0  0  0
 24 28  1  0  0  0
 25 26  2  0  0  0
 26 27  1  0  0  0
 26 51  1  0  0  0
 27 28  2  0  0  0
 27 52  1  0  0  0
M  END
> <s_m_entry_id>
32189

> <s_m_entry_name>
dock_pv.452

> <s_m_Source_Path>
/home/csk/Desktop/cluster/DUD-E-result/src

> <s_m_Source_File>
dock_pv.maegz

> <i_m_Source_File_Index>
452

> <chembl_id>
CHEMBL2177736

> <chembl_pref_name>
None

> <i_lp_mmshare_version>
53161

> <r_lp_tautomer_probability>
0.999999624730964

> <s_lp_Force_Field>
OPLS_2005

> <r_lp_Energy>
26.290422

> <b_lp_Chiralities_Consistent>
1

> <s_lp_Variant>
CHEMBL267_lig2329-1

> <s_i_glide_gridfile>
glide-grid_3el8

> <i_i_glide_lignum>
2630

> <i_i_glide_rotatable_bonds>
6

> <r_i_docking_score>
-7.07867314092456

> <r_i_glide_ligand_efficiency>
-0.244092177273261

> <r_i_glide_ligand_efficiency_sa>
-0.749928502413188

> <r_i_glide_ligand_efficiency_ln>
-1.62083664960853

> <r_i_glide_gscore>
-7.07867314092456

> <r_i_glide_lipo>
-2.73946233024441

> <r_i_glide_hbond>
-0.485320686308509

> <r_i_glide_metal>
0

> <r_i_glide_rewards>
-1.59178852128078

> <r_i_glide_evdw>
-47.2551040649414

> <r_i_glide_ecoul>
-3.53547525405884

> <r_i_glide_erotb>
0.63097488826503

> <r_i_glide_esite>
0

> <r_i_glide_emodel>
-65.5538735870211

> <r_i_glide_energy>
-50.7905793190002

> <r_i_glide_einternal>
10.2460880279541

> <i_i_glide_confnum>
4

> <i_i_glide_posenum>
261

> <r_i_glide_eff_state_penalty>
0

> <s_user_duplicate_titles>
CHEMBL267_lig2329

> <i_f3d_flags>
0

> <s_m_subgroup_title>
dock_pv

> <s_m_subgroupid>
dock_pv

> <b_m_subgroup_collapsed>
1

$$$$
CHEMBL267_lig3740
                    3D
 Schrodinger Suite 2021-1.
 40 43  0  0  1  0            999 V2000
    2.4200    6.2228    9.6364 N   0  0  0  0  0  0
    0.3894    5.7290   10.2367 N   0  0  0  0  0  0
    1.4229    6.6270   10.4257 N   0  0  0  0  0  0
   -2.2745    0.1688    8.3872 N   0  0  0  0  0  0
   -1.3342   -0.7126    8.0101 N   0  0  0  0  0  0
   -0.1078    3.6267    9.0301 C   0  0  0  0  0  0
    0.7717    4.7915    9.3789 C   0  0  0  0  0  0
   -0.3684    1.3048    8.3881 C   0  0  0  0  0  0
   -1.7596    1.4299    8.5979 C   0  0  0  0  0  0
    0.4597    2.4226    8.5971 C   0  0  0  0  0  0
    2.0657    5.0883    8.9522 C   0  0  0  0  0  0
   -1.4952    3.7126    9.1898 C   0  0  0  0  0  0
   -2.3528    2.6366    8.9700 C   0  0  0  0  0  0
    4.1761    7.4996    8.3094 C   0  0  0  0  0  0
    3.6935    6.9347    9.6493 C   0  0  0  0  0  0
   -0.2009   -0.0637    8.0122 C   0  0  0  0  0  0
    3.3565    8.2454    7.4354 C   0  0  0  0  0  0
    5.5207    7.2994    7.9729 C   0  0  0  0  0  0
    3.9010    8.7658    6.2557 C   0  0  0  0  0  0
    5.2467    8.5715    5.9395 C   0  0  0  0  0  0
    6.0563    7.8376    6.8055 C   0  0  0  0  0  0
    1.9039    8.5713    7.7530 C   0  0  0  0  0  0
    5.8238    9.1771    4.6730 C   0  0  0  0  0  0
   -3.2504   -0.0890    8.3854 H   0  0  0  0  0  0
    1.5263    2.3380    8.4863 H   0  0  0  0  0  0
    2.7529    4.6128    8.2714 H   0  0  0  0  0  0
   -1.9353    4.6373    9.5231 H   0  0  0  0  0  0
   -3.4193    2.7274    9.1135 H   0  0  0  0  0  0
    4.4248    6.2369   10.0571 H   0  0  0  0  0  0
    3.6305    7.7611   10.3598 H   0  0  0  0  0  0
    0.7197   -0.5704    7.7703 H   0  0  0  0  0  0
    6.1685    6.7302    8.6230 H   0  0  0  0  0  0
    3.2801    9.3440    5.5865 H   0  0  0  0  0  0
    7.0996    7.6760    6.5743 H   0  0  0  0  0  0
    1.2683    7.6997    7.5950 H   0  0  0  0  0  0
    1.8033    8.8883    8.7905 H   0  0  0  0  0  0
    1.5283    9.3920    7.1423 H   0  0  0  0  0  0
    5.4720    8.6372    3.7948 H   0  0  0  0  0  0
    5.5013   10.2144    4.5738 H   0  0  0  0  0  0
    6.9139    9.1771    4.6829 H   0  0  0  0  0  0
  1  3  1  0  0  0
  1 11  1  0  0  0
  1 15  1  0  0  0
  2  3  2  0  0  0
  2  7  1  0  0  0
  4  5  1  0  0  0
  4  9  1  0  0  0
  4 24  1  0  0  0
  5 16  2  0  0  0
  6  7  1  0  0  0
  6 10  1  0  0  0
  6 12  2  0  0  0
  7 11  2  0  0  0
  8  9  1  0  0  0
  8 10  2  0  0  0
  8 16  1  0  0  0
  9 13  2  0  0  0
 10 25  1  0  0  0
 11 26  1  0  0  0
 12 13  1  0  0  0
 12 27  1  0  0  0
 13 28  1  0  0  0
 14 15  1  0  0  0
 14 17  1  0  0  0
 14 18  2  0  0  0
 15 29  1  0  0  0
 15 30  1  0  0  0
 16 31  1  0  0  0
 17 19  2  0  0  0
 17 22  1  0  0  0
 18 21  1  0  0  0
 18 32  1  0  0  0
 19 20  1  0  0  0
 19 33  1  0  0  0
 20 21  2  0  0  0
 20 23  1  0  0  0
 21 34  1  0  0  0
 22 35  1  0  0  0
 22 36  1  0  0  0
 22 37  1  0  0  0
 23 38  1  0  0  0
 23 39  1  0  0  0
 23 40  1  0  0  0
M  END
> <s_m_entry_id>
32190

> <s_m_entry_name>
dock_pv.453

> <s_m_Source_Path>
/home/csk/Desktop/cluster/DUD-E-result/src

> <s_m_Source_File>
dock_pv.maegz

> <i_m_Source_File_Index>
453

> <chembl_id>
CHEMBL1984432

> <chembl_pref_name>
None

> <i_lp_mmshare_version>
53161

> <r_lp_tautomer_probability>
0.980392156862745

> <s_lp_Force_Field>
OPLS_2005

> <r_lp_Energy>
13.070026

> <b_lp_Chiralities_Consistent>
1

> <s_lp_Variant>
CHEMBL267_lig3740-1

> <s_i_glide_gridfile>
glide-grid_3el8

> <i_i_glide_lignum>
4565

> <i_i_glide_rotatable_bonds>
3

> <r_i_docking_score>
-7.07756402954719

> <r_i_glide_ligand_efficiency>
-0.307720175197704

> <r_i_glide_ligand_efficiency_sa>
-0.87511524436425

> <r_i_glide_ligand_efficiency_ln>
-1.71141915814699

> <r_i_glide_gscore>
-7.07756402954719

> <r_i_glide_lipo>
-3.97788426004833

> <r_i_glide_hbond>
0

> <r_i_glide_metal>
0

> <r_i_glide_rewards>
-1.572788753785

> <r_i_glide_evdw>
-36.8554458618164

> <r_i_glide_ecoul>
-1.44119799137115

> <r_i_glide_erotb>
0.600666603326994

> <r_i_glide_esite>
-0.0686056272443736

> <r_i_glide_emodel>
-51.0231027402877

> <r_i_glide_energy>
-38.2966438531876

> <r_i_glide_einternal>
3.74394536018372

> <i_i_glide_confnum>
2

> <i_i_glide_posenum>
92

> <r_i_glide_eff_state_penalty>
0

> <s_user_duplicate_titles>
CHEMBL267_lig3740

> <i_f3d_flags>
0

> <s_m_subgroup_title>
dock_pv

> <s_m_subgroupid>
dock_pv

> <b_m_subgroup_collapsed>
1

$$$$
CHEMBL267_lig1881
                    3D
 Schrodinger Suite 2021-1.
 41 44  0  0  1  0            999 V2000
    7.7957    7.0604    7.2277 N   0  0  0  0  0  0
    8.0866    8.0505    6.3443 C   0  0  0  0  0  0
    7.2233    8.9168    5.7487 N   0  0  0  0  0  0
    6.4948    6.9275    7.5880 C   0  0  0  0  0  0
    5.5076    7.7988    7.0887 C   0  0  0  0  0  0
    5.9540    8.7496    6.1437 C   0  0  0  0  0  0
    4.8204    9.4237    5.7234 N   0  0  0  0  0  0
    3.7251    8.9855    6.3843 N   0  0  0  0  0  0
    4.0975    8.0363    7.2118 C   0  0  0  0  0  0
    3.1227    7.3979    8.1389 C   0  0  0  0  0  0
    3.4428    7.2753    9.4945 C   0  0  0  0  0  0
    2.5396    6.7010   10.3886 C   0  0  0  0  0  0
    1.3187    6.2015    9.9199 C   0  0  0  0  0  0
    0.9987    6.3099    8.5653 C   0  0  0  0  0  0
    1.8929    6.9132    7.6798 C   0  0  0  0  0  0
    6.1677    5.8375    8.3880 N   0  0  0  0  0  0
    0.1980    5.4371   10.9923 Cl  0  0  0  0  0  0
    2.8643    6.6370   11.7185 O   0  0  0  0  0  0
    4.7088   10.5316    4.7678 C   0  0  0  0  0  0
    3.5643   10.3715    3.7303 C   0  0  1  0  0  0
    3.3454    9.0407    3.1880 N   0  0  2  0  0  0
    2.0683    9.1493    2.5060 C   0  0  0  0  0  0
    1.1975   10.0225    3.4080 C   0  0  0  0  0  0
    2.1912   10.8905    4.1830 C   0  0  0  0  0  0
    9.1253    8.1479    6.0611 H   0  0  0  0  0  0
    4.3838    7.6600    9.8585 H   0  0  0  0  0  0
    0.0560    5.9246    8.2012 H   0  0  0  0  0  0
    1.6335    6.9940    6.6338 H   0  0  0  0  0  0
    5.2012    5.6717    8.6275 H   0  0  0  0  0  0
    6.8964    5.2046    8.6887 H   0  0  0  0  0  0
    3.8072    6.6906   11.8912 H   0  0  0  0  0  0
    4.5799   11.4482    5.3443 H   0  0  0  0  0  0
    5.6619   10.6361    4.2475 H   0  0  0  0  0  0
    3.8799   11.0214    2.9103 H   0  0  0  0  0  0
    3.2413    8.4085    3.9703 H   0  0  0  0  0  0
    1.6428    8.1521    2.3881 H   0  0  0  0  0  0
    2.1797    9.5874    1.5125 H   0  0  0  0  0  0
    0.5991    9.4042    4.0790 H   0  0  0  0  0  0
    0.5024   10.6195    2.8161 H   0  0  0  0  0  0
    2.0380   10.8291    5.2610 H   0  0  0  0  0  0
    2.0586   11.9275    3.8713 H   0  0  0  0  0  0
  1  2  2  0  0  0
  1  4  1  0  0  0
  2  3  1  0  0  0
  2 25  1  0  0  0
  3  6  2  0  0  0
  4  5  2  0  0  0
  4 16  1  0  0  0
  5  9  1  0  0  0
  5  6  1  0  0  0
  6  7  1  0  0  0
  7  8  1  0  0  0
  7 19  1  0  0  0
  8  9  2  0  0  0
  9 10  1  0  0  0
 10 15  1  0  0  0
 10 11  2  0  0  0
 11 12  1  0  0  0
 11 26  1  0  0  0
 12 13  2  0  0  0
 12 18  1  0  0  0
 13 14  1  0  0  0
 13 17  1  0  0  0
 14 15  2  0  0  0
 14 27  1  0  0  0
 15 28  1  0  0  0
 16 29  1  0  0  0
 16 30  1  0  0  0
 18 31  1  0  0  0
 19 20  1  0  0  0
 19 32  1  0  0  0
 19 33  1  0  0  0
 20 21  1  0  0  0
 20 24  1  0  0  0
 20 34  1  0  0  0
 21 22  1  0  0  0
 21 35  1  0  0  0
 22 23  1  0  0  0
 22 36  1  0  0  0
 22 37  1  0  0  0
 23 24  1  0  0  0
 23 38  1  0  0  0
 23 39  1  0  0  0
 24 40  1  0  0  0
 24 41  1  0  0  0
M  END
> <s_m_entry_id>
32191

> <s_m_entry_name>
dock_pv.454

> <s_m_Source_Path>
/home/csk/Desktop/cluster/DUD-E-result/src

> <s_m_Source_File>
dock_pv.maegz

> <i_m_Source_File_Index>
454

> <chembl_id>
CHEMBL1241769

> <chembl_pref_name>
None

> <i_lp_mmshare_version>
53161

> <r_lp_tautomer_probability>
0.999999999997365

> <s_lp_Force_Field>
OPLS_2005

> <r_lp_Energy>
26.746583

> <b_lp_Chiralities_Consistent>
1

> <s_lp_Variant>
CHEMBL267_lig1881-2

> <s_i_glide_gridfile>
glide-grid_3el8

> <i_i_glide_lignum>
2150

> <i_i_glide_rotatable_bonds>
4

> <r_i_docking_score>
-7.07318458763425

> <r_i_glide_ligand_efficiency>
-0.29471602448476

> <r_i_glide_ligand_efficiency_sa>
-0.850108118451143

> <r_i_glide_ligand_efficiency_ln>
-1.69293763911251

> <r_i_glide_gscore>
-7.07318458763425

> <r_i_glide_lipo>
-1.99296875659619

> <r_i_glide_hbond>
-0.0728883367319565

> <r_i_glide_metal>
0

> <r_i_glide_rewards>
-2.81096627793009

> <r_i_glide_evdw>
-37.2063522338867

> <r_i_glide_ecoul>
-5.43526554107666

> <r_i_glide_erotb>
0.479246226479821

> <r_i_glide_esite>
0

> <r_i_glide_emodel>
-56.6734782780982

> <r_i_glide_energy>
-42.6416177749634

> <r_i_glide_einternal>
6.73924827575684

> <i_i_glide_confnum>
60

> <i_i_glide_posenum>
382

> <r_i_glide_eff_state_penalty>
0

> <s_user_duplicate_titles>
CHEMBL267_lig1881

> <i_f3d_flags>
0

> <s_m_subgroup_title>
dock_pv

> <s_m_subgroupid>
dock_pv

> <b_m_subgroup_collapsed>
1

$$$$
CHEMBL267_lig3429
                    3D
 Schrodinger Suite 2021-1.
 49 52  0  0  1  0            999 V2000
   -0.3988    6.2370    4.3873 Cl  0  0  0  0  0  0
    0.8716    9.0721    3.5807 Cl  0  0  0  0  0  0
    4.1869    7.0354    8.1913 O   0  0  0  0  0  0
    7.1007   12.4576    2.0111 N   0  0  0  0  0  0
    5.8336   12.3670    1.5879 N   0  0  0  0  0  0
    7.7980    6.7515    7.3960 N   0  0  0  0  0  0
    2.1960    4.6519    8.4767 N   0  0  0  0  0  0
    5.8974   10.8768    3.2120 C   0  0  0  0  0  0
    7.1441   11.5447    3.0224 C   0  0  0  0  0  0
    6.8820    9.5645    5.0032 C   0  0  0  0  0  0
    5.7764    9.8880    4.1997 C   0  0  0  0  0  0
    5.0384   11.4561    2.2397 C   0  0  0  0  0  0
    6.7704    8.5062    6.0550 C   0  0  0  0  0  0
    8.2459   11.2238    3.8195 C   0  0  0  0  0  0
    8.0936   10.2369    4.7879 C   0  0  0  0  0  0
    5.5532    8.2398    6.6961 C   0  0  0  0  0  0
    5.4420    7.2438    7.6642 C   0  0  0  0  0  0
    7.8633    7.7190    6.4469 C   0  0  0  0  0  0
    6.5984    6.5220    7.9871 C   0  0  0  0  0  0
    3.5814   11.2617    1.8940 C   0  0  0  0  0  0
    1.3034    7.4666    7.8003 C   0  0  0  0  0  0
    0.4583    7.2065    5.5352 C   0  0  0  0  0  0
    1.0127    8.4439    5.1839 C   0  0  0  0  0  0
    0.5996    6.7326    6.8404 C   0  0  0  0  0  0
    2.4953    5.7444    9.3874 C   0  0  2  0  0  0
    1.4896    6.9174    9.2169 C   0  0  0  0  0  0
    3.9891    6.1393    9.2804 C   0  0  0  0  0  0
    1.8400    8.7062    7.4445 C   0  0  0  0  0  0
    1.6975    9.1911    6.1436 C   0  0  0  0  0  0
    5.5335   12.8718    0.7589 H   0  0  0  0  0  0
    2.4175    4.9487    7.5363 H   0  0  0  0  0  0
    2.8002    3.8679    8.6750 H   0  0  0  0  0  0
    4.8358    9.3722    4.3201 H   0  0  0  0  0  0
    9.1962   11.7175    3.6794 H   0  0  0  0  0  0
    8.9644    9.9757    5.3682 H   0  0  0  0  0  0
    4.6685    8.8066    6.4507 H   0  0  0  0  0  0
    8.8338    7.8370    5.9884 H   0  0  0  0  0  0
    6.5986    5.7322    8.7240 H   0  0  0  0  0  0
    3.2813   10.2186    1.9888 H   0  0  0  0  0  0
    2.9351   11.8380    2.5602 H   0  0  0  0  0  0
    3.3527   11.5707    0.8714 H   0  0  0  0  0  0
    0.1731    5.7763    7.1056 H   0  0  0  0  0  0
    2.3502    5.3405   10.3893 H   0  0  0  0  0  0
    1.7981    7.7229    9.8796 H   0  0  0  0  0  0
    0.5094    6.6042    9.5779 H   0  0  0  0  0  0
    4.3046    6.6386   10.1980 H   0  0  0  0  0  0
    4.5885    5.2340    9.1834 H   0  0  0  0  0  0
    2.3935    9.2846    8.1694 H   0  0  0  0  0  0
    2.1290   10.1447    5.8766 H   0  0  0  0  0  0
  1 22  1  0  0  0
  2 23  1  0  0  0
  3 17  1  0  0  0
  3 27  1  0  0  0
  4  5  1  0  0  0
  4  9  2  0  0  0
  5 30  1  0  0  0
  5 12  1  0  0  0
  6 18  1  0  0  0
  6 19  2  0  0  0
  7 25  1  0  0  0
  7 31  1  0  0  0
  7 32  1  0  0  0
  8 11  1  0  0  0
  8  9  1  0  0  0
  8 12  2  0  0  0
  9 14  1  0  0  0
 10 15  1  0  0  0
 10 13  1  0  0  0
 10 11  2  0  0  0
 11 33  1  0  0  0
 12 20  1  0  0  0
 13 16  1  0  0  0
 13 18  2  0  0  0
 14 34  1  0  0  0
 14 15  2  0  0  0
 15 35  1  0  0  0
 16 17  2  0  0  0
 16 36  1  0  0  0
 17 19  1  0  0  0
 18 37  1  0  0  0
 19 38  1  0  0  0
 20 39  1  0  0  0
 20 40  1  0  0  0
 20 41  1  0  0  0
 21 24  1  0  0  0
 21 26  1  0  0  0
 21 28  2  0  0  0
 22 23  1  0  0  0
 22 24  2  0  0  0
 23 29  2  0  0  0
 24 42  1  0  0  0
 25 26  1  0  0  0
 25 27  1  0  0  0
 25 43  1  0  0  0
 26 44  1  0  0  0
 26 45  1  0  0  0
 27 46  1  0  0  0
 27 47  1  0  0  0
 28 29  1  0  0  0
 28 48  1  0  0  0
 29 49  1  0  0  0
M  END
> <s_m_entry_id>
32192

> <s_m_entry_name>
dock_pv.455

> <s_m_Source_Path>
/home/csk/Desktop/cluster/DUD-E-result/src

> <s_m_Source_File>
dock_pv.maegz

> <i_m_Source_File_Index>
455

> <chembl_id>
CHEMBL1991063

> <chembl_pref_name>
None

> <i_lp_mmshare_version>
53161

> <r_lp_tautomer_probability>
0.0196078431372549

> <s_lp_Force_Field>
OPLS_2005

> <r_lp_Energy>
41.185656

> <b_lp_Chiralities_Consistent>
1

> <s_lp_Variant>
CHEMBL267_lig3429-3

> <s_i_glide_gridfile>
glide-grid_3el8

> <i_i_glide_lignum>
4100

> <i_i_glide_rotatable_bonds>
6

> <r_i_docking_score>
-7.07204480982957

> <r_i_glide_ligand_efficiency>
-0.243863614132054

> <r_i_glide_ligand_efficiency_sa>
-0.749226284029515

> <r_i_glide_ligand_efficiency_ln>
-1.61931892986775

> <r_i_glide_gscore>
-7.07204480982957

> <r_i_glide_lipo>
-3.40758288602334

> <r_i_glide_hbond>
-0.248149251903252

> <r_i_glide_metal>
0

> <r_i_glide_rewards>
-1.1634257873617

> <r_i_glide_evdw>
-41.1950836181641

> <r_i_glide_ecoul>
-4.3264946937561

> <r_i_glide_erotb>
0.543623164309835

> <r_i_glide_esite>
-0.0877816638794888

> <r_i_glide_emodel>
-63.5118817120207

> <r_i_glide_energy>
-45.5215783119202

> <r_i_glide_einternal>
3.53364157676697

> <i_i_glide_confnum>
19

> <i_i_glide_posenum>
70

> <r_i_glide_eff_state_penalty>
0

> <s_user_duplicate_titles>
CHEMBL267_lig3429

> <i_f3d_flags>
0

> <s_m_subgroup_title>
dock_pv

> <s_m_subgroupid>
dock_pv

> <b_m_subgroup_collapsed>
1

$$$$
CHEMBL267_lig816
                    3D
 Schrodinger Suite 2021-1.
 36 39  0  0  1  0            999 V2000
    2.1156    7.0205    8.8118 C   0  0  0  0  0  0
    0.0732    6.2129    8.7362 N   0  0  0  0  0  0
    3.4383    7.4821    8.7320 C   0  0  0  0  0  0
    1.0052    6.8478    7.9458 C   0  0  0  0  0  0
    0.4033    6.0297   10.0249 N   0  0  0  0  0  0
    1.6595    6.5549   10.0864 C   0  0  0  0  0  0
    4.1966    7.5597    9.8501 N   0  0  0  0  0  0
    3.9718    7.8379    7.4880 N   0  0  0  0  0  0
    0.8110    7.2436    6.5254 C   0  0  0  0  0  0
    2.4015    6.6233   11.1952 N   0  0  0  0  0  0
    3.6440    7.1358   11.0143 C   0  0  0  0  0  0
    5.2806    8.1062    7.0650 C   0  0  0  0  0  0
    1.3054    8.4709    6.0693 C   0  0  0  0  0  0
    5.4693    9.0377    6.0421 C   0  0  0  0  0  0
    6.7513    9.3074    5.5638 C   0  0  0  0  0  0
    1.2088    8.8170    4.7236 C   0  0  0  0  0  0
    6.9820   10.5239    4.3634 Cl  0  0  0  0  0  0
    1.7152   10.0097    4.2862 O   0  0  0  0  0  0
    0.1981    6.3814    5.6147 C   0  0  0  0  0  0
    0.0803    6.7322    4.2734 C   0  0  0  0  0  0
    7.6650    7.6711    7.0871 C   0  0  0  0  0  0
    6.3855    7.4263    7.5883 C   0  0  0  0  0  0
    7.8459    8.6074    6.0695 C   0  0  0  0  0  0
    0.5971    7.9465    3.8257 C   0  0  0  0  0  0
   -0.8308    5.9157    8.3825 H   0  0  0  0  0  0
    3.2852    7.8459    6.7499 H   0  0  0  0  0  0
    4.2703    7.1753   11.8946 H   0  0  0  0  0  0
    1.7660    9.1659    6.7556 H   0  0  0  0  0  0
    4.6252    9.5710    5.6295 H   0  0  0  0  0  0
    1.6016   10.1288    3.3401 H   0  0  0  0  0  0
   -0.2015    5.4372    5.9461 H   0  0  0  0  0  0
   -0.4169    6.0633    3.5882 H   0  0  0  0  0  0
    8.5142    7.1369    7.4846 H   0  0  0  0  0  0
    6.2515    6.6864    8.3642 H   0  0  0  0  0  0
    8.8390    8.8003    5.6887 H   0  0  0  0  0  0
    0.5021    8.2121    2.7865 H   0  0  0  0  0  0
  1  3  1  0  0  0
  1  4  2  0  0  0
  1  6  1  0  0  0
  2  4  1  0  0  0
  2  5  1  0  0  0
  2 25  1  0  0  0
  3  7  2  0  0  0
  3  8  1  0  0  0
  4  9  1  0  0  0
  5  6  2  0  0  0
  6 10  1  0  0  0
  7 11  1  0  0  0
  8 12  1  0  0  0
  8 26  1  0  0  0
  9 13  2  0  0  0
  9 19  1  0  0  0
 10 11  2  0  0  0
 11 27  1  0  0  0
 12 14  2  0  0  0
 12 22  1  0  0  0
 13 16  1  0  0  0
 13 28  1  0  0  0
 14 15  1  0  0  0
 14 29  1  0  0  0
 15 17  1  0  0  0
 15 23  2  0  0  0
 16 18  1  0  0  0
 16 24  2  0  0  0
 18 30  1  0  0  0
 19 20  2  0  0  0
 19 31  1  0  0  0
 20 24  1  0  0  0
 20 32  1  0  0  0
 21 22  2  0  0  0
 21 23  1  0  0  0
 21 33  1  0  0  0
 22 34  1  0  0  0
 23 35  1  0  0  0
 24 36  1  0  0  0
M  END
> <s_m_entry_id>
32193

> <s_m_entry_name>
dock_pv.456

> <s_m_Source_Path>
/home/csk/Desktop/cluster/DUD-E-result/src

> <s_m_Source_File>
dock_pv.maegz

> <i_m_Source_File_Index>
456

> <chembl_id>
CHEMBL331906

> <chembl_pref_name>
None

> <i_lp_mmshare_version>
53161

> <r_lp_tautomer_probability>
0.999999999997365

> <s_lp_Force_Field>
OPLS_2005

> <r_lp_Energy>
27.599205

> <b_lp_Chiralities_Consistent>
1

> <s_lp_Variant>
CHEMBL267_lig816-1

> <s_i_glide_gridfile>
glide-grid_3el8

> <i_i_glide_lignum>
944

> <i_i_glide_rotatable_bonds>
4

> <r_i_docking_score>
-7.07195069604934

> <r_i_glide_ligand_efficiency>
-0.294664612335389

> <r_i_glide_ligand_efficiency_sa>
-0.849959820150622

> <r_i_glide_ligand_efficiency_ln>
-1.69264231223665

> <r_i_glide_gscore>
-7.07195069604934

> <r_i_glide_lipo>
-3.03042291247042

> <r_i_glide_hbond>
-0.32

> <r_i_glide_metal>
0

> <r_i_glide_rewards>
-1.46623994901715

> <r_i_glide_evdw>
-39.2843551635742

> <r_i_glide_ecoul>
-4.96289539337158

> <r_i_glide_erotb>
0.497091932547187

> <r_i_glide_esite>
-0.0437276999245096

> <r_i_glide_emodel>
-61.2728200150914

> <r_i_glide_energy>
-44.2472505569458

> <r_i_glide_einternal>
1.87852621078491

> <i_i_glide_confnum>
10

> <i_i_glide_posenum>
291

> <r_i_glide_eff_state_penalty>
0

> <s_user_duplicate_titles>
CHEMBL267_lig816,197606

> <i_f3d_flags>
0

> <s_m_subgroup_title>
dock_pv

> <s_m_subgroupid>
dock_pv

> <b_m_subgroup_collapsed>
1

$$$$
CHEMBL267_lig3811
                    3D
 Schrodinger Suite 2021-1.
 61 65  0  0  1  0            999 V2000
    2.6770    6.8266   12.4442 N   0  0  0  0  0  0
    3.7966    7.4358   11.9796 C   0  0  0  0  0  0
    4.1311    7.6483   10.6832 N   0  0  0  0  0  0
    1.8271    6.3066   11.5272 C   0  0  0  0  0  0
    2.1667    6.2971   10.1686 C   0  0  0  0  0  0
    3.3261    7.0175    9.8211 C   0  0  0  0  0  0
    3.4365    6.9277    8.4457 N   0  0  0  0  0  0
    2.4712    6.1142    7.9485 N   0  0  0  0  0  0
    1.7310    5.6986    8.9533 C   0  0  0  0  0  0
    0.7033    4.6356    8.8321 C   0  0  0  0  0  0
    1.0866    3.3730    8.3894 C   0  0  0  0  0  0
    0.1802    2.3185    8.3881 C   0  0  0  0  0  0
   -1.1319    2.5428    8.7880 C   0  0  0  0  0  0
   -1.5273    3.8010    9.2289 C   0  0  0  0  0  0
   -0.6019    4.8417    9.2621 C   0  0  0  0  0  0
    4.4525    7.4381    7.6140 C   0  0  0  0  0  0
    5.7905    7.1977    7.9321 C   0  0  0  0  0  0
    6.7987    7.7102    7.1233 C   0  0  0  0  0  0
    6.4710    8.4542    5.9916 C   0  0  0  0  0  0
    5.1343    8.7189    5.6510 C   0  0  0  0  0  0
    4.1309    8.2132    6.4929 C   0  0  0  0  0  0
    4.8816    9.5274    4.4024 C   0  0  0  0  0  0
    5.8029   10.1935    3.5896 C   0  0  0  0  0  0
    5.2361   10.7790    2.5580 N   0  0  0  0  0  0
    3.8862   10.5427    2.6493 N   0  0  0  0  0  0
    3.6860    9.7927    3.7417 N   0  0  0  0  0  0
    2.3041    9.4200    4.0525 C   0  0  0  0  0  0
    1.6493   10.4144    5.0460 C   0  0  0  0  0  0
   -2.2529    1.2339    8.7886 Cl  0  0  0  0  0  0
    0.6197    5.7986   11.9874 N   0  0  0  0  0  0
    1.5092   11.8452    4.4866 C   0  0  0  0  0  0
    0.8387   12.8429    5.4537 C   0  0  0  0  0  0
    0.3615   14.1676    4.8028 C   0  0  0  0  0  0
    1.4547   15.1670    4.3876 C   0  0  0  0  0  0
    1.3875   16.3311    4.7874 O   0  0  0  0  0  0
    2.4293   14.7176    3.5779 N   0  0  0  0  0  0
    3.4295   15.6121    3.1704 O   0  0  0  0  0  0
    4.4475    7.8625   12.7276 H   0  0  0  0  0  0
    2.1001    3.2170    8.0625 H   0  0  0  0  0  0
    0.4885    1.3349    8.0657 H   0  0  0  0  0  0
   -2.5457    3.9763    9.5443 H   0  0  0  0  0  0
   -0.9210    5.8179    9.5941 H   0  0  0  0  0  0
    6.0513    6.5942    8.7878 H   0  0  0  0  0  0
    7.8347    7.5185    7.3624 H   0  0  0  0  0  0
    7.2815    8.8164    5.3796 H   0  0  0  0  0  0
    3.0901    8.4017    6.3080 H   0  0  0  0  0  0
    6.8694   10.2571    3.7404 H   0  0  0  0  0  0
    2.2790    8.3889    4.4009 H   0  0  0  0  0  0
    1.7314    9.4047    3.1213 H   0  0  0  0  0  0
    2.2209   10.4509    5.9757 H   0  0  0  0  0  0
    0.6621   10.0360    5.3197 H   0  0  0  0  0  0
   -0.0301    5.3816   11.3366 H   0  0  0  0  0  0
    0.4209    5.8462   12.9748 H   0  0  0  0  0  0
    0.9464   11.8088    3.5534 H   0  0  0  0  0  0
    2.5017   12.2146    4.2370 H   0  0  0  0  0  0
    1.5047   13.0517    6.2931 H   0  0  0  0  0  0
   -0.0337   12.3588    5.8938 H   0  0  0  0  0  0
   -0.2782   14.6819    5.5224 H   0  0  0  0  0  0
   -0.2773   13.9657    3.9431 H   0  0  0  0  0  0
    2.5332   13.7938    3.1820 H   0  0  0  0  0  0
    3.2398   15.7597    2.2407 H   0  0  0  0  0  0
  1  2  2  0  0  0
  1  4  1  0  0  0
  2  3  1  0  0  0
  2 38  1  0  0  0
  3  6  2  0  0  0
  4  5  2  0  0  0
  4 30  1  0  0  0
  5  6  1  0  0  0
  5  9  1  0  0  0
  6  7  1  0  0  0
  7  8  1  0  0  0
  7 16  1  0  0  0
  8  9  2  0  0  0
  9 10  1  0  0  0
 10 11  2  0  0  0
 10 15  1  0  0  0
 11 12  1  0  0  0
 11 39  1  0  0  0
 12 13  2  0  0  0
 12 40  1  0  0  0
 13 14  1  0  0  0
 13 29  1  0  0  0
 14 15  2  0  0  0
 14 41  1  0  0  0
 15 42  1  0  0  0
 16 17  2  0  0  0
 16 21  1  0  0  0
 17 18  1  0  0  0
 17 43  1  0  0  0
 18 19  2  0  0  0
 18 44  1  0  0  0
 19 20  1  0  0  0
 19 45  1  0  0  0
 20 21  2  0  0  0
 20 22  1  0  0  0
 21 46  1  0  0  0
 22 23  2  0  0  0
 22 26  1  0  0  0
 23 24  1  0  0  0
 23 47  1  0  0  0
 24 25  2  0  0  0
 25 26  1  0  0  0
 26 27  1  0  0  0
 27 28  1  0  0  0
 27 48  1  0  0  0
 27 49  1  0  0  0
 28 31  1  0  0  0
 28 50  1  0  0  0
 28 51  1  0  0  0
 30 52  1  0  0  0
 30 53  1  0  0  0
 31 32  1  0  0  0
 31 54  1  0  0  0
 31 55  1  0  0  0
 32 33  1  0  0  0
 32 56  1  0  0  0
 32 57  1  0  0  0
 33 34  1  0  0  0
 33 58  1  0  0  0
 33 59  1  0  0  0
 34 35  2  0  0  0
 34 36  1  0  0  0
 36 37  1  0  0  0
 36 60  1  0  0  0
 37 61  1  0  0  0
M  END
> <s_m_entry_id>
32194

> <s_m_entry_name>
dock_pv.457

> <s_m_Source_Path>
/home/csk/Desktop/cluster/DUD-E-result/src

> <s_m_Source_File>
dock_pv.maegz

> <i_m_Source_File_Index>
457

> <chembl_id>
CHEMBL2408778

> <chembl_pref_name>
None

> <i_lp_mmshare_version>
53161

> <r_lp_tautomer_probability>
1

> <s_lp_Force_Field>
OPLS_2005

> <r_lp_Energy>
30.828675

> <b_lp_Chiralities_Consistent>
1

> <s_lp_Variant>
CHEMBL267_lig3811-1

> <s_i_glide_gridfile>
glide-grid_3el8

> <i_i_glide_lignum>
4677

> <i_i_glide_rotatable_bonds>
11

> <r_i_docking_score>
-7.07147920135461

> <r_i_glide_ligand_efficiency>
-0.191121059496071

> <r_i_glide_ligand_efficiency_sa>
-0.636857769995986

> <r_i_glide_ligand_efficiency_ln>
-1.53363805978045

> <r_i_glide_gscore>
-7.07147920135461

> <r_i_glide_lipo>
-3.78047164954845

> <r_i_glide_hbond>
-0.315152973028367

> <r_i_glide_metal>
0

> <r_i_glide_rewards>
-0.960293993350691

> <r_i_glide_evdw>
-43.5443115234375

> <r_i_glide_ecoul>
-4.02503538131714

> <r_i_glide_erotb>
0.765410297942341

> <r_i_glide_esite>
0

> <r_i_glide_emodel>
-53.7295361465286

> <r_i_glide_energy>
-47.5693469047546

> <r_i_glide_einternal>
7.75598096847534

> <i_i_glide_confnum>
8

> <i_i_glide_posenum>
269

> <r_i_glide_eff_state_penalty>
0

> <s_user_duplicate_titles>
CHEMBL267_lig3811

> <i_f3d_flags>
0

> <s_m_subgroup_title>
dock_pv

> <s_m_subgroupid>
dock_pv

> <b_m_subgroup_collapsed>
1

$$$$
CHEMBL267_lig3609
                    3D
 Schrodinger Suite 2021-1.
 38 40  0  0  1  0            999 V2000
    6.3241    8.0355    6.7762 C   0  0  0  0  0  0
    4.9859    8.2725    6.7713 C   0  0  0  0  0  0
    4.1413    7.5639    7.5877 N   0  0  0  0  0  0
    4.6017    6.6369    8.3571 C   0  0  0  0  0  0
    5.9393    6.3653    8.3461 N   0  0  0  0  0  0
    6.8745    6.9805    7.5880 C   0  0  0  0  0  0
    8.0518    6.6373    7.5880 O   0  0  0  0  0  0
    3.7886    5.8279    9.1880 N   0  0  0  0  0  0
    2.3294    5.8036    9.1555 C   0  0  0  0  0  0
    1.7981    4.4366    8.6579 C   0  0  0  0  0  0
    0.2658    4.3195    8.6966 C   0  0  0  0  0  0
   -0.2778    4.6369   10.0953 C   0  0  0  0  0  0
    0.1981    6.0208   10.5703 C   0  0  0  0  0  0
    1.7298    6.1597   10.5326 C   0  0  0  0  0  0
    4.3558    9.3635    5.9703 C   0  0  0  0  0  0
    5.0861   10.5017    5.5868 C   0  0  0  0  0  0
    4.4597   11.5033    4.8411 C   0  0  0  0  0  0
    3.1629   11.4284    4.4534 N   0  0  0  0  0  0
    2.4607   10.3254    4.8081 C   0  0  0  0  0  0
    3.0136    9.2842    5.5557 C   0  0  0  0  0  0
    7.0114    8.5894    6.1605 H   0  0  0  0  0  0
    6.2986    5.6155    8.9096 H   0  0  0  0  0  0
    4.2213    5.2012    9.8531 H   0  0  0  0  0  0
    1.9411    6.5496    8.4571 H   0  0  0  0  0  0
    2.1667    4.2363    7.6505 H   0  0  0  0  0  0
    2.1981    3.6478    9.2967 H   0  0  0  0  0  0
   -0.1765    5.0044    7.9718 H   0  0  0  0  0  0
   -0.0426    3.3172    8.3964 H   0  0  0  0  0  0
   -1.3682    4.6002   10.0885 H   0  0  0  0  0  0
    0.0511    3.8677   10.7941 H   0  0  0  0  0  0
   -0.2431    6.7795    9.9242 H   0  0  0  0  0  0
   -0.1761    6.2284   11.5740 H   0  0  0  0  0  0
    2.1374    5.4806   11.2789 H   0  0  0  0  0  0
    2.0254    7.1668   10.8284 H   0  0  0  0  0  0
    6.1202   10.6290    5.8730 H   0  0  0  0  0  0
    5.0001   12.3896    4.5415 H   0  0  0  0  0  0
    1.4332   10.2818    4.4793 H   0  0  0  0  0  0
    2.4085    8.4275    5.8127 H   0  0  0  0  0  0
  1  2  2  0  0  0
  1  6  1  0  0  0
  1 21  1  0  0  0
  2  3  1  0  0  0
  2 15  1  0  0  0
  3  4  2  0  0  0
  4  5  1  0  0  0
  4  8  1  0  0  0
  5  6  1  0  0  0
  5 22  1  0  0  0
  6  7  2  0  0  0
  8  9  1  0  0  0
  8 23  1  0  0  0
  9 14  1  0  0  0
  9 10  1  0  0  0
  9 24  1  0  0  0
 10 11  1  0  0  0
 10 25  1  0  0  0
 10 26  1  0  0  0
 11 12  1  0  0  0
 11 27  1  0  0  0
 11 28  1  0  0  0
 12 13  1  0  0  0
 12 29  1  0  0  0
 12 30  1  0  0  0
 13 14  1  0  0  0
 13 31  1  0  0  0
 13 32  1  0  0  0
 14 33  1  0  0  0
 14 34  1  0  0  0
 15 16  2  0  0  0
 15 20  1  0  0  0
 16 17  1  0  0  0
 16 35  1  0  0  0
 17 18  2  0  0  0
 17 36  1  0  0  0
 18 19  1  0  0  0
 19 20  2  0  0  0
 19 37  1  0  0  0
 20 38  1  0  0  0
M  END
> <s_m_entry_id>
32195

> <s_m_entry_name>
dock_pv.458

> <s_m_Source_Path>
/home/csk/Desktop/cluster/DUD-E-result/src

> <s_m_Source_File>
dock_pv.maegz

> <i_m_Source_File_Index>
458

> <chembl_id>
CHEMBL1958401

> <chembl_pref_name>
None

> <i_lp_mmshare_version>
53161

> <r_lp_tautomer_probability>
0.878315377147829

> <s_lp_Force_Field>
OPLS_2005

> <r_lp_Energy>
15.796325

> <b_lp_Chiralities_Consistent>
1

> <s_lp_Variant>
CHEMBL267_lig3609-1

> <s_i_glide_gridfile>
glide-grid_3el8

> <i_i_glide_lignum>
4355

> <i_i_glide_rotatable_bonds>
3

> <r_i_docking_score>
-7.06943638589046

> <r_i_glide_ligand_efficiency>
-0.353471819294523

> <r_i_glide_ligand_efficiency_sa>
-0.959470132304799

> <r_i_glide_ligand_efficiency_ln>
-1.7692467617713

> <r_i_glide_gscore>
-7.06943638589046

> <r_i_glide_lipo>
-2.2666040832429

> <r_i_glide_hbond>
-0.608

> <r_i_glide_metal>
0

> <r_i_glide_rewards>
-2.35251276535446

> <r_i_glide_evdw>
-31.8884429931641

> <r_i_glide_ecoul>
-6.35724639892578

> <r_i_glide_erotb>
0.734184574603199

> <r_i_glide_esite>
-0.0284950023992245

> <r_i_glide_emodel>
-53.2312059015888

> <r_i_glide_energy>
-38.2456893920898

> <r_i_glide_einternal>
2.09275007247925

> <i_i_glide_confnum>
2

> <i_i_glide_posenum>
219

> <r_i_glide_eff_state_penalty>
0

> <s_user_duplicate_titles>
CHEMBL267_lig3609

> <i_f3d_flags>
0

> <s_m_subgroup_title>
dock_pv

> <s_m_subgroupid>
dock_pv

> <b_m_subgroup_collapsed>
1

$$$$
CHEMBL267_lig3012
                    3D
 Schrodinger Suite 2021-1.
 44 46  0  0  1  0            999 V2000
   -0.3529    6.7407    4.1105 C   0  0  0  0  0  0
    0.8197    7.3595    4.8462 C   0  0  0  0  0  0
    1.1133    6.9382    6.1417 C   0  0  0  0  0  0
    2.1918    7.4863    6.8513 C   0  0  0  0  0  0
    2.5175    7.1422    8.1779 N   0  0  0  0  0  0
    1.8465    6.3751    9.1400 C   0  0  0  0  0  0
    2.0379    6.7718   10.4235 N   0  0  0  0  0  0
    1.2035    6.2405   11.3554 C   0  0  0  0  0  0
    0.2058    5.3231   11.0273 C   0  0  0  0  0  0
    0.1748    4.8729    9.7042 C   0  0  0  0  0  0
    0.9954    5.3904    8.7537 N   0  0  0  0  0  0
   -0.7215    3.7706    9.2696 C   0  0  0  0  0  0
   -1.9808    3.6640    9.5906 N   0  0  0  0  0  0
   -2.5180    2.5304    9.1797 C   0  0  0  0  0  0
   -3.9769    2.3397    9.5425 C   0  0  0  0  0  0
   -1.6716    1.6479    8.4807 C   0  0  0  0  0  0
   -1.9469    0.2601    7.9118 C   0  0  0  0  0  0
   -1.0953   -0.8664    8.5176 C   0  0  0  0  0  0
    0.1975   -0.8664    7.9768 O   0  0  0  0  0  0
   -0.1056    2.4210    8.3881 S   0  0  0  0  0  0
    2.9649    8.4750    6.2349 C   0  0  0  0  0  0
    2.6699    8.9281    4.9410 C   0  0  0  0  0  0
    1.5930    8.3574    4.2508 C   0  0  0  0  0  0
    3.5057   10.0267    4.2823 C   0  0  0  0  0  0
    4.3778    9.4711    3.4384 F   0  0  0  0  0  0
    2.7240   10.8672    3.5976 F   0  0  0  0  0  0
    4.1883   10.7387    5.1850 F   0  0  0  0  0  0
   -0.5991    7.2983    3.2060 H   0  0  0  0  0  0
   -0.1323    5.7069    3.8407 H   0  0  0  0  0  0
   -1.2405    6.7327    4.7451 H   0  0  0  0  0  0
    0.4708    6.1868    6.5682 H   0  0  0  0  0  0
    3.1832    7.7678    8.6034 H   0  0  0  0  0  0
    1.3241    6.5911   12.3707 H   0  0  0  0  0  0
   -0.4743    4.9447   11.7727 H   0  0  0  0  0  0
   -4.4018    1.4440    9.0893 H   0  0  0  0  0  0
   -4.1249    2.2581   10.6208 H   0  0  0  0  0  0
   -4.5884    3.1708    9.1870 H   0  0  0  0  0  0
   -1.8292    0.2484    6.8272 H   0  0  0  0  0  0
   -2.9935    0.0047    8.0726 H   0  0  0  0  0  0
   -1.5606   -1.8411    8.3664 H   0  0  0  0  0  0
   -0.9828   -0.7351    9.5881 H   0  0  0  0  0  0
    0.8405   -0.9590    8.6954 H   0  0  0  0  0  0
    3.7961    8.9078    6.7732 H   0  0  0  0  0  0
    1.3585    8.6862    3.2472 H   0  0  0  0  0  0
  1  2  1  0  0  0
  1 28  1  0  0  0
  1 29  1  0  0  0
  1 30  1  0  0  0
  2  3  1  0  0  0
  2 23  2  0  0  0
  3  4  2  0  0  0
  3 31  1  0  0  0
  4  5  1  0  0  0
  4 21  1  0  0  0
  5  6  1  0  0  0
  5 32  1  0  0  0
  6  7  1  0  0  0
  6 11  2  0  0  0
  7  8  2  0  0  0
  8  9  1  0  0  0
  8 33  1  0  0  0
  9 10  2  0  0  0
  9 34  1  0  0  0
 10 11  1  0  0  0
 10 12  1  0  0  0
 12 13  2  0  0  0
 12 20  1  0  0  0
 13 14  1  0  0  0
 14 15  1  0  0  0
 14 16  2  0  0  0
 15 35  1  0  0  0
 15 36  1  0  0  0
 15 37  1  0  0  0
 16 17  1  0  0  0
 16 20  1  0  0  0
 17 18  1  0  0  0
 17 38  1  0  0  0
 17 39  1  0  0  0
 18 19  1  0  0  0
 18 40  1  0  0  0
 18 41  1  0  0  0
 19 42  1  0  0  0
 21 22  2  0  0  0
 21 43  1  0  0  0
 22 23  1  0  0  0
 22 24  1  0  0  0
 23 44  1  0  0  0
 24 25  1  0  0  0
 24 26  1  0  0  0
 24 27  1  0  0  0
M  END
> <s_m_entry_id>
32196

> <s_m_entry_name>
dock_pv.459

> <s_m_Source_Path>
/home/csk/Desktop/cluster/DUD-E-result/src

> <s_m_Source_File>
dock_pv.maegz

> <i_m_Source_File_Index>
459

> <chembl_id>
CHEMBL475249

> <chembl_pref_name>
None

> <i_lp_mmshare_version>
53161

> <r_lp_tautomer_probability>
0.999999987636

> <s_lp_Force_Field>
OPLS_2005

> <r_lp_Energy>
-0.018114

> <b_lp_Chiralities_Consistent>
1

> <s_lp_Variant>
CHEMBL267_lig3012-1

> <s_i_glide_gridfile>
glide-grid_3el8

> <i_i_glide_lignum>
3429

> <i_i_glide_rotatable_bonds>
7

> <r_i_docking_score>
-7.06625912313186

> <r_i_glide_ligand_efficiency>
-0.261713300856736

> <r_i_glide_ligand_efficiency_sa>
-0.785139901707642

> <r_i_glide_ligand_efficiency_ln>
-1.64490862747876

> <r_i_glide_gscore>
-7.06625912313186

> <r_i_glide_lipo>
-3.05752637310179

> <r_i_glide_hbond>
-0.32

> <r_i_glide_metal>
0

> <r_i_glide_rewards>
-1.3765953878588

> <r_i_glide_evdw>
-42.8425750732422

> <r_i_glide_ecoul>
-5.32132434844971

> <r_i_glide_erotb>
0.628190043758295

> <r_i_glide_esite>
0

> <r_i_glide_emodel>
-58.7718011568262

> <r_i_glide_energy>
-48.1638994216919

> <r_i_glide_einternal>
13.5387115478516

> <i_i_glide_confnum>
32

> <i_i_glide_posenum>
219

> <r_i_glide_eff_state_penalty>
0

> <s_user_duplicate_titles>
CHEMBL267_lig3012

> <i_f3d_flags>
0

> <s_m_subgroup_title>
dock_pv

> <s_m_subgroupid>
dock_pv

> <b_m_subgroup_collapsed>
1

$$$$
CHEMBL267_lig847
                    3D
 Schrodinger Suite 2021-1.
 38 41  0  0  1  0            999 V2000
    0.8446    6.2539    8.3622 C   0  0  0  0  0  0
    1.9598    6.7088    9.1100 C   0  0  0  0  0  0
    3.2196    7.2848    8.8920 C   0  0  0  0  0  0
   -0.0360    5.7636    9.2931 N   0  0  0  0  0  0
    0.3694    5.8311   10.5725 N   0  0  0  0  0  0
    1.6084    6.3959   10.4649 C   0  0  0  0  0  0
    4.0407    7.5506    9.9379 N   0  0  0  0  0  0
    0.5980    6.1832    7.0174 N   0  0  0  0  0  0
    3.6245    7.5802    7.5876 N   0  0  0  0  0  0
    2.4159    6.6370   11.5009 N   0  0  0  0  0  0
    3.6042    7.2057   11.1746 C   0  0  0  0  0  0
    4.8666    7.9324    7.0513 C   0  0  0  0  0  0
    6.0584    7.4372    7.5833 C   0  0  0  0  0  0
    0.7929    7.1050    5.9833 C   0  0  0  0  0  0
    7.2711    7.7245    6.9641 C   0  0  0  0  0  0
    1.0833    8.8109    3.8063 C   0  0  0  0  0  0
    8.7141    7.0370    7.5875 Cl  0  0  0  0  0  0
    0.6569    6.6173    4.6839 C   0  0  0  0  0  0
    1.0519    8.4629    6.1953 C   0  0  0  0  0  0
    1.2053    9.3152    5.1014 C   0  0  0  0  0  0
    0.8143    7.4631    3.5947 C   0  0  0  0  0  0
    1.2129    9.6413    2.7278 O   0  0  0  0  0  0
    6.1237    9.0376    5.2979 C   0  0  0  0  0  0
    4.9045    8.7275    5.9026 C   0  0  0  0  0  0
    7.3102    8.5310    5.8274 C   0  0  0  0  0  0
   -0.9507    5.4030    9.0544 H   0  0  0  0  0  0
   -0.0169    5.4458    6.7065 H   0  0  0  0  0  0
    2.8800    7.4924    6.9122 H   0  0  0  0  0  0
    4.2817    7.3877   11.9965 H   0  0  0  0  0  0
    6.0432    6.7861    8.4441 H   0  0  0  0  0  0
    0.4302    5.5763    4.5068 H   0  0  0  0  0  0
    1.1304    8.8602    7.1964 H   0  0  0  0  0  0
    1.4068   10.3648    5.2551 H   0  0  0  0  0  0
    0.7212    7.0620    2.5985 H   0  0  0  0  0  0
    0.9938    9.1929    1.9020 H   0  0  0  0  0  0
    6.1458    9.6548    4.4116 H   0  0  0  0  0  0
    3.9906    9.1051    5.4691 H   0  0  0  0  0  0
    8.2552    8.7486    5.3503 H   0  0  0  0  0  0
  1  2  2  0  0  0
  1  4  1  0  0  0
  1  8  1  0  0  0
  2  3  1  0  0  0
  2  6  1  0  0  0
  3  7  2  0  0  0
  3  9  1  0  0  0
  4  5  1  0  0  0
  4 26  1  0  0  0
  5  6  2  0  0  0
  6 10  1  0  0  0
  7 11  1  0  0  0
  8 14  1  0  0  0
  8 27  1  0  0  0
  9 12  1  0  0  0
  9 28  1  0  0  0
 10 11  2  0  0  0
 11 29  1  0  0  0
 12 13  2  0  0  0
 12 24  1  0  0  0
 13 15  1  0  0  0
 13 30  1  0  0  0
 14 18  2  0  0  0
 14 19  1  0  0  0
 15 17  1  0  0  0
 15 25  2  0  0  0
 16 20  1  0  0  0
 16 22  1  0  0  0
 16 21  2  0  0  0
 18 21  1  0  0  0
 18 31  1  0  0  0
 19 20  2  0  0  0
 19 32  1  0  0  0
 20 33  1  0  0  0
 21 34  1  0  0  0
 22 35  1  0  0  0
 23 24  2  0  0  0
 23 25  1  0  0  0
 23 36  1  0  0  0
 24 37  1  0  0  0
 25 38  1  0  0  0
M  END
> <s_m_entry_id>
32197

> <s_m_entry_name>
dock_pv.460

> <s_m_Source_Path>
/home/csk/Desktop/cluster/DUD-E-result/src

> <s_m_Source_File>
dock_pv.maegz

> <i_m_Source_File_Index>
460

> <chembl_id>
CHEMBL122182

> <chembl_pref_name>
None

> <i_lp_mmshare_version>
53161

> <r_lp_tautomer_probability>
1

> <s_lp_Force_Field>
OPLS_2005

> <r_lp_Energy>
28.878721

> <b_lp_Chiralities_Consistent>
1

> <s_lp_Variant>
CHEMBL267_lig847-1

> <s_i_glide_gridfile>
glide-grid_3el8

> <i_i_glide_lignum>
975

> <i_i_glide_rotatable_bonds>
5

> <r_i_docking_score>
-7.06612295373616

> <r_i_glide_ligand_efficiency>
-0.282644918149446

> <r_i_glide_ligand_efficiency_sa>
-0.826458753397949

> <r_i_glide_ligand_efficiency_ln>
-1.67488289465285

> <r_i_glide_gscore>
-7.06612295373616

> <r_i_glide_lipo>
-2.71526242297963

> <r_i_glide_hbond>
-0.399993944396945

> <r_i_glide_metal>
0

> <r_i_glide_rewards>
-1.4096014043878

> <r_i_glide_evdw>
-41.8076057434082

> <r_i_glide_ecoul>
-6.82954978942871

> <r_i_glide_erotb>
0.613536685030292

> <r_i_glide_esite>
-0.039989111417367

> <r_i_glide_emodel>
-63.2207373562472

> <r_i_glide_energy>
-48.6371555328369

> <r_i_glide_einternal>
10.1775989532471

> <i_i_glide_confnum>
29

> <i_i_glide_posenum>
161

> <r_i_glide_eff_state_penalty>
0

> <s_user_duplicate_titles>
CHEMBL267_lig847,198442

> <i_f3d_flags>
0

> <s_m_subgroup_title>
dock_pv

> <s_m_subgroupid>
dock_pv

> <b_m_subgroup_collapsed>
1

$$$$
CHEMBL267_lig2955
                    3D
 Schrodinger Suite 2021-1.
 45 48  0  0  1  0            999 V2000
    5.3407    7.0251    8.3208 N   0  0  0  0  0  0
    5.8917    7.8018    7.3544 C   0  0  0  0  0  0
    5.2328    8.6309    6.4994 N   0  0  0  0  0  0
    3.9917    7.0258    8.4400 C   0  0  0  0  0  0
    3.2026    7.8248    7.5910 C   0  0  0  0  0  0
    3.9035    8.6144    6.6527 C   0  0  0  0  0  0
    2.9382    9.3508    5.9824 N   0  0  0  0  0  0
    1.6966    9.0241    6.4105 N   0  0  0  0  0  0
    1.8273    8.1299    7.3590 C   0  0  0  0  0  0
    3.0775   10.3691    4.9369 C   0  0  0  0  0  0
    3.4214    9.7576    3.5589 C   0  0  1  0  0  0
    2.9576   10.6370    2.3986 C   0  0  0  0  0  0
    5.1776    9.4370    3.4351 Cl  0  0  0  0  0  0
    1.7979   10.2912    1.6983 C   0  0  0  0  0  0
    1.3939   11.0440    0.6001 C   0  0  0  0  0  0
    2.1429   12.1505    0.2092 C   0  0  0  0  0  0
    3.2843   12.5197    0.9164 C   0  0  0  0  0  0
    3.6897   11.7669    2.0156 C   0  0  0  0  0  0
    7.6489    7.6770    7.1882 S   0  0  0  0  0  0
    8.1209    8.5921    5.6929 C   0  0  0  0  0  0
    3.4699    6.2373    9.4690 N   0  0  0  0  0  0
    2.1753    5.7364    9.6292 C   0  0  0  0  0  0
    1.6111    4.8794    8.6788 C   0  0  0  0  0  0
    0.3468    4.3288    8.8972 C   0  0  0  0  0  0
   -0.3548    4.6372   10.0598 C   0  0  0  0  0  0
    0.1980    5.5020   11.0034 C   0  0  0  0  0  0
    1.4631    6.0495   10.7880 C   0  0  0  0  0  0
   -0.2020    3.4922    7.9884 F   0  0  0  0  0  0
    0.9645    7.7194    7.8614 H   0  0  0  0  0  0
    3.8297   11.0951    5.2483 H   0  0  0  0  0  0
    2.1354   10.9192    4.8741 H   0  0  0  0  0  0
    2.9256    8.7900    3.4569 H   0  0  0  0  0  0
    1.2150    9.4284    1.9881 H   0  0  0  0  0  0
    0.5104   10.7604    0.0483 H   0  0  0  0  0  0
    1.8415   12.7254   -0.6540 H   0  0  0  0  0  0
    3.8678   13.3714    0.5976 H   0  0  0  0  0  0
    4.5858   12.0514    2.5463 H   0  0  0  0  0  0
    9.2059    8.6265    5.5935 H   0  0  0  0  0  0
    7.7082    8.0977    4.8139 H   0  0  0  0  0  0
    7.7444    9.6142    5.7236 H   0  0  0  0  0  0
    4.1707    5.7665   10.0308 H   0  0  0  0  0  0
    2.1599    4.6238    7.7838 H   0  0  0  0  0  0
   -1.3373    4.2169   10.2221 H   0  0  0  0  0  0
   -0.3572    5.7472   11.8984 H   0  0  0  0  0  0
    1.8959    6.7036   11.5311 H   0  0  0  0  0  0
  1  2  2  0  0  0
  1  4  1  0  0  0
  2 19  1  0  0  0
  2  3  1  0  0  0
  3  6  2  0  0  0
  4  5  2  0  0  0
  4 21  1  0  0  0
  5  9  1  0  0  0
  5  6  1  0  0  0
  6  7  1  0  0  0
  7  8  1  0  0  0
  7 10  1  0  0  0
  8  9  2  0  0  0
  9 29  1  0  0  0
 10 11  1  0  0  0
 10 30  1  0  0  0
 10 31  1  0  0  0
 11 12  1  0  0  0
 11 13  1  0  0  0
 11 32  1  0  0  0
 12 14  2  0  0  0
 12 18  1  0  0  0
 14 15  1  0  0  0
 14 33  1  0  0  0
 15 16  2  0  0  0
 15 34  1  0  0  0
 16 17  1  0  0  0
 16 35  1  0  0  0
 17 18  2  0  0  0
 17 36  1  0  0  0
 18 37  1  0  0  0
 19 20  1  0  0  0
 20 38  1  0  0  0
 20 39  1  0  0  0
 20 40  1  0  0  0
 21 22  1  0  0  0
 21 41  1  0  0  0
 22 23  2  0  0  0
 22 27  1  0  0  0
 23 24  1  0  0  0
 23 42  1  0  0  0
 24 25  2  0  0  0
 24 28  1  0  0  0
 25 26  1  0  0  0
 25 43  1  0  0  0
 26 27  2  0  0  0
 26 44  1  0  0  0
 27 45  1  0  0  0
M  END
> <s_m_entry_id>
32198

> <s_m_entry_name>
dock_pv.461

> <s_m_Source_Path>
/home/csk/Desktop/cluster/DUD-E-result/src

> <s_m_Source_File>
dock_pv.maegz

> <i_m_Source_File_Index>
461

> <chembl_id>
CHEMBL238559

> <chembl_pref_name>
None

> <i_lp_mmshare_version>
53161

> <r_lp_tautomer_probability>
1

> <s_lp_Force_Field>
OPLS_2005

> <r_lp_Energy>
13.792542

> <b_lp_Chiralities_Consistent>
1

> <s_lp_Variant>
CHEMBL267_lig2955-2

> <s_i_glide_gridfile>
glide-grid_3el8

> <i_i_glide_lignum>
3362

> <i_i_glide_rotatable_bonds>
6

> <r_i_docking_score>
-7.06299379466854

> <r_i_glide_ligand_efficiency>
-0.252249778381019

> <r_i_glide_ligand_efficiency_sa>
-0.765978894339084

> <r_i_glide_ligand_efficiency_ln>
-1.63034634631847

> <r_i_glide_gscore>
-7.06299379466854

> <r_i_glide_lipo>
-2.6964712569962

> <r_i_glide_hbond>
-0.294318296629295

> <r_i_glide_metal>
0

> <r_i_glide_rewards>
-1.72313400402408

> <r_i_glide_evdw>
-44.5300254821777

> <r_i_glide_ecoul>
-4.6565990447998

> <r_i_glide_erotb>
0.575920893809885

> <r_i_glide_esite>
0

> <r_i_glide_emodel>
-62.0350084378871

> <r_i_glide_energy>
-49.1866245269775

> <r_i_glide_einternal>
15.7018899917603

> <i_i_glide_confnum>
18

> <i_i_glide_posenum>
373

> <r_i_glide_eff_state_penalty>
0

> <s_user_duplicate_titles>
CHEMBL267_lig2955

> <i_f3d_flags>
0

> <s_m_subgroup_title>
dock_pv

> <s_m_subgroupid>
dock_pv

> <b_m_subgroup_collapsed>
1

$$$$
CHEMBL267_lig3073
                    3D
 Schrodinger Suite 2021-1.
 39 42  0  0  1  0            999 V2000
    2.1499    8.8332    4.9297 C   0  0  0  0  0  0
    1.0215    8.0568    4.6824 C   0  0  0  0  0  0
    0.6461    7.0555    5.5733 C   0  0  0  0  0  0
    2.9328    8.6152    6.0622 C   0  0  0  0  0  0
    2.5938    7.5862    6.9813 C   0  0  0  0  0  0
    1.4183    6.8119    6.7323 C   0  0  0  0  0  0
    1.0095    5.8383    7.5862 N   0  0  0  0  0  0
    1.7597    5.6352    8.7036 C   0  0  0  0  0  0
    2.8739    6.3121    9.0467 N   0  0  0  0  0  0
    3.3063    7.2498    8.1774 C   0  0  0  0  0  0
    1.4115    4.6324    9.5872 O   0  0  0  0  0  0
    0.3462    3.8100    9.3158 C   0  0  0  0  0  0
    0.5706    2.5647    8.7383 C   0  0  0  0  0  0
   -0.5062    1.7552    8.3881 C   0  0  0  0  0  0
   -1.8023    2.1974    8.6431 C   0  0  0  0  0  0
   -2.0315    3.4366    9.2369 C   0  0  0  0  0  0
   -0.9487    4.2368    9.5878 C   0  0  0  0  0  0
    4.5005    7.8368    8.6043 N   0  0  0  0  0  0
    5.6510    7.8214    7.8630 C   0  0  0  0  0  0
    6.2491    8.6980    6.9799 C   0  0  0  0  0  0
    7.4554    8.1112    6.5882 C   0  0  0  0  0  0
    7.6331    6.9537    7.1880 N   0  0  0  0  0  0
    6.5416    6.7868    7.9436 N   0  0  0  0  0  0
    8.4807    8.6366    5.6172 C   0  0  0  0  0  0
    2.4184    9.6143    4.2333 H   0  0  0  0  0  0
    0.4297    8.2390    3.7965 H   0  0  0  0  0  0
   -0.2390    6.4611    5.3917 H   0  0  0  0  0  0
    3.7864    9.2437    6.2458 H   0  0  0  0  0  0
    1.5787    2.2373    8.5596 H   0  0  0  0  0  0
   -0.3386    0.7819    7.9512 H   0  0  0  0  0  0
   -2.6408    1.5668    8.3879 H   0  0  0  0  0  0
   -3.0385    3.7755    9.4267 H   0  0  0  0  0  0
   -1.0962    5.2040   10.0386 H   0  0  0  0  0  0
    4.6071    7.5777    9.5742 H   0  0  0  0  0  0
    5.8772    9.6579    6.6590 H   0  0  0  0  0  0
    6.4062    5.9649    8.5148 H   0  0  0  0  0  0
    8.2019    9.6031    5.1969 H   0  0  0  0  0  0
    8.5979    7.9424    4.7880 H   0  0  0  0  0  0
    9.4621    8.7477    6.0787 H   0  0  0  0  0  0
  1  2  2  0  0  0
  1  4  1  0  0  0
  1 25  1  0  0  0
  2  3  1  0  0  0
  2 26  1  0  0  0
  3  6  2  0  0  0
  3 27  1  0  0  0
  4  5  2  0  0  0
  4 28  1  0  0  0
  5  6  1  0  0  0
  5 10  1  0  0  0
  6  7  1  0  0  0
  7  8  2  0  0  0
  8  9  1  0  0  0
  8 11  1  0  0  0
  9 10  2  0  0  0
 10 18  1  0  0  0
 11 12  1  0  0  0
 12 13  2  0  0  0
 12 17  1  0  0  0
 13 14  1  0  0  0
 13 29  1  0  0  0
 14 15  2  0  0  0
 14 30  1  0  0  0
 15 16  1  0  0  0
 15 31  1  0  0  0
 16 17  2  0  0  0
 16 32  1  0  0  0
 17 33  1  0  0  0
 18 19  1  0  0  0
 18 34  1  0  0  0
 19 23  1  0  0  0
 19 20  2  0  0  0
 20 21  1  0  0  0
 20 35  1  0  0  0
 21 24  1  0  0  0
 21 22  2  0  0  0
 22 23  1  0  0  0
 23 36  1  0  0  0
 24 37  1  0  0  0
 24 38  1  0  0  0
 24 39  1  0  0  0
M  END
> <s_m_entry_id>
32199

> <s_m_entry_name>
dock_pv.462

> <s_m_Source_Path>
/home/csk/Desktop/cluster/DUD-E-result/src

> <s_m_Source_File>
dock_pv.maegz

> <i_m_Source_File_Index>
462

> <chembl_id>
CHEMBL565205

> <chembl_pref_name>
None

> <i_lp_mmshare_version>
53161

> <r_lp_tautomer_probability>
0.157399999843308

> <s_lp_Force_Field>
OPLS_2005

> <r_lp_Energy>
15.369254

> <b_lp_Chiralities_Consistent>
1

> <s_lp_Variant>
CHEMBL267_lig3073-2

> <s_i_glide_gridfile>
glide-grid_3el8

> <i_i_glide_lignum>
3535

> <i_i_glide_rotatable_bonds>
4

> <r_i_docking_score>
-7.06007502884545

> <r_i_glide_ligand_efficiency>
-0.294169792868561

> <r_i_glide_ligand_efficiency_sa>
-0.848532513825308

> <r_i_glide_ligand_efficiency_ln>
-1.6897999201359

> <r_i_glide_gscore>
-7.06007502884545

> <r_i_glide_lipo>
-3.22060445380145

> <r_i_glide_hbond>
0

> <r_i_glide_metal>
0

> <r_i_glide_rewards>
-2.31674179244773

> <r_i_glide_evdw>
-39.7873153686523

> <r_i_glide_ecoul>
-1.82206165790558

> <r_i_glide_erotb>
0.73994623452218

> <r_i_glide_esite>
0

> <r_i_glide_emodel>
-52.0639765745124

> <r_i_glide_energy>
-41.6093770265579

> <r_i_glide_einternal>
14.3674812316895

> <i_i_glide_confnum>
1

> <i_i_glide_posenum>
244

> <r_i_glide_eff_state_penalty>
0

> <s_user_duplicate_titles>
CHEMBL267_lig3073

> <i_f3d_flags>
0

> <s_m_subgroup_title>
dock_pv

> <s_m_subgroupid>
dock_pv

> <b_m_subgroup_collapsed>
1

$$$$
CHEMBL267_lig1384
                    3D
 Schrodinger Suite 2021-1.
 45 47  0  0  1  0            999 V2000
   -0.4802    4.3104    9.8538 C   0  0  0  0  0  0
    3.9146    6.6621    8.2723 C   0  0  0  0  0  0
    3.0295    7.5595    7.6587 C   0  0  0  0  0  0
    3.5064    8.5388    6.7866 C   0  0  0  0  0  0
    4.8736    8.6370    6.5283 C   0  0  0  0  0  0
    5.7620    7.7538    7.1388 C   0  0  0  0  0  0
    5.2851    6.7541    7.9880 C   0  0  0  0  0  0
    5.5976   10.1158    5.2399 I   0  0  0  0  0  0
    6.1578    5.8417    8.4773 F   0  0  0  0  0  0
    3.4522    5.6530    9.1314 N   0  0  0  0  0  0
    2.1209    5.2930    9.4114 C   0  0  0  0  0  0
    1.3999    5.7536   10.5242 C   0  0  0  0  0  0
    0.0848    5.2770   10.7136 C   0  0  0  0  0  0
    0.2825    3.8285    8.8053 C   0  0  0  0  0  0
    1.5340    4.3400    8.5979 C   0  0  0  0  0  0
    2.1980    3.8370    7.5880 F   0  0  0  0  0  0
   -0.1495    2.8367    7.9881 F   0  0  0  0  0  0
    2.0428    6.6914   11.5143 C   0  0  0  0  0  0
    1.5208    6.6370   12.7681 O   0  0  0  0  0  0
    2.9981    7.4114   11.2191 O   0  0  0  0  0  0
   -1.8126    3.7819   10.0811 C   0  0  0  0  0  0
   -2.4068    2.8962    9.3734 N   0  0  0  0  0  0
   -3.6443    2.5677    9.7933 N   0  0  0  0  0  0
   -4.3470    1.4610    9.4436 C   0  0  0  0  0  0
   -3.6774    0.2585    8.9753 C   0  0  0  0  0  0
   -5.5670    1.4371    9.5883 O   0  0  0  0  0  0
   -2.3331    0.2370    8.7880 O   0  0  0  0  0  0
   -1.9942   -1.0043    8.3709 C   0  0  0  0  0  0
   -3.1333   -1.7623    8.1835 C   0  0  0  0  0  0
   -4.2021   -0.9735    8.6032 C   0  0  0  0  0  0
   -0.5287   -1.2833    8.2676 C   0  0  0  0  0  0
   -0.2020   -2.1595    9.3251 O   0  0  0  0  0  0
    1.9686    7.4978    7.8505 H   0  0  0  0  0  0
    2.8170    9.2237    6.3149 H   0  0  0  0  0  0
    6.8188    7.8174    6.9252 H   0  0  0  0  0  0
    4.1270    5.3296    9.8166 H   0  0  0  0  0  0
   -0.4987    5.6368   11.5527 H   0  0  0  0  0  0
    2.0479    7.1755   13.3621 H   0  0  0  0  0  0
   -2.2020    4.2084   10.9768 H   0  0  0  0  0  0
   -4.1212    3.3072   10.2848 H   0  0  0  0  0  0
   -3.1663   -2.7825    7.8354 H   0  0  0  0  0  0
   -5.2416   -1.2621    8.6240 H   0  0  0  0  0  0
    0.0741   -0.3749    8.3240 H   0  0  0  0  0  0
   -0.2919   -1.7630    7.3190 H   0  0  0  0  0  0
    0.7072   -1.9539    9.5891 H   0  0  0  0  0  0
  1 21  1  0  0  0
  1 13  2  0  0  0
  1 14  1  0  0  0
  2 10  1  0  0  0
  2  7  1  0  0  0
  2  3  2  0  0  0
  3  4  1  0  0  0
  3 33  1  0  0  0
  4  5  2  0  0  0
  4 34  1  0  0  0
  5  8  1  0  0  0
  5  6  1  0  0  0
  6  7  2  0  0  0
  6 35  1  0  0  0
  7  9  1  0  0  0
 10 11  1  0  0  0
 10 36  1  0  0  0
 11 12  2  0  0  0
 11 15  1  0  0  0
 12 18  1  0  0  0
 12 13  1  0  0  0
 13 37  1  0  0  0
 14 17  1  0  0  0
 14 15  2  0  0  0
 15 16  1  0  0  0
 18 19  1  0  0  0
 18 20  2  0  0  0
 19 38  1  0  0  0
 21 22  2  0  0  0
 21 39  1  0  0  0
 22 23  1  0  0  0
 23 24  1  0  0  0
 23 40  1  0  0  0
 24 25  1  0  0  0
 24 26  2  0  0  0
 25 27  1  0  0  0
 25 30  2  0  0  0
 27 28  1  0  0  0
 28 29  2  0  0  0
 28 31  1  0  0  0
 29 30  1  0  0  0
 29 41  1  0  0  0
 30 42  1  0  0  0
 31 32  1  0  0  0
 31 43  1  0  0  0
 31 44  1  0  0  0
 32 45  1  0  0  0
M  END
> <s_m_entry_id>
32200

> <s_m_entry_name>
dock_pv.463

> <s_m_Source_Path>
/home/csk/Desktop/cluster/DUD-E-result/src

> <s_m_Source_File>
dock_pv.maegz

> <i_m_Source_File_Index>
463

> <chembl_id>
CHEMBL481968

> <chembl_pref_name>
None

> <i_lp_mmshare_version>
53161

> <r_lp_tautomer_probability>
1

> <s_lp_Force_Field>
OPLS_2005

> <r_lp_Energy>
26.133251

> <b_lp_Chiralities_Consistent>
1

> <s_lp_Variant>
CHEMBL267_lig1384-1

> <s_i_glide_gridfile>
glide-grid_3el8

> <i_i_glide_lignum>
1546

> <i_i_glide_rotatable_bonds>
10

> <r_i_docking_score>
-7.05594844406551

> <r_i_glide_ligand_efficiency>
-0.220498388877047

> <r_i_glide_ligand_efficiency_sa>
-0.700038748112719

> <r_i_glide_ligand_efficiency_ln>
-1.5800191945166

> <r_i_glide_gscore>
-7.05594844406551

> <r_i_glide_lipo>
-2.90475507503053

> <r_i_glide_hbond>
-0.304

> <r_i_glide_metal>
0

> <r_i_glide_rewards>
-1.26446219479246

> <r_i_glide_evdw>
-37.8303604125977

> <r_i_glide_ecoul>
-7.10103178024292

> <r_i_glide_erotb>
0.452917575276538

> <r_i_glide_esite>
-0.078975961852735

> <r_i_glide_emodel>
-50.7090990767822

> <r_i_glide_energy>
-44.9313921928406

> <r_i_glide_einternal>
9.26029682159424

> <i_i_glide_confnum>
21

> <i_i_glide_posenum>
75

> <r_i_glide_eff_state_penalty>
0

> <s_user_duplicate_titles>
CHEMBL267_lig1384,473579

> <i_f3d_flags>
0

> <s_m_subgroup_title>
dock_pv

> <s_m_subgroupid>
dock_pv

> <b_m_subgroup_collapsed>
1

$$$$
CHEMBL267_lig2189
                    3D
 Schrodinger Suite 2021-1.
 33 35  0  0  1  0            999 V2000
    2.6763    6.3253    8.8539 C   0  0  0  0  0  0
    1.4367    6.8379    8.4335 C   0  0  0  0  0  0
    1.4270    7.8441    7.4607 C   0  0  0  0  0  0
    2.5319    8.3866    6.8799 N   0  0  0  0  0  0
    3.8450    6.8465    8.2744 C   0  0  0  0  0  0
    3.6898    7.8708    7.3003 C   0  0  0  0  0  0
    4.9486    8.2151    6.8544 N   0  0  0  0  0  0
    5.8981    7.4365    7.4915 C   0  0  0  0  0  0
    5.2537    6.5872    8.3834 C   0  0  0  0  0  0
    7.3142    7.5548    7.1104 C   0  0  0  0  0  0
    0.1992    6.4188    8.9505 N   0  0  0  0  0  0
    0.0983    5.3389    9.9278 C   0  0  0  0  0  0
    7.5170    8.5186    6.1711 O   0  0  0  0  0  0
   -0.1792    4.0047    9.2756 C   0  0  0  0  0  0
    8.8075    8.7326    5.6061 C   0  0  0  0  0  0
    8.1970    6.8369    7.5875 O   0  0  0  0  0  0
   -1.4268    3.4328    8.9855 C   0  0  0  0  0  0
   -1.1652    2.2186    8.3887 C   0  0  0  0  0  0
    0.1979    2.1313    8.3885 N   0  0  0  0  0  0
    0.8027    3.2055    8.9106 N   0  0  0  0  0  0
    2.7526    5.5404    9.5889 H   0  0  0  0  0  0
    0.4890    8.2552    7.1121 H   0  0  0  0  0  0
    5.1917    8.8918    6.1468 H   0  0  0  0  0  0
    5.7375    5.8390    8.9963 H   0  0  0  0  0  0
   -0.5351    6.3414    8.2546 H   0  0  0  0  0  0
    0.9412    5.3143   10.6187 H   0  0  0  0  0  0
   -0.7587    5.5664   10.5602 H   0  0  0  0  0  0
    8.8663    9.7361    5.1883 H   0  0  0  0  0  0
    8.9958    8.0312    4.7937 H   0  0  0  0  0  0
    9.6077    8.6395    6.3437 H   0  0  0  0  0  0
   -2.3957    3.8676    9.1872 H   0  0  0  0  0  0
   -1.8009    1.4350    7.9994 H   0  0  0  0  0  0
    0.7200    1.3373    8.0506 H   0  0  0  0  0  0
  1  5  1  0  0  0
  1  2  2  0  0  0
  1 21  1  0  0  0
  2  3  1  0  0  0
  2 11  1  0  0  0
  3  4  2  0  0  0
  3 22  1  0  0  0
  4  6  1  0  0  0
  5  6  2  0  0  0
  5  9  1  0  0  0
  6  7  1  0  0  0
  7  8  1  0  0  0
  7 23  1  0  0  0
  8  9  2  0  0  0
  8 10  1  0  0  0
  9 24  1  0  0  0
 10 13  1  0  0  0
 10 16  2  0  0  0
 11 12  1  0  0  0
 11 25  1  0  0  0
 12 14  1  0  0  0
 12 26  1  0  0  0
 12 27  1  0  0  0
 13 15  1  0  0  0
 14 17  1  0  0  0
 14 20  2  0  0  0
 15 28  1  0  0  0
 15 29  1  0  0  0
 15 30  1  0  0  0
 17 18  2  0  0  0
 17 31  1  0  0  0
 18 19  1  0  0  0
 18 32  1  0  0  0
 19 20  1  0  0  0
 19 33  1  0  0  0
M  END
> <s_m_entry_id>
32201

> <s_m_entry_name>
dock_pv.464

> <s_m_Source_Path>
/home/csk/Desktop/cluster/DUD-E-result/src

> <s_m_Source_File>
dock_pv.maegz

> <i_m_Source_File_Index>
464

> <chembl_id>
CHEMBL3347390

> <chembl_pref_name>
None

> <i_lp_mmshare_version>
53161

> <r_lp_tautomer_probability>
0.5

> <s_lp_Force_Field>
OPLS_2005

> <r_lp_Energy>
8.345391

> <b_lp_Chiralities_Consistent>
1

> <s_lp_Variant>
CHEMBL267_lig2189-1

> <s_i_glide_gridfile>
glide-grid_3el8

> <i_i_glide_lignum>
2478

> <i_i_glide_rotatable_bonds>
5

> <r_i_docking_score>
-7.05423278499301

> <r_i_glide_ligand_efficiency>
-0.352711639249651

> <r_i_glide_ligand_efficiency_sa>
-0.957406686201275

> <r_i_glide_ligand_efficiency_ln>
-1.76544180191498

> <r_i_glide_gscore>
-7.05423278499301

> <r_i_glide_lipo>
-1.79486982266333

> <r_i_glide_hbond>
-0.581466341588274

> <r_i_glide_metal>
0

> <r_i_glide_rewards>
-2.79152359287498

> <r_i_glide_evdw>
-36.9197311401367

> <r_i_glide_ecoul>
-6.55488681793213

> <r_i_glide_erotb>
0.973019736843261

> <r_i_glide_esite>
-0.0301731850130263

> <r_i_glide_emodel>
-60.4032710326569

> <r_i_glide_energy>
-43.4746179580688

> <r_i_glide_einternal>
3.40954804420471

> <i_i_glide_confnum>
18

> <i_i_glide_posenum>
322

> <r_i_glide_eff_state_penalty>
0

> <s_user_duplicate_titles>
CHEMBL267_lig2189,CHEMBL267_lig2189

> <i_f3d_flags>
0

> <s_m_subgroup_title>
dock_pv

> <s_m_subgroupid>
dock_pv

> <b_m_subgroup_collapsed>
1

$$$$
CHEMBL267_lig3725
                    3D
 Schrodinger Suite 2021-1.
 38 41  0  0  1  0            999 V2000
    7.8056    6.3661    7.8800 O   0  0  0  0  0  0
    6.1252    4.9628    8.3880 O   0  0  0  0  0  0
    3.6171    8.9081    6.3780 N   0  0  0  0  0  0
    5.9138    8.2100    6.6504 C   0  0  0  0  0  0
    4.9315    9.0165    6.0852 C   0  0  0  0  0  0
    5.5548    7.1982    7.5666 C   0  0  0  0  0  0
    4.1673    7.1473    7.9881 C   0  0  0  0  0  0
    5.4964    9.9434    5.0751 C   0  0  0  0  0  0
    3.2360    8.0144    7.3250 C   0  0  0  0  0  0
    7.2351    8.5191    5.9885 C   0  0  0  0  0  0
    6.9982    9.8355    5.2598 C   0  0  0  0  0  0
    4.8281   10.7268    4.2011 C   0  0  0  0  0  0
    6.5980    6.1718    7.9880 C   0  0  0  0  0  0
    3.6381    6.2941    9.0059 C   0  0  0  0  0  0
    1.8545    7.9532    7.6341 C   0  0  0  0  0  0
    5.4457   11.6710    3.1749 C   0  0  0  0  0  0
    3.3171   10.8021    3.9584 C   0  0  0  0  0  0
    2.2775    6.2596    9.2933 C   0  0  0  0  0  0
    1.3895    7.0688    8.6007 C   0  0  0  0  0  0
    4.5003   11.5673    1.9877 C   0  0  0  0  0  0
    3.1352   11.5702    2.6437 C   0  0  0  0  0  0
    6.8357    4.3847    8.6924 H   0  0  0  0  0  0
    8.0686    8.6136    6.6857 H   0  0  0  0  0  0
    7.4951    7.7352    5.2748 H   0  0  0  0  0  0
    7.5749    9.9083    4.3389 H   0  0  0  0  0  0
    7.3264   10.6575    5.8971 H   0  0  0  0  0  0
    4.2800    5.6566    9.5880 H   0  0  0  0  0  0
    1.1625    8.5937    7.1059 H   0  0  0  0  0  0
    5.4657   12.6958    3.5502 H   0  0  0  0  0  0
    6.4688   11.4252    2.8909 H   0  0  0  0  0  0
    2.9153    9.7929    3.8551 H   0  0  0  0  0  0
    2.7805   11.2851    4.7758 H   0  0  0  0  0  0
    1.9100    5.5916   10.0594 H   0  0  0  0  0  0
    0.3344    7.0136    8.8259 H   0  0  0  0  0  0
    4.6246   12.3892    1.2806 H   0  0  0  0  0  0
    4.6668   10.6369    1.4438 H   0  0  0  0  0  0
    2.3715   11.1237    2.0052 H   0  0  0  0  0  0
    2.8225   12.5954    2.8497 H   0  0  0  0  0  0
  1 13  2  0  0  0
  2 13  1  0  0  0
  2 22  1  0  0  0
  3  5  2  0  0  0
  3  9  1  0  0  0
  4  5  1  0  0  0
  4  6  2  0  0  0
  4 10  1  0  0  0
  5  8  1  0  0  0
  6  7  1  0  0  0
  6 13  1  0  0  0
  7  9  1  0  0  0
  7 14  2  0  0  0
  8 11  1  0  0  0
  8 12  2  0  0  0
  9 15  2  0  0  0
 10 11  1  0  0  0
 10 23  1  0  0  0
 10 24  1  0  0  0
 11 25  1  0  0  0
 11 26  1  0  0  0
 12 16  1  0  0  0
 12 17  1  0  0  0
 14 18  1  0  0  0
 14 27  1  0  0  0
 15 19  1  0  0  0
 15 28  1  0  0  0
 16 20  1  0  0  0
 16 29  1  0  0  0
 16 30  1  0  0  0
 17 21  1  0  0  0
 17 31  1  0  0  0
 17 32  1  0  0  0
 18 19  2  0  0  0
 18 33  1  0  0  0
 19 34  1  0  0  0
 20 21  1  0  0  0
 20 35  1  0  0  0
 20 36  1  0  0  0
 21 37  1  0  0  0
 21 38  1  0  0  0
M  END
> <s_m_entry_id>
32202

> <s_m_entry_name>
dock_pv.465

> <s_m_Source_Path>
/home/csk/Desktop/cluster/DUD-E-result/src

> <s_m_Source_File>
dock_pv.maegz

> <i_m_Source_File_Index>
465

> <chembl_id>
CHEMBL1996831

> <chembl_pref_name>
None

> <i_lp_mmshare_version>
53161

> <r_lp_tautomer_probability>
1

> <s_lp_Force_Field>
OPLS_2005

> <r_lp_Energy>
44.925929

> <b_lp_Chiralities_Consistent>
1

> <s_lp_Variant>
CHEMBL267_lig3725-1

> <s_i_glide_gridfile>
glide-grid_3el8

> <i_i_glide_lignum>
4541

> <i_i_glide_rotatable_bonds>
2

> <r_i_docking_score>
-7.0534887663797

> <r_i_glide_ligand_efficiency>
-0.335880417446652

> <r_i_glide_ligand_efficiency_sa>
-0.926668603126132

> <r_i_glide_ligand_efficiency_ln>
-1.7439608445713

> <r_i_glide_gscore>
-7.0534887663797

> <r_i_glide_lipo>
-2.26412537673936

> <r_i_glide_hbond>
-0.304

> <r_i_glide_metal>
0

> <r_i_glide_rewards>
-2.42608848060452

> <r_i_glide_evdw>
-27.6705150604248

> <r_i_glide_ecoul>
-6.04645252227783

> <r_i_glide_erotb>
0.231218722327089

> <r_i_glide_esite>
0

> <r_i_glide_emodel>
-47.0476131940297

> <r_i_glide_energy>
-33.7169675827026

> <r_i_glide_einternal>
2.45293831825256

> <i_i_glide_confnum>
1

> <i_i_glide_posenum>
387

> <r_i_glide_eff_state_penalty>
0

> <s_user_duplicate_titles>
CHEMBL267_lig3725

> <i_f3d_flags>
0

> <s_m_subgroup_title>
dock_pv

> <s_m_subgroupid>
dock_pv

> <b_m_subgroup_collapsed>
1

$$$$
CHEMBL267_lig3694
                    3D
 Schrodinger Suite 2021-1.
 47 50  0  0  1  0            999 V2000
    0.3186    7.0370    8.4004 O   0  0  0  0  0  0
    3.4537    7.0370   11.2694 O   0  0  0  0  0  0
    9.3981    8.6370    5.4209 O   0  0  0  0  0  0
    4.1737    8.0768    7.3211 N   0  0  0  0  0  0
    1.3892    6.2371   10.8231 N   0  0  0  0  0  0
    2.8785   11.6454    0.7318 N   0  0  0  0  0  0
    0.9980    6.2369   12.1653 N   0  0  0  0  0  0
    3.1026    8.3365    6.4075 C   0  0  0  0  0  0
    1.7838    8.0151    6.8038 C   0  0  0  0  0  0
    1.4727    7.3767    8.1304 C   0  0  0  0  0  0
    2.6312    7.2890    9.0636 C   0  0  0  0  0  0
    5.5536    8.2370    6.9971 C   0  0  0  0  0  0
    3.8575    7.6421    8.6017 C   0  0  0  0  0  0
    3.2922    8.9090    5.1348 C   0  0  0  0  0  0
    2.2329    9.2920    4.3088 C   0  0  0  0  0  0
    0.7249    8.2908    5.9256 C   0  0  0  0  0  0
    6.5367    7.2412    7.2503 C   0  0  0  0  0  0
    2.5377    6.8490   10.4604 C   0  0  0  0  0  0
    0.9482    8.9372    4.7157 C   0  0  0  0  0  0
    5.9723    9.4204    6.3670 C   0  0  0  0  0  0
    2.4683   10.0873    3.0596 C   0  0  0  0  0  0
    7.8275    7.4040    6.7369 C   0  0  0  0  0  0
    8.1623    8.5256    5.9880 C   0  0  0  0  0  0
    7.2378    9.5412    5.8141 C   0  0  0  0  0  0
    1.5623   10.0584    1.9877 C   0  0  0  0  0  0
    3.5864   10.9320    2.9292 C   0  0  0  0  0  0
    6.2429    5.9212    7.9717 C   0  0  0  0  0  0
    1.7986   10.8379    0.8551 C   0  0  0  0  0  0
    3.7563   11.6816    1.7628 C   0  0  0  0  0  0
    9.7979    7.7609    5.2532 H   0  0  0  0  0  0
    0.6023    6.2458   10.1853 H   0  0  0  0  0  0
    1.2479    5.3376   12.5514 H   0  0  0  0  0  0
    1.5618    6.9324   12.6372 H   0  0  0  0  0  0
    4.7053    7.6443    9.2737 H   0  0  0  0  0  0
    4.2750    9.0779    4.7396 H   0  0  0  0  0  0
   -0.2963    8.0399    6.1823 H   0  0  0  0  0  0
    0.0962    9.1737    4.0997 H   0  0  0  0  0  0
    5.2868   10.2457    6.2415 H   0  0  0  0  0  0
    8.5715    6.6374    6.8810 H   0  0  0  0  0  0
    7.5094   10.4334    5.2687 H   0  0  0  0  0  0
    0.6810    9.4364    2.0071 H   0  0  0  0  0  0
    4.3146   11.0294    3.7199 H   0  0  0  0  0  0
    6.1979    6.0331    9.0517 H   0  0  0  0  0  0
    5.2857    5.5200    7.6469 H   0  0  0  0  0  0
    6.9816    5.1528    7.7394 H   0  0  0  0  0  0
    1.1170   10.8153    0.0176 H   0  0  0  0  0  0
    4.6082   12.3351    1.6376 H   0  0  0  0  0  0
  1 10  2  0  0  0
  2 18  2  0  0  0
  3 23  1  0  0  0
  3 30  1  0  0  0
  4  8  1  0  0  0
  4 12  1  0  0  0
  4 13  1  0  0  0
  5  7  1  0  0  0
  5 18  1  0  0  0
  5 31  1  0  0  0
  6 28  2  0  0  0
  6 29  1  0  0  0
  7 32  1  0  0  0
  7 33  1  0  0  0
  8  9  1  0  0  0
  8 14  2  0  0  0
  9 10  1  0  0  0
  9 16  2  0  0  0
 10 11  1  0  0  0
 11 13  2  0  0  0
 11 18  1  0  0  0
 12 17  1  0  0  0
 12 20  2  0  0  0
 13 34  1  0  0  0
 14 15  1  0  0  0
 14 35  1  0  0  0
 15 19  2  0  0  0
 15 21  1  0  0  0
 16 19  1  0  0  0
 16 36  1  0  0  0
 17 22  2  0  0  0
 17 27  1  0  0  0
 19 37  1  0  0  0
 20 24  1  0  0  0
 20 38  1  0  0  0
 21 25  2  0  0  0
 21 26  1  0  0  0
 22 23  1  0  0  0
 22 39  1  0  0  0
 23 24  2  0  0  0
 24 40  1  0  0  0
 25 28  1  0  0  0
 25 41  1  0  0  0
 26 29  2  0  0  0
 26 42  1  0  0  0
 27 43  1  0  0  0
 27 44  1  0  0  0
 27 45  1  0  0  0
 28 46  1  0  0  0
 29 47  1  0  0  0
M  END
> <s_m_entry_id>
32203

> <s_m_entry_name>
dock_pv.466

> <s_m_Source_Path>
/home/csk/Desktop/cluster/DUD-E-result/src

> <s_m_Source_File>
dock_pv.maegz

> <i_m_Source_File_Index>
466

> <chembl_id>
CHEMBL2000894

> <chembl_pref_name>
None

> <i_lp_mmshare_version>
53161

> <r_lp_tautomer_probability>
1

> <s_lp_Force_Field>
OPLS_2005

> <r_lp_Energy>
35.018155

> <b_lp_Chiralities_Consistent>
1

> <s_lp_Variant>
CHEMBL267_lig3694-1

> <s_i_glide_gridfile>
glide-grid_3el8

> <i_i_glide_lignum>
4499

> <i_i_glide_rotatable_bonds>
5

> <r_i_docking_score>
-7.05290497369131

> <r_i_glide_ligand_efficiency>
-0.243203619782459

> <r_i_glide_ligand_efficiency_sa>
-0.747198572286672

> <r_i_glide_ligand_efficiency_ln>
-1.61493639273645

> <r_i_glide_gscore>
-7.05290497369131

> <r_i_glide_lipo>
-2.98645410422322

> <r_i_glide_hbond>
-0.349608509173733

> <r_i_glide_metal>
0

> <r_i_glide_rewards>
-1.28518850554898

> <r_i_glide_evdw>
-37.6839790344238

> <r_i_glide_ecoul>
-6.25680541992188

> <r_i_glide_erotb>
0.3910659099641

> <r_i_glide_esite>
0

> <r_i_glide_emodel>
-49.9492557282684

> <r_i_glide_energy>
-43.9407844543457

> <r_i_glide_einternal>
19.0220909118652

> <i_i_glide_confnum>
6

> <i_i_glide_posenum>
7

> <r_i_glide_eff_state_penalty>
0

> <s_user_duplicate_titles>
CHEMBL267_lig3694

> <i_f3d_flags>
0

> <s_m_subgroup_title>
dock_pv

> <s_m_subgroupid>
dock_pv

> <b_m_subgroup_collapsed>
1

$$$$
CHEMBL267_lig3459
                    3D
 Schrodinger Suite 2021-1.
 46 49  0  0  1  0            999 V2000
    2.4414    9.5841    5.9934 C   0  0  0  0  0  0
    1.7033    9.0062    6.8915 N   0  0  0  0  0  0
    2.5095    8.1697    7.5199 C   0  0  0  0  0  0
    3.8290    8.2245    7.0204 C   0  0  0  0  0  0
    3.7410    9.1373    5.9625 N   0  0  0  0  0  0
    7.3658    7.1762    7.3117 C   0  0  0  0  0  0
    6.2642    7.9346    7.0570 N   0  0  0  0  0  0
    5.0592    7.4538    7.4609 C   0  0  0  0  0  0
    4.9853    6.2454    8.1744 C   0  0  0  0  0  0
    6.1702    5.5387    8.3880 C   0  0  0  0  0  0
    7.3752    5.9883    7.9613 N   0  0  0  0  0  0
    8.5982    7.5907    6.8609 O   0  0  0  0  0  0
    8.6601    8.5332    5.7931 C   0  0  0  0  0  0
    1.9319    7.3461    8.6206 C   0  0  0  0  0  0
    2.5313    7.2916    9.8840 C   0  0  0  0  0  0
    1.9633    6.5068   10.8861 C   0  0  0  0  0  0
    0.7946    5.7923   10.6249 C   0  0  0  0  0  0
    0.1980    5.8419    9.3722 C   0  0  0  0  0  0
    0.7636    6.6182    8.3699 C   0  0  0  0  0  0
    0.2273    5.0374   11.5890 F   0  0  0  0  0  0
    5.5476   11.7640    3.1605 N   0  0  1  0  0  0
    5.1642   10.4631    2.6174 C   0  0  0  0  0  0
    4.1974    9.7360    3.5695 C   0  0  0  0  0  0
    4.7744    9.5983    5.0055 C   0  0  0  0  0  0
    5.3036   10.9645    5.5003 C   0  0  0  0  0  0
    6.2032   11.6682    4.4634 C   0  0  0  0  0  0
    2.1000   10.3460    5.3110 H   0  0  0  0  0  0
    4.0505    5.8011    8.4696 H   0  0  0  0  0  0
    6.1736    4.5816    8.8849 H   0  0  0  0  0  0
    9.6984    8.8298    5.6274 H   0  0  0  0  0  0
    8.0828    9.4370    5.9885 H   0  0  0  0  0  0
    8.2903    8.0789    4.8730 H   0  0  0  0  0  0
    3.4334    7.8502   10.0864 H   0  0  0  0  0  0
    2.4226    6.4527   11.8620 H   0  0  0  0  0  0
   -0.7135    5.2913    9.1867 H   0  0  0  0  0  0
    0.2919    6.6460    7.3977 H   0  0  0  0  0  0
    6.1379   12.2555    2.5012 H   0  0  0  0  0  0
    6.0550    9.8600    2.4312 H   0  0  0  0  0  0
    4.6771   10.6371    1.6563 H   0  0  0  0  0  0
    4.0800    8.7302    3.1620 H   0  0  0  0  0  0
    3.1955   10.1573    3.5016 H   0  0  0  0  0  0
    5.5519    8.8416    4.9661 H   0  0  0  0  0  0
    4.5206   11.6247    5.8781 H   0  0  0  0  0  0
    5.9372   10.7814    6.3713 H   0  0  0  0  0  0
    7.1585   11.1498    4.3597 H   0  0  0  0  0  0
    6.4202   12.6859    4.7883 H   0  0  0  0  0  0
  1  2  2  0  0  0
  1  5  1  0  0  0
  1 27  1  0  0  0
  2  3  1  0  0  0
  3  4  2  0  0  0
  3 14  1  0  0  0
  4  5  1  0  0  0
  4  8  1  0  0  0
  5 24  1  0  0  0
  6  7  1  0  0  0
  6 11  2  0  0  0
  6 12  1  0  0  0
  7  8  2  0  0  0
  8  9  1  0  0  0
  9 10  2  0  0  0
  9 28  1  0  0  0
 10 11  1  0  0  0
 10 29  1  0  0  0
 12 13  1  0  0  0
 13 30  1  0  0  0
 13 31  1  0  0  0
 13 32  1  0  0  0
 14 15  1  0  0  0
 14 19  2  0  0  0
 15 16  2  0  0  0
 15 33  1  0  0  0
 16 17  1  0  0  0
 16 34  1  0  0  0
 17 18  2  0  0  0
 17 20  1  0  0  0
 18 19  1  0  0  0
 18 35  1  0  0  0
 19 36  1  0  0  0
 21 22  1  0  0  0
 21 26  1  0  0  0
 21 37  1  0  0  0
 22 23  1  0  0  0
 22 38  1  0  0  0
 22 39  1  0  0  0
 23 24  1  0  0  0
 23 40  1  0  0  0
 23 41  1  0  0  0
 24 25  1  0  0  0
 24 42  1  0  0  0
 25 26  1  0  0  0
 25 43  1  0  0  0
 25 44  1  0  0  0
 26 45  1  0  0  0
 26 46  1  0  0  0
M  END
> <s_m_entry_id>
32204

> <s_m_entry_name>
dock_pv.467

> <s_m_Source_Path>
/home/csk/Desktop/cluster/DUD-E-result/src

> <s_m_Source_File>
dock_pv.maegz

> <i_m_Source_File_Index>
467

> <chembl_id>
CHEMBL95692

> <chembl_pref_name>
SB-242235

> <i_lp_mmshare_version>
53161

> <r_lp_tautomer_probability>
1

> <s_lp_Force_Field>
OPLS_2005

> <r_lp_Energy>
27.8208

> <b_lp_Chiralities_Consistent>
1

> <s_lp_Variant>
CHEMBL267_lig3459-1

> <s_i_glide_gridfile>
glide-grid_3el8

> <i_i_glide_lignum>
4147

> <i_i_glide_rotatable_bonds>
4

> <r_i_docking_score>
-7.04985306372947

> <r_i_glide_ligand_efficiency>
-0.271148194758826

> <r_i_glide_ligand_efficiency_sa>
-0.803275460056395

> <r_i_glide_ligand_efficiency_ln>
-1.6556348595622

> <r_i_glide_gscore>
-7.04985306372947

> <r_i_glide_lipo>
-2.68064150601134

> <r_i_glide_hbond>
-0.138605151471977

> <r_i_glide_metal>
0

> <r_i_glide_rewards>
-2.47102636377637

> <r_i_glide_evdw>
-35.6056251525879

> <r_i_glide_ecoul>
-2.92016768455505

> <r_i_glide_erotb>
0.458726367842866

> <r_i_glide_esite>
0

> <r_i_glide_emodel>
-53.0111529616781

> <r_i_glide_energy>
-38.5257928371429

> <r_i_glide_einternal>
2.65881371498108

> <i_i_glide_confnum>
17

> <i_i_glide_posenum>
37

> <r_i_glide_eff_state_penalty>
0

> <s_user_duplicate_titles>
CHEMBL267_lig3459

> <i_f3d_flags>
0

> <s_m_subgroup_title>
dock_pv

> <s_m_subgroupid>
dock_pv

> <b_m_subgroup_collapsed>
1

$$$$
CHEMBL267_lig3613
                    3D
 Schrodinger Suite 2021-1.
 43 45  0  0  1  0            999 V2000
    0.7882    7.8008    8.3880 O   0  0  0  0  0  0
    2.8798    7.4240    7.6085 N   0  0  0  0  0  0
    0.6112    7.9326    3.4741 N   0  0  0  0  0  0
    2.6462    9.2233    3.7497 N   0  0  0  0  0  0
   -0.6115    1.8506    8.3880 N   0  0  0  0  0  0
    1.6871    7.7278    5.4497 C   0  0  0  0  0  0
    2.7471    8.0112    6.3435 C   0  0  0  0  0  0
    1.7100    8.3728    4.1810 C   0  0  0  0  0  0
    0.5281    6.8809    5.4522 C   0  0  0  0  0  0
    1.8707    7.2136    8.4790 C   0  0  0  0  0  0
    3.7665    8.8525    5.8890 C   0  0  0  0  0  0
    2.1836    6.2806    9.6854 C   0  0  2  0  0  0
   -0.1007    7.0369    4.2356 C   0  0  0  0  0  0
    3.6667    9.4368    4.6234 C   0  0  0  0  0  0
    2.6136    4.8872    9.1557 C   0  0  0  0  0  0
    0.9866    6.0875   10.6510 C   0  0  0  0  0  0
    0.2120    3.9475    9.4119 C   0  0  1  0  0  0
    1.4575    4.1082    8.4934 C   0  0  0  0  0  0
   -0.2022    5.3104   10.0334 C   0  0  0  0  0  0
   -0.9534    3.2329    8.6671 C   0  0  2  0  0  0
   -2.3253    3.2341    9.3627 C   0  0  0  0  0  0
    3.8161    7.2102    7.9129 H   0  0  0  0  0  0
    0.3505    8.1776    2.5267 H   0  0  0  0  0  0
   -1.3612    1.4033    7.8764 H   0  0  0  0  0  0
    0.2308    1.7741    7.8378 H   0  0  0  0  0  0
    0.1915    6.2368    6.2487 H   0  0  0  0  0  0
    4.6279    9.0580    6.5063 H   0  0  0  0  0  0
    3.0511    6.7266   10.1748 H   0  0  0  0  0  0
   -1.0016    6.5845    3.8475 H   0  0  0  0  0  0
    4.4450   10.0990    4.2735 H   0  0  0  0  0  0
    2.9981    4.3026    9.9879 H   0  0  0  0  0  0
    3.5025    4.9581    8.5272 H   0  0  0  0  0  0
    0.7073    7.0324   11.1108 H   0  0  0  0  0  0
    1.3479    5.5368   11.5206 H   0  0  0  0  0  0
    0.5328    3.3355   10.2573 H   0  0  0  0  0  0
    1.7979    3.1336    8.1439 H   0  0  0  0  0  0
    1.1648    4.6397    7.5923 H   0  0  0  0  0  0
   -0.6604    5.9197    9.2551 H   0  0  0  0  0  0
   -0.9897    5.1658   10.7721 H   0  0  0  0  0  0
   -1.0791    3.7411    7.7139 H   0  0  0  0  0  0
   -2.7455    4.2373    9.3941 H   0  0  0  0  0  0
   -2.2653    2.8742   10.3877 H   0  0  0  0  0  0
   -3.0510    2.6152    8.8323 H   0  0  0  0  0  0
  1 10  2  0  0  0
  2  7  1  0  0  0
  2 10  1  0  0  0
  2 22  1  0  0  0
  3  8  1  0  0  0
  3 13  1  0  0  0
  3 23  1  0  0  0
  4  8  1  0  0  0
  4 14  2  0  0  0
  5 20  1  0  0  0
  5 24  1  0  0  0
  5 25  1  0  0  0
  6  7  1  0  0  0
  6  8  2  0  0  0
  6  9  1  0  0  0
  7 11  2  0  0  0
  9 13  2  0  0  0
  9 26  1  0  0  0
 10 12  1  0  0  0
 11 14  1  0  0  0
 11 27  1  0  0  0
 12 15  1  0  0  0
 12 16  1  0  0  0
 12 28  1  0  0  0
 13 29  1  0  0  0
 14 30  1  0  0  0
 15 18  1  0  0  0
 15 31  1  0  0  0
 15 32  1  0  0  0
 16 19  1  0  0  0
 16 33  1  0  0  0
 16 34  1  0  0  0
 17 18  1  0  0  0
 17 19  1  0  0  0
 17 20  1  0  0  0
 17 35  1  0  0  0
 18 36  1  0  0  0
 18 37  1  0  0  0
 19 38  1  0  0  0
 19 39  1  0  0  0
 20 21  1  0  0  0
 20 40  1  0  0  0
 21 41  1  0  0  0
 21 42  1  0  0  0
 21 43  1  0  0  0
M  END
> <s_m_entry_id>
32205

> <s_m_entry_name>
dock_pv.468

> <s_m_Source_Path>
/home/csk/Desktop/cluster/DUD-E-result/src

> <s_m_Source_File>
dock_pv.maegz

> <i_m_Source_File_Index>
468

> <chembl_id>
CHEMBL2002992

> <chembl_pref_name>
None

> <i_lp_mmshare_version>
53161

> <r_lp_tautomer_probability>
0.999998432528457

> <s_lp_Force_Field>
OPLS_2005

> <r_lp_Energy>
22.127094

> <b_lp_Chiralities_Consistent>
1

> <s_lp_Variant>
CHEMBL267_lig3613-3

> <s_i_glide_gridfile>
glide-grid_3el8

> <i_i_glide_lignum>
4366

> <i_i_glide_rotatable_bonds>
4

> <r_i_docking_score>
-7.04910639207128

> <r_i_glide_ligand_efficiency>
-0.335671732955775

> <r_i_glide_ligand_efficiency_sa>
-0.926092858439599

> <r_i_glide_ligand_efficiency_ln>
-1.74287731137896

> <r_i_glide_gscore>
-7.04910639207128

> <r_i_glide_lipo>
-2.58782820763221

> <r_i_glide_hbond>
-0.392126523834985

> <r_i_glide_metal>
0

> <r_i_glide_rewards>
-2.47803521282552

> <r_i_glide_evdw>
-33.4704399108887

> <r_i_glide_ecoul>
-3.70001673698425

> <r_i_glide_erotb>
0.664279621058043

> <r_i_glide_esite>
-0.0268715627445335

> <r_i_glide_emodel>
-48.903747837928

> <r_i_glide_energy>
-37.1704566478729

> <r_i_glide_einternal>
8.72754859924316

> <i_i_glide_confnum>
4

> <i_i_glide_posenum>
322

> <r_i_glide_eff_state_penalty>
0

> <s_user_duplicate_titles>
CHEMBL267_lig3613

> <i_f3d_flags>
0

> <s_m_subgroup_title>
dock_pv

> <s_m_subgroupid>
dock_pv

> <b_m_subgroup_collapsed>
1

$$$$
CHEMBL267_lig1021
                    3D
 Schrodinger Suite 2021-1.
 47 49  0  0  1  0            999 V2000
    2.8144    9.1344    6.0154 C   0  0  0  0  0  0
    3.5283    9.6734    4.9420 C   0  0  0  0  0  0
    4.9084    9.4504    4.8463 C   0  0  0  0  0  0
    3.4702    8.3921    6.9949 C   0  0  0  0  0  0
    4.8358    8.0645    6.8718 C   0  0  0  0  0  0
    5.5754    8.6376    5.7934 C   0  0  0  0  0  0
    6.9105    8.4139    5.6413 N   0  0  0  0  0  0
    7.5003    7.6084    6.5554 C   0  0  0  0  0  0
    6.8930    6.9779    7.5885 N   0  0  0  0  0  0
    5.5610    7.1873    7.7349 C   0  0  0  0  0  0
    5.0038    6.4471    8.7918 N   0  0  0  0  0  0
    3.6888    6.1441    9.1892 C   0  0  0  0  0  0
    2.9238    5.2566    8.4346 C   0  0  0  0  0  0
    1.6285    4.9102    8.8122 C   0  0  0  0  0  0
    1.1020    5.4093    9.9980 C   0  0  0  0  0  0
    1.8794    6.2366   10.8077 C   0  0  0  0  0  0
    3.1537    6.6437   10.3880 C   0  0  0  0  0  0
    2.8376   10.4258    4.0167 O   0  0  0  0  0  0
    1.2985    9.2949    6.1205 C   0  0  0  0  0  0
    3.1663   10.2350    2.6463 C   0  0  0  0  0  0
    1.2896    6.6371   12.3782 Cl  0  0  0  0  0  0
    3.8874    7.4705   11.1721 F   0  0  0  0  0  0
    0.6292    8.0485    6.5283 N   0  0  2  0  0  0
    0.9215    6.7855    5.8311 C   0  0  0  0  0  0
    0.4553    6.7387    4.3627 C   0  0  0  0  0  0
    0.8905    7.6649    3.5103 N   0  0  0  0  0  0
   -0.2798    5.8368    3.9880 O   0  0  0  0  0  0
   -0.7855    8.2376    6.7966 C   0  0  0  0  0  0
    5.4850    9.8795    4.0416 H   0  0  0  0  0  0
    2.8937    8.0165    7.8214 H   0  0  0  0  0  0
    8.5609    7.4375    6.4285 H   0  0  0  0  0  0
    5.7062    6.1172    9.4364 H   0  0  0  0  0  0
    3.3644    4.7765    7.5878 H   0  0  0  0  0  0
    1.0519    4.2194    8.2142 H   0  0  0  0  0  0
    0.1167    5.1009   10.3205 H   0  0  0  0  0  0
    0.8689    9.6615    5.1877 H   0  0  0  0  0  0
    1.1098   10.0667    6.8678 H   0  0  0  0  0  0
    2.4484   10.7688    2.0237 H   0  0  0  0  0  0
    4.1590   10.6108    2.3984 H   0  0  0  0  0  0
    3.1067    9.1777    2.3865 H   0  0  0  0  0  0
    0.4402    5.9642    6.3657 H   0  0  0  0  0  0
    1.9800    6.5316    5.8489 H   0  0  0  0  0  0
    0.5939    7.6276    2.5423 H   0  0  0  0  0  0
    1.5083    8.3971    3.8233 H   0  0  0  0  0  0
   -1.0681    7.5046    7.5505 H   0  0  0  0  0  0
   -1.0010    9.2315    7.1885 H   0  0  0  0  0  0
   -1.4005    8.0690    5.9187 H   0  0  0  0  0  0
  1  2  1  0  0  0
  1 19  1  0  0  0
  1  4  2  0  0  0
  2 18  1  0  0  0
  2  3  2  0  0  0
  3  6  1  0  0  0
  3 29  1  0  0  0
  4  5  1  0  0  0
  4 30  1  0  0  0
  5 10  2  0  0  0
  5  6  1  0  0  0
  6  7  2  0  0  0
  7  8  1  0  0  0
  8  9  2  0  0  0
  8 31  1  0  0  0
  9 10  1  0  0  0
 10 11  1  0  0  0
 11 12  1  0  0  0
 11 32  1  0  0  0
 12 17  2  0  0  0
 12 13  1  0  0  0
 13 14  2  0  0  0
 13 33  1  0  0  0
 14 15  1  0  0  0
 14 34  1  0  0  0
 15 16  2  0  0  0
 15 35  1  0  0  0
 16 17  1  0  0  0
 16 21  1  0  0  0
 17 22  1  0  0  0
 18 20  1  0  0  0
 19 23  1  0  0  0
 19 36  1  0  0  0
 19 37  1  0  0  0
 20 38  1  0  0  0
 20 39  1  0  0  0
 20 40  1  0  0  0
 23 24  1  0  0  0
 23 28  1  0  0  0
 24 25  1  0  0  0
 24 41  1  0  0  0
 24 42  1  0  0  0
 25 26  1  0  0  0
 25 27  2  0  0  0
 26 43  1  0  0  0
 26 44  1  0  0  0
 28 45  1  0  0  0
 28 46  1  0  0  0
 28 47  1  0  0  0
M  END
> <s_m_entry_id>
32206

> <s_m_entry_name>
dock_pv.469

> <s_m_Source_Path>
/home/csk/Desktop/cluster/DUD-E-result/src

> <s_m_Source_File>
dock_pv.maegz

> <i_m_Source_File_Index>
469

> <chembl_id>
CHEMBL379601

> <chembl_pref_name>
None

> <i_lp_mmshare_version>
53161

> <r_lp_tautomer_probability>
0.999978000241998

> <s_lp_Force_Field>
OPLS_2005

> <r_lp_Energy>
18.698542

> <b_lp_Chiralities_Consistent>
1

> <s_lp_Variant>
CHEMBL267_lig1021-1

> <s_i_glide_gridfile>
glide-grid_3el8

> <i_i_glide_lignum>
1160

> <i_i_glide_rotatable_bonds>
7

> <r_i_docking_score>
-7.04841339954019

> <r_i_glide_ligand_efficiency>
-0.251729049983578

> <r_i_glide_ligand_efficiency_sa>
-0.764397656231828

> <r_i_glide_ligand_efficiency_ln>
-1.62698076302384

> <r_i_glide_gscore>
-7.04841339954019

> <r_i_glide_lipo>
-2.80022767279712

> <r_i_glide_hbond>
-0.315152578389411

> <r_i_glide_metal>
0

> <r_i_glide_rewards>
-1.85767966933944

> <r_i_glide_evdw>
-43.9032402038574

> <r_i_glide_ecoul>
-3.06750869750977

> <r_i_glide_erotb>
0.602058695950387

> <r_i_glide_esite>
-0.0221238601452727

> <r_i_glide_emodel>
-49.954248656929

> <r_i_glide_energy>
-46.9707489013672

> <r_i_glide_einternal>
15.4878692626953

> <i_i_glide_confnum>
13

> <i_i_glide_posenum>
97

> <r_i_glide_eff_state_penalty>
0

> <s_user_duplicate_titles>
CHEMBL267_lig1021

> <i_f3d_flags>
0

> <s_m_subgroup_title>
dock_pv

> <s_m_subgroupid>
dock_pv

> <b_m_subgroup_collapsed>
1

$$$$
CHEMBL267_lig3563
                    3D
 Schrodinger Suite 2021-1.
 35 37  0  0  1  0            999 V2000
    6.7165    9.8980    4.5735 O   0  0  0  0  0  0
    8.5980    7.0359    7.5877 O   0  0  0  0  0  0
    1.4744   10.4871    4.6452 O   0  0  0  0  0  0
    0.1032    9.0380    6.4150 O   0  0  0  0  0  0
    5.6198    6.8997    8.1169 N   0  0  0  0  0  0
    7.9221    8.5162    5.9589 N   0  0  0  0  0  0
    5.6937    8.4859    6.2983 C   0  0  0  0  0  0
    4.2812    8.6474    6.3008 C   0  0  0  0  0  0
    6.2725    7.6352    7.1945 C   0  0  0  0  0  0
    3.5337    7.8900    7.2589 C   0  0  0  0  0  0
    4.2709    7.0374    8.1437 C   0  0  0  0  0  0
    6.7894    9.0771    5.4846 C   0  0  0  0  0  0
    7.7341    7.6558    6.9797 C   0  0  0  0  0  0
    3.5937    9.5207    5.4217 C   0  0  0  0  0  0
    2.1279    8.0265    7.2844 C   0  0  0  0  0  0
    2.1985    9.6482    5.4776 C   0  0  0  0  0  0
    1.4724    8.8876    6.4009 C   0  0  0  0  0  0
    3.5727    6.2216    9.2319 C   0  0  0  0  0  0
    3.2696    7.0482   10.4915 C   0  0  0  0  0  0
    2.1502   11.2483    3.6516 C   0  0  0  0  0  0
   -0.7024    7.9192    6.7703 C   0  0  0  0  0  0
    8.8358    8.7207    5.5857 H   0  0  0  0  0  0
    4.1741   10.0875    4.7112 H   0  0  0  0  0  0
    1.5737    7.4663    8.0176 H   0  0  0  0  0  0
    2.6668    5.7566    8.8406 H   0  0  0  0  0  0
    4.2091    5.3867    9.5146 H   0  0  0  0  0  0
    2.8004    6.4286   11.2569 H   0  0  0  0  0  0
    4.1858    7.4579   10.9213 H   0  0  0  0  0  0
    2.5999    7.8816   10.2795 H   0  0  0  0  0  0
    1.4195   11.8327    3.0889 H   0  0  0  0  0  0
    2.8596   11.9496    4.0950 H   0  0  0  0  0  0
    2.6738   10.6071    2.9394 H   0  0  0  0  0  0
   -1.7462    8.2365    6.7855 H   0  0  0  0  0  0
   -0.6007    7.1308    6.0219 H   0  0  0  0  0  0
   -0.4925    7.4999    7.7518 H   0  0  0  0  0  0
  1 12  2  0  0  0
  2 13  2  0  0  0
  3 16  1  0  0  0
  3 20  1  0  0  0
  4 17  1  0  0  0
  4 21  1  0  0  0
  5  9  1  0  0  0
  5 11  2  0  0  0
  6 12  1  0  0  0
  6 13  1  0  0  0
  6 22  1  0  0  0
  7  8  1  0  0  0
  7  9  2  0  0  0
  7 12  1  0  0  0
  8 10  1  0  0  0
  8 14  2  0  0  0
  9 13  1  0  0  0
 10 11  1  0  0  0
 10 15  2  0  0  0
 11 18  1  0  0  0
 14 16  1  0  0  0
 14 23  1  0  0  0
 15 17  1  0  0  0
 15 24  1  0  0  0
 16 17  2  0  0  0
 18 19  1  0  0  0
 18 25  1  0  0  0
 18 26  1  0  0  0
 19 27  1  0  0  0
 19 28  1  0  0  0
 19 29  1  0  0  0
 20 30  1  0  0  0
 20 31  1  0  0  0
 20 32  1  0  0  0
 21 33  1  0  0  0
 21 34  1  0  0  0
 21 35  1  0  0  0
M  END
> <s_m_entry_id>
32207

> <s_m_entry_name>
dock_pv.470

> <s_m_Source_Path>
/home/csk/Desktop/cluster/DUD-E-result/src

> <s_m_Source_File>
dock_pv.maegz

> <i_m_Source_File_Index>
470

> <chembl_id>
CHEMBL2003524

> <chembl_pref_name>
None

> <i_lp_mmshare_version>
53161

> <r_lp_tautomer_probability>
1

> <s_lp_Force_Field>
OPLS_2005

> <r_lp_Energy>
41.873442

> <b_lp_Chiralities_Consistent>
1

> <s_lp_Variant>
CHEMBL267_lig3563-1

> <s_i_glide_gridfile>
glide-grid_3el8

> <i_i_glide_lignum>
4291

> <i_i_glide_rotatable_bonds>
3

> <r_i_docking_score>
-7.04820700337476

> <r_i_glide_ligand_efficiency>
-0.335628904922608

> <r_i_glide_ligand_efficiency_sa>
-0.925974699143586

> <r_i_glide_ligand_efficiency_ln>
-1.74265493934113

> <r_i_glide_gscore>
-7.04820700337476

> <r_i_glide_lipo>
-1.69329204355835

> <r_i_glide_hbond>
-0.32

> <r_i_glide_metal>
0

> <r_i_glide_rewards>
-2.80053817167706

> <r_i_glide_evdw>
-31.2430152893066

> <r_i_glide_ecoul>
-4.48150682449341

> <r_i_glide_erotb>
0

> <r_i_glide_esite>
0

> <r_i_glide_emodel>
-49.078375721894

> <r_i_glide_energy>
-35.7245221138

> <r_i_glide_einternal>
3.33221864700317

> <i_i_glide_confnum>
1

> <i_i_glide_posenum>
271

> <r_i_glide_eff_state_penalty>
0

> <s_user_duplicate_titles>
CHEMBL267_lig3563

> <i_f3d_flags>
0

> <s_m_subgroup_title>
dock_pv

> <s_m_subgroupid>
dock_pv

> <b_m_subgroup_collapsed>
1

$$$$
CHEMBL267_lig3720
                    3D
 Schrodinger Suite 2021-1.
 46 48  0  0  1  0            999 V2000
    4.7937   13.2529    1.5777 Cl  0  0  0  0  0  0
    0.3433    6.6370    4.3882 S   0  0  0  0  0  0
    2.9979    8.2381    9.9844 O   0  0  0  0  0  0
    1.2600    9.0373    8.0118 O   0  0  0  0  0  0
    2.3709    7.7454    6.5046 N   0  0  0  0  0  0
    1.9584    8.5321    5.4369 N   0  0  0  0  0  0
    1.3889    8.6928    3.1879 N   0  0  0  0  0  0
    2.7542    7.3242    8.9190 C   0  0  0  0  0  0
    4.1520    6.7704    8.5243 C   0  0  0  0  0  0
    1.7292    6.2356    9.3492 C   0  0  0  0  0  0
    2.0672    8.1324    7.7618 C   0  0  0  0  0  0
    4.5179    5.4463    8.7879 C   0  0  0  0  0  0
    1.3206    5.2467    8.4354 C   0  0  0  0  0  0
    5.1174    7.6238    7.9660 C   0  0  0  0  0  0
    1.1589    6.2367   10.6333 C   0  0  0  0  0  0
    5.7978    4.9965    8.4914 C   0  0  0  0  0  0
    0.3647    4.2999    8.7883 C   0  0  0  0  0  0
    6.4100    7.1851    7.6985 C   0  0  0  0  0  0
    0.1971    5.2972   10.9821 C   0  0  0  0  0  0
    1.3049    7.9995    4.3601 C   0  0  0  0  0  0
    6.7512    5.8695    7.9880 C   0  0  0  0  0  0
   -0.2011    4.3373   10.0570 C   0  0  0  0  0  0
    2.2611    9.7286    2.7959 C   0  0  0  0  0  0
    1.8011   10.6092    1.8140 C   0  0  0  0  0  0
    3.5488    9.8938    3.3320 C   0  0  0  0  0  0
    3.8423   11.8789    2.0037 C   0  0  0  0  0  0
    2.5906   11.6886    1.4209 C   0  0  0  0  0  0
    4.3323   10.9744    2.9407 C   0  0  0  0  0  0
    3.4549    7.7528   10.6760 H   0  0  0  0  0  0
    3.1712    7.1693    6.2883 H   0  0  0  0  0  0
    2.6654    9.2262    5.2451 H   0  0  0  0  0  0
    0.7701    8.3747    2.4525 H   0  0  0  0  0  0
    3.8247    4.7458    9.2281 H   0  0  0  0  0  0
    1.7404    5.2117    7.4407 H   0  0  0  0  0  0
    4.8631    8.6426    7.7501 H   0  0  0  0  0  0
    1.4283    6.9762   11.3722 H   0  0  0  0  0  0
    6.0524    3.9654    8.6779 H   0  0  0  0  0  0
    0.0507    3.5490    8.0787 H   0  0  0  0  0  0
    7.1422    7.8615    7.2821 H   0  0  0  0  0  0
   -0.2569    5.3258   11.9620 H   0  0  0  0  0  0
    7.7492    5.5121    7.7868 H   0  0  0  0  0  0
   -0.9599    3.6175   10.3265 H   0  0  0  0  0  0
    0.8247   10.4745    1.3699 H   0  0  0  0  0  0
    3.9632    9.1945    4.0411 H   0  0  0  0  0  0
    2.2293   12.3834    0.6766 H   0  0  0  0  0  0
    5.3141   11.1159    3.3682 H   0  0  0  0  0  0
  1 26  1  0  0  0
  2 20  2  0  0  0
  3  8  1  0  0  0
  3 29  1  0  0  0
  4 11  2  0  0  0
  5  6  1  0  0  0
  5 11  1  0  0  0
  5 30  1  0  0  0
  6 20  1  0  0  0
  6 31  1  0  0  0
  7 20  1  0  0  0
  7 23  1  0  0  0
  7 32  1  0  0  0
  8  9  1  0  0  0
  8 10  1  0  0  0
  8 11  1  0  0  0
  9 12  2  0  0  0
  9 14  1  0  0  0
 10 13  2  0  0  0
 10 15  1  0  0  0
 12 16  1  0  0  0
 12 33  1  0  0  0
 13 17  1  0  0  0
 13 34  1  0  0  0
 14 18  2  0  0  0
 14 35  1  0  0  0
 15 19  2  0  0  0
 15 36  1  0  0  0
 16 21  2  0  0  0
 16 37  1  0  0  0
 17 22  2  0  0  0
 17 38  1  0  0  0
 18 21  1  0  0  0
 18 39  1  0  0  0
 19 22  1  0  0  0
 19 40  1  0  0  0
 21 41  1  0  0  0
 22 42  1  0  0  0
 23 24  2  0  0  0
 23 25  1  0  0  0
 24 27  1  0  0  0
 24 43  1  0  0  0
 25 28  2  0  0  0
 25 44  1  0  0  0
 26 27  2  0  0  0
 26 28  1  0  0  0
 27 45  1  0  0  0
 28 46  1  0  0  0
M  END
> <s_m_entry_id>
32208

> <s_m_entry_name>
dock_pv.471

> <s_m_Source_Path>
/home/csk/Desktop/cluster/DUD-E-result/src

> <s_m_Source_File>
dock_pv.maegz

> <i_m_Source_File_Index>
471

> <chembl_id>
CHEMBL1966722

> <chembl_pref_name>
None

> <i_lp_mmshare_version>
53161

> <r_lp_tautomer_probability>
1

> <s_lp_Force_Field>
OPLS_2005

> <r_lp_Energy>
37.362664

> <b_lp_Chiralities_Consistent>
1

> <s_lp_Variant>
CHEMBL267_lig3720-1

> <s_i_glide_gridfile>
glide-grid_3el8

> <i_i_glide_lignum>
4535

> <i_i_glide_rotatable_bonds>
9

> <r_i_docking_score>
-7.04804525280616

> <r_i_glide_ligand_efficiency>
-0.251715901885934

> <r_i_glide_ligand_efficiency_sa>
-0.764357730863566

> <r_i_glide_ligand_efficiency_ln>
-1.62689578394837

> <r_i_glide_gscore>
-7.04804525280616

> <r_i_glide_lipo>
-2.75442979322281

> <r_i_glide_hbond>
-0.286757073241149

> <r_i_glide_metal>
0

> <r_i_glide_rewards>
-2.24505501665435

> <r_i_glide_evdw>
-44.6511764526367

> <r_i_glide_ecoul>
-2.04074025154114

> <r_i_glide_erotb>
0.813349624477601

> <r_i_glide_esite>
-0.036483133802442

> <r_i_glide_emodel>
-57.5701883224083

> <r_i_glide_energy>
-46.6919167041779

> <r_i_glide_einternal>
16.6461353302002

> <i_i_glide_confnum>
2

> <i_i_glide_posenum>
60

> <r_i_glide_eff_state_penalty>
0

> <s_user_duplicate_titles>
CHEMBL267_lig3720

> <i_f3d_flags>
0

> <s_m_subgroup_title>
dock_pv

> <s_m_subgroupid>
dock_pv

> <b_m_subgroup_collapsed>
1

$$$$
CHEMBL267_lig3394
                    3D
 Schrodinger Suite 2021-1.
 52 54  0  0  1  0            999 V2000
    2.3992    7.8797    6.8255 C   0  0  0  0  0  0
    1.2339    8.0104    6.0805 N   0  0  0  0  0  0
    1.9726    7.4859    8.1181 C   0  0  0  0  0  0
    3.6733    8.0524    6.4587 N   0  0  0  0  0  0
    0.6021    7.4375    8.1769 N   0  0  0  0  0  0
    4.2955    7.4101    8.7100 N   0  0  0  0  0  0
    4.5718    7.8376    7.4581 C   0  0  0  0  0  0
    3.0018    7.1989    9.0473 C   0  0  0  0  0  0
    0.2126    7.7330    6.9647 C   0  0  0  0  0  0
    2.8345    6.6416   10.3240 N   0  0  0  0  0  0
    5.9302    8.0818    7.2292 N   0  0  0  0  0  0
    1.0373    8.2720    4.6476 C   0  0  0  0  0  0
    1.5557    6.1880   10.8652 C   0  0  0  0  0  0
    0.8904    5.0498   10.0853 C   0  0  0  0  0  0
    6.4859    8.5002    5.9409 C   0  0  2  0  0  0
    8.5914    7.3769    6.7870 O   0  0  0  0  0  0
    0.9148    6.9335    3.8952 C   0  0  0  0  0  0
    2.1100    9.2047    4.0508 C   0  0  0  0  0  0
    8.0177    8.2477    5.8192 C   0  0  0  0  0  0
    1.5881    4.2348    9.1877 C   0  0  0  0  0  0
   -0.4647    4.8162   10.3058 C   0  0  0  0  0  0
    6.0972    9.9486    5.5420 C   0  0  0  0  0  0
    6.4129   10.3043    4.0803 C   0  0  0  0  0  0
   -1.1435    3.8370    9.5876 C   0  0  0  0  0  0
    0.9177    3.2385    8.4864 C   0  0  0  0  0  0
   -0.4468    3.0458    8.6805 C   0  0  0  0  0  0
   -0.8107    7.7307    6.6137 H   0  0  0  0  0  0
    3.6693    6.4622   10.8651 H   0  0  0  0  0  0
    6.5824    7.8249    7.9553 H   0  0  0  0  0  0
    0.0819    8.7897    4.5538 H   0  0  0  0  0  0
    1.7066    5.8583   11.8934 H   0  0  0  0  0  0
    0.8750    7.0356   10.9082 H   0  0  0  0  0  0
    6.0195    7.8264    5.2194 H   0  0  0  0  0  0
    9.3970    7.0358    6.3754 H   0  0  0  0  0  0
    0.7759    7.0957    2.8265 H   0  0  0  0  0  0
    0.0577    6.3572    4.2480 H   0  0  0  0  0  0
    1.7979    6.3094    4.0212 H   0  0  0  0  0  0
    1.8358    9.5114    3.0412 H   0  0  0  0  0  0
    2.2311   10.1104    4.6457 H   0  0  0  0  0  0
    3.0816    8.7169    3.9795 H   0  0  0  0  0  0
    8.2490    7.8856    4.8103 H   0  0  0  0  0  0
    8.5609    9.1841    5.9291 H   0  0  0  0  0  0
    2.6441    4.3768    9.0193 H   0  0  0  0  0  0
   -1.0019    5.4261   11.0160 H   0  0  0  0  0  0
    5.0327   10.1183    5.7011 H   0  0  0  0  0  0
    6.5985   10.6543    6.2059 H   0  0  0  0  0  0
    6.0748   11.3142    3.8465 H   0  0  0  0  0  0
    7.4832   10.2682    3.8795 H   0  0  0  0  0  0
    5.9142    9.6229    3.3902 H   0  0  0  0  0  0
   -2.2024    3.6881    9.7424 H   0  0  0  0  0  0
    1.4567    2.6371    7.7744 H   0  0  0  0  0  0
   -0.9688    2.2768    8.1293 H   0  0  0  0  0  0
  1  2  1  0  0  0
  1  3  2  0  0  0
  1  4  1  0  0  0
  2  9  1  0  0  0
  2 12  1  0  0  0
  3  5  1  0  0  0
  3  8  1  0  0  0
  4  7  2  0  0  0
  5  9  2  0  0  0
  6  7  1  0  0  0
  6  8  2  0  0  0
  7 11  1  0  0  0
  8 10  1  0  0  0
  9 27  1  0  0  0
 10 13  1  0  0  0
 10 28  1  0  0  0
 11 15  1  0  0  0
 11 29  1  0  0  0
 12 17  1  0  0  0
 12 18  1  0  0  0
 12 30  1  0  0  0
 13 14  1  0  0  0
 13 31  1  0  0  0
 13 32  1  0  0  0
 14 20  2  0  0  0
 14 21  1  0  0  0
 15 19  1  0  0  0
 15 22  1  0  0  0
 15 33  1  0  0  0
 16 19  1  0  0  0
 16 34  1  0  0  0
 17 35  1  0  0  0
 17 36  1  0  0  0
 17 37  1  0  0  0
 18 38  1  0  0  0
 18 39  1  0  0  0
 18 40  1  0  0  0
 19 41  1  0  0  0
 19 42  1  0  0  0
 20 25  1  0  0  0
 20 43  1  0  0  0
 21 24  2  0  0  0
 21 44  1  0  0  0
 22 23  1  0  0  0
 22 45  1  0  0  0
 22 46  1  0  0  0
 23 47  1  0  0  0
 23 48  1  0  0  0
 23 49  1  0  0  0
 24 26  1  0  0  0
 24 50  1  0  0  0
 25 26  2  0  0  0
 25 51  1  0  0  0
 26 52  1  0  0  0
M  END
> <s_m_entry_id>
32209

> <s_m_entry_name>
dock_pv.472

> <s_m_Source_Path>
/home/csk/Desktop/cluster/DUD-E-result/src

> <s_m_Source_File>
dock_pv.maegz

> <i_m_Source_File_Index>
472

> <chembl_id>
CHEMBL52387

> <chembl_pref_name>
(RS)-ROSCOVITINE

> <i_lp_mmshare_version>
53161

> <r_lp_tautomer_probability>
1

> <s_lp_Force_Field>
OPLS_2005

> <r_lp_Energy>
18.473033

> <b_lp_Chiralities_Consistent>
1

> <s_lp_Variant>
CHEMBL267_lig3394-1

> <s_i_glide_gridfile>
glide-grid_3el8

> <i_i_glide_lignum>
4043

> <i_i_glide_rotatable_bonds>
9

> <r_i_docking_score>
-7.04763119766778

> <r_i_glide_ligand_efficiency>
-0.271062738371838

> <r_i_glide_ligand_efficiency_sa>
-0.803022295846197

> <r_i_glide_ligand_efficiency_ln>
-1.65511306160815

> <r_i_glide_gscore>
-7.04763119766778

> <r_i_glide_lipo>
-2.9091412140607

> <r_i_glide_hbond>
-0.46240420388795

> <r_i_glide_metal>
0

> <r_i_glide_rewards>
-1.64380920813428

> <r_i_glide_evdw>
-40.0972709655762

> <r_i_glide_ecoul>
-6.14073276519775

> <r_i_glide_erotb>
0.912594160958804

> <r_i_glide_esite>
-0.0188972694851883

> <r_i_glide_emodel>
-59.9286774120342

> <r_i_glide_energy>
-46.2380037307739

> <r_i_glide_einternal>
11.0055894851685

> <i_i_glide_confnum>
11

> <i_i_glide_posenum>
167

> <r_i_glide_eff_state_penalty>
0

> <s_user_duplicate_titles>
CHEMBL267_lig3394

> <i_f3d_flags>
0

> <s_m_subgroup_title>
dock_pv

> <s_m_subgroupid>
dock_pv

> <b_m_subgroup_collapsed>
1

$$$$
CHEMBL267_lig443
                    3D
 Schrodinger Suite 2021-1.
 39 42  0  0  1  0            999 V2000
    3.6153    8.6260    6.2556 C   0  0  0  0  0  0
    2.4275    8.0728    6.8281 C   0  0  0  0  0  0
    2.8238    7.3392    8.0071 C   0  0  0  0  0  0
    4.7011    8.2149    7.0185 N   0  0  0  0  0  0
    4.2027    7.4646    8.0659 C   0  0  0  0  0  0
    3.6526    9.4128    5.1691 N   0  0  0  0  0  0
    1.2333    8.4015    6.1477 C   0  0  0  0  0  0
    1.9730    6.6184    8.9975 C   0  0  0  0  0  0
    1.2373    9.1814    5.0420 N   0  0  0  0  0  0
    2.4364    9.6398    4.6148 C   0  0  0  0  0  0
    6.1107    8.6033    6.8212 C   0  0  2  0  0  0
    0.9100    5.7937    8.6095 C   0  0  0  0  0  0
    8.4118    7.9052    6.8836 N   0  0  2  0  0  0
   -0.0172    7.9669    6.5695 N   0  0  0  0  0  0
    0.0836    5.2073    9.5700 C   0  0  0  0  0  0
    6.6220    8.5120    5.3927 C   0  0  0  0  0  0
    7.1401    7.7542    7.5784 C   0  0  0  0  0  0
    2.2161    6.8165   10.3616 C   0  0  0  0  0  0
   -0.9800    4.4347    9.1888 O   0  0  0  0  0  0
    8.1325    8.5006    5.5877 C   0  0  0  0  0  0
    1.3884    6.2371   11.3214 C   0  0  0  0  0  0
    0.3179    5.4370   10.9239 C   0  0  0  0  0  0
    4.8780    7.0688    8.8105 H   0  0  0  0  0  0
    2.4217   10.2598    3.7296 H   0  0  0  0  0  0
    6.1813    9.6277    7.1888 H   0  0  0  0  0  0
    0.7299    5.5964    7.5634 H   0  0  0  0  0  0
    8.8830    7.0268    6.7278 H   0  0  0  0  0  0
   -0.0793    7.2804    7.3065 H   0  0  0  0  0  0
   -0.8145    8.1949    5.9913 H   0  0  0  0  0  0
    6.3099    7.5886    4.9023 H   0  0  0  0  0  0
    6.3076    9.3511    4.7717 H   0  0  0  0  0  0
    7.2128    8.0538    8.6240 H   0  0  0  0  0  0
    6.8585    6.6993    7.5663 H   0  0  0  0  0  0
    3.0324    7.4461   10.6850 H   0  0  0  0  0  0
   -1.5044    4.8551    8.4939 H   0  0  0  0  0  0
    8.5980    7.8929    4.8103 H   0  0  0  0  0  0
    8.5569    9.5024    5.5156 H   0  0  0  0  0  0
    1.5701    6.4138   12.3716 H   0  0  0  0  0  0
   -0.3422    5.0106   11.6634 H   0  0  0  0  0  0
  1  2  2  0  0  0
  1  4  1  0  0  0
  1  6  1  0  0  0
  2  3  1  0  0  0
  2  7  1  0  0  0
  3  8  1  0  0  0
  3  5  2  0  0  0
  4  5  1  0  0  0
  4 11  1  0  0  0
  5 23  1  0  0  0
  6 10  2  0  0  0
  7 14  1  0  0  0
  7  9  2  0  0  0
  8 12  2  0  0  0
  8 18  1  0  0  0
  9 10  1  0  0  0
 10 24  1  0  0  0
 11 16  1  0  0  0
 11 17  1  0  0  0
 11 25  1  0  0  0
 12 15  1  0  0  0
 12 26  1  0  0  0
 13 17  1  0  0  0
 13 20  1  0  0  0
 13 27  1  0  0  0
 14 28  1  0  0  0
 14 29  1  0  0  0
 15 19  1  0  0  0
 15 22  2  0  0  0
 16 20  1  0  0  0
 16 30  1  0  0  0
 16 31  1  0  0  0
 17 32  1  0  0  0
 17 33  1  0  0  0
 18 21  2  0  0  0
 18 34  1  0  0  0
 19 35  1  0  0  0
 20 36  1  0  0  0
 20 37  1  0  0  0
 21 22  1  0  0  0
 21 38  1  0  0  0
 22 39  1  0  0  0
M  END
> <s_m_entry_id>
32210

> <s_m_entry_name>
dock_pv.473

> <s_m_Source_Path>
/home/csk/Desktop/cluster/DUD-E-result/src

> <s_m_Source_File>
dock_pv.maegz

> <i_m_Source_File_Index>
473

> <chembl_id>
CHEMBL171545

> <chembl_pref_name>
None

> <i_lp_mmshare_version>
53161

> <r_lp_tautomer_probability>
0.999999999997365

> <s_lp_Force_Field>
OPLS_2005

> <r_lp_Energy>
34.050718

> <b_lp_Chiralities_Consistent>
1

> <s_lp_Variant>
CHEMBL267_lig443-1

> <s_i_glide_gridfile>
glide-grid_3el8

> <i_i_glide_lignum>
528

> <i_i_glide_rotatable_bonds>
3

> <r_i_docking_score>
-7.04506101677603

> <r_i_glide_ligand_efficiency>
-0.320230046217092

> <r_i_glide_ligand_efficiency_sa>
-0.897297183433357

> <r_i_glide_ligand_efficiency_ln>
-1.72206988734443

> <r_i_glide_gscore>
-7.04506101677603

> <r_i_glide_lipo>
-2.57762538357211

> <r_i_glide_hbond>
-0.366595555341987

> <r_i_glide_metal>
0

> <r_i_glide_rewards>
-2.01938513737983

> <r_i_glide_evdw>
-36.0422134399414

> <r_i_glide_ecoul>
-4.61690759658813

> <r_i_glide_erotb>
0.41966757468845

> <r_i_glide_esite>
-0.00647570368525607

> <r_i_glide_emodel>
-55.1759884344476

> <r_i_glide_energy>
-40.6591210365295

> <r_i_glide_einternal>
3.91383743286133

> <i_i_glide_confnum>
67

> <i_i_glide_posenum>
149

> <r_i_glide_eff_state_penalty>
0

> <s_user_duplicate_titles>
CHEMBL267_lig443

> <i_f3d_flags>
0

> <s_m_subgroup_title>
dock_pv

> <s_m_subgroupid>
dock_pv

> <b_m_subgroup_collapsed>
1

$$$$
CHEMBL267_lig69
                    3D
 Schrodinger Suite 2021-1.
 59 64  0  0  1  0            999 V2000
    7.6727    6.7288    7.5877 N   0  0  0  0  0  0
    8.3668    7.6025    6.8224 C   0  0  0  0  0  0
    7.8842    8.6357    6.0917 N   0  0  0  0  0  0
    6.3301    6.8981    7.6443 C   0  0  0  0  0  0
    5.6847    7.9516    6.9568 C   0  0  0  0  0  0
    6.5569    8.7849    6.1909 C   0  0  0  0  0  0
    5.7988    9.7797    5.5980 N   0  0  0  0  0  0
    4.4838    9.5560    5.9398 C   0  0  0  0  0  0
    4.3436    8.4513    6.7572 C   0  0  0  0  0  0
    3.0470    7.9919    7.3179 C   0  0  0  0  0  0
    2.9369    7.5671    8.6430 C   0  0  0  0  0  0
    1.7278    7.0879    9.1440 C   0  0  0  0  0  0
    0.5983    7.0855    8.3048 C   0  0  0  0  0  0
    0.6939    7.5237    6.9879 C   0  0  0  0  0  0
    1.9159    7.9706    6.4945 C   0  0  0  0  0  0
    1.7413    6.6187   10.4462 O   0  0  0  0  0  0
    0.6466    5.8370   10.9496 C   0  0  0  0  0  0
    0.3155    4.6368   10.0689 C   0  0  0  0  0  0
    1.3010    4.0379    9.2856 C   0  0  0  0  0  0
    0.9596    3.0208    8.4127 C   0  0  0  0  0  0
   -0.3515    2.5473    8.3805 C   0  0  0  0  0  0
   -1.3419    3.1420    9.1485 C   0  0  0  0  0  0
   -1.0024    4.1913    9.9902 C   0  0  0  0  0  0
    5.6359    5.9502    8.3880 N   0  0  0  0  0  0
    6.2991   10.8656    4.7420 C   0  0  2  0  0  0
    5.4885   12.1703    4.5790 C   0  0  0  0  0  0
    4.8277   11.5082    3.3585 C   0  0  2  0  0  0
    6.1505   10.7387    3.2127 C   0  0  0  0  0  0
    4.4413   12.3662    2.2571 N   0  0  0  0  0  0
    3.4464   13.4195    2.4445 C   0  0  0  0  0  0
    2.9570   13.1857    1.0219 C   0  0  0  0  0  0
    3.6191   11.8250    1.1793 C   0  0  0  0  0  0
    9.4361    7.4522    6.7894 H   0  0  0  0  0  0
    3.7150   10.2258    5.5902 H   0  0  0  0  0  0
    3.7937    7.6038    9.2993 H   0  0  0  0  0  0
   -0.3558    6.7162    8.6509 H   0  0  0  0  0  0
   -0.1755    7.4917    6.3471 H   0  0  0  0  0  0
    1.9831    8.2875    5.4643 H   0  0  0  0  0  0
   -0.2272    6.4798   11.0523 H   0  0  0  0  0  0
    0.8999    5.4868   11.9506 H   0  0  0  0  0  0
    2.3226    4.3898    9.3175 H   0  0  0  0  0  0
    1.7239    2.6370    7.7611 H   0  0  0  0  0  0
   -0.6226    1.7296    7.7306 H   0  0  0  0  0  0
   -2.3613    2.7875    9.0990 H   0  0  0  0  0  0
   -1.7712    4.6366   10.5959 H   0  0  0  0  0  0
    4.6289    5.9992    8.4440 H   0  0  0  0  0  0
    6.1578    5.2064    8.8315 H   0  0  0  0  0  0
    7.3233   11.0342    5.0816 H   0  0  0  0  0  0
    4.8352   12.4732    5.3993 H   0  0  0  0  0  0
    6.1171   13.0291    4.3266 H   0  0  0  0  0  0
    3.9831   10.8664    3.6141 H   0  0  0  0  0  0
    6.9207   11.2903    2.6675 H   0  0  0  0  0  0
    6.0924    9.7350    2.7884 H   0  0  0  0  0  0
    2.6976   13.1734    3.2003 H   0  0  0  0  0  0
    3.8767   14.3958    2.6667 H   0  0  0  0  0  0
    3.4160   13.8266    0.2663 H   0  0  0  0  0  0
    1.8737   13.1614    0.8979 H   0  0  0  0  0  0
    4.1957   11.4444    0.3366 H   0  0  0  0  0  0
    2.9243   11.0504    1.5122 H   0  0  0  0  0  0
  1  4  1  0  0  0
  1  2  2  0  0  0
  2  3  1  0  0  0
  2 33  1  0  0  0
  3  6  2  0  0  0
  4  5  2  0  0  0
  4 24  1  0  0  0
  5  9  1  0  0  0
  5  6  1  0  0  0
  6  7  1  0  0  0
  7  8  1  0  0  0
  7 25  1  0  0  0
  8  9  2  0  0  0
  8 34  1  0  0  0
  9 10  1  0  0  0
 10 15  1  0  0  0
 10 11  2  0  0  0
 11 12  1  0  0  0
 11 35  1  0  0  0
 12 16  1  0  0  0
 12 13  2  0  0  0
 13 14  1  0  0  0
 13 36  1  0  0  0
 14 15  2  0  0  0
 14 37  1  0  0  0
 15 38  1  0  0  0
 16 17  1  0  0  0
 17 18  1  0  0  0
 17 39  1  0  0  0
 17 40  1  0  0  0
 18 19  2  0  0  0
 18 23  1  0  0  0
 19 20  1  0  0  0
 19 41  1  0  0  0
 20 21  2  0  0  0
 20 42  1  0  0  0
 21 22  1  0  0  0
 21 43  1  0  0  0
 22 23  2  0  0  0
 22 44  1  0  0  0
 23 45  1  0  0  0
 24 46  1  0  0  0
 24 47  1  0  0  0
 25 26  1  0  0  0
 25 28  1  0  0  0
 25 48  1  0  0  0
 26 27  1  0  0  0
 26 49  1  0  0  0
 26 50  1  0  0  0
 27 28  1  0  0  0
 27 29  1  0  0  0
 27 51  1  0  0  0
 28 52  1  0  0  0
 28 53  1  0  0  0
 29 30  1  0  0  0
 29 32  1  0  0  0
 30 31  1  0  0  0
 30 54  1  0  0  0
 30 55  1  0  0  0
 31 32  1  0  0  0
 31 56  1  0  0  0
 31 57  1  0  0  0
 32 58  1  0  0  0
 32 59  1  0  0  0
M  END
> <s_m_entry_id>
32211

> <s_m_entry_name>
dock_pv.474

> <s_m_Source_Path>
/home/csk/Desktop/cluster/DUD-E-result/src

> <s_m_Source_File>
dock_pv.maegz

> <i_m_Source_File_Index>
474

> <chembl_id>
CHEMBL551064

> <chembl_pref_name>
AEW-541

> <i_lp_mmshare_version>
53161

> <r_lp_tautomer_probability>
1

> <s_lp_Force_Field>
OPLS_2005

> <r_lp_Energy>
50.407015

> <b_lp_Chiralities_Consistent>
1

> <s_lp_Variant>
CHEMBL267_lig69-1

> <s_i_glide_gridfile>
glide-grid_3el8

> <i_i_glide_lignum>
101

> <i_i_glide_rotatable_bonds>
6

> <r_i_docking_score>
-7.03842723614917

> <r_i_glide_ligand_efficiency>
-0.219950851129662

> <r_i_glide_ligand_efficiency_sa>
-0.698300424122343

> <r_i_glide_ligand_efficiency_ln>
-1.57609571845405

> <r_i_glide_gscore>
-7.03842723614917

> <r_i_glide_lipo>
-3.29395750211079

> <r_i_glide_hbond>
-0.107126440517128

> <r_i_glide_metal>
0

> <r_i_glide_rewards>
-1.64110380115089

> <r_i_glide_evdw>
-45.7055282592773

> <r_i_glide_ecoul>
-2.45543384552002

> <r_i_glide_erotb>
0.657351997421508

> <r_i_glide_esite>
0

> <r_i_glide_emodel>
-67.0747354041408

> <r_i_glide_energy>
-48.1609621047974

> <r_i_glide_einternal>
4.71353197097778

> <i_i_glide_confnum>
4

> <i_i_glide_posenum>
365

> <r_i_glide_eff_state_penalty>
0

> <s_user_duplicate_titles>
CHEMBL267_lig69

> <i_f3d_flags>
0

> <s_m_subgroup_title>
dock_pv

> <s_m_subgroupid>
dock_pv

> <b_m_subgroup_collapsed>
1

$$$$
CHEMBL267_lig3390
                    3D
 Schrodinger Suite 2021-1.
 50 53  0  0  1  0            999 V2000
    9.4619    8.6370    5.9878 Cl  0  0  0  0  0  0
    6.9651   10.0832    5.4622 O   0  0  0  0  0  0
    0.8912    8.3366    3.1881 N   0  0  0  0  0  0
    7.8461    7.0962    7.4016 N   0  0  0  0  0  0
    5.5155   10.2698    2.7889 N   0  0  0  0  0  0
    0.0379    5.0356   10.5609 N   0  0  0  0  0  0
    1.7906    9.1169    5.0869 C   0  0  0  0  0  0
    2.3980    9.8190    3.9822 C   0  0  0  0  0  0
    0.8620    8.1748    4.5508 C   0  0  0  0  0  0
    1.7994    9.3058    2.8485 C   0  0  0  0  0  0
    6.7921    8.9641    6.2645 C   0  0  0  0  0  0
    3.4874   10.8713    4.0545 C   0  0  0  0  0  0
    1.9401    9.1754    6.4820 C   0  0  0  0  0  0
    0.1257    7.3014    5.3560 C   0  0  0  0  0  0
    7.9131    8.1932    6.6012 C   0  0  0  0  0  0
    4.8996   10.2366    4.1049 C   0  0  2  0  0  0
    5.4597    7.4252    7.5995 C   0  0  0  0  0  0
    5.5547    8.5485    6.7809 C   0  0  0  0  0  0
    1.1852    8.3321    7.2897 C   0  0  0  0  0  0
    5.8449   10.9114    5.1331 C   0  0  0  0  0  0
    0.3164    7.4051    6.7330 C   0  0  0  0  0  0
    6.6341    6.7319    7.8902 C   0  0  0  0  0  0
    4.1489    6.9652    8.0693 C   0  0  0  0  0  0
    3.8401    6.5817    9.3223 C   0  0  0  0  0  0
    2.5339    6.0400    9.7371 C   0  0  0  0  0  0
    1.7816    5.2088    8.8951 C   0  0  0  0  0  0
    2.0152    6.3568   10.9981 C   0  0  0  0  0  0
    0.5478    4.7308    9.3418 C   0  0  0  0  0  0
    0.7721    5.8383   11.3699 C   0  0  0  0  0  0
    0.3551    7.8367    2.4878 H   0  0  0  0  0  0
    5.5144   11.2196    2.4416 H   0  0  0  0  0  0
    6.4864   10.0138    2.8972 H   0  0  0  0  0  0
    1.9566    9.5421    1.8047 H   0  0  0  0  0  0
    3.3139   11.4836    4.9404 H   0  0  0  0  0  0
    3.4011   11.5786    3.2269 H   0  0  0  0  0  0
    2.6498    9.8402    6.9341 H   0  0  0  0  0  0
   -0.5633    6.5799    4.9410 H   0  0  0  0  0  0
    4.7960    9.1813    4.3586 H   0  0  0  0  0  0
    4.6536    9.0868    6.5496 H   0  0  0  0  0  0
    1.3163    8.3598    8.3610 H   0  0  0  0  0  0
    5.3175   11.1801    6.0495 H   0  0  0  0  0  0
    6.2225   11.8571    4.7406 H   0  0  0  0  0  0
   -0.2031    6.7271    7.3926 H   0  0  0  0  0  0
    6.6122    5.8391    8.5008 H   0  0  0  0  0  0
    3.3894    6.9026    7.3048 H   0  0  0  0  0  0
    4.5973    6.6367   10.0918 H   0  0  0  0  0  0
    2.1431    4.9339    7.9151 H   0  0  0  0  0  0
    2.5679    6.9873   11.6804 H   0  0  0  0  0  0
   -0.0606    4.0912    8.7191 H   0  0  0  0  0  0
    0.3414    6.0630   12.3359 H   0  0  0  0  0  0
  1 15  1  0  0  0
  2 11  1  0  0  0
  2 20  1  0  0  0
  3  9  1  0  0  0
  3 10  1  0  0  0
  3 30  1  0  0  0
  4 15  2  0  0  0
  4 22  1  0  0  0
  5 16  1  0  0  0
  5 31  1  0  0  0
  5 32  1  0  0  0
  6 28  2  0  0  0
  6 29  1  0  0  0
  7  8  1  0  0  0
  7  9  1  0  0  0
  7 13  2  0  0  0
  8 10  2  0  0  0
  8 12  1  0  0  0
  9 14  2  0  0  0
 10 33  1  0  0  0
 11 15  1  0  0  0
 11 18  2  0  0  0
 12 16  1  0  0  0
 12 34  1  0  0  0
 12 35  1  0  0  0
 13 19  1  0  0  0
 13 36  1  0  0  0
 14 21  1  0  0  0
 14 37  1  0  0  0
 16 20  1  0  0  0
 16 38  1  0  0  0
 17 18  1  0  0  0
 17 22  2  0  0  0
 17 23  1  0  0  0
 18 39  1  0  0  0
 19 21  2  0  0  0
 19 40  1  0  0  0
 20 41  1  0  0  0
 20 42  1  0  0  0
 21 43  1  0  0  0
 22 44  1  0  0  0
 23 24  2  3  0  0
 23 45  1  0  0  0
 24 25  1  0  0  0
 24 46  1  0  0  0
 25 26  2  0  0  0
 25 27  1  0  0  0
 26 28  1  0  0  0
 26 47  1  0  0  0
 27 29  2  0  0  0
 27 48  1  0  0  0
 28 49  1  0  0  0
 29 50  1  0  0  0
M  END
> <s_m_entry_id>
32212

> <s_m_entry_name>
dock_pv.475

> <s_m_Source_Path>
/home/csk/Desktop/cluster/DUD-E-result/src

> <s_m_Source_File>
dock_pv.maegz

> <i_m_Source_File_Index>
475

> <chembl_id>
CHEMBL1968245

> <chembl_pref_name>
None

> <i_lp_mmshare_version>
53161

> <r_lp_tautomer_probability>
1

> <s_lp_Force_Field>
OPLS_2005

> <r_lp_Energy>
20.694339

> <b_lp_Chiralities_Consistent>
1

> <s_lp_Variant>
CHEMBL267_lig3390-1

> <s_i_glide_gridfile>
glide-grid_3el8

> <i_i_glide_lignum>
4033

> <i_i_glide_rotatable_bonds>
7

> <r_i_docking_score>
-7.03670655265678

> <r_i_glide_ligand_efficiency>
-0.242645053539889

> <r_i_glide_ligand_efficiency_sa>
-0.745482479823291

> <r_i_glide_ligand_efficiency_ln>
-1.61122736507606

> <r_i_glide_gscore>
-7.03670655265678

> <r_i_glide_lipo>
-3.64262368236925

> <r_i_glide_hbond>
-0.229857905531509

> <r_i_glide_metal>
0

> <r_i_glide_rewards>
-0.955846350498687

> <r_i_glide_evdw>
-44.8063087463379

> <r_i_glide_ecoul>
-4.22569608688354

> <r_i_glide_erotb>
0.719084871623642

> <r_i_glide_esite>
-0.0532936355315481

> <r_i_glide_emodel>
-67.8022207954637

> <r_i_glide_energy>
-49.0320048332214

> <r_i_glide_einternal>
4.06508016586304

> <i_i_glide_confnum>
5

> <i_i_glide_posenum>
285

> <r_i_glide_eff_state_penalty>
0

> <s_user_duplicate_titles>
CHEMBL267_lig3390

> <i_f3d_flags>
0

> <s_m_subgroup_title>
dock_pv

> <s_m_subgroupid>
dock_pv

> <b_m_subgroup_collapsed>
1

$$$$
CHEMBL267_lig3881
                    3D
 Schrodinger Suite 2021-1.
 46 49  0  0  1  0            999 V2000
    5.7971    7.7274    7.3212 C   0  0  0  0  0  0
    5.0906    8.3812    6.3630 N   0  0  0  0  0  0
    3.7602    8.2772    6.4991 C   0  0  0  0  0  0
    3.0953    7.5664    7.5346 C   0  0  0  0  0  0
    3.9416    6.9482    8.4806 C   0  0  0  0  0  0
    5.2886    7.0356    8.3675 N   0  0  0  0  0  0
    2.7918    8.8327    5.6775 N   0  0  0  0  0  0
    1.6814    7.6994    7.2940 C   0  0  0  0  0  0
    1.5491    8.4743    6.1584 C   0  0  0  0  0  0
    3.4754    6.2374    9.5877 N   0  0  0  0  0  0
    7.5598    7.7248    7.1881 S   0  0  0  0  0  0
    7.9878    8.5363    5.6227 C   0  0  0  0  0  0
    3.0366    9.6816    4.5167 C   0  0  0  0  0  0
    3.2818   11.1556    4.9376 C   0  0  1  0  0  0
    3.8344   12.0230    3.8093 C   0  0  0  0  0  0
    4.9172   12.8780    4.0570 C   0  0  0  0  0  0
    5.4324   13.6659    3.0311 C   0  0  0  0  0  0
    4.8693   13.6005    1.7569 C   0  0  0  0  0  0
    3.7906   12.7581    1.5042 C   0  0  0  0  0  0
    3.2660   11.9761    2.5305 C   0  0  0  0  0  0
    1.7806   11.8800    5.5862 Cl  0  0  0  0  0  0
    2.1939    5.7412    9.8237 C   0  0  0  0  0  0
    1.6813    4.7065    9.0368 C   0  0  0  0  0  0
    0.4304    4.1611    9.3312 C   0  0  0  0  0  0
   -0.3091    4.6579   10.4029 C   0  0  0  0  0  0
    0.1980    5.6967   11.1846 C   0  0  0  0  0  0
    1.4526    6.2358   10.8993 C   0  0  0  0  0  0
   -0.2020    2.8612    8.3881 Cl  0  0  0  0  0  0
    0.8652    7.2794    7.8638 H   0  0  0  0  0  0
    0.6580    8.8068    5.6439 H   0  0  0  0  0  0
    4.1982    5.8127   10.1564 H   0  0  0  0  0  0
    9.0690    8.5801    5.5017 H   0  0  0  0  0  0
    7.5700    7.9698    4.7895 H   0  0  0  0  0  0
    7.5929    9.5516    5.5911 H   0  0  0  0  0  0
    2.1906    9.5947    3.8328 H   0  0  0  0  0  0
    3.9048    9.2807    3.9913 H   0  0  0  0  0  0
    4.0033   11.1651    5.7550 H   0  0  0  0  0  0
    5.3580   12.9374    5.0409 H   0  0  0  0  0  0
    6.2667   14.3279    3.2161 H   0  0  0  0  0  0
    5.2766   14.2011    0.9568 H   0  0  0  0  0  0
    3.3650   12.7117    0.5123 H   0  0  0  0  0  0
    2.4215   11.3348    2.3252 H   0  0  0  0  0  0
    2.2571    4.3132    8.2142 H   0  0  0  0  0  0
   -1.2803    4.2393   10.6300 H   0  0  0  0  0  0
   -0.3799    6.0745   12.0166 H   0  0  0  0  0  0
    1.8523    7.0230   11.5207 H   0  0  0  0  0  0
  1  2  1  0  0  0
  1  6  2  0  0  0
  1 11  1  0  0  0
  2  3  2  0  0  0
  3  4  1  0  0  0
  3  7  1  0  0  0
  4  5  2  0  0  0
  4  8  1  0  0  0
  5  6  1  0  0  0
  5 10  1  0  0  0
  7  9  1  0  0  0
  7 13  1  0  0  0
  8  9  2  0  0  0
  8 29  1  0  0  0
  9 30  1  0  0  0
 10 22  1  0  0  0
 10 31  1  0  0  0
 11 12  1  0  0  0
 12 32  1  0  0  0
 12 33  1  0  0  0
 12 34  1  0  0  0
 13 14  1  0  0  0
 13 35  1  0  0  0
 13 36  1  0  0  0
 14 15  1  0  0  0
 14 21  1  0  0  0
 14 37  1  0  0  0
 15 16  1  0  0  0
 15 20  2  0  0  0
 16 17  2  0  0  0
 16 38  1  0  0  0
 17 18  1  0  0  0
 17 39  1  0  0  0
 18 19  2  0  0  0
 18 40  1  0  0  0
 19 20  1  0  0  0
 19 41  1  0  0  0
 20 42  1  0  0  0
 22 23  1  0  0  0
 22 27  2  0  0  0
 23 24  2  0  0  0
 23 43  1  0  0  0
 24 25  1  0  0  0
 24 28  1  0  0  0
 25 26  2  0  0  0
 25 44  1  0  0  0
 26 27  1  0  0  0
 26 45  1  0  0  0
 27 46  1  0  0  0
M  END
> <s_m_entry_id>
32213

> <s_m_entry_name>
dock_pv.476

> <s_m_Source_Path>
/home/csk/Desktop/cluster/DUD-E-result/src

> <s_m_Source_File>
dock_pv.maegz

> <i_m_Source_File_Index>
476

> <chembl_id>
CHEMBL4068876

> <chembl_pref_name>
None

> <i_lp_mmshare_version>
53161

> <r_lp_tautomer_probability>
1

> <s_lp_Force_Field>
OPLS_2005

> <r_lp_Energy>
15.022319

> <b_lp_Chiralities_Consistent>
1

> <s_lp_Variant>
CHEMBL267_lig3881-2

> <s_i_glide_gridfile>
glide-grid_3el8

> <i_i_glide_lignum>
4793

> <i_i_glide_rotatable_bonds>
6

> <r_i_docking_score>
-7.03544966014321

> <r_i_glide_ligand_efficiency>
-0.251266059290829

> <r_i_glide_ligand_efficiency_sa>
-0.762991743801706

> <r_i_glide_ligand_efficiency_ln>
-1.62398835133909

> <r_i_glide_gscore>
-7.03544966014321

> <r_i_glide_lipo>
-3.01455396005795

> <r_i_glide_hbond>
-0.32

> <r_i_glide_metal>
0

> <r_i_glide_rewards>
-1.29462918868313

> <r_i_glide_evdw>
-46.1319580078125

> <r_i_glide_ecoul>
-4.25749254226685

> <r_i_glide_erotb>
0.538955270328522

> <r_i_glide_esite>
0

> <r_i_glide_emodel>
-67.575975005704

> <r_i_glide_energy>
-50.3894505500793

> <r_i_glide_einternal>
8.82983684539795

> <i_i_glide_confnum>
13

> <i_i_glide_posenum>
320

> <r_i_glide_eff_state_penalty>
0

> <s_user_duplicate_titles>
CHEMBL267_lig3881

> <i_f3d_flags>
0

> <s_m_subgroup_title>
dock_pv

> <s_m_subgroupid>
dock_pv

> <b_m_subgroup_collapsed>
1

$$$$
CHEMBL267_lig3598
                    3D
 Schrodinger Suite 2021-1.
 45 48  0  0  1  0            999 V2000
    8.4432    8.6370    5.4922 O   0  0  0  0  0  0
    7.8002    6.2369    7.7295 O   0  0  0  0  0  0
    0.3562    3.1803    8.3880 O   0  0  0  0  0  0
    5.1975    9.4740    5.4931 N   0  0  0  0  0  0
    4.7133    7.2234    7.9884 N   0  0  0  0  0  0
    6.9927   12.4361    1.1881 N   0  0  0  0  0  0
    8.1753   12.8949    1.6362 N   0  0  0  0  0  0
   -0.5427    4.9005    9.5885 N   0  0  0  0  0  0
    5.9725    8.5776    6.2106 C   0  0  0  0  0  0
    5.7541    7.6747    7.2105 C   0  0  0  0  0  0
    7.4593    8.2431    6.1145 C   0  0  0  0  0  0
    7.1726    7.1424    7.1882 C   0  0  0  0  0  0
    5.5954   10.2593    4.3991 C   0  0  0  0  0  0
    7.1830   11.6801    3.2661 C   0  0  0  0  0  0
    6.3286   11.6911    2.1400 C   0  0  0  0  0  0
    6.7976   10.9751    4.4134 C   0  0  0  0  0  0
    4.7564   10.3192    3.2826 C   0  0  0  0  0  0
    3.3074    7.5754    7.8794 C   0  0  0  0  0  0
    5.0950   11.0359    2.1309 C   0  0  0  0  0  0
    8.3035   12.4667    2.8660 C   0  0  0  0  0  0
    2.5169    6.9396    9.0184 C   0  0  0  0  0  0
    1.3760    6.1694    8.7538 C   0  0  0  0  0  0
    0.6216    5.6403    9.8115 C   0  0  0  0  0  0
    2.8969    7.1639   10.3480 C   0  0  0  0  0  0
    0.9984    5.8903   11.1313 C   0  0  0  0  0  0
    2.1452    6.6370   11.3974 C   0  0  0  0  0  0
   -0.6057    3.7358    8.9180 C   0  0  0  0  0  0
   -1.9885    3.0951    8.8351 C   0  0  0  0  0  0
    4.1945    9.3893    5.5712 H   0  0  0  0  0  0
    4.8750    6.4654    8.6396 H   0  0  0  0  0  0
    6.6739   12.6370    0.2386 H   0  0  0  0  0  0
   -1.3889    5.2452   10.0268 H   0  0  0  0  0  0
    7.4354   10.9701    5.2833 H   0  0  0  0  0  0
    3.8210    9.7778    3.2909 H   0  0  0  0  0  0
    2.9240    7.2436    6.9128 H   0  0  0  0  0  0
    3.1921    8.6592    7.9253 H   0  0  0  0  0  0
    4.4425   11.0640    1.2695 H   0  0  0  0  0  0
    9.1821   12.7065    3.4459 H   0  0  0  0  0  0
    1.0657    5.9871    7.7348 H   0  0  0  0  0  0
    3.7744    7.7538   10.5714 H   0  0  0  0  0  0
    0.4162    5.4955   11.9520 H   0  0  0  0  0  0
    2.4482    6.8133   12.4195 H   0  0  0  0  0  0
   -2.7733    3.8504    8.7880 H   0  0  0  0  0  0
   -2.1763    2.4711    9.7074 H   0  0  0  0  0  0
   -2.0714    2.4658    7.9502 H   0  0  0  0  0  0
  1 11  2  0  0  0
  2 12  2  0  0  0
  3 27  2  0  0  0
  4  9  1  0  0  0
  4 13  1  0  0  0
  4 29  1  0  0  0
  5 10  1  0  0  0
  5 18  1  0  0  0
  5 30  1  0  0  0
  6  7  1  0  0  0
  6 15  1  0  0  0
  6 31  1  0  0  0
  7 20  2  0  0  0
  8 23  1  0  0  0
  8 27  1  0  0  0
  8 32  1  0  0  0
  9 10  2  0  0  0
  9 11  1  0  0  0
 10 12  1  0  0  0
 11 12  1  0  0  0
 13 16  1  0  0  0
 13 17  2  0  0  0
 14 15  1  0  0  0
 14 16  2  0  0  0
 14 20  1  0  0  0
 15 19  2  0  0  0
 16 33  1  0  0  0
 17 19  1  0  0  0
 17 34  1  0  0  0
 18 21  1  0  0  0
 18 35  1  0  0  0
 18 36  1  0  0  0
 19 37  1  0  0  0
 20 38  1  0  0  0
 21 22  2  0  0  0
 21 24  1  0  0  0
 22 23  1  0  0  0
 22 39  1  0  0  0
 23 25  2  0  0  0
 24 26  2  0  0  0
 24 40  1  0  0  0
 25 26  1  0  0  0
 25 41  1  0  0  0
 26 42  1  0  0  0
 27 28  1  0  0  0
 28 43  1  0  0  0
 28 44  1  0  0  0
 28 45  1  0  0  0
M  END
> <s_m_entry_id>
32214

> <s_m_entry_name>
dock_pv.477

> <s_m_Source_Path>
/home/csk/Desktop/cluster/DUD-E-result/src

> <s_m_Source_File>
dock_pv.maegz

> <i_m_Source_File_Index>
477

> <chembl_id>
CHEMBL1988608

> <chembl_pref_name>
None

> <i_lp_mmshare_version>
53161

> <r_lp_tautomer_probability>
1

> <s_lp_Force_Field>
OPLS_2005

> <r_lp_Energy>
52.950027

> <b_lp_Chiralities_Consistent>
1

> <s_lp_Variant>
CHEMBL267_lig3598-1

> <s_i_glide_gridfile>
glide-grid_3el8

> <i_i_glide_lignum>
4338

> <i_i_glide_rotatable_bonds>
7

> <r_i_docking_score>
-7.03495166955361

> <r_i_glide_ligand_efficiency>
-0.251248273912629

> <r_i_glide_ligand_efficiency_sa>
-0.762937736918463

> <r_i_glide_ligand_efficiency_ln>
-1.62387340048937

> <r_i_glide_gscore>
-7.03495166955361

> <r_i_glide_lipo>
-3.35354362468678

> <r_i_glide_hbond>
-0.567779740845476

> <r_i_glide_metal>
0

> <r_i_glide_rewards>
-0.479238310412626

> <r_i_glide_evdw>
-46.5260391235352

> <r_i_glide_ecoul>
-7.01244878768921

> <r_i_glide_erotb>
0.823766052212973

> <r_i_glide_esite>
-0.0799867714915598

> <r_i_glide_emodel>
-69.4378525118031

> <r_i_glide_energy>
-53.5384879112244

> <r_i_glide_einternal>
9.16120719909668

> <i_i_glide_confnum>
31

> <i_i_glide_posenum>
327

> <r_i_glide_eff_state_penalty>
0

> <s_user_duplicate_titles>
CHEMBL267_lig3598

> <i_f3d_flags>
0

> <s_m_subgroup_title>
dock_pv

> <s_m_subgroupid>
dock_pv

> <b_m_subgroup_collapsed>
1

$$$$
CHEMBL267_lig2881 
                    3D
 Schrodinger Suite 2021-1.
 52 55  0  0  1  0            999 V2000
    0.9682    6.0989    9.0451 C   0  0  0  0  0  0
    0.9703    6.2394    7.6546 C   0  0  0  0  0  0
    2.0206    6.8896    7.0142 C   0  0  0  0  0  0
    3.0944    7.4021    7.7511 C   0  0  0  0  0  0
    3.0825    7.2824    9.1457 C   0  0  0  0  0  0
    2.0222    6.6373    9.7869 C   0  0  0  0  0  0
   -0.0471    5.4288    9.7058 O   0  0  0  0  0  0
   -0.4387    4.1698    9.2800 C   0  0  0  0  0  0
    0.4967    3.1727    8.9987 C   0  0  0  0  0  0
    0.0965    1.9124    8.5576 C   0  0  0  0  0  0
   -1.2558    1.6169    8.4220 C   0  0  0  0  0  0
   -2.2017    2.5723    8.7879 C   0  0  0  0  0  0
   -1.7930    3.8370    9.2060 C   0  0  0  0  0  0
    1.7981    3.4334    9.1818 F   0  0  0  0  0  0
   -1.6405    0.3862    8.0169 F   0  0  0  0  0  0
    4.2158    8.0748    7.0107 C   0  0  0  0  0  0
    5.6208    7.8368    6.9899 C   0  0  0  0  0  0
    6.1278    8.7666    6.0776 C   0  0  0  0  0  0
    5.0319    9.4706    5.6071 N   0  0  0  0  0  0
    3.8971    9.0375    6.1747 N   0  0  0  0  0  0
    6.4214    6.8417    7.6849 C   0  0  0  0  0  0
    5.7543    5.9291    8.3880 N   0  0  0  0  0  0
    7.6473    6.7863    7.5879 O   0  0  0  0  0  0
    7.4115    8.9581    5.6411 N   0  0  0  0  0  0
    4.8888   10.5662    4.6150 C   0  0  2  0  0  0
    4.0847   10.0647    3.3932 C   0  0  0  0  0  0
    3.9538   11.1828    2.3456 C   0  0  0  0  0  0
    5.3129   11.8157    1.9803 C   0  0  0  0  0  0
    6.0214   12.2546    3.1881 N   0  0  1  0  0  0
    6.2384   11.1758    4.1547 C   0  0  0  0  0  0
    7.0743   13.0706    2.9874 C   0  0  0  0  0  0
    8.0222   13.7157    2.8289 N   0  0  0  0  0  0
    0.1622    5.8315    7.0679 H   0  0  0  0  0  0
    2.0081    6.9764    5.9369 H   0  0  0  0  0  0
    3.8946    7.6852    9.7345 H   0  0  0  0  0  0
    2.0271    6.5319   10.8619 H   0  0  0  0  0  0
    0.8214    1.1374    8.3882 H   0  0  0  0  0  0
   -3.2542    2.3361    8.7259 H   0  0  0  0  0  0
   -2.5355    4.5815    9.4441 H   0  0  0  0  0  0
    6.2659    5.1827    8.8355 H   0  0  0  0  0  0
    4.7489    5.9716    8.4636 H   0  0  0  0  0  0
    8.1156    8.2688    5.8780 H   0  0  0  0  0  0
    7.7535    9.8610    5.3516 H   0  0  0  0  0  0
    4.2966   11.3302    5.1252 H   0  0  0  0  0  0
    3.0698    9.8012    3.6977 H   0  0  0  0  0  0
    4.5234    9.1562    2.9755 H   0  0  0  0  0  0
    3.2953   11.9628    2.7325 H   0  0  0  0  0  0
    3.4636   10.8083    1.4464 H   0  0  0  0  0  0
    5.1817   12.6488    1.2864 H   0  0  0  0  0  0
    5.9555   11.0718    1.5069 H   0  0  0  0  0  0
    6.8661   10.4263    3.6711 H   0  0  0  0  0  0
    6.7817   11.5667    5.0152 H   0  0  0  0  0  0
  1  2  2  0  0  0
  1  6  1  0  0  0
  1  7  1  0  0  0
  2  3  1  0  0  0
  2 33  1  0  0  0
  3  4  2  0  0  0
  3 34  1  0  0  0
  4  5  1  0  0  0
  4 16  1  0  0  0
  5  6  2  0  0  0
  5 35  1  0  0  0
  6 36  1  0  0  0
  7  8  1  0  0  0
  8  9  2  0  0  0
  8 13  1  0  0  0
  9 10  1  0  0  0
  9 14  1  0  0  0
 10 11  2  0  0  0
 10 37  1  0  0  0
 11 12  1  0  0  0
 11 15  1  0  0  0
 12 13  2  0  0  0
 12 38  1  0  0  0
 13 39  1  0  0  0
 16 17  1  0  0  0
 16 20  2  0  0  0
 17 18  2  0  0  0
 17 21  1  0  0  0
 18 19  1  0  0  0
 18 24  1  0  0  0
 19 20  1  0  0  0
 19 25  1  0  0  0
 21 22  1  0  0  0
 21 23  2  0  0  0
 22 40  1  0  0  0
 22 41  1  0  0  0
 24 42  1  0  0  0
 24 43  1  0  0  0
 25 26  1  0  0  0
 25 30  1  0  0  0
 25 44  1  0  0  0
 26 27  1  0  0  0
 26 45  1  0  0  0
 26 46  1  0  0  0
 27 28  1  0  0  0
 27 47  1  0  0  0
 27 48  1  0  0  0
 28 29  1  0  0  0
 28 49  1  0  0  0
 28 50  1  0  0  0
 29 30  1  0  0  0
 29 31  1  0  0  0
 30 51  1  0  0  0
 30 52  1  0  0  0
 31 32  3  0  0  0
M  END
> <s_m_entry_id>
32215

> <s_m_entry_name>
dock_pv.478

> <s_m_Source_Path>
/home/csk/Desktop/cluster/DUD-E-result/src

> <s_m_Source_File>
dock_pv.maegz

> <i_m_Source_File_Index>
478

> <chembl_id>
CHEMBL4560385

> <chembl_pref_name>
None

> <i_lp_mmshare_version>
53161

> <r_lp_tautomer_probability>
1

> <s_lp_Force_Field>
OPLS_2005

> <r_lp_Energy>
38.455745

> <b_lp_Chiralities_Consistent>
1

> <s_lp_Variant>
CHEMBL267_lig2881 -1

> <s_i_glide_gridfile>
glide-grid_3el8

> <i_i_glide_lignum>
3260

> <i_i_glide_rotatable_bonds>
5

> <r_i_docking_score>
-7.03472656860108

> <r_i_glide_ligand_efficiency>
-0.219835205268784

> <r_i_glide_ligand_efficiency_sa>
-0.69793327140034

> <r_i_glide_ligand_efficiency_ln>
-1.57526703811364

> <r_i_glide_gscore>
-7.03472656860108

> <r_i_glide_lipo>
-3.28538705331886

> <r_i_glide_hbond>
-0.0620505711618468

> <r_i_glide_metal>
0

> <r_i_glide_rewards>
-1.42892150430263

> <r_i_glide_evdw>
-44.1584587097168

> <r_i_glide_ecoul>
-3.1039092540741

> <r_i_glide_erotb>
0.41514188377921

> <r_i_glide_esite>
0

> <r_i_glide_emodel>
-58.4935056436586

> <r_i_glide_energy>
-47.2623679637909

> <r_i_glide_einternal>
16.1175537109375

> <i_i_glide_confnum>
2

> <i_i_glide_posenum>
120

> <r_i_glide_eff_state_penalty>
0

> <s_user_duplicate_titles>
CHEMBL267_lig2881 

> <i_f3d_flags>
0

> <s_m_subgroup_title>
dock_pv

> <s_m_subgroupid>
dock_pv

> <b_m_subgroup_collapsed>
1

$$$$
CHEMBL267_lig1522
                    3D
 Schrodinger Suite 2021-1.
 57 60  0  0  1  0            999 V2000
    7.5175    6.4709    7.5890 N   0  0  0  0  0  0
    7.9259    7.4371    6.7325 C   0  0  0  0  0  0
    7.1672    8.3899    6.1420 N   0  0  0  0  0  0
    6.2126    6.4808    7.9653 C   0  0  0  0  0  0
    5.3095    7.4371    7.4453 C   0  0  0  0  0  0
    5.8737    8.3386    6.4963 C   0  0  0  0  0  0
    4.8537    9.1187    5.9774 N   0  0  0  0  0  0
    3.6859    8.7597    6.6207 C   0  0  0  0  0  0
    3.9092    7.7618    7.5582 C   0  0  0  0  0  0
    2.8941    7.1528    8.4586 C   0  0  0  0  0  0
    3.1623    6.9872    9.8206 C   0  0  0  0  0  0
    2.2148    6.3898   10.6504 C   0  0  0  0  0  0
    1.0029    5.9553   10.1173 C   0  0  0  0  0  0
    0.7303    6.1183    8.7621 C   0  0  0  0  0  0
    1.6733    6.7210    7.9325 C   0  0  0  0  0  0
    5.0352   10.1896    4.9883 C   0  0  1  0  0  0
    5.7980    5.4374    8.7877 N   0  0  0  0  0  0
    3.8892   10.4081    3.9897 C   0  0  0  0  0  0
    3.9820   11.8458    3.6752 N   0  0  0  0  0  0
    4.9646   12.5597    4.5075 C   0  0  1  0  0  0
    5.2344   11.5547    5.6318 C   0  0  0  0  0  0
    6.2282   12.9914    3.7120 C   0  0  0  0  0  0
    3.1898   12.5125    2.7347 C   0  0  0  0  0  0
    3.1732   13.7360    2.5795 O   0  0  0  0  0  0
    2.4598   11.6309    1.9898 O   0  0  0  0  0  0
    1.6962   11.9762    0.8212 C   0  0  0  0  0  0
    0.5420   12.9504    1.1612 C   0  0  0  0  0  0
    1.1071   10.6371    0.3474 C   0  0  0  0  0  0
    2.5994   12.5486   -0.2974 C   0  0  0  0  0  0
    6.8418   11.9322    2.9976 O   0  0  0  0  0  0
    8.9735    7.4373    6.4647 H   0  0  0  0  0  0
    2.7673    9.2754    6.3849 H   0  0  0  0  0  0
    4.1030    7.3166   10.2372 H   0  0  0  0  0  0
    2.4293    6.2530   11.7013 H   0  0  0  0  0  0
    0.2714    5.4858   10.7585 H   0  0  0  0  0  0
   -0.2022    5.7664    8.3528 H   0  0  0  0  0  0
    1.4621    6.8300    6.8787 H   0  0  0  0  0  0
    5.9163    9.9079    4.4114 H   0  0  0  0  0  0
    4.8327    5.3851    9.0862 H   0  0  0  0  0  0
    6.4828    4.7541    9.0904 H   0  0  0  0  0  0
    2.9114   10.1832    4.4152 H   0  0  0  0  0  0
    4.0083    9.7804    3.1045 H   0  0  0  0  0  0
    4.5321   13.4677    4.9315 H   0  0  0  0  0  0
    4.4625   11.7037    6.3885 H   0  0  0  0  0  0
    6.1974   11.6891    6.1224 H   0  0  0  0  0  0
    5.9615   13.7664    2.9909 H   0  0  0  0  0  0
    6.9642   13.4372    4.3816 H   0  0  0  0  0  0
   -0.1225   13.0924    0.3081 H   0  0  0  0  0  0
    0.9049   13.9354    1.4540 H   0  0  0  0  0  0
   -0.0618   12.5688    1.9872 H   0  0  0  0  0  0
    1.8820    9.8834    0.2018 H   0  0  0  0  0  0
    0.3949   10.2350    1.0710 H   0  0  0  0  0  0
    0.5981   10.7532   -0.6075 H   0  0  0  0  0  0
    3.3976   11.8478   -0.5498 H   0  0  0  0  0  0
    2.0352   12.7379   -1.2110 H   0  0  0  0  0  0
    3.0761   13.4870   -0.0100 H   0  0  0  0  0  0
    7.4673   12.3073    2.3727 H   0  0  0  0  0  0
  1  4  1  0  0  0
  1  2  2  0  0  0
  2  3  1  0  0  0
  2 31  1  0  0  0
  3  6  2  0  0  0
  4  5  2  0  0  0
  4 17  1  0  0  0
  5  9  1  0  0  0
  5  6  1  0  0  0
  6  7  1  0  0  0
  7 16  1  0  0  0
  7  8  1  0  0  0
  8  9  2  0  0  0
  8 32  1  0  0  0
  9 10  1  0  0  0
 10 15  1  0  0  0
 10 11  2  0  0  0
 11 12  1  0  0  0
 11 33  1  0  0  0
 12 13  2  0  0  0
 12 34  1  0  0  0
 13 14  1  0  0  0
 13 35  1  0  0  0
 14 15  2  0  0  0
 14 36  1  0  0  0
 15 37  1  0  0  0
 16 18  1  0  0  0
 16 21  1  0  0  0
 16 38  1  0  0  0
 17 39  1  0  0  0
 17 40  1  0  0  0
 18 19  1  0  0  0
 18 41  1  0  0  0
 18 42  1  0  0  0
 19 20  1  0  0  0
 19 23  1  0  0  0
 20 21  1  0  0  0
 20 22  1  0  0  0
 20 43  1  0  0  0
 21 44  1  0  0  0
 21 45  1  0  0  0
 22 30  1  0  0  0
 22 46  1  0  0  0
 22 47  1  0  0  0
 23 24  2  0  0  0
 23 25  1  0  0  0
 25 26  1  0  0  0
 26 27  1  0  0  0
 26 28  1  0  0  0
 26 29  1  0  0  0
 27 48  1  0  0  0
 27 49  1  0  0  0
 27 50  1  0  0  0
 28 51  1  0  0  0
 28 52  1  0  0  0
 28 53  1  0  0  0
 29 54  1  0  0  0
 29 55  1  0  0  0
 29 56  1  0  0  0
 30 57  1  0  0  0
M  END
> <s_m_entry_id>
32216

> <s_m_entry_name>
dock_pv.479

> <s_m_Source_Path>
/home/csk/Desktop/cluster/DUD-E-result/src

> <s_m_Source_File>
dock_pv.maegz

> <i_m_Source_File_Index>
479

> <chembl_id>
CHEMBL514652

> <chembl_pref_name>
None

> <i_lp_mmshare_version>
53161

> <r_lp_tautomer_probability>
1

> <s_lp_Force_Field>
OPLS_2005

> <r_lp_Energy>
40.128682

> <b_lp_Chiralities_Consistent>
1

> <s_lp_Variant>
CHEMBL267_lig1522-1

> <s_i_glide_gridfile>
glide-grid_3el8

> <i_i_glide_lignum>
1703

> <i_i_glide_rotatable_bonds>
7

> <r_i_docking_score>
-7.03420767406943

> <r_i_glide_ligand_efficiency>
-0.234473589135648

> <r_i_glide_ligand_efficiency_sa>
-0.728563957123957

> <r_i_glide_ligand_efficiency_ln>
-1.59824862737987

> <r_i_glide_gscore>
-7.03420767406943

> <r_i_glide_lipo>
-2.33120130022392

> <r_i_glide_hbond>
-0.447790241448523

> <r_i_glide_metal>
0

> <r_i_glide_rewards>
-1.98751520141067

> <r_i_glide_evdw>
-39.5022735595703

> <r_i_glide_ecoul>
-5.84762573242188

> <r_i_glide_erotb>
0.587182931297439

> <r_i_glide_esite>
-0.00262632444194919

> <r_i_glide_emodel>
-62.9960830458674

> <r_i_glide_energy>
-45.3498992919922

> <r_i_glide_einternal>
3.19017052650452

> <i_i_glide_confnum>
8

> <i_i_glide_posenum>
258

> <r_i_glide_eff_state_penalty>
0

> <s_user_duplicate_titles>
CHEMBL267_lig1522,459643

> <i_f3d_flags>
0

> <s_m_subgroup_title>
dock_pv

> <s_m_subgroupid>
dock_pv

> <b_m_subgroup_collapsed>
1

$$$$
CHEMBL267_lig3144
                    3D
 Schrodinger Suite 2021-1.
 52 55  0  0  1  0            999 V2000
    1.8473    7.2567    7.6963 O   0  0  0  0  0  0
   -3.1335   -0.1656    8.7879 N   0  0  0  0  0  0
   -2.2516   -1.0274    8.2566 N   0  0  0  0  0  0
    1.0072    5.8906   10.9490 N   0  0  0  0  0  0
    0.5828    7.3586    3.5881 N   0  0  0  0  0  0
   -1.2879    1.0172    8.3885 C   0  0  0  0  0  0
   -2.6010    1.0993    8.9098 C   0  0  0  0  0  0
   -0.9492    3.3324    9.0032 C   0  0  0  0  0  0
   -0.4687    2.1658    8.3935 C   0  0  0  0  0  0
   -1.1438   -0.3624    8.0377 C   0  0  0  0  0  0
   -0.0640    4.4917    9.2743 C   0  0  0  0  0  0
   -3.1216    2.2760    9.4428 C   0  0  0  0  0  0
   -2.2556    3.3625    9.4941 C   0  0  0  0  0  0
    0.5110    5.2723    8.2656 C   0  0  0  0  0  0
    1.2963    6.3859    8.6015 C   0  0  0  0  0  0
    0.1973    4.8666   10.5952 C   0  0  0  0  0  0
    1.5577    6.6196    9.9502 C   0  0  0  0  0  0
    0.0796   -1.0842    7.5552 C   0  0  0  0  0  0
    1.1018    7.6507    6.5512 C   0  0  0  0  0  0
    2.1064    8.0063    5.4327 C   0  0  2  0  0  0
    3.1612    9.0671    5.8856 C   0  0  0  0  0  0
    4.5705    8.5288    6.1569 C   0  0  0  0  0  0
    1.4090    8.4285    4.1194 C   0  0  0  0  0  0
    4.8632    7.8471    7.3442 C   0  0  0  0  0  0
    5.5942    8.7631    5.2316 C   0  0  0  0  0  0
    6.1571    7.4014    7.5984 C   0  0  0  0  0  0
    6.8911    8.3249    5.4950 C   0  0  0  0  0  0
    7.1698    7.6489    6.6778 C   0  0  0  0  0  0
   -4.0692   -0.4632    9.0161 H   0  0  0  0  0  0
   -0.2826    7.2804    4.1047 H   0  0  0  0  0  0
    0.3206    7.5598    2.6263 H   0  0  0  0  0  0
    0.5519    2.1104    8.0462 H   0  0  0  0  0  0
   -4.1215    2.3335    9.8446 H   0  0  0  0  0  0
   -2.6010    4.2452    9.9906 H   0  0  0  0  0  0
    0.2948    5.0365    7.2360 H   0  0  0  0  0  0
   -0.2565    4.3261   11.4050 H   0  0  0  0  0  0
    2.1910    7.4409   10.2505 H   0  0  0  0  0  0
    0.8319   -0.3864    7.1958 H   0  0  0  0  0  0
    0.5385   -1.6730    8.3488 H   0  0  0  0  0  0
   -0.1547   -1.7625    6.7351 H   0  0  0  0  0  0
    0.4915    8.5172    6.8098 H   0  0  0  0  0  0
    0.4160    6.8813    6.2006 H   0  0  0  0  0  0
    2.6071    7.0672    5.2078 H   0  0  0  0  0  0
    2.8217    9.5933    6.7799 H   0  0  0  0  0  0
    3.2428    9.8638    5.1428 H   0  0  0  0  0  0
    0.8066    9.3264    4.2617 H   0  0  0  0  0  0
    2.1605    8.6640    3.3653 H   0  0  0  0  0  0
    4.1045    7.6720    8.0881 H   0  0  0  0  0  0
    5.3896    9.2951    4.3143 H   0  0  0  0  0  0
    6.3724    6.8660    8.5092 H   0  0  0  0  0  0
    7.6873    8.5164    4.7934 H   0  0  0  0  0  0
    8.1758    7.3097    6.8763 H   0  0  0  0  0  0
  1 15  1  0  0  0
  1 19  1  0  0  0
  2  3  1  0  0  0
  2  7  1  0  0  0
  2 29  1  0  0  0
  3 10  2  0  0  0
  4 16  1  0  0  0
  4 17  2  0  0  0
  5 23  1  0  0  0
  5 30  1  0  0  0
  5 31  1  0  0  0
  6  7  1  0  0  0
  6  9  2  0  0  0
  6 10  1  0  0  0
  7 12  2  0  0  0
  8  9  1  0  0  0
  8 11  1  0  0  0
  8 13  2  0  0  0
  9 32  1  0  0  0
 10 18  1  0  0  0
 11 14  1  0  0  0
 11 16  2  0  0  0
 12 13  1  0  0  0
 12 33  1  0  0  0
 13 34  1  0  0  0
 14 15  2  0  0  0
 14 35  1  0  0  0
 15 17  1  0  0  0
 16 36  1  0  0  0
 17 37  1  0  0  0
 18 38  1  0  0  0
 18 39  1  0  0  0
 18 40  1  0  0  0
 19 20  1  0  0  0
 19 41  1  0  0  0
 19 42  1  0  0  0
 20 21  1  0  0  0
 20 23  1  0  0  0
 20 43  1  0  0  0
 21 22  1  0  0  0
 21 44  1  0  0  0
 21 45  1  0  0  0
 22 24  2  0  0  0
 22 25  1  0  0  0
 23 46  1  0  0  0
 23 47  1  0  0  0
 24 26  1  0  0  0
 24 48  1  0  0  0
 25 27  2  0  0  0
 25 49  1  0  0  0
 26 28  2  0  0  0
 26 50  1  0  0  0
 27 28  1  0  0  0
 27 51  1  0  0  0
 28 52  1  0  0  0
M  END
> <s_m_entry_id>
32217

> <s_m_entry_name>
dock_pv.480

> <s_m_Source_Path>
/home/csk/Desktop/cluster/DUD-E-result/src

> <s_m_Source_File>
dock_pv.maegz

> <i_m_Source_File_Index>
480

> <chembl_id>
CHEMBL2000271

> <chembl_pref_name>
None

> <i_lp_mmshare_version>
53161

> <r_lp_tautomer_probability>
0.980392156862745

> <s_lp_Force_Field>
OPLS_2005

> <r_lp_Energy>
23.354917

> <b_lp_Chiralities_Consistent>
1

> <s_lp_Variant>
CHEMBL267_lig3144-1

> <s_i_glide_gridfile>
glide-grid_3el8

> <i_i_glide_lignum>
3651

> <i_i_glide_rotatable_bonds>
7

> <r_i_docking_score>
-7.03405428012913

> <r_i_glide_ligand_efficiency>
-0.251216224290326

> <r_i_glide_ligand_efficiency_sa>
-0.762840415388933

> <r_i_glide_ligand_efficiency_ln>
-1.6236662566617

> <r_i_glide_gscore>
-7.03405428012913

> <r_i_glide_lipo>
-4.51919128869274

> <r_i_glide_hbond>
-0.251821117966079

> <r_i_glide_metal>
0

> <r_i_glide_rewards>
-0.539495103140791

> <r_i_glide_evdw>
-41.5215263366699

> <r_i_glide_ecoul>
-1.79528725147247

> <r_i_glide_erotb>
0.696122130034739

> <r_i_glide_esite>
-0.074299495809883

> <r_i_glide_emodel>
-50.6859733688557

> <r_i_glide_energy>
-43.3168135881424

> <r_i_glide_einternal>
10.2357006072998

> <i_i_glide_confnum>
25

> <i_i_glide_posenum>
242

> <r_i_glide_eff_state_penalty>
0

> <s_user_duplicate_titles>
CHEMBL267_lig3144

> <i_f3d_flags>
0

> <s_m_subgroup_title>
dock_pv

> <s_m_subgroupid>
dock_pv

> <b_m_subgroup_collapsed>
1

$$$$
CHEMBL267_lig3153
                    3D
 Schrodinger Suite 2021-1.
 50 54  0  0  1  0            999 V2000
    0.2381    6.4449    4.8729 F   0  0  0  0  0  0
    1.3412   10.2913    2.3241 F   0  0  0  0  0  0
    7.2850   11.5724    3.5455 O   0  0  0  0  0  0
    1.9237    6.4361    9.0659 N   0  0  0  0  0  0
    5.9793    7.9839    6.9186 N   0  0  0  0  0  0
    0.3422    7.2458    7.7307 N   0  0  0  0  0  0
    4.6335    8.0392    7.0856 N   0  0  0  0  0  0
    8.0661    8.3478    6.2799 N   0  0  0  0  0  0
    8.1109    7.2666    7.1382 N   0  0  0  0  0  0
    2.5981    7.0227    8.0088 C   0  0  0  0  0  0
    1.5321    7.4927    7.2025 C   0  0  0  0  0  0
    4.0953    7.0469    7.8564 C   0  0  0  0  0  0
    0.6006    6.6351    8.8432 C   0  0  0  0  0  0
    6.8201    8.7725    6.1344 C   0  0  0  0  0  0
    6.8323    7.0220    7.4845 C   0  0  0  0  0  0
    1.5413    8.1835    5.8900 C   0  0  0  0  0  0
    6.3884    9.9080    5.1769 C   0  0  0  0  0  0
    4.8646    6.0092    8.3895 C   0  0  0  0  0  0
    2.1456    5.8151   10.3614 C   0  0  0  0  0  0
    6.2441    5.9880    8.2197 C   0  0  0  0  0  0
   -0.2091    5.9430    9.8996 C   0  0  0  0  0  0
    0.8567    7.6469    4.7914 C   0  0  0  0  0  0
    0.8374    5.0375   10.5284 C   0  0  0  0  0  0
    2.1591    9.4280    5.7720 C   0  0  0  0  0  0
    7.6293   10.5788    4.4967 C   0  0  0  0  0  0
    0.7887    8.3615    3.6012 C   0  0  0  0  0  0
    2.1028   10.1356    4.5711 C   0  0  0  0  0  0
    5.4715    9.3154    4.0773 C   0  0  0  0  0  0
    5.6185   10.9944    5.9641 C   0  0  0  0  0  0
    1.4137    9.6012    3.4835 C   0  0  0  0  0  0
    8.0882   11.9628    3.1912 H   0  0  0  0  0  0
    4.4069    5.1787    8.8960 H   0  0  0  0  0  0
    2.9982    5.1573   10.3879 H   0  0  0  0  0  0
    2.2261    6.5763   11.1397 H   0  0  0  0  0  0
    6.8395    5.1794    8.6095 H   0  0  0  0  0  0
   -0.6019    6.6369   10.6398 H   0  0  0  0  0  0
   -1.0470    5.3749    9.4969 H   0  0  0  0  0  0
    0.8881    4.0859    9.9944 H   0  0  0  0  0  0
    0.5981    4.8152   11.5691 H   0  0  0  0  0  0
    2.6665    9.8379    6.6290 H   0  0  0  0  0  0
    8.2509    9.8384    3.9932 H   0  0  0  0  0  0
    8.2793   11.0369    5.2394 H   0  0  0  0  0  0
    0.2212    7.9490    2.7881 H   0  0  0  0  0  0
    2.5833   11.0988    4.4833 H   0  0  0  0  0  0
    5.0424   10.0925    3.4438 H   0  0  0  0  0  0
    6.0238    8.6370    3.4286 H   0  0  0  0  0  0
    4.6399    8.7473    4.4913 H   0  0  0  0  0  0
    5.3426   11.8387    5.3309 H   0  0  0  0  0  0
    4.6971   10.6101    6.3879 H   0  0  0  0  0  0
    6.2140   11.3868    6.7873 H   0  0  0  0  0  0
  1 22  1  0  0  0
  2 30  1  0  0  0
  3 25  1  0  0  0
  3 31  1  0  0  0
  4 10  1  0  0  0
  4 13  1  0  0  0
  4 19  1  0  0  0
  5  7  1  0  0  0
  5 14  1  0  0  0
  5 15  1  0  0  0
  6 11  1  0  0  0
  6 13  2  0  0  0
  7 12  2  0  0  0
  8  9  1  0  0  0
  8 14  2  0  0  0
  9 15  2  0  0  0
 10 11  2  0  0  0
 10 12  1  0  0  0
 11 16  1  0  0  0
 12 18  1  0  0  0
 13 21  1  0  0  0
 14 17  1  0  0  0
 15 20  1  0  0  0
 16 22  1  0  0  0
 16 24  2  0  0  0
 17 25  1  0  0  0
 17 28  1  0  0  0
 17 29  1  0  0  0
 18 20  2  0  0  0
 18 32  1  0  0  0
 19 23  1  0  0  0
 19 33  1  0  0  0
 19 34  1  0  0  0
 20 35  1  0  0  0
 21 23  1  0  0  0
 21 36  1  0  0  0
 21 37  1  0  0  0
 22 26  2  0  0  0
 23 38  1  0  0  0
 23 39  1  0  0  0
 24 27  1  0  0  0
 24 40  1  0  0  0
 25 41  1  0  0  0
 25 42  1  0  0  0
 26 30  1  0  0  0
 26 43  1  0  0  0
 27 30  2  0  0  0
 27 44  1  0  0  0
 28 45  1  0  0  0
 28 46  1  0  0  0
 28 47  1  0  0  0
 29 48  1  0  0  0
 29 49  1  0  0  0
 29 50  1  0  0  0
M  END
> <s_m_entry_id>
32218

> <s_m_entry_name>
dock_pv.481

> <s_m_Source_Path>
/home/csk/Desktop/cluster/DUD-E-result/src

> <s_m_Source_File>
dock_pv.maegz

> <i_m_Source_File_Index>
481

> <chembl_id>
CHEMBL1996587

> <chembl_pref_name>
None

> <i_lp_mmshare_version>
53161

> <r_lp_tautomer_probability>
1

> <s_lp_Force_Field>
OPLS_2005

> <r_lp_Energy>
46.700351

> <b_lp_Chiralities_Consistent>
1

> <s_lp_Variant>
CHEMBL267_lig3153-1

> <s_i_glide_gridfile>
glide-grid_3el8

> <i_i_glide_lignum>
3668

> <i_i_glide_rotatable_bonds>
5

> <r_i_docking_score>
-7.03392086277413

> <r_i_glide_ligand_efficiency>
-0.234464028759138

> <r_i_glide_ligand_efficiency_sa>
-0.72853425081133

> <r_i_glide_ligand_efficiency_ln>
-1.59818346072852

> <r_i_glide_gscore>
-7.03392086277413

> <r_i_glide_lipo>
-2.51577673796985

> <r_i_glide_hbond>
-0.0356399981731997

> <r_i_glide_metal>
0

> <r_i_glide_rewards>
-2.4178278822624

> <r_i_glide_evdw>
-40.1015129089355

> <r_i_glide_ecoul>
-3.41478252410889

> <r_i_glide_erotb>
0.46781059759204

> <r_i_glide_esite>
-0.0151938178976048

> <r_i_glide_emodel>
-60.1944747663373

> <r_i_glide_energy>
-43.5162954330444

> <r_i_glide_einternal>
3.50826215744019

> <i_i_glide_confnum>
67

> <i_i_glide_posenum>
126

> <r_i_glide_eff_state_penalty>
0

> <s_user_duplicate_titles>
CHEMBL267_lig3153

> <i_f3d_flags>
0

> <s_m_subgroup_title>
dock_pv

> <s_m_subgroupid>
dock_pv

> <b_m_subgroup_collapsed>
1

$$$$
CHEMBL267_lig3354
                    3D
 Schrodinger Suite 2021-1.
 53 56  0  0  1  0            999 V2000
    7.1496    9.8973    4.3875 F   0  0  0  0  0  0
    8.1961    6.6059    7.5972 F   0  0  0  0  0  0
    3.5279    7.0366   10.8601 O   0  0  0  0  0  0
    2.7054   11.0944    4.1843 N   0  0  0  0  0  0
    4.8410   11.3071    4.9133 N   0  0  0  0  0  0
    1.9650    8.1591    6.0750 N   0  0  0  0  0  0
    2.6039   13.6313    3.0643 N   0  0  0  0  0  0
    0.2335    6.7393    5.1788 N   0  0  0  0  0  0
    0.9011    6.4691    7.3868 N   0  0  0  0  0  0
    3.0607    9.8997    4.7851 C   0  0  0  0  0  0
    4.4082   10.0909    5.1967 C   0  0  0  0  0  0
    3.8342   11.9234    4.2579 C   0  0  0  0  0  0
    2.1064    8.7504    4.8625 C   0  0  0  0  0  0
    5.3923    9.1342    5.8306 C   0  0  0  0  0  0
    3.7479   13.1984    3.6567 C   0  0  0  0  0  0
    1.5459   11.5341    3.5880 C   0  0  0  0  0  0
    6.7276    9.0975    5.3898 C   0  0  0  0  0  0
    5.0367    8.2959    6.8969 C   0  0  0  0  0  0
    1.3399    8.3486    3.7625 C   0  0  0  0  0  0
    1.5272   12.8134    3.0398 C   0  0  0  0  0  0
    1.0400    7.1641    6.1827 C   0  0  0  0  0  0
    7.6591    8.2488    5.9809 C   0  0  0  0  0  0
    5.9709    7.4505    7.4982 C   0  0  0  0  0  0
    7.2843    7.4275    7.0349 C   0  0  0  0  0  0
    0.3953    7.3465    3.9782 C   0  0  0  0  0  0
    4.9092   14.1665    3.5667 C   0  0  0  0  0  0
    1.5238    6.9430    8.6223 C   0  0  0  0  0  0
    1.6120    5.8819    9.7503 C   0  0  0  0  0  0
    2.2110    6.5400   11.0269 C   0  0  0  0  0  0
    0.2022    5.3428   10.1036 C   0  0  0  0  0  0
    2.4978    4.7057    9.2545 C   0  0  0  0  0  0
    4.1371    6.3055   11.0254 H   0  0  0  0  0  0
    0.0765    5.8902    7.4690 H   0  0  0  0  0  0
    0.7038   10.8628    3.5607 H   0  0  0  0  0  0
    4.0459    8.3339    7.3117 H   0  0  0  0  0  0
    1.4466    8.8052    2.7884 H   0  0  0  0  0  0
    0.6429   13.1974    2.5527 H   0  0  0  0  0  0
    8.6776    8.2375    5.6233 H   0  0  0  0  0  0
    5.6784    6.8199    8.3259 H   0  0  0  0  0  0
   -0.2664    7.0371    3.1882 H   0  0  0  0  0  0
    5.3979   14.2363    4.5333 H   0  0  0  0  0  0
    5.6438   13.8023    2.8481 H   0  0  0  0  0  0
    4.6044   15.1702    3.2658 H   0  0  0  0  0  0
    0.9901    7.8341    8.9516 H   0  0  0  0  0  0
    2.5314    7.2914    8.4029 H   0  0  0  0  0  0
    2.2124    5.8370   11.8583 H   0  0  0  0  0  0
    1.5848    7.3695   11.3517 H   0  0  0  0  0  0
   -0.2677    4.8353    9.2616 H   0  0  0  0  0  0
    0.2415    4.6232   10.9216 H   0  0  0  0  0  0
   -0.4672    6.1466   10.4130 H   0  0  0  0  0  0
    2.0913    4.2471    8.3496 H   0  0  0  0  0  0
    3.5090    5.0369    9.0099 H   0  0  0  0  0  0
    2.5841    3.9088    9.9876 H   0  0  0  0  0  0
  1 17  1  0  0  0
  2 24  1  0  0  0
  3 29  1  0  0  0
  3 32  1  0  0  0
  4 10  1  0  0  0
  4 12  1  0  0  0
  4 16  1  0  0  0
  5 11  1  0  0  0
  5 12  2  0  0  0
  6 13  1  0  0  0
  6 21  2  0  0  0
  7 15  2  0  0  0
  7 20  1  0  0  0
  8 21  1  0  0  0
  8 25  2  0  0  0
  9 21  1  0  0  0
  9 27  1  0  0  0
  9 33  1  0  0  0
 10 11  2  0  0  0
 10 13  1  0  0  0
 11 14  1  0  0  0
 12 15  1  0  0  0
 13 19  2  0  0  0
 14 17  1  0  0  0
 14 18  2  0  0  0
 15 26  1  0  0  0
 16 20  2  0  0  0
 16 34  1  0  0  0
 17 22  2  0  0  0
 18 23  1  0  0  0
 18 35  1  0  0  0
 19 25  1  0  0  0
 19 36  1  0  0  0
 20 37  1  0  0  0
 22 24  1  0  0  0
 22 38  1  0  0  0
 23 24  2  0  0  0
 23 39  1  0  0  0
 25 40  1  0  0  0
 26 41  1  0  0  0
 26 42  1  0  0  0
 26 43  1  0  0  0
 27 28  1  0  0  0
 27 44  1  0  0  0
 27 45  1  0  0  0
 28 29  1  0  0  0
 28 30  1  0  0  0
 28 31  1  0  0  0
 29 46  1  0  0  0
 29 47  1  0  0  0
 30 48  1  0  0  0
 30 49  1  0  0  0
 30 50  1  0  0  0
 31 51  1  0  0  0
 31 52  1  0  0  0
 31 53  1  0  0  0
M  END
> <s_m_entry_id>
32219

> <s_m_entry_name>
dock_pv.482

> <s_m_Source_Path>
/home/csk/Desktop/cluster/DUD-E-result/src

> <s_m_Source_File>
dock_pv.maegz

> <i_m_Source_File_Index>
482

> <chembl_id>
CHEMBL1991678

> <chembl_pref_name>
None

> <i_lp_mmshare_version>
53161

> <r_lp_tautomer_probability>
0.999999987636

> <s_lp_Force_Field>
OPLS_2005

> <r_lp_Energy>
21.148238

> <b_lp_Chiralities_Consistent>
1

> <s_lp_Variant>
CHEMBL267_lig3354-1

> <s_i_glide_gridfile>
glide-grid_3el8

> <i_i_glide_lignum>
3971

> <i_i_glide_rotatable_bonds>
7

> <r_i_docking_score>
-7.03345200512681

> <r_i_glide_ligand_efficiency>
-0.226885548552478

> <r_i_glide_ligand_efficiency_sa>
-0.712733871714122

> <r_i_glide_ligand_efficiency_ln>
-1.58625897657355

> <r_i_glide_gscore>
-7.03345200512681

> <r_i_glide_lipo>
-2.80406889505835

> <r_i_glide_hbond>
-0.393772570996866

> <r_i_glide_metal>
0

> <r_i_glide_rewards>
-1.16559456382958

> <r_i_glide_evdw>
-42.7042274475098

> <r_i_glide_ecoul>
-7.96789026260376

> <r_i_glide_erotb>
0.660378936524038

> <r_i_glide_esite>
0

> <r_i_glide_emodel>
-72.3012111135105

> <r_i_glide_energy>
-50.6721177101135

> <r_i_glide_einternal>
3.13329648971558

> <i_i_glide_confnum>
3

> <i_i_glide_posenum>
235

> <r_i_glide_eff_state_penalty>
0

> <s_user_duplicate_titles>
CHEMBL267_lig3354

> <i_f3d_flags>
0

> <s_m_subgroup_title>
dock_pv

> <s_m_subgroupid>
dock_pv

> <b_m_subgroup_collapsed>
1

$$$$
CHEMBL267_lig3031
                    3D
 Schrodinger Suite 2021-1.
 45 48  0  0  1  0            999 V2000
    5.3178    6.9105    8.3868 N   0  0  0  0  0  0
    5.8826    7.6451    7.3955 C   0  0  0  0  0  0
    5.2406    8.4882    6.5408 N   0  0  0  0  0  0
    3.9726    6.9758    8.5324 C   0  0  0  0  0  0
    3.2009    7.7894    7.6837 C   0  0  0  0  0  0
    3.9148    8.5312    6.7186 C   0  0  0  0  0  0
    2.9678    9.3021    6.0608 N   0  0  0  0  0  0
    1.7223    9.0362    6.5201 N   0  0  0  0  0  0
    1.8350    8.1465    7.4746 C   0  0  0  0  0  0
    3.1273   10.3185    5.0154 C   0  0  0  0  0  0
    3.4654    9.7064    3.6347 C   0  0  1  0  0  0
    2.9397   10.5641    2.4828 C   0  0  0  0  0  0
    5.2299    9.4372    3.4893 Cl  0  0  0  0  0  0
    1.7109   10.2394    1.9023 C   0  0  0  0  0  0
    1.2186   10.9922    0.8398 C   0  0  0  0  0  0
    1.9537   12.0695    0.3561 C   0  0  0  0  0  0
    3.1745   12.4079    0.9321 C   0  0  0  0  0  0
    3.6662   11.6611    2.0012 C   0  0  0  0  0  0
    7.6279    7.4379    7.1892 S   0  0  0  0  0  0
    8.1130    8.3814    5.7180 C   0  0  0  0  0  0
    1.4745   12.7953   -0.6794 F   0  0  0  0  0  0
    3.4312    6.2371    9.5871 N   0  0  0  0  0  0
    1.4031    6.0285   10.8674 C   0  0  0  0  0  0
    2.1367    5.7310    9.7188 C   0  0  0  0  0  0
    1.5933    4.8877    8.7454 C   0  0  0  0  0  0
    0.3229    4.3396    8.9262 C   0  0  0  0  0  0
   -0.4038    4.6374   10.0760 C   0  0  0  0  0  0
    0.1347    5.4808   11.0478 C   0  0  0  0  0  0
   -0.2036    3.5196    7.9888 F   0  0  0  0  0  0
    0.9687    7.7787    8.0045 H   0  0  0  0  0  0
    3.8864   11.0344    5.3327 H   0  0  0  0  0  0
    2.1945   10.8830    4.9525 H   0  0  0  0  0  0
    2.9977    8.7227    3.5435 H   0  0  0  0  0  0
    1.1323    9.3986    2.2576 H   0  0  0  0  0  0
    0.2729   10.7351    0.3878 H   0  0  0  0  0  0
    3.7453   13.2369    0.5387 H   0  0  0  0  0  0
    4.6184   11.9297    2.4351 H   0  0  0  0  0  0
    9.1959    8.3647    5.5973 H   0  0  0  0  0  0
    7.6604    7.9419    4.8290 H   0  0  0  0  0  0
    7.7923    9.4201    5.7979 H   0  0  0  0  0  0
    4.1237    5.7393   10.1368 H   0  0  0  0  0  0
    1.8199    6.6715   11.6291 H   0  0  0  0  0  0
    2.1575    4.6431    7.8574 H   0  0  0  0  0  0
   -1.3919    4.2206   10.2099 H   0  0  0  0  0  0
   -0.4404    5.7144   11.9332 H   0  0  0  0  0  0
  1  2  2  0  0  0
  1  4  1  0  0  0
  2 19  1  0  0  0
  2  3  1  0  0  0
  3  6  2  0  0  0
  4 22  1  0  0  0
  4  5  2  0  0  0
  5  9  1  0  0  0
  5  6  1  0  0  0
  6  7  1  0  0  0
  7  8  1  0  0  0
  7 10  1  0  0  0
  8  9  2  0  0  0
  9 30  1  0  0  0
 10 11  1  0  0  0
 10 31  1  0  0  0
 10 32  1  0  0  0
 11 12  1  0  0  0
 11 13  1  0  0  0
 11 33  1  0  0  0
 12 14  2  0  0  0
 12 18  1  0  0  0
 14 15  1  0  0  0
 14 34  1  0  0  0
 15 16  2  0  0  0
 15 35  1  0  0  0
 16 17  1  0  0  0
 16 21  1  0  0  0
 17 18  2  0  0  0
 17 36  1  0  0  0
 18 37  1  0  0  0
 19 20  1  0  0  0
 20 38  1  0  0  0
 20 39  1  0  0  0
 20 40  1  0  0  0
 22 24  1  0  0  0
 22 41  1  0  0  0
 23 28  1  0  0  0
 23 24  2  0  0  0
 23 42  1  0  0  0
 24 25  1  0  0  0
 25 26  2  0  0  0
 25 43  1  0  0  0
 26 27  1  0  0  0
 26 29  1  0  0  0
 27 28  2  0  0  0
 27 44  1  0  0  0
 28 45  1  0  0  0
M  END
> <s_m_entry_id>
32221

> <s_m_entry_name>
dock_pv.484

> <s_m_Source_Path>
/home/csk/Desktop/cluster/DUD-E-result/src

> <s_m_Source_File>
dock_pv.maegz

> <i_m_Source_File_Index>
484

> <chembl_id>
CHEMBL516070

> <chembl_pref_name>
None

> <i_lp_mmshare_version>
53161

> <r_lp_tautomer_probability>
1

> <s_lp_Force_Field>
OPLS_2005

> <r_lp_Energy>
13.51152

> <b_lp_Chiralities_Consistent>
1

> <s_lp_Variant>
CHEMBL267_lig3031-2

> <s_i_glide_gridfile>
glide-grid_3el8

> <i_i_glide_lignum>
3455

> <i_i_glide_rotatable_bonds>
6

> <r_i_docking_score>
-7.03181709078052

> <r_i_glide_ligand_efficiency>
-0.242476451406225

> <r_i_glide_ligand_efficiency_sa>
-0.744964480651769

> <r_i_glide_ligand_efficiency_ln>
-1.61010780229245

> <r_i_glide_gscore>
-7.03181709078052

> <r_i_glide_lipo>
-2.63723511199794

> <r_i_glide_hbond>
-0.32

> <r_i_glide_metal>
0

> <r_i_glide_rewards>
-1.61433609350508

> <r_i_glide_evdw>
-44.664981842041

> <r_i_glide_ecoul>
-4.92392683029175

> <r_i_glide_erotb>
0.533262483725381

> <r_i_glide_esite>
-0.0216702523570655

> <r_i_glide_emodel>
-62.0960731234759

> <r_i_glide_energy>
-49.5889086723328

> <r_i_glide_einternal>
16.4122562408447

> <i_i_glide_confnum>
18

> <i_i_glide_posenum>
140

> <r_i_glide_eff_state_penalty>
0

> <s_user_duplicate_titles>
CHEMBL267_lig3031,454778

> <i_f3d_flags>
0

> <s_m_subgroup_title>
dock_pv

> <s_m_subgroupid>
dock_pv

> <b_m_subgroup_collapsed>
1

$$$$
CHEMBL267_lig3357
                    3D
 Schrodinger Suite 2021-1.
 32 34  0  0  1  0            999 V2000
    6.0447   10.7118    4.2236 I   0  0  0  0  0  0
    2.7871    8.0949    8.9458 O   0  0  0  0  0  0
    1.5450    6.3483    6.0824 O   0  0  0  0  0  0
    0.0166    6.8944    8.3880 O   0  0  0  0  0  0
    3.7151    7.0370   11.4834 O   0  0  0  0  0  0
    3.9461    8.2371    6.9428 N   0  0  0  0  0  0
    4.0425    9.2347    6.0304 N   0  0  0  0  0  0
    5.5067    6.6478    7.9880 N   0  0  0  0  0  0
    7.7980    6.8675    7.1880 N   0  0  0  0  0  0
    8.4210    8.4874    5.6099 N   0  0  0  0  0  0
    2.6717    7.9258    7.5620 C   0  0  1  0  0  0
    5.1898    7.6628    7.1726 C   0  0  0  0  0  0
    6.1007    8.3455    6.3364 C   0  0  0  0  0  0
    2.1770    6.4905    7.3447 C   0  0  1  0  0  0
    5.2968    9.3137    5.6626 C   0  0  0  0  0  0
    1.3035    6.3271    8.5760 C   0  0  1  0  0  0
    2.0928    7.0726    9.6617 C   0  0  1  0  0  0
    7.4331    7.9032    6.3900 C   0  0  0  0  0  0
    6.8172    6.2969    7.9348 C   0  0  0  0  0  0
    3.1108    6.2607   10.4638 C   0  0  0  0  0  0
    0.7438    6.8796    6.0808 H   0  0  0  0  0  0
   -0.5699    6.2370    7.9880 H   0  0  0  0  0  0
    4.3077    6.4539   11.9714 H   0  0  0  0  0  0
    8.1817    9.2480    4.9935 H   0  0  0  0  0  0
    9.3374    8.0554    5.5997 H   0  0  0  0  0  0
    1.9414    8.6526    7.1968 H   0  0  0  0  0  0
    2.9980    5.7899    7.4430 H   0  0  0  0  0  0
    1.1869    5.2729    8.8347 H   0  0  0  0  0  0
    1.3980    7.4370   10.4034 H   0  0  0  0  0  0
    7.0982    5.4370    8.5236 H   0  0  0  0  0  0
    3.8748    5.8370    9.8181 H   0  0  0  0  0  0
    2.5967    5.4370   10.9457 H   0  0  0  0  0  0
  1 15  1  0  0  0
  2 11  1  0  0  0
  2 17  1  0  0  0
  3 14  1  0  0  0
  3 21  1  0  0  0
  4 16  1  0  0  0
  4 22  1  0  0  0
  5 20  1  0  0  0
  5 23  1  0  0  0
  6  7  1  0  0  0
  6 11  1  0  0  0
  6 12  1  0  0  0
  7 15  2  0  0  0
  8 12  1  0  0  0
  8 19  2  0  0  0
  9 18  2  0  0  0
  9 19  1  0  0  0
 10 18  1  0  0  0
 10 24  1  0  0  0
 10 25  1  0  0  0
 11 14  1  0  0  0
 11 26  1  0  0  0
 12 13  2  0  0  0
 13 15  1  0  0  0
 13 18  1  0  0  0
 14 16  1  0  0  0
 14 27  1  0  0  0
 16 17  1  0  0  0
 16 28  1  0  0  0
 17 20  1  0  0  0
 17 29  1  0  0  0
 19 30  1  0  0  0
 20 31  1  0  0  0
 20 32  1  0  0  0
M  END
> <s_m_entry_id>
32222

> <s_m_entry_name>
dock_pv.485

> <s_m_Source_Path>
/home/csk/Desktop/cluster/DUD-E-result/src

> <s_m_Source_File>
dock_pv.maegz

> <i_m_Source_File_Index>
485

> <chembl_id>
CHEMBL2001288

> <chembl_pref_name>
None

> <i_lp_mmshare_version>
53161

> <r_lp_tautomer_probability>
1

> <s_lp_Force_Field>
OPLS_2005

> <r_lp_Energy>
30.770489

> <b_lp_Chiralities_Consistent>
1

> <s_lp_Variant>
CHEMBL267_lig3357-16

> <s_i_glide_gridfile>
glide-grid_3el8

> <i_i_glide_lignum>
3989

> <i_i_glide_rotatable_bonds>
5

> <r_i_docking_score>
-7.02918361623089

> <r_i_glide_ligand_efficiency>
-0.351459180811545

> <r_i_glide_ligand_efficiency_sa>
-0.954006990956222

> <r_i_glide_ligand_efficiency_ln>
-1.7591728211507

> <r_i_glide_gscore>
-7.02918361623089

> <r_i_glide_lipo>
-1.30392521559136

> <r_i_glide_hbond>
-0.342027025506284

> <r_i_glide_metal>
0

> <r_i_glide_rewards>
-2.57974705152404

> <r_i_glide_evdw>
-25.2324905395508

> <r_i_glide_ecoul>
-11.4585428237915

> <r_i_glide_erotb>
0.176921626937053

> <r_i_glide_esite>
0

> <r_i_glide_emodel>
-52.206337143312

> <r_i_glide_energy>
-36.6910333633423

> <r_i_glide_einternal>
2.23282551765442

> <i_i_glide_confnum>
20

> <i_i_glide_posenum>
374

> <r_i_glide_eff_state_penalty>
0

> <s_user_duplicate_titles>
CHEMBL267_lig3357

> <i_f3d_flags>
0

> <s_m_subgroup_title>
dock_pv

> <s_m_subgroupid>
dock_pv

> <b_m_subgroup_collapsed>
1

$$$$
CHEMBL267_lig2924
                    3D
 Schrodinger Suite 2021-1.
 48 51  0  0  1  0            999 V2000
    6.3308    6.7662    7.9881 N   0  0  0  0  0  0
    7.4296    7.2651    7.4139 C   0  0  0  0  0  0
    6.8981    8.2707    6.5688 C   0  0  0  0  0  0
    5.4762    8.3815    6.7147 C   0  0  0  0  0  0
    5.1546    7.4312    7.6210 N   0  0  0  0  0  0
    7.6983    9.0136    5.7580 C   0  0  0  0  0  0
    3.8690    7.1039    8.1186 C   0  0  0  0  0  0
    3.7288    6.6051    9.4182 C   0  0  0  0  0  0
    2.4772    6.2232    9.8992 C   0  0  0  0  0  0
    1.3376    6.3326    9.0967 C   0  0  0  0  0  0
    1.4583    6.8627    7.8002 C   0  0  0  0  0  0
    2.7173    7.2400    7.3254 C   0  0  0  0  0  0
    8.5935    6.9046    7.5879 O   0  0  0  0  0  0
    4.6909    9.1655    6.1858 O   0  0  0  0  0  0
    7.3567   10.0420    4.7880 C   0  0  0  0  0  0
    8.0588   11.0898    4.2072 C   0  0  0  0  0  0
    7.1948   11.7199    3.3017 C   0  0  0  0  0  0
    5.9983   11.0166    3.3342 C   0  0  0  0  0  0
    6.1410    9.9843    4.1957 O   0  0  0  0  0  0
    4.6728   11.1269    2.6632 C   0  0  0  0  0  0
    4.4934   11.9961    1.5879 C   0  0  0  0  0  0
    3.2672   12.0561    0.9241 C   0  0  0  0  0  0
    2.1922   11.2656    1.3418 C   0  0  0  0  0  0
    2.3542   10.4179    2.4464 C   0  0  0  0  0  0
    3.5888   10.3495    3.0918 C   0  0  0  0  0  0
    1.0562    9.4359    3.0355 Cl  0  0  0  0  0  0
    0.8765   11.3210    0.5810 C   0  0  0  0  0  0
    0.0066    5.8249    9.6375 C   0  0  0  0  0  0
    0.2547    7.0498    6.8863 C   0  0  0  0  0  0
    6.1645    6.0332    8.6615 H   0  0  0  0  0  0
    8.7687    8.8547    5.8033 H   0  0  0  0  0  0
    4.5856    6.4905   10.0660 H   0  0  0  0  0  0
    2.4045    5.8198   10.8992 H   0  0  0  0  0  0
    2.7932    7.6120    6.3142 H   0  0  0  0  0  0
    9.0767   11.3778    4.4270 H   0  0  0  0  0  0
    7.4135   12.5882    2.6969 H   0  0  0  0  0  0
    5.3124   12.6033    1.2272 H   0  0  0  0  0  0
    3.1701   12.7081    0.0669 H   0  0  0  0  0  0
    3.6970    9.6764    3.9287 H   0  0  0  0  0  0
    0.9355   11.9524   -0.3061 H   0  0  0  0  0  0
    0.0808   11.6933    1.2263 H   0  0  0  0  0  0
    0.5953   10.3180    0.2582 H   0  0  0  0  0  0
   -0.5686    5.3247    8.8585 H   0  0  0  0  0  0
    0.1524    5.0831   10.4240 H   0  0  0  0  0  0
   -0.5979    6.6370   10.0360 H   0  0  0  0  0  0
   -0.6005    7.4367    7.4400 H   0  0  0  0  0  0
    0.4558    7.7712    6.0936 H   0  0  0  0  0  0
   -0.0266    6.1015    6.4284 H   0  0  0  0  0  0
  1  5  1  0  0  0
  1  2  1  0  0  0
  1 30  1  0  0  0
  2  3  1  0  0  0
  2 13  2  0  0  0
  3  4  1  0  0  0
  3  6  2  0  0  0
  4 14  2  0  0  0
  4  5  1  0  0  0
  5  7  1  0  0  0
  6 15  1  0  0  0
  6 31  1  0  0  0
  7  8  2  0  0  0
  7 12  1  0  0  0
  8  9  1  0  0  0
  8 32  1  0  0  0
  9 10  2  0  0  0
  9 33  1  0  0  0
 10 11  1  0  0  0
 10 28  1  0  0  0
 11 12  2  0  0  0
 11 29  1  0  0  0
 12 34  1  0  0  0
 15 16  2  0  0  0
 15 19  1  0  0  0
 16 17  1  0  0  0
 16 35  1  0  0  0
 17 18  2  0  0  0
 17 36  1  0  0  0
 18 19  1  0  0  0
 18 20  1  0  0  0
 20 21  2  0  0  0
 20 25  1  0  0  0
 21 22  1  0  0  0
 21 37  1  0  0  0
 22 23  2  0  0  0
 22 38  1  0  0  0
 23 24  1  0  0  0
 23 27  1  0  0  0
 24 25  2  0  0  0
 24 26  1  0  0  0
 25 39  1  0  0  0
 27 40  1  0  0  0
 27 41  1  0  0  0
 27 42  1  0  0  0
 28 43  1  0  0  0
 28 44  1  0  0  0
 28 45  1  0  0  0
 29 46  1  0  0  0
 29 47  1  0  0  0
 29 48  1  0  0  0
M  END
> <s_m_entry_id>
32223

> <s_m_entry_name>
dock_pv.486

> <s_m_Source_Path>
/home/csk/Desktop/cluster/DUD-E-result/src

> <s_m_Source_File>
dock_pv.maegz

> <i_m_Source_File_Index>
486

> <chembl_id>
CHEMBL206575

> <chembl_pref_name>
None

> <i_lp_mmshare_version>
53161

> <r_lp_tautomer_probability>
0.499933002277922

> <s_lp_Force_Field>
OPLS_2005

> <r_lp_Energy>
27.349457

> <b_lp_Chiralities_Consistent>
1

> <s_lp_Variant>
CHEMBL267_lig2924-1

> <s_i_glide_gridfile>
glide-grid_3el8

> <i_i_glide_lignum>
3322

> <i_i_glide_rotatable_bonds>
3

> <r_i_docking_score>
-7.02869724458943

> <r_i_glide_ligand_efficiency>
-0.242368870503084

> <r_i_glide_ligand_efficiency_sa>
-0.744633958033297

> <r_i_glide_ligand_efficiency_ln>
-1.60939343662717

> <r_i_glide_gscore>
-7.02869724458943

> <r_i_glide_lipo>
-2.01458616783727

> <r_i_glide_hbond>
-0.32

> <r_i_glide_metal>
0

> <r_i_glide_rewards>
-2.13405347024019

> <r_i_glide_evdw>
-38.9494895935059

> <r_i_glide_ecoul>
-6.45996522903442

> <r_i_glide_erotb>
0.356411657518488

> <r_i_glide_esite>
0

> <r_i_glide_emodel>
-63.2849646934629

> <r_i_glide_energy>
-45.4094548225403

> <r_i_glide_einternal>
0.994535624980927

> <i_i_glide_confnum>
3

> <i_i_glide_posenum>
97

> <r_i_glide_eff_state_penalty>
0

> <s_user_duplicate_titles>
CHEMBL267_lig2924

> <i_f3d_flags>
0

> <s_m_subgroup_title>
dock_pv

> <s_m_subgroupid>
dock_pv

> <b_m_subgroup_collapsed>
1

$$$$
CHEMBL267_lig3883
                    3D
 Schrodinger Suite 2021-1.
 45 47  0  0  1  0            999 V2000
    2.8096    7.4371    9.3927 C   0  0  0  0  0  0
    2.9765    8.2369    8.3107 N   0  0  0  0  0  0
    2.1889    7.9191    7.2763 C   0  0  0  0  0  0
    1.2326    6.8646    7.2724 C   0  0  0  0  0  0
    1.1487    6.1144    8.4605 C   0  0  0  0  0  0
    1.9537    6.3975    9.5160 N   0  0  0  0  0  0
    2.1444    8.5425    6.0367 N   0  0  0  0  0  0
    0.5985    6.8792    5.9865 C   0  0  0  0  0  0
    1.1914    7.9013    5.2695 C   0  0  0  0  0  0
    0.1980    5.0927    8.5723 N   0  0  0  0  0  0
    3.7980    7.8371   10.7878 S   0  0  0  0  0  0
    3.2157    6.8833   12.2062 C   0  0  0  0  0  0
    2.9245    9.7074    5.6055 C   0  0  0  0  0  0
    4.4480    9.5676    5.5080 C   0  0  0  0  0  0
    5.1253    8.3764    5.8030 C   0  0  0  0  0  0
    6.5126    8.3136    5.6978 C   0  0  0  0  0  0
    7.2260    9.4371    5.2934 C   0  0  0  0  0  0
    6.5655   10.6244    4.9947 C   0  0  0  0  0  0
    5.1792   10.6898    5.1051 C   0  0  0  0  0  0
    8.5719    9.3742    5.1880 F   0  0  0  0  0  0
    0.2152    4.0967    9.6402 C   0  0  0  0  0  0
    0.6075    2.6914    9.1474 C   0  0  0  0  0  0
   -0.5712    1.9328    8.5062 C   0  0  0  0  0  0
   -0.2695    0.4518    8.2315 C   0  0  0  0  0  0
   -0.1883    6.2313    5.6248 H   0  0  0  0  0  0
    0.9965    8.2398    4.2606 H   0  0  0  0  0  0
   -0.5027    5.0148    7.8476 H   0  0  0  0  0  0
    3.7763    7.1429   13.1048 H   0  0  0  0  0  0
    2.1522    7.0369   12.3875 H   0  0  0  0  0  0
    3.3730    5.8371   11.9880 H   0  0  0  0  0  0
    2.5482   10.0254    4.6316 H   0  0  0  0  0  0
    2.6973   10.5121    6.3052 H   0  0  0  0  0  0
    4.5915    7.4902    6.1100 H   0  0  0  0  0  0
    7.0374    7.3981    5.9253 H   0  0  0  0  0  0
    7.1286   11.4890    4.6776 H   0  0  0  0  0  0
    4.6743   11.6163    4.8719 H   0  0  0  0  0  0
   -0.7809    4.0660   10.0850 H   0  0  0  0  0  0
    0.8653    4.3927   10.4626 H   0  0  0  0  0  0
    0.9981    2.1183    9.9879 H   0  0  0  0  0  0
    1.4365    2.7573    8.4420 H   0  0  0  0  0  0
   -0.8723    2.4323    7.5880 H   0  0  0  0  0  0
   -1.4407    1.9848    9.1639 H   0  0  0  0  0  0
   -1.1173   -0.0311    7.7442 H   0  0  0  0  0  0
   -0.0747   -0.0875    9.1591 H   0  0  0  0  0  0
    0.5980    0.3225    7.5857 H   0  0  0  0  0  0
  1  2  1  0  0  0
  1  6  2  0  0  0
  1 11  1  0  0  0
  2  3  2  0  0  0
  3  4  1  0  0  0
  3  7  1  0  0  0
  4  5  2  0  0  0
  4  8  1  0  0  0
  5  6  1  0  0  0
  5 10  1  0  0  0
  7  9  1  0  0  0
  7 13  1  0  0  0
  8  9  2  0  0  0
  8 25  1  0  0  0
  9 26  1  0  0  0
 10 21  1  0  0  0
 10 27  1  0  0  0
 11 12  1  0  0  0
 12 28  1  0  0  0
 12 29  1  0  0  0
 12 30  1  0  0  0
 13 14  1  0  0  0
 13 31  1  0  0  0
 13 32  1  0  0  0
 14 15  1  0  0  0
 14 19  2  0  0  0
 15 16  2  0  0  0
 15 33  1  0  0  0
 16 17  1  0  0  0
 16 34  1  0  0  0
 17 18  2  0  0  0
 17 20  1  0  0  0
 18 19  1  0  0  0
 18 35  1  0  0  0
 19 36  1  0  0  0
 21 22  1  0  0  0
 21 37  1  0  0  0
 21 38  1  0  0  0
 22 23  1  0  0  0
 22 39  1  0  0  0
 22 40  1  0  0  0
 23 24  1  0  0  0
 23 41  1  0  0  0
 23 42  1  0  0  0
 24 43  1  0  0  0
 24 44  1  0  0  0
 24 45  1  0  0  0
M  END
> <s_m_entry_id>
32224

> <s_m_entry_name>
dock_pv.487

> <s_m_Source_Path>
/home/csk/Desktop/cluster/DUD-E-result/src

> <s_m_Source_File>
dock_pv.maegz

> <i_m_Source_File_Index>
487

> <chembl_id>
CHEMBL4060213

> <chembl_pref_name>
None

> <i_lp_mmshare_version>
53161

> <r_lp_tautomer_probability>
1

> <s_lp_Force_Field>
OPLS_2005

> <r_lp_Energy>
5.368656

> <b_lp_Chiralities_Consistent>
1

> <s_lp_Variant>
CHEMBL267_lig3883-1

> <s_i_glide_gridfile>
glide-grid_3el8

> <i_i_glide_lignum>
4796

> <i_i_glide_rotatable_bonds>
7

> <r_i_docking_score>
-7.02846904793511

> <r_i_glide_ligand_efficiency>
-0.292852876997296

> <r_i_glide_ligand_efficiency_sa>
-0.844733871130408

> <r_i_glide_ligand_efficiency_ln>
-1.6822351586001

> <r_i_glide_gscore>
-7.02846904793511

> <r_i_glide_lipo>
-3.3990432362823

> <r_i_glide_hbond>
-0.287713027050815

> <r_i_glide_metal>
0

> <r_i_glide_rewards>
-1.82110985487445

> <r_i_glide_evdw>
-38.6360244750977

> <r_i_glide_ecoul>
-2.59318780899048

> <r_i_glide_erotb>
0.800176465375907

> <r_i_glide_esite>
0

> <r_i_glide_emodel>
-55.4715313981621

> <r_i_glide_energy>
-41.2292122840881

> <r_i_glide_einternal>
6.69967555999756

> <i_i_glide_confnum>
55

> <i_i_glide_posenum>
121

> <r_i_glide_eff_state_penalty>
0

> <s_user_duplicate_titles>
CHEMBL267_lig3883

> <i_f3d_flags>
0

> <s_m_subgroup_title>
dock_pv

> <s_m_subgroupid>
dock_pv

> <b_m_subgroup_collapsed>
1

$$$$
CHEMBL267_lig3744
                    3D
 Schrodinger Suite 2021-1.
 30 32  0  0  1  0            999 V2000
    0.8401    5.6632   11.9586 F   0  0  0  0  0  0
    1.7869    8.9937    6.6762 N   0  0  0  0  0  0
    2.4481    9.6019    5.6936 N   0  0  0  0  0  0
    6.4086    8.4279    6.6039 N   0  0  0  0  0  0
    7.7985    6.6374    7.4451 N   0  0  0  0  0  0
    2.6922    8.3100    7.3528 C   0  0  0  0  0  0
    3.9917    8.4513    6.7884 C   0  0  0  0  0  0
    2.2438    7.5461    8.5568 C   0  0  0  0  0  0
    5.3113    7.8367    7.1616 C   0  0  0  0  0  0
    3.7817    9.3159    5.7179 C   0  0  0  0  0  0
    1.0607    6.7962    8.5101 C   0  0  0  0  0  0
    2.9748    7.6146    9.7476 C   0  0  0  0  0  0
    5.4260    6.6551    7.9119 C   0  0  0  0  0  0
    0.5979    6.1481    9.6516 C   0  0  0  0  0  0
    2.5250    6.9429   10.8809 C   0  0  0  0  0  0
    1.3248    6.2369   10.8355 C   0  0  0  0  0  0
    1.7201   10.4257    4.7461 C   0  0  0  0  0  0
    7.6015    7.8048    6.7842 C   0  0  0  0  0  0
    6.6923    6.0705    7.9884 C   0  0  0  0  0  0
    4.4522    9.7216    4.9746 H   0  0  0  0  0  0
    0.4849    6.7315    7.5971 H   0  0  0  0  0  0
    3.8842    8.1959    9.7999 H   0  0  0  0  0  0
    4.5700    6.1399    8.3179 H   0  0  0  0  0  0
   -0.3326    5.5978    9.6278 H   0  0  0  0  0  0
    3.0838    6.9947   11.8043 H   0  0  0  0  0  0
    2.4145   10.8979    4.0506 H   0  0  0  0  0  0
    1.0216    9.8019    4.1867 H   0  0  0  0  0  0
    1.1692   11.1995    5.2821 H   0  0  0  0  0  0
    8.4707    8.2629    6.3352 H   0  0  0  0  0  0
    6.8350    5.1303    8.5030 H   0  0  0  0  0  0
  1 16  1  0  0  0
  2  3  1  0  0  0
  2  6  2  0  0  0
  3 10  1  0  0  0
  3 17  1  0  0  0
  4  9  1  0  0  0
  4 18  2  0  0  0
  5 18  1  0  0  0
  5 19  2  0  0  0
  6  7  1  0  0  0
  6  8  1  0  0  0
  7  9  1  0  0  0
  7 10  2  0  0  0
  8 11  2  0  0  0
  8 12  1  0  0  0
  9 13  2  0  0  0
 10 20  1  0  0  0
 11 14  1  0  0  0
 11 21  1  0  0  0
 12 15  2  0  0  0
 12 22  1  0  0  0
 13 19  1  0  0  0
 13 23  1  0  0  0
 14 16  2  0  0  0
 14 24  1  0  0  0
 15 16  1  0  0  0
 15 25  1  0  0  0
 17 26  1  0  0  0
 17 27  1  0  0  0
 17 28  1  0  0  0
 18 29  1  0  0  0
 19 30  1  0  0  0
M  END
> <s_m_entry_id>
32225

> <s_m_entry_name>
dock_pv.488

> <s_m_Source_Path>
/home/csk/Desktop/cluster/DUD-E-result/src

> <s_m_Source_File>
dock_pv.maegz

> <i_m_Source_File_Index>
488

> <chembl_id>
CHEMBL1989474

> <chembl_pref_name>
None

> <i_lp_mmshare_version>
53161

> <r_lp_tautomer_probability>
1

> <s_lp_Force_Field>
OPLS_2005

> <r_lp_Energy>
8.550516

> <b_lp_Chiralities_Consistent>
1

> <s_lp_Variant>
CHEMBL267_lig3744-1

> <s_i_glide_gridfile>
glide-grid_3el8

> <i_i_glide_lignum>
4573

> <i_i_glide_rotatable_bonds>
2

> <r_i_docking_score>
-7.0256641197374

> <r_i_glide_ligand_efficiency>
-0.369771795775653

> <r_i_glide_ligand_efficiency_sa>
-0.986699668530201

> <r_i_glide_ligand_efficiency_ln>
-1.78115675178276

> <r_i_glide_gscore>
-7.0256641197374

> <r_i_glide_lipo>
-2.02903867323488

> <r_i_glide_hbond>
-0.23531517292726

> <r_i_glide_metal>
0

> <r_i_glide_rewards>
-3.46689261825412

> <r_i_glide_evdw>
-28.7027244567871

> <r_i_glide_ecoul>
-2.6884605884552

> <r_i_glide_erotb>
0.543987655786484

> <r_i_glide_esite>
0

> <r_i_glide_emodel>
-45.0994526799521

> <r_i_glide_energy>
-31.3911850452423

> <r_i_glide_einternal>
0.785134017467499

> <i_i_glide_confnum>
6

> <i_i_glide_posenum>
316

> <r_i_glide_eff_state_penalty>
0

> <s_user_duplicate_titles>
CHEMBL267_lig3744

> <i_f3d_flags>
0

> <s_m_subgroup_title>
dock_pv

> <s_m_subgroupid>
dock_pv

> <b_m_subgroup_collapsed>
1

$$$$
CHEMBL267_lig1771
                    3D
 Schrodinger Suite 2021-1.
 43 46  0  0  1  0            999 V2000
    1.1242    5.8627    7.5940 N   0  0  0  0  0  0
    1.4609    7.1274    7.2035 C   0  0  0  0  0  0
    2.2067    8.0022    7.9296 N   0  0  0  0  0  0
    1.5696    5.3927    8.7894 C   0  0  0  0  0  0
    2.3333    6.2627    9.5806 C   0  0  0  0  0  0
    2.6265    7.5610    9.1074 C   0  0  0  0  0  0
    3.3998    8.2607    9.9851 N   0  0  0  0  0  0
    3.5943    7.4372   10.9756 C   0  0  0  0  0  0
    2.9607    6.2354   10.8059 N   0  0  0  0  0  0
    1.2740    4.0647    9.1421 N   0  0  0  0  0  0
    0.0722    3.3673    8.9195 C   0  0  0  0  0  0
   -1.1394    3.9731    9.2492 C   0  0  0  0  0  0
   -2.3297    3.2554    9.1937 C   0  0  0  0  0  0
   -2.3215    1.9242    8.7883 C   0  0  0  0  0  0
   -1.1359    1.3026    8.3881 C   0  0  0  0  0  0
    0.0648    2.0299    8.4900 C   0  0  0  0  0  0
    1.1585    7.5099    5.8965 N   0  0  0  0  0  0
    1.3499    8.8996    5.4202 C   0  0  0  0  0  0
    1.4287    9.0151    3.8858 C   0  0  0  0  0  0
    0.2801    8.4246    3.3093 O   0  0  0  0  0  0
    0.1780    7.0494    3.6429 C   0  0  0  0  0  0
    0.0532    6.8744    5.1613 C   0  0  0  0  0  0
   -1.1808   -0.4549    7.9481 S   0  0  0  0  0  0
   -1.8027   -0.5627    6.3300 N   0  0  0  0  0  0
    0.1938   -0.9515    7.9028 O   0  0  0  0  0  0
   -2.1913   -1.0984    8.7897 O   0  0  0  0  0  0
    3.0816    5.4609   11.4494 H   0  0  0  0  0  0
    4.1956    7.6126   11.8580 H   0  0  0  0  0  0
    1.7591    3.7597    9.9710 H   0  0  0  0  0  0
   -1.1658    5.0015    9.5810 H   0  0  0  0  0  0
   -3.2578    3.7307    9.4700 H   0  0  0  0  0  0
   -3.2540    1.3768    8.7841 H   0  0  0  0  0  0
    0.9980    1.5349    8.3119 H   0  0  0  0  0  0
    2.2861    9.3011    5.8072 H   0  0  0  0  0  0
    0.5539    9.5319    5.8131 H   0  0  0  0  0  0
    1.4683   10.0634    3.5896 H   0  0  0  0  0  0
    2.3353    8.5471    3.4991 H   0  0  0  0  0  0
   -0.7218    6.6503    3.1882 H   0  0  0  0  0  0
    1.0204    6.4828    3.2409 H   0  0  0  0  0  0
   -0.8988    7.2694    5.5205 H   0  0  0  0  0  0
    0.0325    5.8026    5.3584 H   0  0  0  0  0  0
   -1.1280   -0.2311    5.6404 H   0  0  0  0  0  0
   -2.7046   -0.0711    6.2547 H   0  0  0  0  0  0
  1  2  2  0  0  0
  1  4  1  0  0  0
  2 17  1  0  0  0
  2  3  1  0  0  0
  3  6  2  0  0  0
  4 10  1  0  0  0
  4  5  2  0  0  0
  5  9  1  0  0  0
  5  6  1  0  0  0
  6  7  1  0  0  0
  7  8  2  0  0  0
  8  9  1  0  0  0
  8 28  1  0  0  0
  9 27  1  0  0  0
 10 11  1  0  0  0
 10 29  1  0  0  0
 11 16  1  0  0  0
 11 12  2  0  0  0
 12 13  1  0  0  0
 12 30  1  0  0  0
 13 14  2  0  0  0
 13 31  1  0  0  0
 14 15  1  0  0  0
 14 32  1  0  0  0
 15 16  2  0  0  0
 15 23  1  0  0  0
 16 33  1  0  0  0
 17 18  1  0  0  0
 17 22  1  0  0  0
 18 19  1  0  0  0
 18 34  1  0  0  0
 18 35  1  0  0  0
 19 20  1  0  0  0
 19 36  1  0  0  0
 19 37  1  0  0  0
 20 21  1  0  0  0
 21 22  1  0  0  0
 21 38  1  0  0  0
 21 39  1  0  0  0
 22 40  1  0  0  0
 22 41  1  0  0  0
 23 24  1  0  0  0
 23 25  2  0  0  0
 23 26  2  0  0  0
 24 42  1  0  0  0
 24 43  1  0  0  0
M  END
> <s_m_entry_id>
32226

> <s_m_entry_name>
dock_pv.489

> <s_m_Source_Path>
/home/csk/Desktop/cluster/DUD-E-result/src

> <s_m_Source_File>
dock_pv.maegz

> <i_m_Source_File_Index>
489

> <chembl_id>
CHEMBL1172958

> <chembl_pref_name>
None

> <i_lp_mmshare_version>
53161

> <r_lp_tautomer_probability>
0.0419191988452545

> <s_lp_Force_Field>
OPLS_2005

> <r_lp_Energy>
28.347841

> <b_lp_Chiralities_Consistent>
1

> <s_lp_Variant>
CHEMBL267_lig1771-2

> <s_i_glide_gridfile>
glide-grid_3el8

> <i_i_glide_lignum>
2021

> <i_i_glide_rotatable_bonds>
4

> <r_i_docking_score>
-7.02300534166064

> <r_i_glide_ligand_efficiency>
-0.270115590063871

> <r_i_glide_ligand_efficiency_sa>
-0.800216372710693

> <r_i_glide_ligand_efficiency_ln>
-1.64932976012889

> <r_i_glide_gscore>
-7.02300534166064

> <r_i_glide_lipo>
-2.1252169817934

> <r_i_glide_hbond>
-0.33064790099853

> <r_i_glide_metal>
0

> <r_i_glide_rewards>
-2.02445247156582

> <r_i_glide_evdw>
-43.2010726928711

> <r_i_glide_ecoul>
-5.09197044372559

> <r_i_glide_erotb>
0.411832171819685

> <r_i_glide_esite>
-0.0306709579201804

> <r_i_glide_emodel>
-63.4756733753496

> <r_i_glide_energy>
-48.2930431365967

> <r_i_glide_einternal>
5.33502149581909

> <i_i_glide_confnum>
5

> <i_i_glide_posenum>
269

> <r_i_glide_eff_state_penalty>
0

> <s_user_duplicate_titles>
CHEMBL267_lig1771,650172

> <i_f3d_flags>
0

> <s_m_subgroup_title>
dock_pv

> <s_m_subgroupid>
dock_pv

> <b_m_subgroup_collapsed>
1

$$$$
CHEMBL267_lig2735
                    3D
 Schrodinger Suite 2021-1.
 42 44  0  0  1  0            999 V2000
   -0.1560    7.7054    5.7488 C   0  0  0  0  0  0
    1.1264    8.2722    5.0893 C   0  0  0  0  0  0
    1.3841    7.5775    3.7358 C   0  0  0  0  0  0
    2.3149    8.1480    5.9548 N   0  0  0  0  0  0
    2.2761    7.3900    7.0709 N   0  0  0  0  0  0
    3.4682    7.3534    7.6132 C   0  0  0  0  0  0
    3.7488    6.5253    8.8648 C   0  0  0  0  0  0
    2.5082    6.0865    9.6485 C   0  0  0  0  0  0
    2.2613    6.6132   10.9185 C   0  0  0  0  0  0
    1.1164    6.2370   11.6193 C   0  0  0  0  0  0
    0.1975    5.3607   11.0469 C   0  0  0  0  0  0
    0.4295    4.8075    9.7777 C   0  0  0  0  0  0
    1.6084    5.1639    9.1012 C   0  0  0  0  0  0
   -0.5164    3.8270    9.1513 C   0  0  0  0  0  0
   -0.1975    3.1061    8.2033 O   0  0  0  0  0  0
   -1.9771    3.8049    9.6237 C   0  0  0  0  0  0
   -2.5947    2.6927    9.2189 F   0  0  0  0  0  0
    4.3748    8.1286    6.8184 C   0  0  0  0  0  0
    5.7387    8.4714    6.7883 C   0  0  0  0  0  0
    6.6368    7.9957    7.7348 N   0  0  0  0  0  0
    6.2367    9.2839    5.8246 N   0  0  0  0  0  0
    5.3636    9.7339    4.8884 C   0  0  0  0  0  0
    4.0345    9.4615    4.7918 N   0  0  0  0  0  0
    3.5881    8.6603    5.7680 C   0  0  0  0  0  0
   -1.0021    7.7938    5.0735 H   0  0  0  0  0  0
   -0.0614    6.6428    5.9858 H   0  0  0  0  0  0
   -0.4099    8.2364    6.6673 H   0  0  0  0  0  0
    0.9757    9.3390    4.9140 H   0  0  0  0  0  0
    0.5076    7.6441    3.0867 H   0  0  0  0  0  0
    2.2049    8.0449    3.1933 H   0  0  0  0  0  0
    1.6189    6.5179    3.8627 H   0  0  0  0  0  0
    4.4052    7.0835    9.5321 H   0  0  0  0  0  0
    4.3098    5.6351    8.5800 H   0  0  0  0  0  0
    2.9562    7.3072   11.3677 H   0  0  0  0  0  0
    0.9321    6.6383   12.6055 H   0  0  0  0  0  0
   -0.6836    5.1156   11.6170 H   0  0  0  0  0  0
    1.8187    4.7501    8.1230 H   0  0  0  0  0  0
   -2.5267    4.6373    9.1884 H   0  0  0  0  0  0
   -2.0568    3.8341   10.7072 H   0  0  0  0  0  0
    6.3432    7.2605    8.3598 H   0  0  0  0  0  0
    7.6116    8.2243    7.6093 H   0  0  0  0  0  0
    5.7759   10.3824    4.1296 H   0  0  0  0  0  0
  1  2  1  0  0  0
  1 25  1  0  0  0
  1 26  1  0  0  0
  1 27  1  0  0  0
  2  3  1  0  0  0
  2  4  1  0  0  0
  2 28  1  0  0  0
  3 29  1  0  0  0
  3 30  1  0  0  0
  3 31  1  0  0  0
  4  5  1  0  0  0
  4 24  1  0  0  0
  5  6  2  0  0  0
  6  7  1  0  0  0
  6 18  1  0  0  0
  7  8  1  0  0  0
  7 32  1  0  0  0
  7 33  1  0  0  0
  8  9  2  0  0  0
  8 13  1  0  0  0
  9 10  1  0  0  0
  9 34  1  0  0  0
 10 11  2  0  0  0
 10 35  1  0  0  0
 11 12  1  0  0  0
 11 36  1  0  0  0
 12 13  2  0  0  0
 12 14  1  0  0  0
 13 37  1  0  0  0
 14 15  2  0  0  0
 14 16  1  0  0  0
 16 17  1  0  0  0
 16 38  1  0  0  0
 16 39  1  0  0  0
 18 19  2  0  0  0
 18 24  1  0  0  0
 19 20  1  0  0  0
 19 21  1  0  0  0
 20 40  1  0  0  0
 20 41  1  0  0  0
 21 22  2  0  0  0
 22 23  1  0  0  0
 22 42  1  0  0  0
 23 24  2  0  0  0
M  END
> <s_m_entry_id>
32227

> <s_m_entry_name>
dock_pv.490

> <s_m_Source_Path>
/home/csk/Desktop/cluster/DUD-E-result/src

> <s_m_Source_File>
dock_pv.maegz

> <i_m_Source_File_Index>
490

> <chembl_id>
CHEMBL3921542

> <chembl_pref_name>
None

> <i_lp_mmshare_version>
53161

> <r_lp_tautomer_probability>
0.99990000499975

> <s_lp_Force_Field>
OPLS_2005

> <r_lp_Energy>
16.556372

> <b_lp_Chiralities_Consistent>
1

> <s_lp_Variant>
CHEMBL267_lig2735-1

> <s_i_glide_gridfile>
glide-grid_3el8

> <i_i_glide_lignum>
3099

> <i_i_glide_rotatable_bonds>
5

> <r_i_docking_score>
-7.02005056073374

> <r_i_glide_ligand_efficiency>
-0.292502106697239

> <r_i_glide_ligand_efficiency_sa>
-0.843722074502412

> <r_i_glide_ligand_efficiency_ln>
-1.6802202283136

> <r_i_glide_gscore>
-7.02005056073374

> <r_i_glide_lipo>
-2.43066826894146

> <r_i_glide_hbond>
-0.152205455935336

> <r_i_glide_metal>
0

> <r_i_glide_rewards>
-2.64588246506639

> <r_i_glide_evdw>
-40.0008163452148

> <r_i_glide_ecoul>
-2.11091780662537

> <r_i_glide_erotb>
0.52538411746399

> <r_i_glide_esite>
0

> <r_i_glide_emodel>
-58.9485344316529

> <r_i_glide_energy>
-42.1117341518402

> <r_i_glide_einternal>
2.19132423400879

> <i_i_glide_confnum>
4

> <i_i_glide_posenum>
369

> <r_i_glide_eff_state_penalty>
0

> <s_user_duplicate_titles>
CHEMBL267_lig2735

> <i_f3d_flags>
0

> <s_m_subgroup_title>
dock_pv

> <s_m_subgroupid>
dock_pv

> <b_m_subgroup_collapsed>
1

$$$$
CHEMBL267_lig3008
                    3D
 Schrodinger Suite 2021-1.
 38 40  0  0  1  0            999 V2000
    3.0499    5.7470    9.0651 C   0  0  0  0  0  0
    3.6678    6.8044    8.3881 C   0  0  0  0  0  0
    2.8543    7.7603    7.7634 C   0  0  0  0  0  0
    1.4634    7.6315    7.7413 C   0  0  0  0  0  0
    0.8716    6.5418    8.3886 C   0  0  0  0  0  0
    1.6581    5.6062    9.0611 C   0  0  0  0  0  0
    5.0776    6.8322    8.3404 N   0  0  0  0  0  0
    5.9887    7.4719    7.4783 C   0  0  0  0  0  0
    7.2893    7.0934    7.5880 N   0  0  0  0  0  0
    8.1781    7.6930    6.7528 C   0  0  0  0  0  0
    7.7922    8.6369    5.7998 C   0  0  0  0  0  0
    6.4336    8.9684    5.7410 C   0  0  0  0  0  0
    5.5377    8.3824    6.5787 N   0  0  0  0  0  0
    5.8799    9.9754    4.7739 C   0  0  0  0  0  0
    6.5694   10.4947    3.7839 N   0  0  0  0  0  0
    5.8603   11.3350    3.0474 C   0  0  0  0  0  0
    4.5489   11.5320    3.4697 C   0  0  0  0  0  0
    4.2337   10.5506    4.8631 S   0  0  0  0  0  0
    0.6267    8.6656    6.9915 C   0  0  0  0  0  0
    6.5434   11.9651    1.8519 C   0  0  0  0  0  0
    1.1684    8.9465    5.8057 F   0  0  0  0  0  0
   -0.6170    8.2370    6.7880 F   0  0  0  0  0  0
    0.5700    9.7851    7.7123 F   0  0  0  0  0  0
    6.5980   11.0370    0.7880 O   0  0  0  0  0  0
    0.9979    4.4189    9.7387 C   0  0  0  0  0  0
    3.6503    5.0133    9.5850 H   0  0  0  0  0  0
    3.2755    8.6193    7.2711 H   0  0  0  0  0  0
   -0.2020    6.4107    8.3708 H   0  0  0  0  0  0
    5.5217    6.1601    8.9474 H   0  0  0  0  0  0
    9.2149    7.4034    6.8443 H   0  0  0  0  0  0
    8.5213    9.0937    5.1471 H   0  0  0  0  0  0
    3.7856   12.1602    3.0350 H   0  0  0  0  0  0
    7.5648   12.2659    2.0910 H   0  0  0  0  0  0
    6.0357   12.8752    1.5295 H   0  0  0  0  0  0
    6.3819   11.5238   -0.0323 H   0  0  0  0  0  0
    0.0976    4.1160    9.2019 H   0  0  0  0  0  0
    1.6588    3.5512    9.7441 H   0  0  0  0  0  0
    0.7174    4.6653   10.7631 H   0  0  0  0  0  0
  1  6  1  0  0  0
  1  2  2  0  0  0
  1 26  1  0  0  0
  2  7  1  0  0  0
  2  3  1  0  0  0
  3  4  2  0  0  0
  3 27  1  0  0  0
  4 19  1  0  0  0
  4  5  1  0  0  0
  5  6  2  0  0  0
  5 28  1  0  0  0
  6 25  1  0  0  0
  7  8  1  0  0  0
  7 29  1  0  0  0
  8 13  1  0  0  0
  8  9  2  0  0  0
  9 10  1  0  0  0
 10 11  2  0  0  0
 10 30  1  0  0  0
 11 12  1  0  0  0
 11 31  1  0  0  0
 12 13  2  0  0  0
 12 14  1  0  0  0
 14 15  2  0  0  0
 14 18  1  0  0  0
 15 16  1  0  0  0
 16 17  2  0  0  0
 16 20  1  0  0  0
 17 18  1  0  0  0
 17 32  1  0  0  0
 19 21  1  0  0  0
 19 22  1  0  0  0
 19 23  1  0  0  0
 20 24  1  0  0  0
 20 33  1  0  0  0
 20 34  1  0  0  0
 24 35  1  0  0  0
 25 36  1  0  0  0
 25 37  1  0  0  0
 25 38  1  0  0  0
M  END
> <s_m_entry_id>
32228

> <s_m_entry_name>
dock_pv.491

> <s_m_Source_Path>
/home/csk/Desktop/cluster/DUD-E-result/src

> <s_m_Source_File>
dock_pv.maegz

> <i_m_Source_File_Index>
491

> <chembl_id>
CHEMBL485731

> <chembl_pref_name>
None

> <i_lp_mmshare_version>
53161

> <r_lp_tautomer_probability>
0.999999987636

> <s_lp_Force_Field>
OPLS_2005

> <r_lp_Energy>
5.182673

> <b_lp_Chiralities_Consistent>
1

> <s_lp_Variant>
CHEMBL267_lig3008-1

> <s_i_glide_gridfile>
glide-grid_3el8

> <i_i_glide_lignum>
3425

> <i_i_glide_rotatable_bonds>
6

> <r_i_docking_score>
-7.01712624119319

> <r_i_glide_ligand_efficiency>
-0.280685049647728

> <r_i_glide_ligand_efficiency_sa>
-0.820728063140507

> <r_i_glide_ligand_efficiency_ln>
-1.66326920546717

> <r_i_glide_gscore>
-7.01712624119319

> <r_i_glide_lipo>
-2.22469355705936

> <r_i_glide_hbond>
-0.456

> <r_i_glide_metal>
0

> <r_i_glide_rewards>
-1.59744191930109

> <r_i_glide_evdw>
-34.8596153259277

> <r_i_glide_ecoul>
-9.94341087341309

> <r_i_glide_erotb>
0.573578495307132

> <r_i_glide_esite>
-0.0780768628315197

> <r_i_glide_emodel>
-63.369539509673

> <r_i_glide_energy>
-44.8030261993408

> <r_i_glide_einternal>
1.85917890071869

> <i_i_glide_confnum>
23

> <i_i_glide_posenum>
11

> <r_i_glide_eff_state_penalty>
0

> <s_user_duplicate_titles>
CHEMBL267_lig3008

> <i_f3d_flags>
0

> <s_m_subgroup_title>
dock_pv

> <s_m_subgroupid>
dock_pv

> <b_m_subgroup_collapsed>
1

$$$$
CHEMBL267_lig699
                    3D
 Schrodinger Suite 2021-1.
 45 47  0  0  1  0            999 V2000
    3.1806    7.9611    7.7786 C   0  0  0  0  0  0
    3.3472    6.8974    8.6891 C   0  0  0  0  0  0
    4.2013    8.4305    7.0101 N   0  0  0  0  0  0
    6.4006    8.4170    6.3496 N   0  0  0  0  0  0
    5.4252    7.8731    7.1243 C   0  0  0  0  0  0
    2.2621    6.4086    9.5917 C   0  0  0  0  0  0
    1.9022    8.5511    7.6968 N   0  0  0  0  0  0
    1.3724    9.4367    6.8292 C   0  0  0  0  0  0
    5.6643    6.7725    7.9861 C   0  0  0  0  0  0
    4.5986    6.2815    8.7579 C   0  0  0  0  0  0
    7.6140    7.8309    6.4325 C   0  0  0  0  0  0
    1.1495    5.7083    9.0857 C   0  0  0  0  0  0
    7.9556    6.7601    7.1884 N   0  0  0  0  0  0
    2.1819    9.9109    5.8588 N   0  0  0  0  0  0
    2.3455    6.6370   10.9764 C   0  0  0  0  0  0
    6.9660    6.2446    7.9523 C   0  0  0  0  0  0
    0.1563    5.2298    9.9519 C   0  0  0  0  0  0
    0.1981    9.7690    6.9661 O   0  0  0  0  0  0
    1.8710   10.6639    4.6380 C   0  0  0  0  0  0
    1.3056    6.2391   11.8136 C   0  0  0  0  0  0
    0.2137    5.5385   11.3067 C   0  0  0  0  0  0
    8.5979    8.3649    5.6306 N   0  0  0  0  0  0
    0.9929    5.4432    7.3850 Cl  0  0  0  0  0  0
    3.7152    7.4345   11.6878 Cl  0  0  0  0  0  0
   -1.1450    4.2372    9.3853 Cl  0  0  0  0  0  0
    1.0515    9.7927    3.6594 C   0  0  0  0  0  0
    3.2149   11.0039    3.9604 C   0  0  0  0  0  0
    1.1414   11.9916    4.9518 C   0  0  0  0  0  0
    1.2537    8.1941    8.3814 H   0  0  0  0  0  0
    4.7652    5.4371    9.3946 H   0  0  0  0  0  0
    3.1523    9.6443    5.9481 H   0  0  0  0  0  0
    7.2106    5.3777    8.5395 H   0  0  0  0  0  0
    1.3582    6.4627   12.8656 H   0  0  0  0  0  0
   -0.5813    5.2279   11.9658 H   0  0  0  0  0  0
    8.3225    9.0918    4.9906 H   0  0  0  0  0  0
    9.3895    7.7542    5.4350 H   0  0  0  0  0  0
    0.1667    9.3810    4.1373 H   0  0  0  0  0  0
    0.7248   10.3595    2.7861 H   0  0  0  0  0  0
    1.6282    8.9417    3.2962 H   0  0  0  0  0  0
    3.8500   11.6177    4.6030 H   0  0  0  0  0  0
    3.7844   10.1068    3.7114 H   0  0  0  0  0  0
    3.0676   11.5566    3.0314 H   0  0  0  0  0  0
    1.7506   12.6384    5.5857 H   0  0  0  0  0  0
    0.9155   12.5466    4.0397 H   0  0  0  0  0  0
    0.1980   11.8377    5.4733 H   0  0  0  0  0  0
  1  2  1  0  0  0
  1  3  2  0  0  0
  1  7  1  0  0  0
  2  6  1  0  0  0
  2 10  2  0  0  0
  3  5  1  0  0  0
  4  5  2  0  0  0
  4 11  1  0  0  0
  5  9  1  0  0  0
  6 12  1  0  0  0
  6 15  2  0  0  0
  7  8  1  0  0  0
  7 29  1  0  0  0
  8 14  1  0  0  0
  8 18  2  0  0  0
  9 16  2  0  0  0
  9 10  1  0  0  0
 10 30  1  0  0  0
 11 22  1  0  0  0
 11 13  2  0  0  0
 12 17  2  0  0  0
 12 23  1  0  0  0
 13 16  1  0  0  0
 14 19  1  0  0  0
 14 31  1  0  0  0
 15 20  1  0  0  0
 15 24  1  0  0  0
 16 32  1  0  0  0
 17 25  1  0  0  0
 17 21  1  0  0  0
 19 26  1  0  0  0
 19 27  1  0  0  0
 19 28  1  0  0  0
 20 21  2  0  0  0
 20 33  1  0  0  0
 21 34  1  0  0  0
 22 35  1  0  0  0
 22 36  1  0  0  0
 26 37  1  0  0  0
 26 38  1  0  0  0
 26 39  1  0  0  0
 27 40  1  0  0  0
 27 41  1  0  0  0
 27 42  1  0  0  0
 28 43  1  0  0  0
 28 44  1  0  0  0
 28 45  1  0  0  0
M  END
> <s_m_entry_id>
32229

> <s_m_entry_name>
dock_pv.492

> <s_m_Source_Path>
/home/csk/Desktop/cluster/DUD-E-result/src

> <s_m_Source_File>
dock_pv.maegz

> <i_m_Source_File_Index>
492

> <chembl_id>
CHEMBL312048

> <chembl_pref_name>
None

> <i_lp_mmshare_version>
53161

> <r_lp_tautomer_probability>
1

> <s_lp_Force_Field>
OPLS_2005

> <r_lp_Energy>
16.896914

> <b_lp_Chiralities_Consistent>
1

> <s_lp_Variant>
CHEMBL267_lig699-1

> <s_i_glide_gridfile>
glide-grid_3el8

> <i_i_glide_lignum>
818

> <i_i_glide_rotatable_bonds>
5

> <r_i_docking_score>
-7.016834294366

> <r_i_glide_ligand_efficiency>
-0.250601224798786

> <r_i_glide_ligand_efficiency_sa>
-0.760972914717287

> <r_i_glide_ligand_efficiency_ln>
-1.61969137834682

> <r_i_glide_gscore>
-7.016834294366

> <r_i_glide_lipo>
-2.4265385499155

> <r_i_glide_hbond>
-0.548571312032275

> <r_i_glide_metal>
0

> <r_i_glide_rewards>
-1.53165810202352

> <r_i_glide_evdw>
-39.3193435668945

> <r_i_glide_ecoul>
-5.55431413650513

> <r_i_glide_erotb>
0.289047968425784

> <r_i_glide_esite>
0

> <r_i_glide_emodel>
-60.7464890591266

> <r_i_glide_energy>
-44.8736577033997

> <r_i_glide_einternal>
1.36721324920654

> <i_i_glide_confnum>
3

> <i_i_glide_posenum>
363

> <r_i_glide_eff_state_penalty>
0

> <s_user_duplicate_titles>
CHEMBL267_lig699

> <i_f3d_flags>
0

> <s_m_subgroup_title>
dock_pv

> <s_m_subgroupid>
dock_pv

> <b_m_subgroup_collapsed>
1

$$$$
CHEMBL267_lig664
                    3D
 Schrodinger Suite 2021-1.
 40 43  0  0  1  0            999 V2000
    2.8787    8.0765    6.2036 N   0  0  0  0  0  0
    4.2815    8.1831    6.3506 C   0  0  0  0  0  0
    2.3908    7.3882    7.3384 C   0  0  0  0  0  0
    4.6557    7.5265    7.5477 C   0  0  0  0  0  0
    3.5087    7.0384    8.1467 C   0  0  0  0  0  0
    2.0985    8.4490    5.0438 C   0  0  0  0  0  0
    4.4232   12.8730    4.5287 N   0  3  0  0  0  0
    5.2885    8.7262    5.5229 C   0  0  0  0  0  0
    1.0870    7.0080    7.7550 C   0  0  0  0  0  0
    6.0024    7.4067    7.9125 C   0  0  0  0  0  0
    2.4609    9.6558    4.2080 C   0  0  0  0  0  0
    3.5692   11.8131    3.9557 C   0  0  0  0  0  0
    6.6178    8.6491    5.9435 C   0  0  0  0  0  0
    3.3485    6.2925    9.3186 C   0  0  0  0  0  0
    6.9799    7.9617    7.1015 C   0  0  0  0  0  0
    3.1261   10.7562    4.7614 C   0  0  0  0  0  0
    4.9982   12.6370    5.5879 O   0  5  0  0  0  0
    0.9802    6.1895    8.8903 C   0  0  0  0  0  0
    4.5280   13.9313    3.9184 O   0  0  0  0  0  0
    1.1572    7.7410    4.6817 O   0  0  0  0  0  0
    2.0822    5.8545    9.6591 C   0  0  0  0  0  0
   -0.0451    7.4369    7.1003 O   0  0  0  0  0  0
    7.5715    9.2779    5.1878 O   0  0  0  0  0  0
    8.2960    7.7751    7.4505 O   0  0  0  0  0  0
   -0.2198    5.6833    9.3033 O   0  0  0  0  0  0
    2.1228    9.6893    2.8464 C   0  0  0  0  0  0
    3.2291   11.8195    2.5959 C   0  0  0  0  0  0
    2.4949   10.7698    2.0493 C   0  0  0  0  0  0
    5.0798    9.1947    4.5753 H   0  0  0  0  0  0
    6.2819    6.8458    8.7879 H   0  0  0  0  0  0
    4.1976    6.0258    9.9310 H   0  0  0  0  0  0
    3.3675   10.7633    5.8161 H   0  0  0  0  0  0
    1.9544    5.2437   10.5398 H   0  0  0  0  0  0
   -0.7904    6.8216    7.1368 H   0  0  0  0  0  0
    8.4163    9.3729    5.6303 H   0  0  0  0  0  0
    8.9104    7.8376    6.7142 H   0  0  0  0  0  0
   -0.9758    5.8352    8.7267 H   0  0  0  0  0  0
    1.5818    8.8705    2.3886 H   0  0  0  0  0  0
    3.5502   12.6262    1.9506 H   0  0  0  0  0  0
    2.2394   10.7778    0.9988 H   0  0  0  0  0  0
  1  2  1  0  0  0
  1  3  1  0  0  0
  1  6  1  0  0  0
  2  4  2  0  0  0
  2  8  1  0  0  0
  3  5  2  0  0  0
  3  9  1  0  0  0
  4 10  1  0  0  0
  4  5  1  0  0  0
  5 14  1  0  0  0
  6 11  1  0  0  0
  6 20  2  0  0  0
  7 12  1  0  0  0
  7 17  1  0  0  0
  7 19  2  0  0  0
  8 13  2  0  0  0
  8 29  1  0  0  0
  9 18  2  0  0  0
  9 22  1  0  0  0
 10 15  2  0  0  0
 10 30  1  0  0  0
 11 16  1  0  0  0
 11 26  2  0  0  0
 12 16  2  0  0  0
 12 27  1  0  0  0
 13 15  1  0  0  0
 13 23  1  0  0  0
 14 21  2  0  0  0
 14 31  1  0  0  0
 15 24  1  0  0  0
 16 32  1  0  0  0
 18 21  1  0  0  0
 18 25  1  0  0  0
 21 33  1  0  0  0
 22 34  1  0  0  0
 23 35  1  0  0  0
 24 36  1  0  0  0
 25 37  1  0  0  0
 26 28  1  0  0  0
 26 38  1  0  0  0
 27 28  2  0  0  0
 27 39  1  0  0  0
 28 40  1  0  0  0
M  CHG  2   7   1  17  -1
M  END
> <s_m_entry_id>
32230

> <s_m_entry_name>
dock_pv.493

> <s_m_Source_Path>
/home/csk/Desktop/cluster/DUD-E-result/src

> <s_m_Source_File>
dock_pv.maegz

> <i_m_Source_File_Index>
493

> <chembl_id>
CHEMBL69174

> <chembl_pref_name>
None

> <i_lp_mmshare_version>
53161

> <r_lp_tautomer_probability>
1

> <s_lp_Force_Field>
OPLS_2005

> <r_lp_Energy>
34.951327

> <b_lp_Chiralities_Consistent>
1

> <s_lp_Variant>
CHEMBL267_lig664-1

> <s_i_glide_gridfile>
glide-grid_3el8

> <i_i_glide_lignum>
783

> <i_i_glide_rotatable_bonds>
7

> <r_i_docking_score>
-7.01634056363205

> <r_i_glide_ligand_efficiency>
-0.250583591558288

> <r_i_glide_ligand_efficiency_sa>
-0.760919369813712

> <r_i_glide_ligand_efficiency_ln>
-1.61957741079686

> <r_i_glide_gscore>
-7.01634056363205

> <r_i_glide_lipo>
-2.49464984096353

> <r_i_glide_hbond>
0

> <r_i_glide_metal>
0

> <r_i_glide_rewards>
-1.32059404034284

> <r_i_glide_evdw>
-37.8133010864258

> <r_i_glide_ecoul>
-10.5245504379272

> <r_i_glide_erotb>
0.268250937684687

> <r_i_glide_esite>
0

> <r_i_glide_emodel>
-67.0675325669896

> <r_i_glide_energy>
-48.337851524353

> <r_i_glide_einternal>
1.9700266122818

> <i_i_glide_confnum>
3

> <i_i_glide_posenum>
15

> <r_i_glide_eff_state_penalty>
0

> <s_user_duplicate_titles>
CHEMBL267_lig664,112499

> <i_f3d_flags>
0

> <s_m_subgroup_title>
dock_pv

> <s_m_subgroupid>
dock_pv

> <b_m_subgroup_collapsed>
1

$$$$
CHEMBL267_lig700
                    3D
 Schrodinger Suite 2021-1.
 45 47  0  0  1  0            999 V2000
    3.1707    8.0192    7.8156 C   0  0  0  0  0  0
    3.2909    6.9451    8.7179 C   0  0  0  0  0  0
    4.2040    8.4505    7.0422 N   0  0  0  0  0  0
    6.3954    8.3517    6.3735 N   0  0  0  0  0  0
    5.4010    7.8363    7.1407 C   0  0  0  0  0  0
    1.9189    8.6628    7.7381 N   0  0  0  0  0  0
    2.1746    6.4992    9.6040 C   0  0  0  0  0  0
    1.3752    9.4508    6.7879 C   0  0  0  0  0  0
    5.5971    6.7187    7.9940 C   0  0  0  0  0  0
    4.5183    6.2771    8.7877 C   0  0  0  0  0  0
    7.5852    7.7224    6.4521 C   0  0  0  0  0  0
    7.8876    6.6370    7.1966 N   0  0  0  0  0  0
    2.1761    9.8146    5.7670 N   0  0  0  0  0  0
    6.8869    6.1528    7.9714 C   0  0  0  0  0  0
    0.9899    5.9533    9.0688 C   0  0  0  0  0  0
    2.2771    6.6378   11.0019 C   0  0  0  0  0  0
    0.2059    9.8095    6.9066 O   0  0  0  0  0  0
    1.8751   10.5106    4.5125 C   0  0  0  0  0  0
    8.5976    8.2382    5.6744 N   0  0  0  0  0  0
    0.6943    5.8309    7.1879 Br  0  0  0  0  0  0
    3.7986    7.4371   11.8322 Br  0  0  0  0  0  0
    0.0954    5.6499   11.2920 C   0  0  0  0  0  0
   -0.0285    5.5121    9.9132 C   0  0  0  0  0  0
    1.2334    6.2369   11.8317 C   0  0  0  0  0  0
    0.9950    9.6222    3.6069 C   0  0  0  0  0  0
    3.2220   10.7421    3.7949 C   0  0  0  0  0  0
    1.2280   11.8946    4.7615 C   0  0  0  0  0  0
    1.2864    8.3843    8.4706 H   0  0  0  0  0  0
    4.6530    5.4376    9.4572 H   0  0  0  0  0  0
    3.1386    9.5193    5.8569 H   0  0  0  0  0  0
    7.1097    5.2909    8.5851 H   0  0  0  0  0  0
    8.3580    8.9877    5.0463 H   0  0  0  0  0  0
    9.3931    7.6259    5.4947 H   0  0  0  0  0  0
   -0.7119    5.3339   11.9376 H   0  0  0  0  0  0
   -0.9360    5.0953    9.4973 H   0  0  0  0  0  0
    1.3154    6.3634   12.9021 H   0  0  0  0  0  0
    0.0935    9.2912    4.1188 H   0  0  0  0  0  0
    0.6867   10.1431    2.6994 H   0  0  0  0  0  0
    1.5210    8.7186    3.2934 H   0  0  0  0  0  0
    3.8949   11.3611    4.3924 H   0  0  0  0  0  0
    3.7420    9.8027    3.5950 H   0  0  0  0  0  0
    3.0858   11.2451    2.8366 H   0  0  0  0  0  0
    1.8849   12.5356    5.3538 H   0  0  0  0  0  0
    1.0307   12.4153    3.8239 H   0  0  0  0  0  0
    0.2818   11.8324    5.2999 H   0  0  0  0  0  0
  1  2  1  0  0  0
  1  3  2  0  0  0
  1  6  1  0  0  0
  2  7  1  0  0  0
  2 10  2  0  0  0
  3  5  1  0  0  0
  4  5  2  0  0  0
  4 11  1  0  0  0
  5  9  1  0  0  0
  6  8  1  0  0  0
  6 28  1  0  0  0
  7 15  1  0  0  0
  7 16  2  0  0  0
  8 13  1  0  0  0
  8 17  2  0  0  0
  9 14  2  0  0  0
  9 10  1  0  0  0
 10 29  1  0  0  0
 11 19  1  0  0  0
 11 12  2  0  0  0
 12 14  1  0  0  0
 13 18  1  0  0  0
 13 30  1  0  0  0
 14 31  1  0  0  0
 15 20  1  0  0  0
 15 23  2  0  0  0
 16 21  1  0  0  0
 16 24  1  0  0  0
 18 25  1  0  0  0
 18 26  1  0  0  0
 18 27  1  0  0  0
 19 32  1  0  0  0
 19 33  1  0  0  0
 22 24  2  0  0  0
 22 23  1  0  0  0
 22 34  1  0  0  0
 23 35  1  0  0  0
 24 36  1  0  0  0
 25 37  1  0  0  0
 25 38  1  0  0  0
 25 39  1  0  0  0
 26 40  1  0  0  0
 26 41  1  0  0  0
 26 42  1  0  0  0
 27 43  1  0  0  0
 27 44  1  0  0  0
 27 45  1  0  0  0
M  END
> <s_m_entry_id>
32231

> <s_m_entry_name>
dock_pv.494

> <s_m_Source_Path>
/home/csk/Desktop/cluster/DUD-E-result/src

> <s_m_Source_File>
dock_pv.maegz

> <i_m_Source_File_Index>
494

> <chembl_id>
CHEMBL300171

> <chembl_pref_name>
None

> <i_lp_mmshare_version>
53161

> <r_lp_tautomer_probability>
1

> <s_lp_Force_Field>
OPLS_2005

> <r_lp_Energy>
15.59929

> <b_lp_Chiralities_Consistent>
1

> <s_lp_Variant>
CHEMBL267_lig700-1

> <s_i_glide_gridfile>
glide-grid_3el8

> <i_i_glide_lignum>
819

> <i_i_glide_rotatable_bonds>
5

> <r_i_docking_score>
-7.01617904680183

> <r_i_glide_ligand_efficiency>
-0.259858483214883

> <r_i_glide_ligand_efficiency_sa>
-0.779575448788197

> <r_i_glide_ligand_efficiency_ln>
-1.63325081134372

> <r_i_glide_gscore>
-7.01617904680183

> <r_i_glide_lipo>
-2.35461738347545

> <r_i_glide_hbond>
-0.573178354835765

> <r_i_glide_metal>
0

> <r_i_glide_rewards>
-1.21751230477509

> <r_i_glide_evdw>
-39.858268737793

> <r_i_glide_ecoul>
-7.41053819656372

> <r_i_glide_erotb>
0.233623162658677

> <r_i_glide_esite>
0

> <r_i_glide_emodel>
-63.660614069805

> <r_i_glide_energy>
-47.2688069343567

> <r_i_glide_einternal>
1.92671775817871

> <i_i_glide_confnum>
1

> <i_i_glide_posenum>
297

> <r_i_glide_eff_state_penalty>
0

> <s_user_duplicate_titles>
CHEMBL267_lig700,89125

> <i_f3d_flags>
0

> <s_m_subgroup_title>
dock_pv

> <s_m_subgroupid>
dock_pv

> <b_m_subgroup_collapsed>
1

$$$$
CHEMBL267_lig2888 
                    3D
 Schrodinger Suite 2021-1.
 44 47  0  0  1  0            999 V2000
    3.3176    8.1405    7.4639 C   0  0  0  0  0  0
    3.6890    7.2099    8.4307 C   0  0  0  0  0  0
    4.9477    6.7081    8.5078 N   0  0  0  0  0  0
    4.2537    8.5513    6.5083 C   0  0  0  0  0  0
    5.5603    8.0181    6.5589 C   0  0  0  0  0  0
    5.8582    7.1194    7.5888 C   0  0  0  0  0  0
    3.8280    9.4733    5.5335 N   0  0  0  0  0  0
    2.7039    6.7046    9.4124 C   0  0  0  0  0  0
    1.6289    5.9190    8.9790 C   0  0  0  0  0  0
    0.6646    5.4715    9.8808 C   0  0  0  0  0  0
    0.7464    5.8364   11.2236 C   0  0  0  0  0  0
    1.8156    6.6129   11.6664 C   0  0  0  0  0  0
    2.7960    7.0365   10.7693 C   0  0  0  0  0  0
    3.8167    7.8008   11.2197 F   0  0  0  0  0  0
    4.4027   10.6859    5.2823 C   0  0  0  0  0  0
    3.7181   11.1837    4.2189 N   0  0  0  0  0  0
    2.7389    9.2694    4.6987 C   0  0  0  0  0  0
    2.6834   10.3478    3.8628 C   0  0  0  0  0  0
    1.6675   10.4397    2.9114 C   0  0  0  0  0  0
    0.7255    9.4666    2.7880 N   0  0  0  0  0  0
    0.8073    8.3804    3.6070 C   0  0  0  0  0  0
    1.7972    8.2394    4.5855 C   0  0  0  0  0  0
    5.3479   11.2157    5.8748 O   0  0  0  0  0  0
    4.1448   12.4022    3.5162 C   0  0  0  0  0  0
   -0.6118    4.4479    9.3379 Cl  0  0  0  0  0  0
    6.6281    8.3207    5.5140 C   0  0  0  0  0  0
    4.7752   12.0268    2.1667 C   0  0  0  0  0  0
    4.6195   12.9103    1.1888 N   0  0  0  0  0  0
    5.3753   10.9679    1.9884 O   0  0  0  0  0  0
    2.3075    8.5249    7.4473 H   0  0  0  0  0  0
    6.8388    6.6750    7.6714 H   0  0  0  0  0  0
    1.5476    5.6434    7.9367 H   0  0  0  0  0  0
   -0.0053    5.4983   11.9227 H   0  0  0  0  0  0
    1.8973    6.8656   12.7127 H   0  0  0  0  0  0
    1.5808   11.2782    2.2377 H   0  0  0  0  0  0
    0.0545    7.6185    3.4615 H   0  0  0  0  0  0
    1.8199    7.3603    5.2123 H   0  0  0  0  0  0
    3.2936   13.0650    3.3702 H   0  0  0  0  0  0
    4.8918   12.9490    4.0930 H   0  0  0  0  0  0
    7.3480    7.5055    5.4351 H   0  0  0  0  0  0
    6.1834    8.4320    4.5245 H   0  0  0  0  0  0
    7.1617    9.2391    5.7598 H   0  0  0  0  0  0
    4.9982   12.6933    0.2620 H   0  0  0  0  0  0
    4.1564   13.7909    1.3397 H   0  0  0  0  0  0
  1  2  2  0  0  0
  1  4  1  0  0  0
  1 30  1  0  0  0
  2  3  1  0  0  0
  2  8  1  0  0  0
  3  6  2  0  0  0
  4  5  2  0  0  0
  4  7  1  0  0  0
  5  6  1  0  0  0
  5 26  1  0  0  0
  6 31  1  0  0  0
  7 15  1  0  0  0
  7 17  1  0  0  0
  8  9  2  0  0  0
  8 13  1  0  0  0
  9 10  1  0  0  0
  9 32  1  0  0  0
 10 11  2  0  0  0
 10 25  1  0  0  0
 11 12  1  0  0  0
 11 33  1  0  0  0
 12 13  2  0  0  0
 12 34  1  0  0  0
 13 14  1  0  0  0
 15 16  1  0  0  0
 15 23  2  0  0  0
 16 18  1  0  0  0
 16 24  1  0  0  0
 17 18  2  0  0  0
 17 22  1  0  0  0
 18 19  1  0  0  0
 19 20  2  0  0  0
 19 35  1  0  0  0
 20 21  1  0  0  0
 21 22  2  0  0  0
 21 36  1  0  0  0
 22 37  1  0  0  0
 24 27  1  0  0  0
 24 38  1  0  0  0
 24 39  1  0  0  0
 26 40  1  0  0  0
 26 41  1  0  0  0
 26 42  1  0  0  0
 27 28  1  0  0  0
 27 29  2  0  0  0
 28 43  1  0  0  0
 28 44  1  0  0  0
M  END
> <s_m_entry_id>
32232

> <s_m_entry_name>
dock_pv.495

> <s_m_Source_Path>
/home/csk/Desktop/cluster/DUD-E-result/src

> <s_m_Source_File>
dock_pv.maegz

> <i_m_Source_File_Index>
495

> <chembl_id>
CHEMBL4564126

> <chembl_pref_name>
None

> <i_lp_mmshare_version>
53161

> <r_lp_tautomer_probability>
1

> <s_lp_Force_Field>
OPLS_2005

> <r_lp_Energy>
52.434716

> <b_lp_Chiralities_Consistent>
1

> <s_lp_Variant>
CHEMBL267_lig2888 -1

> <s_i_glide_gridfile>
glide-grid_3el8

> <i_i_glide_lignum>
3268

> <i_i_glide_rotatable_bonds>
4

> <r_i_docking_score>
-7.01346143139902

> <r_i_glide_ligand_efficiency>
-0.241843497634449

> <r_i_glide_ligand_efficiency_sa>
-0.743019846131043

> <r_i_glide_ligand_efficiency_ln>
-1.60590482175345

> <r_i_glide_gscore>
-7.01346143139902

> <r_i_glide_lipo>
-2.85029569472257

> <r_i_glide_hbond>
-0.16

> <r_i_glide_metal>
0

> <r_i_glide_rewards>
-1.49201628361623

> <r_i_glide_evdw>
-40.7502937316895

> <r_i_glide_ecoul>
-4.76858854293823

> <r_i_glide_erotb>
0.34871393893625

> <r_i_glide_esite>
-0.107060423971252

> <r_i_glide_emodel>
-62.963470022221

> <r_i_glide_energy>
-45.5188822746277

> <r_i_glide_einternal>
3.96672463417053

> <i_i_glide_confnum>
6

> <i_i_glide_posenum>
260

> <r_i_glide_eff_state_penalty>
0

> <s_user_duplicate_titles>
CHEMBL267_lig2888 

> <i_f3d_flags>
0

> <s_m_subgroup_title>
dock_pv

> <s_m_subgroupid>
dock_pv

> <b_m_subgroup_collapsed>
1

$$$$
CHEMBL267_lig3094
                    3D
 Schrodinger Suite 2021-1.
 46 49  0  0  1  0            999 V2000
    3.0111    7.8740    8.8468 C   0  0  0  0  0  0
    3.0285    7.4434   10.1773 C   0  0  0  0  0  0
    2.1540    6.5215   10.6581 N   0  0  0  0  0  0
    1.2818    5.9978    9.7612 C   0  0  0  0  0  0
    1.2077    6.3402    8.4555 N   0  0  0  0  0  0
    2.0605    7.2940    7.9965 C   0  0  0  0  0  0
    0.3623    5.0635   10.2349 N   0  0  0  0  0  0
   -0.2301    4.0104    9.5249 C   0  0  0  0  0  0
    0.5538    3.0727    8.8595 C   0  0  0  0  0  0
   -0.0352    1.9039    8.3881 C   0  0  0  0  0  0
   -1.3997    1.6447    8.5641 C   0  0  0  0  0  0
   -2.1984    2.6644    9.1073 C   0  0  0  0  0  0
   -1.6065    3.8331    9.5881 C   0  0  0  0  0  0
    1.8554    7.6936    6.5637 C   0  0  0  0  0  0
    0.4190    7.1601    5.7072 S   0  0  0  0  0  0
    0.9703    7.9902    4.3184 C   0  0  0  0  0  0
    2.1030    8.6209    4.4563 N   0  0  0  0  0  0
    2.6179    8.4634    5.6656 C   0  0  0  0  0  0
    3.9643    9.1219    5.8790 C   0  0  0  0  0  0
    0.2245    7.9220    3.1881 N   0  0  0  0  0  0
   -1.8632    0.3383    8.3863 N   0  0  0  0  0  0
   -3.2195   -0.0929    8.7881 C   0  0  0  0  0  0
   -3.3973   -1.6115    8.9172 C   0  0  0  0  0  0
   -2.8444   -2.3138    7.8117 O   0  0  0  0  0  0
   -1.4814   -1.9775    7.6074 C   0  0  0  0  0  0
   -1.4022   -0.4930    7.2601 C   0  0  0  0  0  0
    3.6934    8.6363    8.5116 H   0  0  0  0  0  0
    3.7352    7.8501   10.8867 H   0  0  0  0  0  0
    0.4167    4.9157   11.2304 H   0  0  0  0  0  0
    1.6246    3.1993    8.7975 H   0  0  0  0  0  0
    0.5980    1.1368    7.9926 H   0  0  0  0  0  0
   -3.2607    2.5267    9.2408 H   0  0  0  0  0  0
   -2.2016    4.5790   10.0752 H   0  0  0  0  0  0
    3.8601   10.0809    6.3858 H   0  0  0  0  0  0
    4.6289    8.5001    6.4775 H   0  0  0  0  0  0
    4.4974    9.3139    4.9461 H   0  0  0  0  0  0
    0.5567    8.2538    2.2867 H   0  0  0  0  0  0
   -0.6631    7.4369    3.1575 H   0  0  0  0  0  0
   -3.4896    0.3646    9.7376 H   0  0  0  0  0  0
   -3.9570    0.2373    8.0640 H   0  0  0  0  0  0
   -4.4694   -1.8017    8.9347 H   0  0  0  0  0  0
   -2.9976   -1.9957    9.8557 H   0  0  0  0  0  0
   -1.0692   -2.5631    6.7880 H   0  0  0  0  0  0
   -0.8833   -2.2086    8.4915 H   0  0  0  0  0  0
   -1.9997   -0.2648    6.3755 H   0  0  0  0  0  0
   -0.3697   -0.2961    6.9862 H   0  0  0  0  0  0
  1  2  2  0  0  0
  1  6  1  0  0  0
  1 27  1  0  0  0
  2  3  1  0  0  0
  2 28  1  0  0  0
  3  4  2  0  0  0
  4  7  1  0  0  0
  4  5  1  0  0  0
  5  6  2  0  0  0
  6 14  1  0  0  0
  7  8  1  0  0  0
  7 29  1  0  0  0
  8 13  1  0  0  0
  8  9  2  0  0  0
  9 10  1  0  0  0
  9 30  1  0  0  0
 10 11  2  0  0  0
 10 31  1  0  0  0
 11 21  1  0  0  0
 11 12  1  0  0  0
 12 13  2  0  0  0
 12 32  1  0  0  0
 13 33  1  0  0  0
 14 15  1  0  0  0
 14 18  2  0  0  0
 15 16  1  0  0  0
 16 17  2  0  0  0
 16 20  1  0  0  0
 17 18  1  0  0  0
 18 19  1  0  0  0
 19 34  1  0  0  0
 19 35  1  0  0  0
 19 36  1  0  0  0
 20 37  1  0  0  0
 20 38  1  0  0  0
 21 22  1  0  0  0
 21 26  1  0  0  0
 22 23  1  0  0  0
 22 39  1  0  0  0
 22 40  1  0  0  0
 23 24  1  0  0  0
 23 41  1  0  0  0
 23 42  1  0  0  0
 24 25  1  0  0  0
 25 26  1  0  0  0
 25 43  1  0  0  0
 25 44  1  0  0  0
 26 45  1  0  0  0
 26 46  1  0  0  0
M  END
> <s_m_entry_id>
32233

> <s_m_entry_name>
dock_pv.496

> <s_m_Source_Path>
/home/csk/Desktop/cluster/DUD-E-result/src

> <s_m_Source_File>
dock_pv.maegz

> <i_m_Source_File_Index>
496

> <chembl_id>
CHEMBL482967

> <chembl_pref_name>
CYC-116

> <i_lp_mmshare_version>
53161

> <r_lp_tautomer_probability>
0.999999987636

> <s_lp_Force_Field>
OPLS_2005

> <r_lp_Energy>
20.731247

> <b_lp_Chiralities_Consistent>
1

> <s_lp_Variant>
CHEMBL267_lig3094-1

> <s_i_glide_gridfile>
glide-grid_3el8

> <i_i_glide_lignum>
3570

> <i_i_glide_rotatable_bonds>
4

> <r_i_docking_score>
-7.01316204463517

> <r_i_glide_ligand_efficiency>
-0.269737001716737

> <r_i_glide_ligand_efficiency_sa>
-0.799094806221984

> <r_i_glide_ligand_efficiency_ln>
-1.64701809412095

> <r_i_glide_gscore>
-7.01316204463517

> <r_i_glide_lipo>
-3.14020788009971

> <r_i_glide_hbond>
-0.329924955713241

> <r_i_glide_metal>
0

> <r_i_glide_rewards>
-1.48935416541887

> <r_i_glide_evdw>
-40.1583290100098

> <r_i_glide_ecoul>
-3.56730151176453

> <r_i_glide_erotb>
0.567766195258309

> <r_i_glide_esite>
-0.0784295613964976

> <r_i_glide_emodel>
-59.9240899085485

> <r_i_glide_energy>
-43.7256305217743

> <r_i_glide_einternal>
7.20761203765869

> <i_i_glide_confnum>
20

> <i_i_glide_posenum>
214

> <r_i_glide_eff_state_penalty>
0

> <s_user_duplicate_titles>
CHEMBL267_lig3094,520120

> <i_f3d_flags>
0

> <s_m_subgroup_title>
dock_pv

> <s_m_subgroupid>
dock_pv

> <b_m_subgroup_collapsed>
1

$$$$
CHEMBL267_lig1896
                    3D
 Schrodinger Suite 2021-1.
 43 46  0  0  1  0            999 V2000
    7.6571    6.8070    7.1760 N   0  0  0  0  0  0
    6.8570    6.0716    7.9880 C   0  0  0  0  0  0
    5.5456    6.2796    8.2718 N   0  0  0  0  0  0
    7.0737    7.8370    6.5109 C   0  0  0  0  0  0
    5.7036    8.1268    6.6685 C   0  0  0  0  0  0
    5.0153    7.3065    7.5923 C   0  0  0  0  0  0
    3.7176    7.7842    7.6431 N   0  0  0  0  0  0
    3.5554    8.8115    6.7809 N   0  0  0  0  0  0
    4.7053    9.0366    6.1787 C   0  0  0  0  0  0
    4.8402   10.1258    5.1695 C   0  0  0  0  0  0
    5.4699    9.8964    3.9416 C   0  0  0  0  0  0
    5.6056   10.9309    3.0137 C   0  0  0  0  0  0
    5.1375   12.2189    3.3021 C   0  0  0  0  0  0
    4.5064   12.4454    4.5349 C   0  0  0  0  0  0
    4.3541   11.4069    5.4528 C   0  0  0  0  0  0
    7.8957    8.5744    5.6702 N   0  0  0  0  0  0
    6.1980   10.6866    1.8028 O   0  0  0  0  0  0
    5.3300   13.1932    2.3396 O   0  0  0  0  0  0
    4.8961   14.5244    2.5953 C   0  0  0  0  0  0
    2.5824    7.3359    8.4640 C   0  0  0  0  0  0
    2.1850    5.8631    8.2077 C   0  0  0  0  0  0
    2.0933    5.1886    9.5837 C   0  0  0  0  0  0
    1.9905    6.3305   10.5930 C   0  0  0  0  0  0
    2.8443    7.4427    9.9798 C   0  0  0  0  0  0
    7.3216    5.2365    8.4918 H   0  0  0  0  0  0
    5.8339    8.9094    3.6958 H   0  0  0  0  0  0
    4.1275   13.4210    4.7955 H   0  0  0  0  0  0
    3.8639   11.6027    6.3940 H   0  0  0  0  0  0
    7.5248    9.3784    5.1873 H   0  0  0  0  0  0
    8.8635    8.2951    5.5881 H   0  0  0  0  0  0
    6.1671   11.4850    1.2617 H   0  0  0  0  0  0
    5.1480   15.1533    1.7408 H   0  0  0  0  0  0
    5.3895   14.9465    3.4713 H   0  0  0  0  0  0
    3.8147   14.5737    2.7319 H   0  0  0  0  0  0
    1.7277    7.9659    8.2047 H   0  0  0  0  0  0
    1.2220    5.8157    7.6959 H   0  0  0  0  0  0
    2.9028    5.3266    7.5880 H   0  0  0  0  0  0
    1.2507    4.4997    9.6547 H   0  0  0  0  0  0
    2.9980    4.6102    9.7736 H   0  0  0  0  0  0
    0.9503    6.6435   10.6912 H   0  0  0  0  0  0
    2.3422    6.0402   11.5846 H   0  0  0  0  0  0
    3.8877    7.2336   10.2214 H   0  0  0  0  0  0
    2.5985    8.4235   10.3866 H   0  0  0  0  0  0
  1  2  2  0  0  0
  1  4  1  0  0  0
  2  3  1  0  0  0
  2 25  1  0  0  0
  3  6  2  0  0  0
  4  5  2  0  0  0
  4 16  1  0  0  0
  5  9  1  0  0  0
  5  6  1  0  0  0
  6  7  1  0  0  0
  7  8  1  0  0  0
  7 20  1  0  0  0
  8  9  2  0  0  0
  9 10  1  0  0  0
 10 15  1  0  0  0
 10 11  2  0  0  0
 11 12  1  0  0  0
 11 26  1  0  0  0
 12 13  2  0  0  0
 12 17  1  0  0  0
 13 14  1  0  0  0
 13 18  1  0  0  0
 14 15  2  0  0  0
 14 27  1  0  0  0
 15 28  1  0  0  0
 16 29  1  0  0  0
 16 30  1  0  0  0
 17 31  1  0  0  0
 18 19  1  0  0  0
 19 32  1  0  0  0
 19 33  1  0  0  0
 19 34  1  0  0  0
 20 21  1  0  0  0
 20 24  1  0  0  0
 20 35  1  0  0  0
 21 22  1  0  0  0
 21 36  1  0  0  0
 21 37  1  0  0  0
 22 23  1  0  0  0
 22 38  1  0  0  0
 22 39  1  0  0  0
 23 24  1  0  0  0
 23 40  1  0  0  0
 23 41  1  0  0  0
 24 42  1  0  0  0
 24 43  1  0  0  0
M  END
> <s_m_entry_id>
32234

> <s_m_entry_name>
dock_pv.497

> <s_m_Source_Path>
/home/csk/Desktop/cluster/DUD-E-result/src

> <s_m_Source_File>
dock_pv.maegz

> <i_m_Source_File_Index>
497

> <chembl_id>
CHEMBL1242201

> <chembl_pref_name>
None

> <i_lp_mmshare_version>
53161

> <r_lp_tautomer_probability>
0.999999999999776

> <s_lp_Force_Field>
OPLS_2005

> <r_lp_Energy>
34.149048

> <b_lp_Chiralities_Consistent>
1

> <s_lp_Variant>
CHEMBL267_lig1896-1

> <s_i_glide_gridfile>
glide-grid_3el8

> <i_i_glide_lignum>
2168

> <i_i_glide_rotatable_bonds>
4

> <r_i_docking_score>
-7.00992905630169

> <r_i_glide_ligand_efficiency>
-0.292080377345904

> <r_i_glide_ligand_efficiency_sa>
-0.842505596552201

> <r_i_glide_ligand_efficiency_ln>
-1.67779768785744

> <r_i_glide_gscore>
-7.00992905630169

> <r_i_glide_lipo>
-2.28463755715007

> <r_i_glide_hbond>
-0.0505645025553616

> <r_i_glide_metal>
0

> <r_i_glide_rewards>
-2.79076876934274

> <r_i_glide_evdw>
-32.152271270752

> <r_i_glide_ecoul>
-4.20262432098389

> <r_i_glide_erotb>
0.354048984431659

> <r_i_glide_esite>
0

> <r_i_glide_emodel>
-50.1057612738893

> <r_i_glide_energy>
-36.3548955917358

> <r_i_glide_einternal>
2.17554497718811

> <i_i_glide_confnum>
10

> <i_i_glide_posenum>
247

> <r_i_glide_eff_state_penalty>
0

> <s_user_duplicate_titles>
CHEMBL267_lig1896

> <i_f3d_flags>
0

> <s_m_subgroup_title>
dock_pv

> <s_m_subgroupid>
dock_pv

> <b_m_subgroup_collapsed>
1

$$$$
CHEMBL267_lig18
                    3D
 Schrodinger Suite 2021-1.
 39 41  0  0  1  0            999 V2000
    3.1306   12.4748    5.3613 C   0  0  0  0  0  0
    4.0237   12.0688    4.1929 C   0  0  0  0  0  0
    4.0446   12.8787    3.0531 C   0  0  0  0  0  0
    4.8333   12.5366    1.9580 C   0  0  0  0  0  0
    5.6062   11.3801    1.9876 C   0  0  0  0  0  0
    6.3489   11.0371    0.8868 O   0  0  0  0  0  0
    5.6014   10.5707    3.1249 C   0  0  0  0  0  0
    4.8229   10.9101    4.2412 C   0  0  0  0  0  0
    4.7723   10.0990    5.3910 N   0  0  0  0  0  0
    5.6414    9.1424    5.9450 C   0  0  0  0  0  0
    7.0040    9.1506    5.6350 C   0  0  0  0  0  0
    7.8550    8.2331    6.2400 C   0  0  0  0  0  0
    7.4415    7.3106    7.1394 N   0  0  0  0  0  0
    6.1220    7.2817    7.4719 C   0  0  0  0  0  0
    5.6886    6.2940    8.3879 C   0  0  0  0  0  0
    4.3569    6.2367    8.7864 C   0  0  0  0  0  0
    3.4220    7.1235    8.2584 C   0  0  0  0  0  0
    3.8095    8.0814    7.3191 C   0  0  0  0  0  0
    5.1702    8.1876    6.9044 C   0  0  0  0  0  0
    1.7152    7.0091    8.7903 S   0  0  0  0  0  0
    1.0303    5.5842    7.7783 C   0  0  0  0  0  0
    1.7299    6.6082   10.2006 O   0  0  0  0  0  0
    1.0264    8.2373    8.3776 O   0  0  0  0  0  0
    2.3709   11.7130    5.5392 H   0  0  0  0  0  0
    3.7230   12.5689    6.2715 H   0  0  0  0  0  0
    2.6275   13.4264    5.1882 H   0  0  0  0  0  0
    3.4419   13.7741    3.0044 H   0  0  0  0  0  0
    4.8307   13.1648    1.0782 H   0  0  0  0  0  0
    6.1947   11.6468    0.1387 H   0  0  0  0  0  0
    6.1817    9.6618    3.1164 H   0  0  0  0  0  0
    3.9624   10.2866    5.9607 H   0  0  0  0  0  0
    7.4207    9.8811    4.9589 H   0  0  0  0  0  0
    8.9112    8.2280    6.0082 H   0  0  0  0  0  0
    6.4044    5.5909    8.7890 H   0  0  0  0  0  0
    4.0490    5.4917    9.5082 H   0  0  0  0  0  0
    3.0703    8.7510    6.9036 H   0  0  0  0  0  0
   -0.0118    5.4370    8.0607 H   0  0  0  0  0  0
    1.1000    5.8381    6.7221 H   0  0  0  0  0  0
    1.6077    4.6880    7.9974 H   0  0  0  0  0  0
  1  2  1  0  0  0
  1 24  1  0  0  0
  1 25  1  0  0  0
  1 26  1  0  0  0
  2  3  2  0  0  0
  2  8  1  0  0  0
  3  4  1  0  0  0
  3 27  1  0  0  0
  4  5  2  0  0  0
  4 28  1  0  0  0
  5  6  1  0  0  0
  5  7  1  0  0  0
  6 29  1  0  0  0
  7  8  2  0  0  0
  7 30  1  0  0  0
  8  9  1  0  0  0
  9 10  1  0  0  0
  9 31  1  0  0  0
 10 11  1  0  0  0
 10 19  2  0  0  0
 11 12  2  0  0  0
 11 32  1  0  0  0
 12 13  1  0  0  0
 12 33  1  0  0  0
 13 14  2  0  0  0
 14 15  1  0  0  0
 14 19  1  0  0  0
 15 16  2  0  0  0
 15 34  1  0  0  0
 16 17  1  0  0  0
 16 35  1  0  0  0
 17 18  2  0  0  0
 17 20  1  0  0  0
 18 19  1  0  0  0
 18 36  1  0  0  0
 20 21  1  0  0  0
 20 22  2  0  0  0
 20 23  2  0  0  0
 21 37  1  0  0  0
 21 38  1  0  0  0
 21 39  1  0  0  0
M  END
> <s_m_entry_id>
32235

> <s_m_entry_name>
dock_pv.498

> <s_m_Source_Path>
/home/csk/Desktop/cluster/DUD-E-result/src

> <s_m_Source_File>
dock_pv.maegz

> <i_m_Source_File_Index>
498

> <chembl_id>
CHEMBL237347

> <chembl_pref_name>
GW559768X

> <i_lp_mmshare_version>
53161

> <r_lp_tautomer_probability>
1

> <s_lp_Force_Field>
OPLS_2005

> <r_lp_Energy>
18.314919

> <b_lp_Chiralities_Consistent>
1

> <s_lp_Variant>
CHEMBL267_lig18-1

> <s_i_glide_gridfile>
glide-grid_3el8

> <i_i_glide_lignum>
25

> <i_i_glide_rotatable_bonds>
4

> <r_i_docking_score>
-7.00969182506367

> <r_i_glide_ligand_efficiency>
-0.304769209785377

> <r_i_glide_ligand_efficiency_sa>
-0.866723091278219

> <r_i_glide_ligand_efficiency_ln>
-1.69500704367174

> <r_i_glide_gscore>
-7.00969182506367

> <r_i_glide_lipo>
-2.29128712197885

> <r_i_glide_hbond>
-0.456

> <r_i_glide_metal>
0

> <r_i_glide_rewards>
-1.35801079561232

> <r_i_glide_evdw>
-30.4459819793701

> <r_i_glide_ecoul>
-11.3435029983521

> <r_i_glide_erotb>
0.348317195898198

> <r_i_glide_esite>
-0.0288865546493822

> <r_i_glide_emodel>
-60.2331635761193

> <r_i_glide_energy>
-41.7894849777222

> <r_i_glide_einternal>
0.574370384216309

> <i_i_glide_confnum>
1

> <i_i_glide_posenum>
88

> <r_i_glide_eff_state_penalty>
0

> <s_user_duplicate_titles>
CHEMBL267_lig18

> <i_f3d_flags>
0

> <s_m_subgroup_title>
dock_pv

> <s_m_subgroupid>
dock_pv

> <b_m_subgroup_collapsed>
1

$$$$
CHEMBL267_lig3050
                    3D
 Schrodinger Suite 2021-1.
 50 53  0  0  1  0            999 V2000
    3.7527    8.6371    5.5481 N   0  0  0  0  0  0
    2.4241    8.3622    5.3993 C   0  0  0  0  0  0
    1.6440    7.7820    6.3551 N   0  0  0  0  0  0
    4.3818    8.3151    6.7115 C   0  0  0  0  0  0
    3.6115    7.8526    7.7986 C   0  0  0  0  0  0
    2.2618    7.5676    7.5171 C   0  0  0  0  0  0
    1.7625    6.9517    8.6472 N   0  0  0  0  0  0
    2.6383    7.0407    9.6721 N   0  0  0  0  0  0
    3.7440    7.5392    9.1899 C   0  0  0  0  0  0
    0.5090    6.2129    8.7889 C   0  0  0  0  0  0
    0.6581    4.9806    9.7155 C   0  0  2  0  0  0
   -0.1131    3.7649    9.2209 C   0  0  0  0  0  0
    0.1985    5.4371   11.3810 Cl  0  0  0  0  0  0
    0.5866    2.6340    8.7882 C   0  0  0  0  0  0
   -0.1074    1.4967    8.3881 C   0  0  0  0  0  0
   -1.4983    1.5051    8.3880 C   0  0  0  0  0  0
   -2.2019    2.6372    8.7884 C   0  0  0  0  0  0
   -1.5086    3.7661    9.2084 C   0  0  0  0  0  0
    1.8156    8.6653    4.1489 N   0  0  0  0  0  0
    0.5063    8.0981    3.8187 C   0  0  0  0  0  0
    5.7817    8.3397    6.7164 N   0  0  0  0  0  0
    2.6320    9.0953    3.0120 C   0  0  0  0  0  0
    6.5773    9.0903    5.7213 C   0  0  0  0  0  0
    7.9531    8.4584    5.4176 C   0  0  0  0  0  0
    8.6712    8.2370    6.6197 O   0  0  0  0  0  0
    7.9851    7.3544    7.4821 C   0  0  0  0  0  0
    6.6088    7.9343    7.8687 C   0  0  0  0  0  0
    4.5978    7.6559    9.8379 H   0  0  0  0  0  0
    0.2054    5.8957    7.7887 H   0  0  0  0  0  0
   -0.2689    6.8881    9.1375 H   0  0  0  0  0  0
    1.7035    4.6707    9.7749 H   0  0  0  0  0  0
    1.6663    2.6219    8.7895 H   0  0  0  0  0  0
    0.4270    0.6092    8.0819 H   0  0  0  0  0  0
   -2.0450    0.6308    8.0657 H   0  0  0  0  0  0
   -3.2827    2.6337    8.7824 H   0  0  0  0  0  0
   -2.0574    4.6369    9.5333 H   0  0  0  0  0  0
    0.5959    7.0260    3.6406 H   0  0  0  0  0  0
   -0.2022    8.2320    4.6357 H   0  0  0  0  0  0
    0.0801    8.5546    2.9242 H   0  0  0  0  0  0
    3.3886    9.8224    3.3091 H   0  0  0  0  0  0
    3.1474    8.2406    2.5735 H   0  0  0  0  0  0
    2.0194    9.5574    2.2367 H   0  0  0  0  0  0
    6.0441    9.1452    4.7721 H   0  0  0  0  0  0
    6.6953   10.1189    6.0641 H   0  0  0  0  0  0
    8.5385    9.1304    4.7894 H   0  0  0  0  0  0
    7.8432    7.5284    4.8541 H   0  0  0  0  0  0
    8.5976    7.2116    8.3708 H   0  0  0  0  0  0
    7.8777    6.3715    7.0184 H   0  0  0  0  0  0
    6.7077    8.7633    8.5706 H   0  0  0  0  0  0
    6.1139    7.1186    8.3900 H   0  0  0  0  0  0
  1  2  2  0  0  0
  1  4  1  0  0  0
  2 19  1  0  0  0
  2  3  1  0  0  0
  3  6  2  0  0  0
  4 21  1  0  0  0
  4  5  2  0  0  0
  5  9  1  0  0  0
  5  6  1  0  0  0
  6  7  1  0  0  0
  7  8  1  0  0  0
  7 10  1  0  0  0
  8  9  2  0  0  0
  9 28  1  0  0  0
 10 11  1  0  0  0
 10 29  1  0  0  0
 10 30  1  0  0  0
 11 12  1  0  0  0
 11 13  1  0  0  0
 11 31  1  0  0  0
 12 14  2  0  0  0
 12 18  1  0  0  0
 14 15  1  0  0  0
 14 32  1  0  0  0
 15 16  2  0  0  0
 15 33  1  0  0  0
 16 17  1  0  0  0
 16 34  1  0  0  0
 17 18  2  0  0  0
 17 35  1  0  0  0
 18 36  1  0  0  0
 19 20  1  0  0  0
 19 22  1  0  0  0
 20 37  1  0  0  0
 20 38  1  0  0  0
 20 39  1  0  0  0
 21 23  1  0  0  0
 21 27  1  0  0  0
 22 40  1  0  0  0
 22 41  1  0  0  0
 22 42  1  0  0  0
 23 24  1  0  0  0
 23 43  1  0  0  0
 23 44  1  0  0  0
 24 25  1  0  0  0
 24 45  1  0  0  0
 24 46  1  0  0  0
 25 26  1  0  0  0
 26 27  1  0  0  0
 26 47  1  0  0  0
 26 48  1  0  0  0
 27 49  1  0  0  0
 27 50  1  0  0  0
M  END
> <s_m_entry_id>
32236

> <s_m_entry_name>
dock_pv.499

> <s_m_Source_Path>
/home/csk/Desktop/cluster/DUD-E-result/src

> <s_m_Source_File>
dock_pv.maegz

> <i_m_Source_File_Index>
499

> <chembl_id>
CHEMBL473923

> <chembl_pref_name>
None

> <i_lp_mmshare_version>
53161

> <r_lp_tautomer_probability>
1

> <s_lp_Force_Field>
OPLS_2005

> <r_lp_Energy>
17.344152

> <b_lp_Chiralities_Consistent>
1

> <s_lp_Variant>
CHEMBL267_lig3050-1

> <s_i_glide_gridfile>
glide-grid_3el8

> <i_i_glide_lignum>
3492

> <i_i_glide_rotatable_bonds>
5

> <r_i_docking_score>
-7.00516906244575

> <r_i_glide_ligand_efficiency>
-0.259450706016509

> <r_i_glide_ligand_efficiency_sa>
-0.778352117194421

> <r_i_glide_ligand_efficiency_ln>
-1.6306878684994

> <r_i_glide_gscore>
-7.00516906244575

> <r_i_glide_lipo>
-3.51516522911035

> <r_i_glide_hbond>
0

> <r_i_glide_metal>
0

> <r_i_glide_rewards>
-1.73671126057609

> <r_i_glide_evdw>
-44.3465538024902

> <r_i_glide_ecoul>
-0.37492048740387

> <r_i_glide_erotb>
0.520273190475791

> <r_i_glide_esite>
0

> <r_i_glide_emodel>
-58.6777382186049

> <r_i_glide_energy>
-44.7214742898941

> <r_i_glide_einternal>
7.11312961578369

> <i_i_glide_confnum>
37

> <i_i_glide_posenum>
263

> <r_i_glide_eff_state_penalty>
0

> <s_user_duplicate_titles>
CHEMBL267_lig3050

> <i_f3d_flags>
0

> <s_m_subgroup_title>
dock_pv

> <s_m_subgroupid>
dock_pv

> <b_m_subgroup_collapsed>
1

$$$$
CHEMBL267_lig872
                    3D
 Schrodinger Suite 2021-1.
 47 51  0  0  1  0            999 V2000
    4.3668    9.9275    5.5880 C   0  0  0  0  0  0
    5.4254    9.2171    6.1440 N   0  0  0  0  0  0
    3.1560    9.3275    6.0437 C   0  0  0  0  0  0
    3.5154    8.2372    6.9093 C   0  0  0  0  0  0
    4.8891    8.2365    6.9497 C   0  0  0  0  0  0
    4.4351   11.0005    4.7854 N   0  0  0  0  0  0
    1.9735    9.9399    5.5881 C   0  0  0  0  0  0
    2.0011   11.0147    4.7654 N   0  0  0  0  0  0
    6.8568    9.5192    6.0787 C   0  0  1  0  0  0
    2.6357    7.3095    7.6504 C   0  0  0  0  0  0
    3.2225   11.4819    4.4096 C   0  0  0  0  0  0
    8.9981    8.6387    5.5864 N   0  0  1  0  0  0
    8.7480    9.8354    4.7901 O   0  0  0  0  0  0
    7.7368    8.2951    6.2027 C   0  0  0  0  0  0
    0.1212    4.7967    9.7899 O   0  0  0  0  0  0
    1.5932    6.6686    6.9850 C   0  0  0  0  0  0
    2.8444    7.0951    9.0155 C   0  0  0  0  0  0
    7.3542   10.1288    4.7844 C   0  0  0  0  0  0
    0.7226    9.4869    5.9878 N   0  0  0  0  0  0
    0.9528    5.6041    9.0549 C   0  0  0  0  0  0
    1.9983    6.2432    9.7176 C   0  0  0  0  0  0
    0.7465    5.8279    7.6905 C   0  0  0  0  0  0
   -0.3696    3.6359    9.2429 C   0  0  0  0  0  0
   -1.7489    3.4451    9.2245 C   0  0  0  0  0  0
    0.4881    2.6256    8.7948 C   0  0  0  0  0  0
   -0.0429    1.4031    8.3880 C   0  0  0  0  0  0
   -2.2744    2.2369    8.7881 C   0  0  0  0  0  0
   -1.4202    1.2145    8.3879 C   0  0  0  0  0  0
    5.5414    7.5893    7.5176 H   0  0  0  0  0  0
    6.9978   10.2034    6.9166 H   0  0  0  0  0  0
    3.2325   12.3401    3.7526 H   0  0  0  0  0  0
    9.2929    7.9139    4.9397 H   0  0  0  0  0  0
    7.8652    7.9753    7.2376 H   0  0  0  0  0  0
    7.3060    7.4513    5.6591 H   0  0  0  0  0  0
    1.4408    6.8145    5.9249 H   0  0  0  0  0  0
    3.6521    7.5922    9.5331 H   0  0  0  0  0  0
    6.8651    9.7083    3.9059 H   0  0  0  0  0  0
    7.2115   11.2097    4.7667 H   0  0  0  0  0  0
    0.6672    8.6697    6.5779 H   0  0  0  0  0  0
   -0.1018    9.9289    5.6089 H   0  0  0  0  0  0
    2.1524    6.0728   10.7738 H   0  0  0  0  0  0
   -0.0686    5.3424    7.1774 H   0  0  0  0  0  0
   -2.4048    4.2325    9.5698 H   0  0  0  0  0  0
    1.5574    2.7701    8.8220 H   0  0  0  0  0  0
    0.5979    0.5914    8.0815 H   0  0  0  0  0  0
   -3.3442    2.0831    8.7882 H   0  0  0  0  0  0
   -1.8374    0.2721    8.0644 H   0  0  0  0  0  0
  1  2  1  0  0  0
  1  3  1  0  0  0
  1  6  2  0  0  0
  2  5  1  0  0  0
  2  9  1  0  0  0
  3  4  1  0  0  0
  3  7  2  0  0  0
  4 10  1  0  0  0
  4  5  2  0  0  0
  5 29  1  0  0  0
  6 11  1  0  0  0
  7 19  1  0  0  0
  7  8  1  0  0  0
  8 11  2  0  0  0
  9 14  1  0  0  0
  9 18  1  0  0  0
  9 30  1  0  0  0
 10 16  1  0  0  0
 10 17  2  0  0  0
 11 31  1  0  0  0
 12 14  1  0  0  0
 12 13  1  0  0  0
 12 32  1  0  0  0
 13 18  1  0  0  0
 14 33  1  0  0  0
 14 34  1  0  0  0
 15 20  1  0  0  0
 15 23  1  0  0  0
 16 22  2  0  0  0
 16 35  1  0  0  0
 17 21  1  0  0  0
 17 36  1  0  0  0
 18 37  1  0  0  0
 18 38  1  0  0  0
 19 39  1  0  0  0
 19 40  1  0  0  0
 20 21  2  0  0  0
 20 22  1  0  0  0
 21 41  1  0  0  0
 22 42  1  0  0  0
 23 24  2  0  0  0
 23 25  1  0  0  0
 24 27  1  0  0  0
 24 43  1  0  0  0
 25 26  2  0  0  0
 25 44  1  0  0  0
 26 28  1  0  0  0
 26 45  1  0  0  0
 27 28  2  0  0  0
 27 46  1  0  0  0
 28 47  1  0  0  0
M  END
> <s_m_entry_id>
32237

> <s_m_entry_name>
dock_pv.500

> <s_m_Source_Path>
/home/csk/Desktop/cluster/DUD-E-result/src

> <s_m_Source_File>
dock_pv.maegz

> <i_m_Source_File_Index>
500

> <chembl_id>
CHEMBL296534

> <chembl_pref_name>
None

> <i_lp_mmshare_version>
53161

> <r_lp_tautomer_probability>
1

> <s_lp_Force_Field>
OPLS_2005

> <r_lp_Energy>
37.370928

> <b_lp_Chiralities_Consistent>
1

> <s_lp_Variant>
CHEMBL267_lig872-2

> <s_i_glide_gridfile>
glide-grid_3el8

> <i_i_glide_lignum>
1003

> <i_i_glide_rotatable_bonds>
4

> <r_i_docking_score>
-7.00484140564997

> <r_i_glide_ligand_efficiency>
-0.250172907344642

> <r_i_glide_ligand_efficiency_sa>
-0.759672290661017

> <r_i_glide_ligand_efficiency_ln>
-1.61692306750465

> <r_i_glide_gscore>
-7.00484140564997

> <r_i_glide_lipo>
-3.43913547966848

> <r_i_glide_hbond>
-0.248391340997701

> <r_i_glide_metal>
0

> <r_i_glide_rewards>
-1.46113563083958

> <r_i_glide_evdw>
-37.8131523132324

> <r_i_glide_ecoul>
-3.339435338974

> <r_i_glide_erotb>
0.554379491916492

> <r_i_glide_esite>
-0.0189855295529836

> <r_i_glide_emodel>
-57.0413949529773

> <r_i_glide_energy>
-41.1525876522064

> <r_i_glide_einternal>
3.52849197387695

> <i_i_glide_confnum>
5

> <i_i_glide_posenum>
189

> <r_i_glide_eff_state_penalty>
0

> <s_user_duplicate_titles>
CHEMBL267_lig872

> <i_f3d_flags>
0

> <s_m_subgroup_title>
dock_pv

> <s_m_subgroupid>
dock_pv

> <b_m_subgroup_collapsed>
1

$$$$
CHEMBL267_lig1477
                    3D
 Schrodinger Suite 2021-1.
 33 35  0  0  1  0            999 V2000
    1.7508    9.2318    3.2143 C   0  0  0  0  0  0
    0.7234    8.3749    3.5879 C   0  0  0  0  0  0
    0.7267    7.7385    4.8331 C   0  0  0  0  0  0
    2.8207    9.4374    4.0721 C   0  0  0  0  0  0
    2.8482    8.7982    5.3095 C   0  0  0  0  0  0
    1.7758    7.9933    5.7538 C   0  0  0  0  0  0
    4.3251    8.1556    7.0586 C   0  0  0  0  0  0
    4.0146    8.9817    6.0246 O   0  0  0  0  0  0
    3.2033    7.4244    7.7432 C   0  0  0  0  0  0
    1.9203    7.4273    7.1464 C   0  0  0  0  0  0
    0.8387    6.9390    7.8958 C   0  0  0  0  0  0
    1.0306    6.3416    9.1391 C   0  0  0  0  0  0
    2.3025    6.2501    9.6731 C   0  0  0  0  0  0
    3.3819    6.7821    8.9870 C   0  0  0  0  0  0
    5.5050    8.1656    7.4091 O   0  0  0  0  0  0
    4.5979    6.6368    9.5878 O   0  0  0  0  0  0
   -0.0213    5.8160    9.8301 O   0  0  0  0  0  0
   -0.3846    6.7245    5.0614 C   0  0  0  0  0  0
    1.7294    9.8364    1.9880 O   0  0  0  0  0  0
   -0.3109    4.1913    9.6008 S   0  0  0  0  0  0
   -0.6019    4.2076    7.9879 O   0  0  0  0  0  0
    0.9269    3.4374    9.8243 O   0  0  0  0  0  0
   -1.5648    3.8371   10.2682 O   0  0  0  0  0  0
   -0.0793    8.1835    2.8885 H   0  0  0  0  0  0
    3.6429   10.0645    3.7598 H   0  0  0  0  0  0
   -0.1719    6.9986    7.5332 H   0  0  0  0  0  0
    2.4404    5.7617   10.6277 H   0  0  0  0  0  0
    4.5783    6.0240   10.3328 H   0  0  0  0  0  0
   -0.0294    5.8505    5.6063 H   0  0  0  0  0  0
   -0.7660    6.3338    4.1165 H   0  0  0  0  0  0
   -1.2183    7.1868    5.5877 H   0  0  0  0  0  0
    1.0565    9.4505    1.4162 H   0  0  0  0  0  0
   -1.3247    4.8582    7.7909 H   0  0  0  0  0  0
  1  2  2  0  0  0
  1 19  1  0  0  0
  1  4  1  0  0  0
  2  3  1  0  0  0
  2 24  1  0  0  0
  3  6  2  0  0  0
  3 18  1  0  0  0
  4  5  2  0  0  0
  4 25  1  0  0  0
  5  8  1  0  0  0
  5  6  1  0  0  0
  6 10  1  0  0  0
  7 15  2  0  0  0
  7  9  1  0  0  0
  7  8  1  0  0  0
  9 14  1  0  0  0
  9 10  2  0  0  0
 10 11  1  0  0  0
 11 12  2  0  0  0
 11 26  1  0  0  0
 12 13  1  0  0  0
 12 17  1  0  0  0
 13 14  2  0  0  0
 13 27  1  0  0  0
 14 16  1  0  0  0
 16 28  1  0  0  0
 17 20  1  0  0  0
 18 29  1  0  0  0
 18 30  1  0  0  0
 18 31  1  0  0  0
 19 32  1  0  0  0
 20 21  1  0  0  0
 20 22  2  0  0  0
 20 23  2  0  0  0
 21 33  1  0  0  0
M  END
> <s_m_entry_id>
32238

> <s_m_entry_name>
dock_pv.501

> <s_m_Source_Path>
/home/csk/Desktop/cluster/DUD-E-result/src

> <s_m_Source_File>
dock_pv.maegz

> <i_m_Source_File_Index>
501

> <chembl_id>
CHEMBL483525

> <chembl_pref_name>
None

> <i_lp_mmshare_version>
53161

> <r_lp_tautomer_probability>
1

> <s_lp_Force_Field>
OPLS_2005

> <r_lp_Energy>
29.46629

> <b_lp_Chiralities_Consistent>
1

> <s_lp_Variant>
CHEMBL267_lig1477-1

> <s_i_glide_gridfile>
glide-grid_3el8

> <i_i_glide_lignum>
1652

> <i_i_glide_rotatable_bonds>
5

> <r_i_docking_score>
-7.00279377852654

> <r_i_glide_ligand_efficiency>
-0.304469294718545

> <r_i_glide_ligand_efficiency_sa>
-0.865870172723789

> <r_i_glide_ligand_efficiency_ln>
-1.69333903347104

> <r_i_glide_gscore>
-7.00279377852654

> <r_i_glide_lipo>
-1.78319784284281

> <r_i_glide_hbond>
-0.294098722578442

> <r_i_glide_metal>
0

> <r_i_glide_rewards>
-1.41315369916663

> <r_i_glide_evdw>
-28.2563629150391

> <r_i_glide_ecoul>
-16.1121311187744

> <r_i_glide_erotb>
0.330479441622716

> <r_i_glide_esite>
-0.0131851419932631

> <r_i_glide_emodel>
-61.538538854135

> <r_i_glide_energy>
-44.3684940338135

> <r_i_glide_einternal>
2.12038636207581

> <i_i_glide_confnum>
6

> <i_i_glide_posenum>
66

> <r_i_glide_eff_state_penalty>
0

> <s_user_duplicate_titles>
CHEMBL267_lig1477

> <i_f3d_flags>
0

> <s_m_subgroup_title>
dock_pv

> <s_m_subgroupid>
dock_pv

> <b_m_subgroup_collapsed>
1

$$$$
CHEMBL267_lig2015
                    3D
 Schrodinger Suite 2021-1.
 40 43  0  0  1  0            999 V2000
    2.0165    6.2361    9.1792 C   0  0  0  0  0  0
    1.9121    4.8132    8.5854 C   0  0  0  0  0  0
    0.4749    4.2417    8.6248 C   0  0  0  0  0  0
   -0.0572    4.2392    9.9897 N   0  0  1  0  0  0
    0.1085    5.4835   10.7496 C   0  0  0  0  0  0
    1.5423    6.0466   10.6399 C   0  0  0  0  0  0
    7.2727    8.2407    6.6996 C   0  0  0  0  0  0
    6.9485    9.0739    5.6343 C   0  0  0  0  0  0
    5.6151    9.3171    5.2703 C   0  0  0  0  0  0
    6.2855    7.6573    7.4852 C   0  0  0  0  0  0
    4.9405    7.9234    7.1956 C   0  0  0  0  0  0
    4.6057    8.7348    6.0707 C   0  0  0  0  0  0
    3.2089    8.7820    6.0253 N   0  0  0  0  0  0
    3.7227    7.5669    7.8426 C   0  0  0  0  0  0
    2.6750    8.1182    7.1299 C   0  0  0  0  0  0
    1.2862    8.0848    7.5634 C   0  0  0  0  0  0
    1.0581    7.1486    8.5088 N   0  0  0  0  0  0
    3.4865    6.7836    9.1129 C   0  0  1  0  0  0
    0.3271    8.7541    7.1868 O   0  0  0  0  0  0
    3.8771    7.6030   10.2743 C   0  0  0  0  0  0
    4.1979    8.2368   11.1875 N   0  0  0  0  0  0
    5.2611   10.3346    3.9121 Cl  0  0  0  0  0  0
    8.2519    9.8369    4.7883 Cl  0  0  0  0  0  0
    2.4363    9.5010    5.0099 C   0  0  0  0  0  0
    2.5940    4.1313    9.0934 H   0  0  0  0  0  0
    2.2448    4.8335    7.5477 H   0  0  0  0  0  0
    0.4732    3.2156    8.2537 H   0  0  0  0  0  0
   -0.2004    4.8162    7.9874 H   0  0  0  0  0  0
   -1.0251    3.9410   10.0023 H   0  0  0  0  0  0
   -0.1374    5.2895   11.7953 H   0  0  0  0  0  0
   -0.6025    6.2229   10.3883 H   0  0  0  0  0  0
    1.5528    7.0035   11.1626 H   0  0  0  0  0  0
    2.2494    5.4372   11.1951 H   0  0  0  0  0  0
    8.3135    8.0693    6.9389 H   0  0  0  0  0  0
    6.5514    7.0375    8.3282 H   0  0  0  0  0  0
    0.0862    6.9016    8.6128 H   0  0  0  0  0  0
    4.1674    5.9327    9.1397 H   0  0  0  0  0  0
    1.3809    9.2408    5.0376 H   0  0  0  0  0  0
    2.5511   10.5757    5.1584 H   0  0  0  0  0  0
    2.7928    9.2219    4.0181 H   0  0  0  0  0  0
  1  2  1  0  0  0
  1  6  1  0  0  0
  1 17  1  0  0  0
  1 18  1  0  0  0
  2  3  1  0  0  0
  2 25  1  0  0  0
  2 26  1  0  0  0
  3  4  1  0  0  0
  3 27  1  0  0  0
  3 28  1  0  0  0
  4  5  1  0  0  0
  4 29  1  0  0  0
  5  6  1  0  0  0
  5 30  1  0  0  0
  5 31  1  0  0  0
  6 32  1  0  0  0
  6 33  1  0  0  0
  7  8  2  0  0  0
  7 10  1  0  0  0
  7 34  1  0  0  0
  8  9  1  0  0  0
  8 23  1  0  0  0
  9 12  2  0  0  0
  9 22  1  0  0  0
 10 11  2  0  0  0
 10 35  1  0  0  0
 11 14  1  0  0  0
 11 12  1  0  0  0
 12 13  1  0  0  0
 13 15  1  0  0  0
 13 24  1  0  0  0
 14 15  2  0  0  0
 14 18  1  0  0  0
 15 16  1  0  0  0
 16 17  1  0  0  0
 16 19  2  0  0  0
 17 36  1  0  0  0
 18 20  1  0  0  0
 18 37  1  0  0  0
 20 21  3  0  0  0
 24 38  1  0  0  0
 24 39  1  0  0  0
 24 40  1  0  0  0
M  END
> <s_m_entry_id>
32239

> <s_m_entry_name>
dock_pv.502

> <s_m_Source_Path>
/home/csk/Desktop/cluster/DUD-E-result/src

> <s_m_Source_File>
dock_pv.maegz

> <i_m_Source_File_Index>
502

> <chembl_id>
CHEMBL1945559

> <chembl_pref_name>
None

> <i_lp_mmshare_version>
53161

> <r_lp_tautomer_probability>
1

> <s_lp_Force_Field>
OPLS_2005

> <r_lp_Energy>
37.94584

> <b_lp_Chiralities_Consistent>
1

> <s_lp_Variant>
CHEMBL267_lig2015-1

> <s_i_glide_gridfile>
glide-grid_3el8

> <i_i_glide_lignum>
2297

> <i_i_glide_rotatable_bonds>
0

> <r_i_docking_score>
-7.0008669099724

> <r_i_glide_ligand_efficiency>
-0.291702787915517

> <r_i_glide_ligand_efficiency_sa>
-0.841416440165898

> <r_i_glide_ligand_efficiency_ln>
-1.67562870040604

> <r_i_glide_gscore>
-7.0008669099724

> <r_i_glide_lipo>
-3.26407318316945

> <r_i_glide_hbond>
-0.0782530740265035

> <r_i_glide_metal>
0

> <r_i_glide_rewards>
-1.54382994034358

> <r_i_glide_evdw>
-35.3669738769531

> <r_i_glide_ecoul>
-2.30908012390137

> <r_i_glide_erotb>
0

> <r_i_glide_esite>
0

> <r_i_glide_emodel>
-52.2956888892809

> <r_i_glide_energy>
-37.6760540008545

> <r_i_glide_einternal>
0

> <i_i_glide_confnum>
3

> <i_i_glide_posenum>
95

> <r_i_glide_eff_state_penalty>
0

> <s_user_duplicate_titles>
CHEMBL267_lig2015

> <i_f3d_flags>
0

> <s_m_subgroup_title>
dock_pv

> <s_m_subgroupid>
dock_pv

> <b_m_subgroup_collapsed>
1

$$$$
CHEMBL267_lig3572
                    3D
 Schrodinger Suite 2021-1.
 31 34  0  0  1  0            999 V2000
    1.9744   10.6445    3.7643 S   0  0  0  0  0  0
    0.8863    5.5086   11.3270 F   0  0  0  0  0  0
    3.7536    9.4295    5.2192 N   0  0  0  0  0  0
    1.7490    9.1888    6.1910 N   0  0  0  0  0  0
    7.7931    7.0826    7.5877 N   0  0  0  0  0  0
    3.9554    8.6916    6.3856 C   0  0  0  0  0  0
    2.6489    8.5467    6.9139 C   0  0  0  0  0  0
    2.4013    9.6999    5.1792 C   0  0  0  0  0  0
    5.3021    8.1838    6.8269 C   0  0  0  0  0  0
    2.1772    7.7723    8.1095 C   0  0  0  0  0  0
    4.4606    9.9147    4.1252 C   0  0  0  0  0  0
    3.6508   10.6060    3.2478 C   0  0  0  0  0  0
    6.5116    8.7985    6.4613 C   0  0  0  0  0  0
    5.3807    7.0356    7.6180 C   0  0  0  0  0  0
    2.8653    7.8224    9.3257 C   0  0  0  0  0  0
    1.0356    6.9653    7.9967 C   0  0  0  0  0  0
    2.4501    7.0375   10.3992 C   0  0  0  0  0  0
    0.6012    6.2075    9.0798 C   0  0  0  0  0  0
    1.3152    6.2374   10.2745 C   0  0  0  0  0  0
    7.7215    8.2116    6.8425 C   0  0  0  0  0  0
    6.6234    6.5159    7.9769 C   0  0  0  0  0  0
    5.5179    9.7272    4.0170 H   0  0  0  0  0  0
    3.9382   11.0840    2.3195 H   0  0  0  0  0  0
    6.5293    9.7140    5.8930 H   0  0  0  0  0  0
    4.4971    6.4885    7.9057 H   0  0  0  0  0  0
    3.7424    8.4448    9.4296 H   0  0  0  0  0  0
    0.4878    6.9140    7.0657 H   0  0  0  0  0  0
    2.9967    7.0537   11.3309 H   0  0  0  0  0  0
   -0.2840    5.5926    8.9945 H   0  0  0  0  0  0
    8.6666    8.6376    6.5441 H   0  0  0  0  0  0
    6.6916    5.6094    8.5615 H   0  0  0  0  0  0
  1  8  1  0  0  0
  1 12  1  0  0  0
  2 19  1  0  0  0
  3  6  1  0  0  0
  3  8  1  0  0  0
  3 11  1  0  0  0
  4  7  1  0  0  0
  4  8  2  0  0  0
  5 20  2  0  0  0
  5 21  1  0  0  0
  6  7  2  0  0  0
  6  9  1  0  0  0
  7 10  1  0  0  0
  9 13  2  0  0  0
  9 14  1  0  0  0
 10 15  2  0  0  0
 10 16  1  0  0  0
 11 12  2  0  0  0
 11 22  1  0  0  0
 12 23  1  0  0  0
 13 20  1  0  0  0
 13 24  1  0  0  0
 14 21  2  0  0  0
 14 25  1  0  0  0
 15 17  1  0  0  0
 15 26  1  0  0  0
 16 18  2  0  0  0
 16 27  1  0  0  0
 17 19  2  0  0  0
 17 28  1  0  0  0
 18 19  1  0  0  0
 18 29  1  0  0  0
 20 30  1  0  0  0
 21 31  1  0  0  0
M  END
> <s_m_entry_id>
32240

> <s_m_entry_name>
dock_pv.503

> <s_m_Source_Path>
/home/csk/Desktop/cluster/DUD-E-result/src

> <s_m_Source_File>
dock_pv.maegz

> <i_m_Source_File_Index>
503

> <chembl_id>
CHEMBL2000508

> <chembl_pref_name>
None

> <i_lp_mmshare_version>
53161

> <r_lp_tautomer_probability>
1

> <s_lp_Force_Field>
OPLS_2005

> <r_lp_Energy>
16.400891

> <b_lp_Chiralities_Consistent>
1

> <s_lp_Variant>
CHEMBL267_lig3572-1

> <s_i_glide_gridfile>
glide-grid_3el8

> <i_i_glide_lignum>
4303

> <i_i_glide_rotatable_bonds>
2

> <r_i_docking_score>
-7.00067411067321

> <r_i_glide_ligand_efficiency>
-0.333365433841582

> <r_i_glide_ligand_efficiency_sa>
-0.919729954061941

> <r_i_glide_ligand_efficiency_ln>
-1.73090252766993

> <r_i_glide_gscore>
-7.00067411067321

> <r_i_glide_lipo>
-2.52021283098561

> <r_i_glide_hbond>
0

> <r_i_glide_metal>
0

> <r_i_glide_rewards>
-3.07240403061654

> <r_i_glide_evdw>
-31.2783145904541

> <r_i_glide_ecoul>
-1.75879311561584

> <r_i_glide_erotb>
0.41967744779402

> <r_i_glide_esite>
0

> <r_i_glide_emodel>
-46.7926217402945

> <r_i_glide_energy>
-33.0371077060699

> <r_i_glide_einternal>
0.966417610645294

> <i_i_glide_confnum>
5

> <i_i_glide_posenum>
350

> <r_i_glide_eff_state_penalty>
0

> <s_user_duplicate_titles>
CHEMBL267_lig3572

> <i_f3d_flags>
0

> <s_m_subgroup_title>
dock_pv

> <s_m_subgroupid>
dock_pv

> <b_m_subgroup_collapsed>
1

$$$$
CHEMBL267_lig2074
                    3D
 Schrodinger Suite 2021-1.
 48 52  0  0  1  0            999 V2000
    7.7789    7.1041    7.3460 N   0  0  0  0  0  0
    8.1790    8.0698    6.4757 C   0  0  0  0  0  0
    7.3989    8.9630    5.8047 N   0  0  0  0  0  0
    6.4456    7.0154    7.5873 C   0  0  0  0  0  0
    5.5377    7.8978    6.9734 C   0  0  0  0  0  0
    6.0949    8.8389    6.0781 C   0  0  0  0  0  0
    5.0295    9.5690    5.5695 N   0  0  0  0  0  0
    3.8705    9.1468    6.1143 N   0  0  0  0  0  0
    4.1303    8.1564    6.9299 C   0  0  0  0  0  0
    6.0137    5.9610    8.3877 N   0  0  0  0  0  0
    5.0414   10.7388    4.6862 C   0  0  0  0  0  0
    4.2198   10.5993    3.3672 C   0  0  0  0  0  0
    3.0425    7.4590    7.6558 C   0  0  0  0  0  0
    3.0913    7.3074    9.0421 C   0  0  0  0  0  0
    0.9434    6.2516    7.5620 N   0  0  0  0  0  0
    1.9541    6.9248    6.9652 C   0  0  0  0  0  0
    0.9728    6.1087    8.9148 C   0  0  0  0  0  0
    2.0390    6.6351    9.7084 C   0  0  0  0  0  0
    1.9961    6.4843   11.1139 C   0  0  0  0  0  0
    0.9152    5.8374   11.7099 C   0  0  0  0  0  0
   -0.1095    5.3056   10.9376 C   0  0  0  0  0  0
   -0.0937    5.4307    9.5522 C   0  0  0  0  0  0
    2.6962   10.3533    3.5270 C   0  0  0  0  0  0
    1.9456   10.3280    2.1800 C   0  0  0  0  0  0
    2.1742   11.5605    1.4289 N   0  0  2  0  0  0
    3.5939   11.8047    1.1619 C   0  0  0  0  0  0
    4.4062   11.8532    2.4746 C   0  0  0  0  0  0
    9.2421    8.1345    6.2896 H   0  0  0  0  0  0
    5.0239    5.8423    8.5552 H   0  0  0  0  0  0
    6.6922    5.3155    8.7650 H   0  0  0  0  0  0
    6.0823   10.9559    4.4449 H   0  0  0  0  0  0
    4.6822   11.5900    5.2662 H   0  0  0  0  0  0
    4.6053    9.7553    2.7914 H   0  0  0  0  0  0
    3.9124    7.7132    9.6153 H   0  0  0  0  0  0
    1.8874    7.0144    5.8901 H   0  0  0  0  0  0
    2.7984    6.8780   11.7202 H   0  0  0  0  0  0
    0.8796    5.7363   12.7858 H   0  0  0  0  0  0
   -0.9430    4.8081   11.4145 H   0  0  0  0  0  0
   -0.9081    5.0344    8.9630 H   0  0  0  0  0  0
    2.2461   11.1122    4.1710 H   0  0  0  0  0  0
    2.5034    9.4132    4.0422 H   0  0  0  0  0  0
    0.8744   10.2111    2.3483 H   0  0  0  0  0  0
    2.2632    9.4745    1.5812 H   0  0  0  0  0  0
    1.8345   12.3310    1.9876 H   0  0  0  0  0  0
    3.6842   12.7551    0.6316 H   0  0  0  0  0  0
    3.9814   11.0364    0.4915 H   0  0  0  0  0  0
    5.4645   11.9854    2.2448 H   0  0  0  0  0  0
    4.1434   12.7634    3.0179 H   0  0  0  0  0  0
  1  2  2  0  0  0
  1  4  1  0  0  0
  2  3  1  0  0  0
  2 28  1  0  0  0
  3  6  2  0  0  0
  4  5  2  0  0  0
  4 10  1  0  0  0
  5  9  1  0  0  0
  5  6  1  0  0  0
  6  7  1  0  0  0
  7  8  1  0  0  0
  7 11  1  0  0  0
  8  9  2  0  0  0
  9 13  1  0  0  0
 10 29  1  0  0  0
 10 30  1  0  0  0
 11 12  1  0  0  0
 11 31  1  0  0  0
 11 32  1  0  0  0
 12 23  1  0  0  0
 12 27  1  0  0  0
 12 33  1  0  0  0
 13 14  2  0  0  0
 13 16  1  0  0  0
 14 18  1  0  0  0
 14 34  1  0  0  0
 15 17  1  0  0  0
 15 16  2  0  0  0
 16 35  1  0  0  0
 17 18  1  0  0  0
 17 22  2  0  0  0
 18 19  2  0  0  0
 19 20  1  0  0  0
 19 36  1  0  0  0
 20 21  2  0  0  0
 20 37  1  0  0  0
 21 22  1  0  0  0
 21 38  1  0  0  0
 22 39  1  0  0  0
 23 24  1  0  0  0
 23 40  1  0  0  0
 23 41  1  0  0  0
 24 25  1  0  0  0
 24 42  1  0  0  0
 24 43  1  0  0  0
 25 26  1  0  0  0
 25 44  1  0  0  0
 26 27  1  0  0  0
 26 45  1  0  0  0
 26 46  1  0  0  0
 27 47  1  0  0  0
 27 48  1  0  0  0
M  END
> <s_m_entry_id>
32241

> <s_m_entry_name>
dock_pv.504

> <s_m_Source_Path>
/home/csk/Desktop/cluster/DUD-E-result/src

> <s_m_Source_File>
dock_pv.maegz

> <i_m_Source_File_Index>
504

> <chembl_id>
CHEMBL2069960

> <chembl_pref_name>
None

> <i_lp_mmshare_version>
53161

> <r_lp_tautomer_probability>
1

> <s_lp_Force_Field>
OPLS_2005

> <r_lp_Energy>
25.774651

> <b_lp_Chiralities_Consistent>
1

> <s_lp_Variant>
CHEMBL267_lig2074-1

> <s_i_glide_gridfile>
glide-grid_3el8

> <i_i_glide_lignum>
2358

> <i_i_glide_rotatable_bonds>
3

> <r_i_docking_score>
-7.00026562121344

> <r_i_glide_ligand_efficiency>
-0.259269097081979

> <r_i_glide_ligand_efficiency_sa>
-0.777807290391429

> <r_i_glide_ligand_efficiency_ln>
-1.62954642822007

> <r_i_glide_gscore>
-7.00026562121344

> <r_i_glide_lipo>
-2.38443531604963

> <r_i_glide_hbond>
0

> <r_i_glide_metal>
0

> <r_i_glide_rewards>
-2.67786413022757

> <r_i_glide_evdw>
-38.8647651672363

> <r_i_glide_ecoul>
-2.93219399452209

> <r_i_glide_erotb>
0.445101182603889

> <r_i_glide_esite>
0

> <r_i_glide_emodel>
-57.1999750972075

> <r_i_glide_energy>
-41.7969591617584

> <r_i_glide_einternal>
4.08257055282593

> <i_i_glide_confnum>
24

> <i_i_glide_posenum>
200

> <r_i_glide_eff_state_penalty>
0

> <s_user_duplicate_titles>
CHEMBL267_lig2074

> <i_f3d_flags>
0

> <s_m_subgroup_title>
dock_pv

> <s_m_subgroupid>
dock_pv

> <b_m_subgroup_collapsed>
1

$$$$
CHEMBL267_lig3342
                    3D
 Schrodinger Suite 2021-1.
 34 37  0  0  1  0            999 V2000
   -0.1419    3.6384    8.9369 C   0  0  0  0  0  0
   -1.5186    3.7059    9.1881 C   0  0  0  0  0  0
   -2.3653    2.6091    9.0286 C   0  0  0  0  0  0
    0.4358    2.4220    8.5553 C   0  0  0  0  0  0
   -0.3834    1.2943    8.3880 C   0  0  0  0  0  0
   -1.7720    1.4090    8.6249 C   0  0  0  0  0  0
   -2.2807    0.1482    8.3880 N   0  0  0  0  0  0
   -1.3327   -0.7282    8.0150 N   0  0  0  0  0  0
   -0.2025   -0.0737    8.0188 C   0  0  0  0  0  0
    0.6730    4.7945    9.0399 N   0  0  0  0  0  0
    2.0140    4.8888    9.3305 C   0  0  0  0  0  0
    2.3435    6.2319    9.2147 C   0  0  0  0  0  0
    1.2503    6.9083    8.9095 N   0  0  0  0  0  0
    0.1981    6.0223    8.7881 N   0  0  0  0  0  0
    3.6807    6.9212    9.4260 C   0  0  0  0  0  0
    4.3558    7.4818    8.1691 C   0  0  0  0  0  0
    3.6438    8.2370    7.2276 C   0  0  0  0  0  0
    4.2953    8.7751    6.1201 C   0  0  0  0  0  0
    5.6651    8.5791    5.9616 C   0  0  0  0  0  0
    6.3859    7.8369    6.8933 C   0  0  0  0  0  0
    5.7280    7.2802    7.9877 C   0  0  0  0  0  0
   -1.9658    4.6371    9.4964 H   0  0  0  0  0  0
   -3.4284    2.6902    9.2047 H   0  0  0  0  0  0
    1.4945    2.3511    8.3865 H   0  0  0  0  0  0
   -3.2536   -0.1209    8.4003 H   0  0  0  0  0  0
    0.7201   -0.5708    7.7663 H   0  0  0  0  0  0
    2.6019    4.0206    9.5857 H   0  0  0  0  0  0
    4.3615    6.2379    9.9359 H   0  0  0  0  0  0
    3.5447    7.7573   10.1134 H   0  0  0  0  0  0
    2.5885    8.4229    7.3480 H   0  0  0  0  0  0
    3.7428    9.3523    5.3929 H   0  0  0  0  0  0
    6.1713    9.0020    5.1056 H   0  0  0  0  0  0
    7.4472    7.6840    6.7595 H   0  0  0  0  0  0
    6.2877    6.6939    8.7007 H   0  0  0  0  0  0
  1 10  1  0  0  0
  1  2  2  0  0  0
  1  4  1  0  0  0
  2  3  1  0  0  0
  2 22  1  0  0  0
  3  6  2  0  0  0
  3 23  1  0  0  0
  4  5  2  0  0  0
  4 24  1  0  0  0
  5  6  1  0  0  0
  5  9  1  0  0  0
  6  7  1  0  0  0
  7  8  1  0  0  0
  7 25  1  0  0  0
  8  9  2  0  0  0
  9 26  1  0  0  0
 10 11  1  0  0  0
 10 14  1  0  0  0
 11 12  2  0  0  0
 11 27  1  0  0  0
 12 13  1  0  0  0
 12 15  1  0  0  0
 13 14  2  0  0  0
 15 16  1  0  0  0
 15 28  1  0  0  0
 15 29  1  0  0  0
 16 17  2  0  0  0
 16 21  1  0  0  0
 17 18  1  0  0  0
 17 30  1  0  0  0
 18 19  2  0  0  0
 18 31  1  0  0  0
 19 20  1  0  0  0
 19 32  1  0  0  0
 20 21  2  0  0  0
 20 33  1  0  0  0
 21 34  1  0  0  0
M  END
> <s_m_entry_id>
32242

> <s_m_entry_name>
dock_pv.505

> <s_m_Source_Path>
/home/csk/Desktop/cluster/DUD-E-result/src

> <s_m_Source_File>
dock_pv.maegz

> <i_m_Source_File_Index>
505

> <chembl_id>
CHEMBL1682341

> <chembl_pref_name>
None

> <i_lp_mmshare_version>
53161

> <r_lp_tautomer_probability>
1

> <s_lp_Force_Field>
OPLS_2005

> <r_lp_Energy>
12.540796

> <b_lp_Chiralities_Consistent>
1

> <s_lp_Variant>
CHEMBL267_lig3342-1

> <s_i_glide_gridfile>
glide-grid_3el8

> <i_i_glide_lignum>
3953

> <i_i_glide_rotatable_bonds>
3

> <r_i_docking_score>
-6.9998690959649

> <r_i_glide_ligand_efficiency>
-0.333327099807853

> <r_i_glide_ligand_efficiency_sa>
-0.919624193369615

> <r_i_glide_ligand_efficiency_ln>
-1.73070348940998

> <r_i_glide_gscore>
-6.9998690959649

> <r_i_glide_lipo>
-3.66550985631729

> <r_i_glide_hbond>
0

> <r_i_glide_metal>
0

> <r_i_glide_rewards>
-1.897339755631

> <r_i_glide_evdw>
-33.8248405456543

> <r_i_glide_ecoul>
-2.43364381790161

> <r_i_glide_erotb>
0.711346017659921

> <r_i_glide_esite>
-0.0920769017085769

> <r_i_glide_emodel>
-51.9449166508171

> <r_i_glide_energy>
-36.2584843635559

> <r_i_glide_einternal>
1.03137898445129

> <i_i_glide_confnum>
13

> <i_i_glide_posenum>
337

> <r_i_glide_eff_state_penalty>
0

> <s_user_duplicate_titles>
CHEMBL267_lig3342

> <i_f3d_flags>
0

> <s_m_subgroup_title>
dock_pv

> <s_m_subgroupid>
dock_pv

> <b_m_subgroup_collapsed>
1

$$$$
CHEMBL267_lig3608
                    3D
 Schrodinger Suite 2021-1.
 51 54  0  0  1  0            999 V2000
    2.1999    9.2169    2.5644 C   0  0  0  0  0  0
    1.5800    8.7959    3.7704 O   0  0  0  0  0  0
    0.5416    7.8495    3.5578 C   0  0  0  0  0  0
   -0.1435    7.4824    4.8904 C   0  0  0  0  0  0
    0.7510    6.9861    5.9574 N   0  0  0  0  0  0
    1.7377    6.0055    5.5276 C   0  0  0  0  0  0
    0.6543    7.4361    7.2338 C   0  0  0  0  0  0
   -0.1598    8.2840    7.5875 O   0  0  0  0  0  0
    1.5456    6.8944    8.2316 C   0  0  0  0  0  0
    2.9422    7.0080    8.4096 C   0  0  0  0  0  0
    3.2710    6.3671    9.5213 N   0  0  0  0  0  0
    2.1535    5.7900   10.0792 N   0  0  0  0  0  0
    1.1322    6.0999    9.2864 N   0  0  0  0  0  0
   -0.2020    5.5939    9.6290 C   0  0  0  0  0  0
   -0.5663    4.1719    9.1880 C   0  0  0  0  0  0
   -1.9222    3.8347    9.1881 C   0  0  0  0  0  0
   -2.3509    2.5795    8.7896 C   0  0  0  0  0  0
   -1.4168    1.6374    8.3880 C   0  0  0  0  0  0
   -0.0650    1.9473    8.3881 C   0  0  0  0  0  0
    0.3732    3.2125    8.7880 C   0  0  0  0  0  0
    4.0143    7.6769    7.5821 C   0  0  0  0  0  0
    3.7002    8.6369    6.6108 C   0  0  0  0  0  0
    4.6680    9.1941    5.7772 C   0  0  0  0  0  0
    5.9994    8.7871    5.9261 C   0  0  0  0  0  0
    7.0779    9.1895    5.1890 N   0  0  0  0  0  0
    8.0914    8.4949    5.7332 N   0  0  0  0  0  0
    7.7509    7.6803    6.7843 C   0  0  0  0  0  0
    6.3496    7.8377    6.9319 C   0  0  0  0  0  0
    5.3565    7.2987    7.7631 C   0  0  0  0  0  0
    3.0295    9.8852    2.7941 H   0  0  0  0  0  0
    1.4955    9.7617    1.9337 H   0  0  0  0  0  0
    2.5968    8.3740    1.9953 H   0  0  0  0  0  0
   -0.2016    8.2513    2.8687 H   0  0  0  0  0  0
    0.9497    6.9551    3.0845 H   0  0  0  0  0  0
   -0.6018    8.3991    5.2602 H   0  0  0  0  0  0
   -0.9498    6.7675    4.7244 H   0  0  0  0  0  0
    2.0574    5.3229    6.3137 H   0  0  0  0  0  0
    1.3492    5.4370    4.6885 H   0  0  0  0  0  0
    2.6013    6.5576    5.1881 H   0  0  0  0  0  0
   -0.3355    5.6719   10.7092 H   0  0  0  0  0  0
   -0.9353    6.2688    9.1880 H   0  0  0  0  0  0
   -2.6634    4.5638    9.4718 H   0  0  0  0  0  0
   -3.4030    2.3366    8.7880 H   0  0  0  0  0  0
   -1.7470    0.6578    8.0726 H   0  0  0  0  0  0
    0.5995    1.1700    8.0680 H   0  0  0  0  0  0
    1.4303    3.4355    8.7791 H   0  0  0  0  0  0
    2.6817    8.9633    6.4712 H   0  0  0  0  0  0
    4.3877    9.9148    5.0229 H   0  0  0  0  0  0
    9.0317    8.5728    5.3698 H   0  0  0  0  0  0
    8.5027    7.0854    7.2797 H   0  0  0  0  0  0
    5.6273    6.5626    8.5057 H   0  0  0  0  0  0
  1  2  1  0  0  0
  1 30  1  0  0  0
  1 31  1  0  0  0
  1 32  1  0  0  0
  2  3  1  0  0  0
  3  4  1  0  0  0
  3 33  1  0  0  0
  3 34  1  0  0  0
  4  5  1  0  0  0
  4 35  1  0  0  0
  4 36  1  0  0  0
  5  6  1  0  0  0
  5  7  1  0  0  0
  6 37  1  0  0  0
  6 38  1  0  0  0
  6 39  1  0  0  0
  7  8  2  0  0  0
  7  9  1  0  0  0
  9 10  2  0  0  0
  9 13  1  0  0  0
 10 11  1  0  0  0
 10 21  1  0  0  0
 11 12  2  0  0  0
 12 13  1  0  0  0
 13 14  1  0  0  0
 14 15  1  0  0  0
 14 40  1  0  0  0
 14 41  1  0  0  0
 15 16  2  0  0  0
 15 20  1  0  0  0
 16 17  1  0  0  0
 16 42  1  0  0  0
 17 18  2  0  0  0
 17 43  1  0  0  0
 18 19  1  0  0  0
 18 44  1  0  0  0
 19 20  2  0  0  0
 19 45  1  0  0  0
 20 46  1  0  0  0
 21 22  1  0  0  0
 21 29  2  0  0  0
 22 23  2  0  0  0
 22 47  1  0  0  0
 23 24  1  0  0  0
 23 48  1  0  0  0
 24 25  2  0  0  0
 24 28  1  0  0  0
 25 26  1  0  0  0
 26 49  1  0  0  0
 26 27  1  0  0  0
 27 28  2  0  0  0
 27 50  1  0  0  0
 28 29  1  0  0  0
 29 51  1  0  0  0
M  END
> <s_m_entry_id>
32243

> <s_m_entry_name>
dock_pv.506

> <s_m_Source_Path>
/home/csk/Desktop/cluster/DUD-E-result/src

> <s_m_Source_File>
dock_pv.maegz

> <i_m_Source_File_Index>
506

> <chembl_id>
CHEMBL1986970

> <chembl_pref_name>
None

> <i_lp_mmshare_version>
53161

> <r_lp_tautomer_probability>
0.0196078431372549

> <s_lp_Force_Field>
OPLS_2005

> <r_lp_Energy>
40.035317

> <b_lp_Chiralities_Consistent>
1

> <s_lp_Variant>
CHEMBL267_lig3608-2

> <s_i_glide_gridfile>
glide-grid_3el8

> <i_i_glide_lignum>
4354

> <i_i_glide_rotatable_bonds>
8

> <r_i_docking_score>
-6.99857424442129

> <r_i_glide_ligand_efficiency>
-0.241330146359355

> <r_i_glide_ligand_efficiency_sa>
-0.741442668372855

> <r_i_glide_ligand_efficiency_ln>
-1.60249603344204

> <r_i_glide_gscore>
-6.99857424442129

> <r_i_glide_lipo>
-3.56158349486607

> <r_i_glide_hbond>
-0.16

> <r_i_glide_metal>
0

> <r_i_glide_rewards>
-1.09250759560526

> <r_i_glide_evdw>
-43.0014953613281

> <r_i_glide_ecoul>
-6.20023584365845

> <r_i_glide_erotb>
0.895626990665213

> <r_i_glide_esite>
0

> <r_i_glide_emodel>
-67.1670523417261

> <r_i_glide_energy>
-49.2017312049866

> <r_i_glide_einternal>
3.77700042724609

> <i_i_glide_confnum>
23

> <i_i_glide_posenum>
139

> <r_i_glide_eff_state_penalty>
0

> <s_user_duplicate_titles>
CHEMBL267_lig3608

> <i_f3d_flags>
0

> <s_m_subgroup_title>
dock_pv

> <s_m_subgroupid>
dock_pv

> <b_m_subgroup_collapsed>
1

$$$$
CHEMBL267_lig704
                    3D
 Schrodinger Suite 2021-1.
 46 49  0  0  1  0            999 V2000
    5.8775    9.3351    4.9368 C   0  0  0  0  0  0
    2.6339    7.8038    7.6372 C   0  0  0  0  0  0
    5.4805   10.2857    3.9790 C   0  0  0  0  0  0
    1.6439    6.9432    7.1418 C   0  0  0  0  0  0
    2.8430    7.5447    8.9798 N   0  0  0  0  0  0
    7.2320    9.4660    5.1804 N   0  0  0  0  0  0
    6.6512   11.0740    3.7072 C   0  0  0  0  0  0
    1.2079    6.1642    8.2836 C   0  0  0  0  0  0
    7.7366   10.5256    4.4477 C   0  0  0  0  0  0
    1.8932    6.6549    9.4313 C   0  0  0  0  0  0
    3.5116    9.0806    6.7886 S   0  0  0  0  0  0
    4.9336    8.0822    5.7466 S   0  0  0  0  0  0
    4.1477   10.5159    3.4788 C   0  0  0  0  0  0
    1.2076    6.9156    5.7584 C   0  0  0  0  0  0
    1.7980    7.4749    4.8432 O   0  0  0  0  0  0
    3.7528   11.6399    3.1855 O   0  0  0  0  0  0
    0.0979    6.2393    5.5106 N   0  0  0  0  0  0
    3.4012    9.4371    3.2683 N   0  0  0  0  0  0
    8.0013    8.6366    6.1070 C   0  0  0  0  0  0
    3.7939    8.2234    9.8499 C   0  0  0  0  0  0
    6.8972   12.1869    2.8823 C   0  0  0  0  0  0
    0.2872    5.1168    8.4767 C   0  0  0  0  0  0
    1.5811    6.2357   10.7322 C   0  0  0  0  0  0
    9.0377   11.0370    4.3474 C   0  0  0  0  0  0
   -0.0666    4.7393    9.7682 C   0  0  0  0  0  0
    8.1863   12.7045    2.7962 C   0  0  0  0  0  0
    9.2329   12.1334    3.5091 C   0  0  0  0  0  0
    0.5366    5.3285   10.8699 C   0  0  0  0  0  0
   -0.2366    6.1962    4.5596 H   0  0  0  0  0  0
   -0.4990    5.9280    6.2670 H   0  0  0  0  0  0
    2.4902    9.5432    2.8495 H   0  0  0  0  0  0
    3.6352    8.5614    3.7131 H   0  0  0  0  0  0
    7.7089    7.5904    5.9995 H   0  0  0  0  0  0
    9.0690    8.7011    5.8935 H   0  0  0  0  0  0
    7.8007    8.9600    7.1292 H   0  0  0  0  0  0
    4.1875    7.5171   10.5813 H   0  0  0  0  0  0
    4.6385    8.5945    9.2708 H   0  0  0  0  0  0
    3.2890    9.0374   10.3677 H   0  0  0  0  0  0
    6.0974   12.6309    2.3062 H   0  0  0  0  0  0
   -0.2020    4.6364    7.6477 H   0  0  0  0  0  0
    2.0855    6.6307   11.6019 H   0  0  0  0  0  0
    9.8698   10.6054    4.8826 H   0  0  0  0  0  0
   -0.8370    3.9956    9.9173 H   0  0  0  0  0  0
    8.3772   13.5551    2.1572 H   0  0  0  0  0  0
   10.2236   12.5536    3.4096 H   0  0  0  0  0  0
    0.2077    5.0389   11.8547 H   0  0  0  0  0  0
  1  3  2  0  0  0
  1  6  1  0  0  0
  1 12  1  0  0  0
  2 11  1  0  0  0
  2  4  2  0  0  0
  2  5  1  0  0  0
  3  7  1  0  0  0
  3 13  1  0  0  0
  4  8  1  0  0  0
  4 14  1  0  0  0
  5 10  1  0  0  0
  5 20  1  0  0  0
  6  9  1  0  0  0
  6 19  1  0  0  0
  7 21  2  0  0  0
  7  9  1  0  0  0
  8 22  1  0  0  0
  8 10  2  0  0  0
  9 24  2  0  0  0
 10 23  1  0  0  0
 11 12  1  0  0  0
 13 16  2  0  0  0
 13 18  1  0  0  0
 14 15  2  0  0  0
 14 17  1  0  0  0
 17 29  1  0  0  0
 17 30  1  0  0  0
 18 31  1  0  0  0
 18 32  1  0  0  0
 19 33  1  0  0  0
 19 34  1  0  0  0
 19 35  1  0  0  0
 20 36  1  0  0  0
 20 37  1  0  0  0
 20 38  1  0  0  0
 21 26  1  0  0  0
 21 39  1  0  0  0
 22 25  2  0  0  0
 22 40  1  0  0  0
 23 28  2  0  0  0
 23 41  1  0  0  0
 24 27  1  0  0  0
 24 42  1  0  0  0
 25 28  1  0  0  0
 25 43  1  0  0  0
 26 27  2  0  0  0
 26 44  1  0  0  0
 27 45  1  0  0  0
 28 46  1  0  0  0
M  END
> <s_m_entry_id>
32244

> <s_m_entry_name>
dock_pv.507

> <s_m_Source_Path>
/home/csk/Desktop/cluster/DUD-E-result/src

> <s_m_Source_File>
dock_pv.maegz

> <i_m_Source_File_Index>
507

> <chembl_id>
CHEMBL157807

> <chembl_pref_name>
None

> <i_lp_mmshare_version>
53161

> <r_lp_tautomer_probability>
1

> <s_lp_Force_Field>
OPLS_2005

> <r_lp_Energy>
0.808829

> <b_lp_Chiralities_Consistent>
1

> <s_lp_Variant>
CHEMBL267_lig704-1

> <s_i_glide_gridfile>
glide-grid_3el8

> <i_i_glide_lignum>
823

> <i_i_glide_rotatable_bonds>
5

> <r_i_docking_score>
-6.99841272679009

> <r_i_glide_ligand_efficiency>
-0.249943311671075

> <r_i_glide_ligand_efficiency_sa>
-0.758975102971447

> <r_i_glide_ligand_efficiency_ln>
-1.61543913966958

> <r_i_glide_gscore>
-6.99841272679009

> <r_i_glide_lipo>
-2.94505525746373

> <r_i_glide_hbond>
-0.32

> <r_i_glide_metal>
0

> <r_i_glide_rewards>
-1.75006424698196

> <r_i_glide_evdw>
-39.9195365905762

> <r_i_glide_ecoul>
-2.25352311134338

> <r_i_glide_erotb>
0.350712073885921

> <r_i_glide_esite>
0

> <r_i_glide_emodel>
-49.8792572004346

> <r_i_glide_energy>
-42.1730597019196

> <r_i_glide_einternal>
11.3832054138184

> <i_i_glide_confnum>
1

> <i_i_glide_posenum>
258

> <r_i_glide_eff_state_penalty>
0

> <s_user_duplicate_titles>
CHEMBL267_lig704,265534

> <i_f3d_flags>
0

> <s_m_subgroup_title>
dock_pv

> <s_m_subgroupid>
dock_pv

> <b_m_subgroup_collapsed>
1

$$$$
CHEMBL267_lig3525
                    3D
 Schrodinger Suite 2021-1.
 44 46  0  0  1  0            999 V2000
    1.7123    6.6370   12.6074 Br  0  0  0  0  0  0
    7.2572    8.9173    5.9027 S   0  0  0  0  0  0
    7.9228   10.0089    5.1877 O   0  0  0  0  0  0
    7.3853    8.7480    7.3546 O   0  0  0  0  0  0
   -1.6699    0.4370    7.9774 O   0  0  0  0  0  0
    1.3665    6.2942    8.4493 N   0  0  0  0  0  0
    2.3544    7.4785    6.7172 N   0  0  0  0  0  0
    0.1702    5.2310   10.1773 N   0  0  0  0  0  0
    3.2164    7.7621    8.9231 N   0  0  0  0  0  0
    7.7980    7.4371    5.1881 N   0  0  0  0  0  0
   -1.0018   -2.5625    9.5867 N   0  0  0  0  0  0
    1.2014    6.0871    9.7823 C   0  0  0  0  0  0
    5.5202    8.9971    5.5187 C   0  0  0  0  0  0
    2.3443    7.1503    8.0757 C   0  0  0  0  0  0
    3.2618    8.2561    5.9874 C   0  0  0  0  0  0
    2.0252    6.7096   10.7318 C   0  0  0  0  0  0
    4.6292    8.2368    6.2724 C   0  0  0  0  0  0
   -0.2481    4.0612    9.5284 C   0  0  0  0  0  0
    3.0546    7.5129   10.2443 C   0  0  0  0  0  0
    5.0450    9.7932    4.4719 C   0  0  0  0  0  0
    2.7923    9.0381    4.9288 C   0  0  0  0  0  0
    3.6813    9.8102    4.1772 C   0  0  0  0  0  0
   -1.6062    3.8362    9.3249 C   0  0  0  0  0  0
    0.6755    3.0927    9.1389 C   0  0  0  0  0  0
   -1.1335    1.6374    8.4081 C   0  0  0  0  0  0
   -2.0429    2.6332    8.7752 C   0  0  0  0  0  0
    0.2331    1.8901    8.5916 C   0  0  0  0  0  0
   -0.8558   -0.7098    7.7141 C   0  0  0  0  0  0
   -0.9374   -1.7415    8.7682 C   0  0  0  0  0  0
    1.6071    7.0546    6.1865 H   0  0  0  0  0  0
   -0.0336    5.2525   11.1657 H   0  0  0  0  0  0
    7.9136    7.5129    4.1783 H   0  0  0  0  0  0
    8.7017    7.1366    5.5732 H   0  0  0  0  0  0
    5.0124    7.6080    7.0639 H   0  0  0  0  0  0
    3.7292    8.0223   10.9175 H   0  0  0  0  0  0
    5.7258   10.3921    3.8826 H   0  0  0  0  0  0
    1.7385    9.0551    4.6892 H   0  0  0  0  0  0
    3.3115   10.4190    3.3643 H   0  0  0  0  0  0
   -2.3268    4.5924    9.5880 H   0  0  0  0  0  0
    1.7313    3.2492    9.3051 H   0  0  0  0  0  0
   -3.1020    2.4607    8.6439 H   0  0  0  0  0  0
    0.9834    1.1505    8.3894 H   0  0  0  0  0  0
    0.1938   -0.4951    7.5233 H   0  0  0  0  0  0
   -1.2290   -1.1699    6.7995 H   0  0  0  0  0  0
  1 16  1  0  0  0
  2  3  2  0  0  0
  2  4  2  0  0  0
  2 10  1  0  0  0
  2 13  1  0  0  0
  5 25  1  0  0  0
  5 28  1  0  0  0
  6 12  2  0  0  0
  6 14  1  0  0  0
  7 14  1  0  0  0
  7 15  1  0  0  0
  7 30  1  0  0  0
  8 12  1  0  0  0
  8 18  1  0  0  0
  8 31  1  0  0  0
  9 14  2  0  0  0
  9 19  1  0  0  0
 10 32  1  0  0  0
 10 33  1  0  0  0
 11 29  3  0  0  0
 12 16  1  0  0  0
 13 17  1  0  0  0
 13 20  2  0  0  0
 15 17  2  0  0  0
 15 21  1  0  0  0
 16 19  2  0  0  0
 17 34  1  0  0  0
 18 23  2  0  0  0
 18 24  1  0  0  0
 19 35  1  0  0  0
 20 22  1  0  0  0
 20 36  1  0  0  0
 21 22  2  0  0  0
 21 37  1  0  0  0
 22 38  1  0  0  0
 23 26  1  0  0  0
 23 39  1  0  0  0
 24 27  2  0  0  0
 24 40  1  0  0  0
 25 26  2  0  0  0
 25 27  1  0  0  0
 26 41  1  0  0  0
 27 42  1  0  0  0
 28 29  1  0  0  0
 28 43  1  0  0  0
 28 44  1  0  0  0
M  END
> <s_m_entry_id>
32245

> <s_m_entry_name>
dock_pv.508

> <s_m_Source_Path>
/home/csk/Desktop/cluster/DUD-E-result/src

> <s_m_Source_File>
dock_pv.maegz

> <i_m_Source_File_Index>
508

> <chembl_id>
CHEMBL1987034

> <chembl_pref_name>
None

> <i_lp_mmshare_version>
53161

> <r_lp_tautomer_probability>
0.999999624730965

> <s_lp_Force_Field>
OPLS_2005

> <r_lp_Energy>
22.114833

> <b_lp_Chiralities_Consistent>
1

> <s_lp_Variant>
CHEMBL267_lig3525-1

> <s_i_glide_gridfile>
glide-grid_3el8

> <i_i_glide_lignum>
4238

> <i_i_glide_rotatable_bonds>
7

> <r_i_docking_score>
-6.99779969005792

> <r_i_glide_ligand_efficiency>
-0.241303437588204

> <r_i_glide_ligand_efficiency_sa>
-0.741360610565947

> <r_i_glide_ligand_efficiency_ln>
-1.60231868013383

> <r_i_glide_gscore>
-6.99779969005792

> <r_i_glide_lipo>
-3.5170775224343

> <r_i_glide_hbond>
-0.245841655650379

> <r_i_glide_metal>
0

> <r_i_glide_rewards>
-0.832030286923211

> <r_i_glide_evdw>
-47.1596946716309

> <r_i_glide_ecoul>
-3.2855110168457

> <r_i_glide_erotb>
0.447961161058364

> <r_i_glide_esite>
0

> <r_i_glide_emodel>
-68.405108823226

> <r_i_glide_energy>
-50.4452056884766

> <r_i_glide_einternal>
6.91297483444214

> <i_i_glide_confnum>
2

> <i_i_glide_posenum>
326

> <r_i_glide_eff_state_penalty>
0

> <s_user_duplicate_titles>
CHEMBL267_lig3525

> <i_f3d_flags>
0

> <s_m_subgroup_title>
dock_pv

> <s_m_subgroupid>
dock_pv

> <b_m_subgroup_collapsed>
1

$$$$
CHEMBL267_lig2549
                    3D
 Schrodinger Suite 2021-1.
 54 58  0  0  1  0            999 V2000
    3.4090   10.1002    5.3870 N   0  0  0  0  0  0
    4.3086   11.1843    4.8655 C   0  0  0  0  0  0
    5.5665   10.5360    4.4428 N   0  0  0  0  0  0
    6.2306    9.6260    5.1782 C   0  0  0  0  0  0
    5.3769    8.9766    6.2353 C   0  0  0  0  0  0
    5.9945    8.0666    7.1016 C   0  0  0  0  0  0
    5.2552    7.4348    8.0961 C   0  0  0  0  0  0
    3.8916    7.7015    8.2340 C   0  0  0  0  0  0
    3.2599    8.5611    7.3251 C   0  0  0  0  0  0
    3.9881    9.2155    6.3165 C   0  0  0  0  0  0
    7.3860    9.3229    4.9018 O   0  0  0  0  0  0
    1.9612   10.2038    5.0684 C   0  0  2  0  0  0
    1.1699   11.0350    6.0997 C   0  0  0  0  0  0
    1.3790    8.8332    4.7098 C   0  0  0  0  0  0
    0.4869    8.1440    5.5402 C   0  0  0  0  0  0
    0.0604    6.8683    5.1887 C   0  0  0  0  0  0
    0.5089    6.2788    4.0138 C   0  0  0  0  0  0
    1.3978    6.9532    3.1880 C   0  0  0  0  0  0
    1.8059    8.2364    3.5213 C   0  0  0  0  0  0
    1.6693    6.0023   10.4531 C   0  0  0  0  0  0
    2.1108    6.2582    9.1859 C   0  0  0  0  0  0
    1.4585    5.6593    8.1074 C   0  0  0  0  0  0
    0.3532    4.8413    8.3880 C   0  0  0  0  0  0
   -0.0507    4.6671    9.7200 C   0  0  0  0  0  0
    0.5979    5.2382   10.7698 N   0  0  0  0  0  0
    3.3953    7.4198   10.6259 C   0  0  0  0  0  0
    2.5189    6.6476   11.3020 N   0  0  0  0  0  0
    3.1757    7.1389    9.3072 N   0  0  0  0  0  0
    4.1979    8.2072   11.1254 O   0  0  0  0  0  0
    3.7985   11.9407    3.6119 C   0  0  0  0  0  0
    4.6026   12.2277    5.9707 C   0  0  0  0  0  0
    5.7851   10.5132    3.4592 H   0  0  0  0  0  0
    7.0538    7.8549    7.0275 H   0  0  0  0  0  0
    5.7489    6.7557    8.7804 H   0  0  0  0  0  0
    2.2094    8.7487    7.4488 H   0  0  0  0  0  0
    1.8170   10.7335    4.1311 H   0  0  0  0  0  0
    0.1980   11.2847    5.6944 H   0  0  0  0  0  0
    0.9989   10.5292    7.0475 H   0  0  0  0  0  0
    1.6433   11.9876    6.3116 H   0  0  0  0  0  0
    0.1252    8.5711    6.4611 H   0  0  0  0  0  0
   -0.6017    6.3254    5.8380 H   0  0  0  0  0  0
    0.1595    5.2954    3.7380 H   0  0  0  0  0  0
    1.7508    6.4965    2.2746 H   0  0  0  0  0  0
    2.4935    8.7547    2.8689 H   0  0  0  0  0  0
    1.7815    5.8176    7.0885 H   0  0  0  0  0  0
   -0.2011    4.3752    7.5883 H   0  0  0  0  0  0
   -0.9123    4.0627    9.9611 H   0  0  0  0  0  0
    2.4700    6.6084   12.3082 H   0  0  0  0  0  0
    3.5468   11.2579    2.7977 H   0  0  0  0  0  0
    2.9215   12.5472    3.8328 H   0  0  0  0  0  0
    4.5521   12.6292    3.2265 H   0  0  0  0  0  0
    5.1901   11.8230    6.7879 H   0  0  0  0  0  0
    5.1840   13.0614    5.5756 H   0  0  0  0  0  0
    3.6893   12.6370    6.3882 H   0  0  0  0  0  0
  1  2  1  0  0  0
  1 10  1  0  0  0
  1 12  1  0  0  0
  2  3  1  0  0  0
  2 30  1  0  0  0
  2 31  1  0  0  0
  3  4  1  0  0  0
  3 32  1  0  0  0
  4  5  1  0  0  0
  4 11  2  0  0  0
  5  6  1  0  0  0
  5 10  2  0  0  0
  6  7  2  0  0  0
  6 33  1  0  0  0
  7  8  1  0  0  0
  7 34  1  0  0  0
  8  9  2  0  0  0
  8 28  1  0  0  0
  9 10  1  0  0  0
  9 35  1  0  0  0
 12 13  1  0  0  0
 12 14  1  0  0  0
 12 36  1  0  0  0
 13 37  1  0  0  0
 13 38  1  0  0  0
 13 39  1  0  0  0
 14 15  1  0  0  0
 14 19  2  0  0  0
 15 16  2  0  0  0
 15 40  1  0  0  0
 16 17  1  0  0  0
 16 41  1  0  0  0
 17 18  2  0  0  0
 17 42  1  0  0  0
 18 19  1  0  0  0
 18 43  1  0  0  0
 19 44  1  0  0  0
 20 21  1  0  0  0
 20 25  2  0  0  0
 20 27  1  0  0  0
 21 22  2  0  0  0
 21 28  1  0  0  0
 22 23  1  0  0  0
 22 45  1  0  0  0
 23 24  2  0  0  0
 23 46  1  0  0  0
 24 25  1  0  0  0
 24 47  1  0  0  0
 26 27  1  0  0  0
 26 28  1  0  0  0
 26 29  2  0  0  0
 27 48  1  0  0  0
 30 49  1  0  0  0
 30 50  1  0  0  0
 30 51  1  0  0  0
 31 52  1  0  0  0
 31 53  1  0  0  0
 31 54  1  0  0  0
M  END
> <s_m_entry_id>
32246

> <s_m_entry_name>
dock_pv.509

> <s_m_Source_Path>
/home/csk/Desktop/cluster/DUD-E-result/src

> <s_m_Source_File>
dock_pv.maegz

> <i_m_Source_File_Index>
509

> <chembl_id>
CHEMBL3798011

> <chembl_pref_name>
None

> <i_lp_mmshare_version>
53161

> <r_lp_tautomer_probability>
1

> <s_lp_Force_Field>
OPLS_2005

> <r_lp_Energy>
68.44693

> <b_lp_Chiralities_Consistent>
1

> <s_lp_Variant>
CHEMBL267_lig2549-1

> <s_i_glide_gridfile>
glide-grid_3el8

> <i_i_glide_lignum>
2860

> <i_i_glide_rotatable_bonds>
3

> <r_i_docking_score>
-6.99606507021279

> <r_i_glide_ligand_efficiency>
-0.225679518393961

> <r_i_glide_ligand_efficiency_sa>
-0.708945271912294

> <r_i_glide_ligand_efficiency_ln>
-1.57782707697848

> <r_i_glide_gscore>
-6.99606507021279

> <r_i_glide_lipo>
-3.03060302321673

> <r_i_glide_hbond>
0

> <r_i_glide_metal>
0

> <r_i_glide_rewards>
-2.01881239983806

> <r_i_glide_evdw>
-45.0154991149902

> <r_i_glide_ecoul>
-0.280486971139908

> <r_i_glide_erotb>
0.346198354262496

> <r_i_glide_esite>
0

> <r_i_glide_emodel>
-63.1324193312201

> <r_i_glide_energy>
-45.2959860861301

> <r_i_glide_einternal>
0.5340376496315

> <i_i_glide_confnum>
1

> <i_i_glide_posenum>
202

> <r_i_glide_eff_state_penalty>
0

> <s_user_duplicate_titles>
CHEMBL267_lig2549

> <i_f3d_flags>
0

> <s_m_subgroup_title>
dock_pv

> <s_m_subgroupid>
dock_pv

> <b_m_subgroup_collapsed>
1

$$$$
CHEMBL267_lig795
                    3D
 Schrodinger Suite 2021-1.
 37 40  0  0  1  0            999 V2000
    2.1063    7.0303    8.8275 C   0  0  0  0  0  0
    0.0578    6.2360    8.7736 N   0  0  0  0  0  0
    3.4302    7.4891    8.7384 C   0  0  0  0  0  0
    0.9891    6.8589    7.9673 C   0  0  0  0  0  0
    0.3987    6.0532   10.0584 N   0  0  0  0  0  0
    1.6592    6.5693   10.1055 C   0  0  0  0  0  0
    4.1979    7.5693    9.8527 N   0  0  0  0  0  0
    3.9567    7.8383    7.4895 N   0  0  0  0  0  0
    0.7954    7.2487    6.5411 C   0  0  0  0  0  0
    2.4082    6.6370   11.2092 N   0  0  0  0  0  0
    3.6499    7.1500   11.0195 C   0  0  0  0  0  0
    5.2610    8.1111    7.0601 C   0  0  0  0  0  0
    1.2816    8.4788    6.0815 C   0  0  0  0  0  0
    5.4398    9.0365    6.0303 C   0  0  0  0  0  0
    1.1930    8.8193    4.7313 C   0  0  0  0  0  0
    6.7180    9.3196    5.5530 C   0  0  0  0  0  0
    1.6987   10.0371    4.2837 N   0  0  0  0  0  0
    6.9334   10.5269    4.3409 Cl  0  0  0  0  0  0
    0.2015    6.3772    5.6261 C   0  0  0  0  0  0
    0.0917    6.7194    4.2810 C   0  0  0  0  0  0
    7.6478    7.7011    7.0856 C   0  0  0  0  0  0
    6.3709    7.4449    7.5877 C   0  0  0  0  0  0
    7.8208    8.6355    6.0649 C   0  0  0  0  0  0
    0.5983    7.9379    3.8313 C   0  0  0  0  0  0
   -0.8561    5.9481    8.4377 H   0  0  0  0  0  0
    3.2618    7.8467    6.7580 H   0  0  0  0  0  0
    4.2837    7.1972   11.8938 H   0  0  0  0  0  0
    1.7315    9.1721    6.7763 H   0  0  0  0  0  0
    4.5894    9.5575    5.6151 H   0  0  0  0  0  0
    2.1014   10.6897    4.9406 H   0  0  0  0  0  0
    1.6463   10.2562    3.2980 H   0  0  0  0  0  0
   -0.2016    5.4369    5.9642 H   0  0  0  0  0  0
   -0.3891    6.0443    3.5897 H   0  0  0  0  0  0
    8.5035    7.1754    7.4826 H   0  0  0  0  0  0
    6.2459    6.7084    8.3685 H   0  0  0  0  0  0
    8.8114    8.8363    5.6818 H   0  0  0  0  0  0
    0.5126    8.1955    2.7880 H   0  0  0  0  0  0
  1  3  1  0  0  0
  1  4  2  0  0  0
  1  6  1  0  0  0
  2  4  1  0  0  0
  2  5  1  0  0  0
  2 25  1  0  0  0
  3  7  2  0  0  0
  3  8  1  0  0  0
  4  9  1  0  0  0
  5  6  2  0  0  0
  6 10  1  0  0  0
  7 11  1  0  0  0
  8 12  1  0  0  0
  8 26  1  0  0  0
  9 13  2  0  0  0
  9 19  1  0  0  0
 10 11  2  0  0  0
 11 27  1  0  0  0
 12 14  2  0  0  0
 12 22  1  0  0  0
 13 15  1  0  0  0
 13 28  1  0  0  0
 14 16  1  0  0  0
 14 29  1  0  0  0
 15 17  1  0  0  0
 15 24  2  0  0  0
 16 18  1  0  0  0
 16 23  2  0  0  0
 17 30  1  0  0  0
 17 31  1  0  0  0
 19 20  2  0  0  0
 19 32  1  0  0  0
 20 24  1  0  0  0
 20 33  1  0  0  0
 21 22  2  0  0  0
 21 23  1  0  0  0
 21 34  1  0  0  0
 22 35  1  0  0  0
 23 36  1  0  0  0
 24 37  1  0  0  0
M  END
> <s_m_entry_id>
32247

> <s_m_entry_name>
dock_pv.510

> <s_m_Source_Path>
/home/csk/Desktop/cluster/DUD-E-result/src

> <s_m_Source_File>
dock_pv.maegz

> <i_m_Source_File_Index>
510

> <chembl_id>
CHEMBL332882

> <chembl_pref_name>
None

> <i_lp_mmshare_version>
53161

> <r_lp_tautomer_probability>
1

> <s_lp_Force_Field>
OPLS_2005

> <r_lp_Energy>
29.811099

> <b_lp_Chiralities_Consistent>
1

> <s_lp_Variant>
CHEMBL267_lig795-1

> <s_i_glide_gridfile>
glide-grid_3el8

> <i_i_glide_lignum>
923

> <i_i_glide_rotatable_bonds>
3

> <r_i_docking_score>
-6.99593192480107

> <r_i_glide_ligand_efficiency>
-0.291497163533378

> <r_i_glide_ligand_efficiency_sa>
-0.840823316812958

> <r_i_glide_ligand_efficiency_ln>
-1.67444753200283

> <r_i_glide_gscore>
-6.99593192480107

> <r_i_glide_lipo>
-3.01744894810638

> <r_i_glide_hbond>
-0.32

> <r_i_glide_metal>
0

> <r_i_glide_rewards>
-1.48104423552224

> <r_i_glide_evdw>
-39.523307800293

> <r_i_glide_ecoul>
-4.36858510971069

> <r_i_glide_erotb>
0.499669481367341

> <r_i_glide_esite>
-0.0456550660685302

> <r_i_glide_emodel>
-59.6843498062574

> <r_i_glide_energy>
-43.8918929100037

> <r_i_glide_einternal>
3.36142826080322

> <i_i_glide_confnum>
24

> <i_i_glide_posenum>
236

> <r_i_glide_eff_state_penalty>
0

> <s_user_duplicate_titles>
CHEMBL267_lig795

> <i_f3d_flags>
0

> <s_m_subgroup_title>
dock_pv

> <s_m_subgroupid>
dock_pv

> <b_m_subgroup_collapsed>
1

$$$$
CHEMBL267_lig1822
                    3D
 Schrodinger Suite 2021-1.
 37 39  0  0  1  0            999 V2000
    6.8587    8.2467    6.4138 N   0  0  0  0  0  0
    6.7269    9.1439    5.4058 C   0  0  0  0  0  0
    5.5785    9.6802    4.9165 N   0  0  0  0  0  0
    5.7192    7.8370    7.0218 C   0  0  0  0  0  0
    4.4620    8.3438    6.6450 C   0  0  0  0  0  0
    4.4839    9.2570    5.5639 C   0  0  0  0  0  0
    3.1661    9.6006    5.3278 N   0  0  0  0  0  0
    2.3444    8.9593    6.1875 N   0  0  0  0  0  0
    3.0724    8.2338    7.0053 C   0  0  0  0  0  0
    2.4172    7.4852    8.1217 C   0  0  0  0  0  0
    3.0287    7.3783    9.3759 C   0  0  0  0  0  0
    2.3908    6.7181   10.4270 C   0  0  0  0  0  0
    1.1183    6.1664   10.2351 C   0  0  0  0  0  0
    0.5226    6.2330    8.9783 C   0  0  0  0  0  0
    1.1664    6.8840    7.9276 C   0  0  0  0  0  0
    5.8566    6.8517    7.9882 N   0  0  0  0  0  0
    0.2338    5.4377   11.5306 Cl  0  0  0  0  0  0
    3.0276    6.6372   11.6362 O   0  0  0  0  0  0
    2.6206   10.4585    4.2640 C   0  0  1  0  0  0
    2.2942    9.6314    2.9928 C   0  0  0  0  0  0
    1.4380   11.3199    4.7685 C   0  0  0  0  0  0
    1.2518    8.6337    3.1881 N   0  0  0  0  0  0
    7.6428    9.4632    4.9294 H   0  0  0  0  0  0
    3.9835    7.8485    9.5572 H   0  0  0  0  0  0
   -0.4516    5.7920    8.8281 H   0  0  0  0  0  0
    0.6797    6.9347    6.9633 H   0  0  0  0  0  0
    5.0317    6.4501    8.4083 H   0  0  0  0  0  0
    6.7782    6.4951    8.1861 H   0  0  0  0  0  0
    3.6581    5.9047   11.6627 H   0  0  0  0  0  0
    3.4181   11.1534    3.9963 H   0  0  0  0  0  0
    1.9903   10.3015    2.1868 H   0  0  0  0  0  0
    3.1938    9.1222    2.6435 H   0  0  0  0  0  0
    1.0733   11.9846    3.9848 H   0  0  0  0  0  0
    0.5992   10.7055    5.0977 H   0  0  0  0  0  0
    1.7376   11.9417    5.6140 H   0  0  0  0  0  0
    0.4096    9.0689    3.5347 H   0  0  0  0  0  0
    0.9988    8.2293    2.2877 H   0  0  0  0  0  0
  1  2  2  0  0  0
  1  4  1  0  0  0
  2  3  1  0  0  0
  2 23  1  0  0  0
  3  6  2  0  0  0
  4  5  2  0  0  0
  4 16  1  0  0  0
  5  9  1  0  0  0
  5  6  1  0  0  0
  6  7  1  0  0  0
  7  8  1  0  0  0
  7 19  1  0  0  0
  8  9  2  0  0  0
  9 10  1  0  0  0
 10 11  2  0  0  0
 10 15  1  0  0  0
 11 12  1  0  0  0
 11 24  1  0  0  0
 12 13  2  0  0  0
 12 18  1  0  0  0
 13 14  1  0  0  0
 13 17  1  0  0  0
 14 15  2  0  0  0
 14 25  1  0  0  0
 15 26  1  0  0  0
 16 27  1  0  0  0
 16 28  1  0  0  0
 18 29  1  0  0  0
 19 20  1  0  0  0
 19 21  1  0  0  0
 19 30  1  0  0  0
 20 22  1  0  0  0
 20 31  1  0  0  0
 20 32  1  0  0  0
 21 33  1  0  0  0
 21 34  1  0  0  0
 21 35  1  0  0  0
 22 36  1  0  0  0
 22 37  1  0  0  0
M  END
> <s_m_entry_id>
32248

> <s_m_entry_name>
dock_pv.511

> <s_m_Source_Path>
/home/csk/Desktop/cluster/DUD-E-result/src

> <s_m_Source_File>
dock_pv.maegz

> <i_m_Source_File_Index>
511

> <chembl_id>
CHEMBL1241579

> <chembl_pref_name>
None

> <i_lp_mmshare_version>
53161

> <r_lp_tautomer_probability>
0.999999999997365

> <s_lp_Force_Field>
OPLS_2005

> <r_lp_Energy>
13.637549

> <b_lp_Chiralities_Consistent>
1

> <s_lp_Variant>
CHEMBL267_lig1822-1

> <s_i_glide_gridfile>
glide-grid_3el8

> <i_i_glide_lignum>
2088

> <i_i_glide_rotatable_bonds>
4

> <r_i_docking_score>
-6.99467243628837

> <r_i_glide_ligand_efficiency>
-0.317939656194926

> <r_i_glide_ligand_efficiency_sa>
-0.890879420515319

> <r_i_glide_ligand_efficiency_ln>
-1.70975308030511

> <r_i_glide_gscore>
-6.99467243628837

> <r_i_glide_lipo>
-1.72872486981889

> <r_i_glide_hbond>
-0.608

> <r_i_glide_metal>
0

> <r_i_glide_rewards>
-2.11490674442104

> <r_i_glide_evdw>
-34.6539688110352

> <r_i_glide_ecoul>
-7.8495020866394

> <r_i_glide_erotb>
0.36708293149922

> <r_i_glide_esite>
0

> <r_i_glide_emodel>
-56.9424063010672

> <r_i_glide_energy>
-42.5034708976746

> <r_i_glide_einternal>
3.8613874912262

> <i_i_glide_confnum>
8

> <i_i_glide_posenum>
149

> <r_i_glide_eff_state_penalty>
0

> <s_user_duplicate_titles>
CHEMBL267_lig1822

> <i_f3d_flags>
0

> <s_m_subgroup_title>
dock_pv

> <s_m_subgroupid>
dock_pv

> <b_m_subgroup_collapsed>
1

$$$$
CHEMBL267_lig3897
                    3D
 Schrodinger Suite 2021-1.
 46 49  0  0  1  0            999 V2000
    2.1495    7.3118    7.8903 N   0  0  0  0  0  0
    2.3296    8.4367    7.1632 C   0  0  0  0  0  0
    3.5131    8.9691    6.7749 N   0  0  0  0  0  0
    3.2464    6.6137    8.2802 C   0  0  0  0  0  0
    4.5252    7.0444    7.8872 C   0  0  0  0  0  0
    4.5764    8.2345    7.1229 C   0  0  0  0  0  0
    5.9203    8.4585    6.8514 N   0  0  0  0  0  0
    6.6857    7.4777    7.3875 N   0  0  0  0  0  0
    5.8862    6.6316    7.9893 C   0  0  0  0  0  0
    3.0499    5.4410    9.0212 N   0  0  0  0  0  0
    1.7948    4.9584    9.4200 C   0  0  0  0  0  0
    1.1904    3.9638    8.6525 C   0  0  0  0  0  0
   -0.1212    3.5766    8.9103 C   0  0  0  0  0  0
   -0.8242    4.1567    9.9630 C   0  0  0  0  0  0
   -0.2009    5.0941   10.7830 C   0  0  0  0  0  0
    1.1048    5.4996   10.5151 C   0  0  0  0  0  0
   -0.7234    2.6371    8.1222 O   0  0  0  0  0  0
    6.5951    9.5994    6.2140 C   0  0  0  0  0  0
    6.2851    9.7947    4.7060 C   0  0  1  0  0  0
    4.8752   10.2785    4.3737 C   0  0  0  0  0  0
    4.0772    9.5396    3.4939 C   0  0  0  0  0  0
    2.7835    9.9623    3.1977 C   0  0  0  0  0  0
    2.2921   11.1314    3.7740 C   0  0  0  0  0  0
    3.0874   11.8886    4.6344 C   0  0  0  0  0  0
    4.3804   11.4633    4.9321 C   0  0  0  0  0  0
    7.4732   10.9400    4.0189 Cl  0  0  0  0  0  0
    1.8528    6.6367   11.5788 Cl  0  0  0  0  0  0
    0.8755    9.2936    6.6573 S   0  0  0  0  0  0
   -0.4933    8.1007    6.7412 C   0  0  0  0  0  0
    6.2770    5.7549    8.4867 H   0  0  0  0  0  0
    3.8636    5.0134    9.4420 H   0  0  0  0  0  0
    1.7292    3.5222    7.8284 H   0  0  0  0  0  0
   -1.8448    3.8685   10.1696 H   0  0  0  0  0  0
   -0.7390    5.5156   11.6185 H   0  0  0  0  0  0
   -1.6203    2.4288    8.3989 H   0  0  0  0  0  0
    7.6699    9.4369    6.3151 H   0  0  0  0  0  0
    6.3654   10.4957    6.7877 H   0  0  0  0  0  0
    6.4737    8.8469    4.1969 H   0  0  0  0  0  0
    4.4523    8.6375    3.0388 H   0  0  0  0  0  0
    2.1639    9.3852    2.5253 H   0  0  0  0  0  0
    1.2864   11.4568    3.5471 H   0  0  0  0  0  0
    2.7013   12.7986    5.0685 H   0  0  0  0  0  0
    4.9927   12.0533    5.5976 H   0  0  0  0  0  0
   -1.4409    8.6310    6.7595 H   0  0  0  0  0  0
   -0.4812    7.4500    5.8677 H   0  0  0  0  0  0
   -0.4384    7.4714    7.6290 H   0  0  0  0  0  0
  1  2  2  0  0  0
  1  4  1  0  0  0
  2  3  1  0  0  0
  2 28  1  0  0  0
  3  6  2  0  0  0
  4  5  2  0  0  0
  4 10  1  0  0  0
  5  6  1  0  0  0
  5  9  1  0  0  0
  6  7  1  0  0  0
  7  8  1  0  0  0
  7 18  1  0  0  0
  8  9  2  0  0  0
  9 30  1  0  0  0
 10 11  1  0  0  0
 10 31  1  0  0  0
 11 12  2  0  0  0
 11 16  1  0  0  0
 12 13  1  0  0  0
 12 32  1  0  0  0
 13 14  2  0  0  0
 13 17  1  0  0  0
 14 15  1  0  0  0
 14 33  1  0  0  0
 15 16  2  0  0  0
 15 34  1  0  0  0
 16 27  1  0  0  0
 17 35  1  0  0  0
 18 19  1  0  0  0
 18 36  1  0  0  0
 18 37  1  0  0  0
 19 20  1  0  0  0
 19 26  1  0  0  0
 19 38  1  0  0  0
 20 21  2  0  0  0
 20 25  1  0  0  0
 21 22  1  0  0  0
 21 39  1  0  0  0
 22 23  2  0  0  0
 22 40  1  0  0  0
 23 24  1  0  0  0
 23 41  1  0  0  0
 24 25  2  0  0  0
 24 42  1  0  0  0
 25 43  1  0  0  0
 28 29  1  0  0  0
 29 44  1  0  0  0
 29 45  1  0  0  0
 29 46  1  0  0  0
M  END
> <s_m_entry_id>
32249

> <s_m_entry_name>
dock_pv.512

> <s_m_Source_Path>
/home/csk/Desktop/cluster/DUD-E-result/src

> <s_m_Source_File>
dock_pv.maegz

> <i_m_Source_File_Index>
512

> <chembl_id>
CHEMBL4277981

> <chembl_pref_name>
None

> <i_lp_mmshare_version>
53161

> <r_lp_tautomer_probability>
1

> <s_lp_Force_Field>
OPLS_2005

> <r_lp_Energy>
12.461549

> <b_lp_Chiralities_Consistent>
1

> <s_lp_Variant>
CHEMBL267_lig3897-2

> <s_i_glide_gridfile>
glide-grid_3el8

> <i_i_glide_lignum>
4818

> <i_i_glide_rotatable_bonds>
7

> <r_i_docking_score>
-6.9862351529535

> <r_i_glide_ligand_efficiency>
-0.240904660446673

> <r_i_glide_ligand_efficiency_sa>
-0.740135440845696

> <r_i_glide_ligand_efficiency_ln>
-1.59967069438828

> <r_i_glide_gscore>
-6.9862351529535

> <r_i_glide_lipo>
-3.36377029044076

> <r_i_glide_hbond>
-0.289410113424719

> <r_i_glide_metal>
0

> <r_i_glide_rewards>
-1.05034843044235

> <r_i_glide_evdw>
-44.9364051818848

> <r_i_glide_ecoul>
-3.58806610107422

> <r_i_glide_erotb>
0.5023238556097

> <r_i_glide_esite>
0

> <r_i_glide_emodel>
-64.1292771680704

> <r_i_glide_energy>
-48.524471282959

> <r_i_glide_einternal>
8.78602695465088

> <i_i_glide_confnum>
20

> <i_i_glide_posenum>
75

> <r_i_glide_eff_state_penalty>
0

> <s_user_duplicate_titles>
CHEMBL267_lig3897

> <i_f3d_flags>
0

> <s_m_subgroup_title>
dock_pv

> <s_m_subgroupid>
dock_pv

> <b_m_subgroup_collapsed>
1

$$$$
CHEMBL267_lig2576
                    3D
 Schrodinger Suite 2021-1.
 41 45  0  0  1  0            999 V2000
    3.5340    7.5369    8.6429 C   0  0  0  0  0  0
    3.0921    7.0693    9.9606 C   0  0  0  0  0  0
    1.9499    6.1571   10.0255 C   0  0  0  0  0  0
    3.6704    7.4349   10.9865 O   0  0  0  0  0  0
    1.0108    6.0467   11.0578 C   0  0  0  0  0  0
    0.1094    5.1201   10.8330 N   0  0  0  0  0  0
    0.4548    4.5537    9.6630 N   0  0  0  0  0  0
    1.5920    5.1483    9.1369 C   0  0  0  0  0  0
    4.8815    7.7101    8.4402 N   0  0  0  0  0  0
    2.8559    7.9104    7.4943 C   0  0  0  0  0  0
    3.8352    8.4257    6.5784 C   0  0  0  0  0  0
    5.1155    8.2364    7.1876 C   0  0  0  0  0  0
    6.3084    8.6042    6.5546 C   0  0  0  0  0  0
    6.1975    9.2025    5.2987 C   0  0  0  0  0  0
    4.9626    9.4228    4.6931 C   0  0  0  0  0  0
    3.7748    9.0352    5.3146 C   0  0  0  0  0  0
   -0.2829    3.4360    9.1877 C   0  0  0  0  0  0
    0.3894    2.2834    8.7751 C   0  0  0  0  0  0
   -2.4406    2.3555    8.7902 C   0  0  0  0  0  0
   -1.6789    3.4442    9.2000 C   0  0  0  0  0  0
    2.1852    4.7349    7.9781 N   0  0  0  0  0  0
   -1.7530    1.2052    8.3963 C   0  0  0  0  0  0
   -0.3369    1.1465    8.3886 C   0  0  0  0  0  0
    0.0070   -0.1770    7.9728 C   0  0  0  0  0  0
   -1.1533   -0.8699    7.7268 C   0  0  0  0  0  0
   -2.2021   -0.0350    7.9913 N   0  0  0  0  0  0
    0.9983    6.6368   11.9629 H   0  0  0  0  0  0
    5.5573    7.4931    9.1582 H   0  0  0  0  0  0
    1.7840    7.8783    7.3653 H   0  0  0  0  0  0
    7.2721    8.4602    7.0205 H   0  0  0  0  0  0
    7.0954    9.5158    4.7855 H   0  0  0  0  0  0
    4.9256    9.8952    3.7218 H   0  0  0  0  0  0
    2.8254    9.2012    4.8275 H   0  0  0  0  0  0
    1.4551    2.2462    8.8213 H   0  0  0  0  0  0
   -3.5188    2.3963    8.8176 H   0  0  0  0  0  0
   -2.2032    4.3108    9.5535 H   0  0  0  0  0  0
    3.0055    5.2029    7.6198 H   0  0  0  0  0  0
    1.8012    3.9850    7.4233 H   0  0  0  0  0  0
    0.9935   -0.5733    7.8392 H   0  0  0  0  0  0
   -1.3285   -1.8760    7.3728 H   0  0  0  0  0  0
   -3.1669   -0.2924    7.8362 H   0  0  0  0  0  0
  1  2  1  0  0  0
  1  9  1  0  0  0
  1 10  2  0  0  0
  2  3  1  0  0  0
  2  4  2  0  0  0
  3  5  1  0  0  0
  3  8  2  0  0  0
  5  6  2  0  0  0
  5 27  1  0  0  0
  6  7  1  0  0  0
  7  8  1  0  0  0
  7 17  1  0  0  0
  8 21  1  0  0  0
  9 12  1  0  0  0
  9 28  1  0  0  0
 10 11  1  0  0  0
 10 29  1  0  0  0
 11 12  2  0  0  0
 11 16  1  0  0  0
 12 13  1  0  0  0
 13 14  2  0  0  0
 13 30  1  0  0  0
 14 15  1  0  0  0
 14 31  1  0  0  0
 15 16  2  0  0  0
 15 32  1  0  0  0
 16 33  1  0  0  0
 17 18  2  0  0  0
 17 20  1  0  0  0
 18 23  1  0  0  0
 18 34  1  0  0  0
 19 22  1  0  0  0
 19 20  2  0  0  0
 19 35  1  0  0  0
 20 36  1  0  0  0
 21 37  1  0  0  0
 21 38  1  0  0  0
 22 23  2  0  0  0
 22 26  1  0  0  0
 23 24  1  0  0  0
 24 25  2  0  0  0
 24 39  1  0  0  0
 25 26  1  0  0  0
 25 40  1  0  0  0
 26 41  1  0  0  0
M  END
> <s_m_entry_id>
32250

> <s_m_entry_name>
dock_pv.513

> <s_m_Source_Path>
/home/csk/Desktop/cluster/DUD-E-result/src

> <s_m_Source_File>
dock_pv.maegz

> <i_m_Source_File_Index>
513

> <chembl_id>
CHEMBL3941474

> <chembl_pref_name>
None

> <i_lp_mmshare_version>
53161

> <r_lp_tautomer_probability>
1

> <s_lp_Force_Field>
OPLS_2005

> <r_lp_Energy>
20.568966

> <b_lp_Chiralities_Consistent>
1

> <s_lp_Variant>
CHEMBL267_lig2576-1

> <s_i_glide_gridfile>
glide-grid_3el8

> <i_i_glide_lignum>
2888

> <i_i_glide_rotatable_bonds>
3

> <r_i_docking_score>
-6.98367474894753

> <r_i_glide_ligand_efficiency>
-0.26860287495952

> <r_i_glide_ligand_efficiency_sa>
-0.795734960166302

> <r_i_glide_ligand_efficiency_ln>
-1.64009309948442

> <r_i_glide_gscore>
-6.98367474894753

> <r_i_glide_lipo>
-3.84625216292099

> <r_i_glide_hbond>
0

> <r_i_glide_metal>
0

> <r_i_glide_rewards>
-1.61475007525518

> <r_i_glide_evdw>
-39.6698379516602

> <r_i_glide_ecoul>
0.333031326532364

> <r_i_glide_erotb>
0.487829658999001

> <r_i_glide_esite>
-0.0769649711672102

> <r_i_glide_emodel>
-54.2128730126983

> <r_i_glide_energy>
-39.3368066251278

> <r_i_glide_einternal>
4.93893480300903

> <i_i_glide_confnum>
2

> <i_i_glide_posenum>
285

> <r_i_glide_eff_state_penalty>
0

> <s_user_duplicate_titles>
CHEMBL267_lig2576

> <i_f3d_flags>
0

> <s_m_subgroup_title>
dock_pv

> <s_m_subgroupid>
dock_pv

> <b_m_subgroup_collapsed>
1

$$$$
CHEMBL267_lig1875
                    3D
 Schrodinger Suite 2021-1.
 39 41  0  0  1  0            999 V2000
    7.8302    6.6203    7.1880 N   0  0  0  0  0  0
    6.9822    5.9359    7.9880 C   0  0  0  0  0  0
    5.6917    6.2371    8.2772 N   0  0  0  0  0  0
    7.3226    7.6656    6.4981 C   0  0  0  0  0  0
    5.9761    8.0640    6.6580 C   0  0  0  0  0  0
    5.2344    7.2903    7.5880 C   0  0  0  0  0  0
    3.9512    7.7977    7.5851 N   0  0  0  0  0  0
    3.8483    8.8193    6.7069 N   0  0  0  0  0  0
    5.0244    9.0213    6.1465 C   0  0  0  0  0  0
    5.2003   10.1272    5.1488 C   0  0  0  0  0  0
    4.1407   10.4890    4.3025 C   0  0  0  0  0  0
    4.2927   11.5165    3.3655 C   0  0  0  0  0  0
    5.5200   12.1699    3.2448 C   0  0  0  0  0  0
    6.5809   11.8139    4.0728 C   0  0  0  0  0  0
    6.4157   10.8111    5.0287 C   0  0  0  0  0  0
    8.1979    8.2374    5.5880 N   0  0  0  0  0  0
    2.8146    7.3719    8.4186 C   0  0  0  0  0  0
    1.4423    7.7275    7.8025 C   0  0  0  0  0  0
    2.9774    7.9477    9.8377 C   0  0  0  0  0  0
    2.9302   12.0313    2.3292 S   0  0  0  0  0  0
    3.3982   11.5351    0.7303 N   0  0  0  0  0  0
    1.7532   11.2436    2.7090 O   0  0  0  0  0  0
    2.9109   13.4970    2.3462 O   0  0  0  0  0  0
    7.3876    5.0651    8.4842 H   0  0  0  0  0  0
    3.1925    9.9761    4.3825 H   0  0  0  0  0  0
    5.6468   12.9629    2.5204 H   0  0  0  0  0  0
    7.5236   12.3350    3.9883 H   0  0  0  0  0  0
    7.2318   10.5979    5.7004 H   0  0  0  0  0  0
    7.8672    8.9417    4.9487 H   0  0  0  0  0  0
    9.1028    7.7905    5.4741 H   0  0  0  0  0  0
    2.8710    6.2833    8.4816 H   0  0  0  0  0  0
    0.6286    7.3147    8.4001 H   0  0  0  0  0  0
    1.2934    8.8064    7.7410 H   0  0  0  0  0  0
    1.3431    7.3191    6.7957 H   0  0  0  0  0  0
    2.1983    7.5730   10.5018 H   0  0  0  0  0  0
    3.9348    7.6643   10.2783 H   0  0  0  0  0  0
    2.9217    9.0369    9.8378 H   0  0  0  0  0  0
    2.7550   10.9108    0.2396 H   0  0  0  0  0  0
    3.8735   12.2353    0.1480 H   0  0  0  0  0  0
  1  2  2  0  0  0
  1  4  1  0  0  0
  2  3  1  0  0  0
  2 24  1  0  0  0
  3  6  2  0  0  0
  4  5  2  0  0  0
  4 16  1  0  0  0
  5  9  1  0  0  0
  5  6  1  0  0  0
  6  7  1  0  0  0
  7 17  1  0  0  0
  7  8  1  0  0  0
  8  9  2  0  0  0
  9 10  1  0  0  0
 10 15  1  0  0  0
 10 11  2  0  0  0
 11 12  1  0  0  0
 11 25  1  0  0  0
 12 13  2  0  0  0
 12 20  1  0  0  0
 13 14  1  0  0  0
 13 26  1  0  0  0
 14 15  2  0  0  0
 14 27  1  0  0  0
 15 28  1  0  0  0
 16 29  1  0  0  0
 16 30  1  0  0  0
 17 18  1  0  0  0
 17 19  1  0  0  0
 17 31  1  0  0  0
 18 32  1  0  0  0
 18 33  1  0  0  0
 18 34  1  0  0  0
 19 35  1  0  0  0
 19 36  1  0  0  0
 19 37  1  0  0  0
 20 21  1  0  0  0
 20 22  2  0  0  0
 20 23  2  0  0  0
 21 38  1  0  0  0
 21 39  1  0  0  0
M  END
> <s_m_entry_id>
32252

> <s_m_entry_name>
dock_pv.515

> <s_m_Source_Path>
/home/csk/Desktop/cluster/DUD-E-result/src

> <s_m_Source_File>
dock_pv.maegz

> <i_m_Source_File_Index>
515

> <chembl_id>
CHEMBL1242031

> <chembl_pref_name>
None

> <i_lp_mmshare_version>
53161

> <r_lp_tautomer_probability>
1

> <s_lp_Force_Field>
OPLS_2005

> <r_lp_Energy>
19.027236

> <b_lp_Chiralities_Consistent>
1

> <s_lp_Variant>
CHEMBL267_lig1875-1

> <s_i_glide_gridfile>
glide-grid_3el8

> <i_i_glide_lignum>
2143

> <i_i_glide_rotatable_bonds>
3

> <r_i_docking_score>
-6.97825211180968

> <r_i_glide_ligand_efficiency>
-0.303402265730856

> <r_i_glide_ligand_efficiency_sa>
-0.862835684222326

> <r_i_glide_ligand_efficiency_ln>
-1.68740463592737

> <r_i_glide_gscore>
-6.97825211180968

> <r_i_glide_lipo>
-1.75829207962625

> <r_i_glide_hbond>
-0.577143881507367

> <r_i_glide_metal>
0

> <r_i_glide_rewards>
-2.41897911866508

> <r_i_glide_evdw>
-29.1545886993408

> <r_i_glide_ecoul>
-5.5688419342041

> <r_i_glide_erotb>
0.119332679220659

> <r_i_glide_esite>
-0.0501139861339981

> <r_i_glide_emodel>
-48.4394007582316

> <r_i_glide_energy>
-34.7234306335449

> <r_i_glide_einternal>
0.766293227672577

> <i_i_glide_confnum>
1

> <i_i_glide_posenum>
126

> <r_i_glide_eff_state_penalty>
0

> <s_user_duplicate_titles>
CHEMBL267_lig1875

> <i_f3d_flags>
0

> <s_m_subgroup_title>
dock_pv

> <s_m_subgroupid>
dock_pv

> <b_m_subgroup_collapsed>
1

$$$$
CHEMBL267_lig3015
                    3D
 Schrodinger Suite 2021-1.
 38 40  0  0  1  0            999 V2000
    2.4011    6.7991    7.5618 C   0  0  0  0  0  0
    3.1675    6.5817    8.7146 C   0  0  0  0  0  0
    2.5152    6.2494    9.9059 C   0  0  0  0  0  0
    1.1223    6.1392    9.9513 C   0  0  0  0  0  0
    0.3774    6.3448    8.7888 C   0  0  0  0  0  0
    1.0115    6.6803    7.5918 C   0  0  0  0  0  0
    4.5725    6.6383    8.7201 N   0  0  0  0  0  0
    5.4988    7.1972    7.8261 C   0  0  0  0  0  0
    6.7859    6.8006    7.9880 N   0  0  0  0  0  0
    7.7113    7.3464    7.1583 C   0  0  0  0  0  0
    7.3689    8.2471    6.1516 C   0  0  0  0  0  0
    6.0141    8.5841    6.0288 C   0  0  0  0  0  0
    5.0803    8.0778    6.8802 N   0  0  0  0  0  0
    5.4835    9.4396    4.9218 C   0  0  0  0  0  0
    4.2356    9.4370    4.5226 N   0  0  0  0  0  0
    4.0654   10.1677    3.4413 C   0  0  0  0  0  0
    5.1836   10.8076    2.9061 C   0  0  0  0  0  0
    6.5139   10.4780    3.9880 S   0  0  0  0  0  0
    0.4229    5.7738   11.2483 C   0  0  0  0  0  0
    0.1983    6.9169    6.3315 C   0  0  0  0  0  0
    5.3264   11.6311    1.6497 C   0  0  0  0  0  0
    6.2768   11.0370    0.7880 O   0  0  0  0  0  0
    2.8714    7.0344    6.6208 H   0  0  0  0  0  0
    3.0908    6.0692   10.8029 H   0  0  0  0  0  0
   -0.6974    6.2370    8.8156 H   0  0  0  0  0  0
    4.9981    6.0591    9.4287 H   0  0  0  0  0  0
    8.7373    7.0370    7.2936 H   0  0  0  0  0  0
    8.1235    8.6306    5.4811 H   0  0  0  0  0  0
    3.0788   10.2033    3.0025 H   0  0  0  0  0  0
   -0.5645    5.3439   11.0714 H   0  0  0  0  0  0
    0.9980    5.0370   11.7992 H   0  0  0  0  0  0
    0.3259    6.6370   11.8998 H   0  0  0  0  0  0
   -0.6441    7.5754    6.5430 H   0  0  0  0  0  0
    0.7878    7.3904    5.5455 H   0  0  0  0  0  0
   -0.2020    5.9752    5.9550 H   0  0  0  0  0  0
    5.6441   12.6500    1.8736 H   0  0  0  0  0  0
    4.3792   11.7147    1.1149 H   0  0  0  0  0  0
    6.2192   11.5352   -0.0553 H   0  0  0  0  0  0
  1  6  1  0  0  0
  1  2  2  0  0  0
  1 23  1  0  0  0
  2  7  1  0  0  0
  2  3  1  0  0  0
  3  4  2  0  0  0
  3 24  1  0  0  0
  4 19  1  0  0  0
  4  5  1  0  0  0
  5  6  2  0  0  0
  5 25  1  0  0  0
  6 20  1  0  0  0
  7  8  1  0  0  0
  7 26  1  0  0  0
  8 13  1  0  0  0
  8  9  2  0  0  0
  9 10  1  0  0  0
 10 11  2  0  0  0
 10 27  1  0  0  0
 11 12  1  0  0  0
 11 28  1  0  0  0
 12 13  2  0  0  0
 12 14  1  0  0  0
 14 15  2  0  0  0
 14 18  1  0  0  0
 15 16  1  0  0  0
 16 17  2  0  0  0
 16 29  1  0  0  0
 17 18  1  0  0  0
 17 21  1  0  0  0
 19 30  1  0  0  0
 19 31  1  0  0  0
 19 32  1  0  0  0
 20 33  1  0  0  0
 20 34  1  0  0  0
 20 35  1  0  0  0
 21 22  1  0  0  0
 21 36  1  0  0  0
 21 37  1  0  0  0
 22 38  1  0  0  0
M  END
> <s_m_entry_id>
32253

> <s_m_entry_name>
dock_pv.516

> <s_m_Source_Path>
/home/csk/Desktop/cluster/DUD-E-result/src

> <s_m_Source_File>
dock_pv.maegz

> <i_m_Source_File_Index>
516

> <chembl_id>
CHEMBL511670

> <chembl_pref_name>
None

> <i_lp_mmshare_version>
53161

> <r_lp_tautomer_probability>
0.999999987636

> <s_lp_Force_Field>
OPLS_2005

> <r_lp_Energy>
3.714609

> <b_lp_Chiralities_Consistent>
1

> <s_lp_Variant>
CHEMBL267_lig3015-1

> <s_i_glide_gridfile>
glide-grid_3el8

> <i_i_glide_lignum>
3432

> <i_i_glide_rotatable_bonds>
5

> <r_i_docking_score>
-6.97507945882448

> <r_i_glide_ligand_efficiency>
-0.317049066310203

> <r_i_glide_ligand_efficiency_sa>
-0.888383952633414

> <r_i_glide_ligand_efficiency_ln>
-1.70496384194172

> <r_i_glide_gscore>
-6.97507945882448

> <r_i_glide_lipo>
-2.36656587709648

> <r_i_glide_hbond>
-0.456

> <r_i_glide_metal>
0

> <r_i_glide_rewards>
-1.82472456097208

> <r_i_glide_evdw>
-31.4717578887939

> <r_i_glide_ecoul>
-10.0994148254395

> <r_i_glide_erotb>
0.7607110974997

> <r_i_glide_esite>
0

> <r_i_glide_emodel>
-57.2067903477023

> <r_i_glide_energy>
-41.5711727142334

> <r_i_glide_einternal>
3.70949172973633

> <i_i_glide_confnum>
7

> <i_i_glide_posenum>
384

> <r_i_glide_eff_state_penalty>
0

> <s_user_duplicate_titles>
CHEMBL267_lig3015

> <i_f3d_flags>
0

> <s_m_subgroup_title>
dock_pv

> <s_m_subgroupid>
dock_pv

> <b_m_subgroup_collapsed>
1

$$$$
CHEMBL267_lig3345
                    3D
 Schrodinger Suite 2021-1.
 36 38  0  0  1  0            999 V2000
    2.2238    8.9885    5.1302 S   0  0  0  0  0  0
   -0.1880    6.2350    4.0034 O   0  0  0  0  0  0
    1.4070    6.2357   11.3780 O   0  0  0  0  0  0
    0.9533    8.0074    3.1884 N   0  0  0  0  0  0
    2.2387    9.8791    2.5423 N   0  0  0  0  0  0
    1.3123    7.4971    5.3739 C   0  0  0  0  0  0
    1.7980    9.0314    3.3893 C   0  0  0  0  0  0
    0.5993    7.1636    4.1667 C   0  0  0  0  0  0
    1.2367    6.7056    6.4681 C   0  0  0  0  0  0
    1.9688    6.8575    7.7422 C   0  0  0  0  0  0
    3.1429   10.8835    2.9046 C   0  0  0  0  0  0
    1.3375    6.4614    8.9244 C   0  0  0  0  0  0
    1.9775    6.5845   10.1701 C   0  0  0  0  0  0
    3.2743    7.3638    7.8128 C   0  0  0  0  0  0
    4.5224   10.6408    2.8958 C   0  0  0  0  0  0
    2.6801   12.1212    3.3677 C   0  0  0  0  0  0
    3.2733    7.0995   10.2108 C   0  0  0  0  0  0
    3.9234    7.4812    9.0400 C   0  0  0  0  0  0
    5.4217   11.6234    3.3092 C   0  0  0  0  0  0
    3.5737   13.1066    3.7835 C   0  0  0  0  0  0
    4.9433   12.8553    3.7493 C   0  0  0  0  0  0
    0.1332    5.6069   11.3693 C   0  0  0  0  0  0
    0.5979    7.8428    2.2507 H   0  0  0  0  0  0
    0.5955    5.8369    6.4274 H   0  0  0  0  0  0
    0.3350    6.0643    8.8598 H   0  0  0  0  0  0
    3.8042    7.6507    6.9155 H   0  0  0  0  0  0
    4.8971    9.6825    2.5657 H   0  0  0  0  0  0
    1.6179   12.3164    3.4010 H   0  0  0  0  0  0
    3.7805    7.1890   11.1599 H   0  0  0  0  0  0
    4.9341    7.8614    9.0813 H   0  0  0  0  0  0
    6.4851   11.4329    3.2859 H   0  0  0  0  0  0
    3.2064   14.0632    4.1252 H   0  0  0  0  0  0
    5.6370   13.6205    4.0653 H   0  0  0  0  0  0
   -0.2117    5.4448   12.3879 H   0  0  0  0  0  0
   -0.6037    6.2385   10.8749 H   0  0  0  0  0  0
    0.1657    4.6390   10.8644 H   0  0  0  0  0  0
  1  6  1  0  0  0
  1  7  1  0  0  0
  2  8  2  0  0  0
  3 13  1  0  0  0
  3 22  1  0  0  0
  4  7  1  0  0  0
  4  8  1  0  0  0
  4 23  1  0  0  0
  5  7  2  3  0  0
  5 11  1  0  0  0
  6  8  1  0  0  0
  6  9  2  3  0  0
  9 10  1  0  0  0
  9 24  1  0  0  0
 10 12  2  0  0  0
 10 14  1  0  0  0
 11 15  2  0  0  0
 11 16  1  0  0  0
 12 13  1  0  0  0
 12 25  1  0  0  0
 13 17  2  0  0  0
 14 18  2  0  0  0
 14 26  1  0  0  0
 15 19  1  0  0  0
 15 27  1  0  0  0
 16 20  2  0  0  0
 16 28  1  0  0  0
 17 18  1  0  0  0
 17 29  1  0  0  0
 18 30  1  0  0  0
 19 21  2  0  0  0
 19 31  1  0  0  0
 20 21  1  0  0  0
 20 32  1  0  0  0
 21 33  1  0  0  0
 22 34  1  0  0  0
 22 35  1  0  0  0
 22 36  1  0  0  0
M  END
> <s_m_entry_id>
32255

> <s_m_entry_name>
dock_pv.518

> <s_m_Source_Path>
/home/csk/Desktop/cluster/DUD-E-result/src

> <s_m_Source_File>
dock_pv.maegz

> <i_m_Source_File_Index>
518

> <chembl_id>
CHEMBL1972937

> <chembl_pref_name>
None

> <i_lp_mmshare_version>
53161

> <r_lp_tautomer_probability>
1

> <s_lp_Force_Field>
OPLS_2005

> <r_lp_Energy>
22.009515

> <b_lp_Chiralities_Consistent>
1

> <s_lp_Variant>
CHEMBL267_lig3345-3

> <s_i_glide_gridfile>
glide-grid_3el8

> <i_i_glide_lignum>
3958

> <i_i_glide_rotatable_bonds>
3

> <r_i_docking_score>
-6.97420739457136

> <r_i_glide_ligand_efficiency>
-0.317009427025971

> <r_i_glide_ligand_efficiency_sa>
-0.88827288180007

> <r_i_glide_ligand_efficiency_ln>
-1.70475067762894

> <r_i_glide_gscore>
-6.97420739457136

> <r_i_glide_lipo>
-1.94443239935221

> <r_i_glide_hbond>
-0.32

> <r_i_glide_metal>
0

> <r_i_glide_rewards>
-2.44446812400547

> <r_i_glide_evdw>
-36.4994888305664

> <r_i_glide_ecoul>
-3.81588220596313

> <r_i_glide_erotb>
0.19235684592293

> <r_i_glide_esite>
-0.0603069447138238

> <r_i_glide_emodel>
-56.469696685524

> <r_i_glide_energy>
-40.3153710365295

> <r_i_glide_einternal>
1.16602778434753

> <i_i_glide_confnum>
2

> <i_i_glide_posenum>
33

> <r_i_glide_eff_state_penalty>
0

> <s_user_duplicate_titles>
CHEMBL267_lig3345

> <i_f3d_flags>
0

> <s_m_subgroup_title>
dock_pv

> <s_m_subgroupid>
dock_pv

> <b_m_subgroup_collapsed>
1

$$$$
CHEMBL267_lig3011
                    3D
 Schrodinger Suite 2021-1.
 39 41  0  0  1  0            999 V2000
    1.8228    9.3323    5.3168 C   0  0  0  0  0  0
    2.3116    8.4010    6.2335 C   0  0  0  0  0  0
    3.6822    8.3469    6.4991 C   0  0  0  0  0  0
    4.5656    9.2163    5.8484 C   0  0  0  0  0  0
    4.0549   10.1509    4.9367 C   0  0  0  0  0  0
    2.6787   10.2176    4.6636 C   0  0  0  0  0  0
    1.4059    7.5024    6.8065 N   0  0  0  0  0  0
    1.4124    6.8258    8.0286 C   0  0  0  0  0  0
    2.1390    7.2958    9.0805 N   0  0  0  0  0  0
    1.9846    6.6325   10.2601 C   0  0  0  0  0  0
    1.1211    5.5417   10.4028 C   0  0  0  0  0  0
    0.4631    5.1068    9.2522 C   0  0  0  0  0  0
    0.5991    5.7469    8.0645 N   0  0  0  0  0  0
   -0.3902    3.8997    9.1885 C   0  0  0  0  0  0
   -1.6394    3.8373    9.5771 N   0  0  0  0  0  0
   -2.2253    2.7166    9.1865 C   0  0  0  0  0  0
   -1.4085    1.8481    8.4535 C   0  0  0  0  0  0
    0.1981    2.4848    8.3884 S   0  0  0  0  0  0
    6.0680    9.1530    6.1250 C   0  0  0  0  0  0
   -3.6763    2.5412    9.5972 C   0  0  0  0  0  0
    6.3347    8.6216    7.3203 F   0  0  0  0  0  0
    6.6518    8.4023    5.1904 F   0  0  0  0  0  0
    6.5994   10.3755    6.0874 F   0  0  0  0  0  0
   -4.1685    1.2806    9.1881 O   0  0  0  0  0  0
    2.0932   11.1033    3.7783 O   0  0  0  0  0  0
    2.9220   11.9882    3.0295 C   0  0  0  0  0  0
    0.7648    9.3728    5.0994 H   0  0  0  0  0  0
    4.0646    7.6081    7.1903 H   0  0  0  0  0  0
    4.7429   10.8161    4.4371 H   0  0  0  0  0  0
    0.7486    7.1043    6.1509 H   0  0  0  0  0  0
    2.5568    6.9962   11.1017 H   0  0  0  0  0  0
    0.9967    5.0378   11.3497 H   0  0  0  0  0  0
   -1.6592    0.8871    8.0285 H   0  0  0  0  0  0
   -4.3003    3.3252    9.1658 H   0  0  0  0  0  0
   -3.7942    2.6291   10.6778 H   0  0  0  0  0  0
   -4.2012    1.2958    8.2143 H   0  0  0  0  0  0
    2.2983   12.5981    2.3757 H   0  0  0  0  0  0
    3.4752   12.6681    3.6799 H   0  0  0  0  0  0
    3.6266   11.4420    2.3994 H   0  0  0  0  0  0
  1  2  2  0  0  0
  1  6  1  0  0  0
  1 27  1  0  0  0
  2  7  1  0  0  0
  2  3  1  0  0  0
  3  4  2  0  0  0
  3 28  1  0  0  0
  4 19  1  0  0  0
  4  5  1  0  0  0
  5  6  2  0  0  0
  5 29  1  0  0  0
  6 25  1  0  0  0
  7  8  1  0  0  0
  7 30  1  0  0  0
  8 13  1  0  0  0
  8  9  2  0  0  0
  9 10  1  0  0  0
 10 11  2  0  0  0
 10 31  1  0  0  0
 11 12  1  0  0  0
 11 32  1  0  0  0
 12 13  2  0  0  0
 12 14  1  0  0  0
 14 15  2  0  0  0
 14 18  1  0  0  0
 15 16  1  0  0  0
 16 17  2  0  0  0
 16 20  1  0  0  0
 17 18  1  0  0  0
 17 33  1  0  0  0
 19 21  1  0  0  0
 19 22  1  0  0  0
 19 23  1  0  0  0
 20 24  1  0  0  0
 20 34  1  0  0  0
 20 35  1  0  0  0
 24 36  1  0  0  0
 25 26  1  0  0  0
 26 37  1  0  0  0
 26 38  1  0  0  0
 26 39  1  0  0  0
M  END
> <s_m_entry_id>
32256

> <s_m_entry_name>
dock_pv.519

> <s_m_Source_Path>
/home/csk/Desktop/cluster/DUD-E-result/src

> <s_m_Source_File>
dock_pv.maegz

> <i_m_Source_File_Index>
519

> <chembl_id>
CHEMBL486751

> <chembl_pref_name>
None

> <i_lp_mmshare_version>
53161

> <r_lp_tautomer_probability>
0.999999987636

> <s_lp_Force_Field>
OPLS_2005

> <r_lp_Energy>
6.429616

> <b_lp_Chiralities_Consistent>
1

> <s_lp_Variant>
CHEMBL267_lig3011-1

> <s_i_glide_gridfile>
glide-grid_3el8

> <i_i_glide_lignum>
3428

> <i_i_glide_rotatable_bonds>
7

> <r_i_docking_score>
-6.97279412800105

> <r_i_glide_ligand_efficiency>
-0.268184389538502

> <r_i_glide_ligand_efficiency_sa>
-0.794495198753196

> <r_i_glide_ligand_efficiency_ln>
-1.63753782135737

> <r_i_glide_gscore>
-6.97279412800105

> <r_i_glide_lipo>
-2.71165452049845

> <r_i_glide_hbond>
-0.16

> <r_i_glide_metal>
0

> <r_i_glide_rewards>
-2.0916608865594

> <r_i_glide_evdw>
-36.96484375

> <r_i_glide_ecoul>
-4.61723661422729

> <r_i_glide_erotb>
0.531348958690888

> <r_i_glide_esite>
0

> <r_i_glide_emodel>
-51.4758637359271

> <r_i_glide_energy>
-41.5820803642273

> <r_i_glide_einternal>
15.2933549880981

> <i_i_glide_confnum>
13

> <i_i_glide_posenum>
290

> <r_i_glide_eff_state_penalty>
0

> <s_user_duplicate_titles>
CHEMBL267_lig3011

> <i_f3d_flags>
0

> <s_m_subgroup_title>
dock_pv

> <s_m_subgroupid>
dock_pv

> <b_m_subgroup_collapsed>
1

$$$$
CHEMBL267_lig1540
                    3D
 Schrodinger Suite 2021-1.
 43 46  0  0  1  0            999 V2000
    6.9006    8.4608    6.0163 N   0  0  0  0  0  0
    7.0253    7.7987    7.1898 C   0  0  0  0  0  0
    6.0293    7.3377    7.9880 N   0  0  0  0  0  0
    5.6416    8.6927    5.5760 C   0  0  0  0  0  0
    4.5093    8.2830    6.3130 C   0  0  0  0  0  0
    4.7974    7.5977    7.5279 C   0  0  0  0  0  0
    3.5917    7.2515    8.1262 N   0  0  0  0  0  0
    2.5764    7.7075    7.3096 C   0  0  0  0  0  0
    3.0746    8.3383    6.1824 C   0  0  0  0  0  0
    2.2781    8.9099    5.0646 C   0  0  0  0  0  0
    2.5432   10.1970    4.5858 C   0  0  0  0  0  0
    1.8584   10.6820    3.4753 C   0  0  0  0  0  0
    0.9040    9.8806    2.8523 C   0  0  0  0  0  0
    0.6083    8.6113    3.3463 C   0  0  0  0  0  0
    1.2960    8.1262    4.4539 C   0  0  0  0  0  0
    5.5345    9.3465    4.3552 N   0  0  0  0  0  0
    3.4238    6.5870    9.4302 C   0  0  1  0  0  0
    3.6884    7.6352   10.5429 C   0  0  0  0  0  0
    2.1199    5.7719    9.5678 C   0  0  0  0  0  0
    1.8859    4.7137    8.6806 C   0  0  0  0  0  0
    0.7316    3.9419    8.7877 C   0  0  0  0  0  0
   -0.2041    4.2362    9.7725 C   0  0  0  0  0  0
    0.0132    5.2811   10.6635 C   0  0  0  0  0  0
    1.1676    6.0495   10.5593 C   0  0  0  0  0  0
    3.7977    7.0370   11.8229 O   0  0  0  0  0  0
    8.0351    7.6156    7.5255 H   0  0  0  0  0  0
    1.5482    7.5400    7.5960 H   0  0  0  0  0  0
    3.2890   10.8141    5.0649 H   0  0  0  0  0  0
    2.0743   11.6679    3.0903 H   0  0  0  0  0  0
    0.3785   10.2461    1.9813 H   0  0  0  0  0  0
   -0.1352    7.9992    2.8531 H   0  0  0  0  0  0
    1.0880    7.1280    4.8142 H   0  0  0  0  0  0
    4.6158    9.5134    3.9667 H   0  0  0  0  0  0
    6.3777    9.6296    3.8822 H   0  0  0  0  0  0
    4.2261    5.8476    9.4979 H   0  0  0  0  0  0
    4.5979    8.2016   10.3512 H   0  0  0  0  0  0
    2.8950    8.3804   10.5485 H   0  0  0  0  0  0
    2.6005    4.4870    7.9035 H   0  0  0  0  0  0
    0.5587    3.1231    8.1060 H   0  0  0  0  0  0
   -1.1079    3.6504    9.8508 H   0  0  0  0  0  0
   -0.7166    5.4980   11.4279 H   0  0  0  0  0  0
    1.3016    6.8522   11.2680 H   0  0  0  0  0  0
    4.1977    6.1579   11.7327 H   0  0  0  0  0  0
  1  2  2  0  0  0
  1  4  1  0  0  0
  2  3  1  0  0  0
  2 26  1  0  0  0
  3  6  2  0  0  0
  4  5  2  0  0  0
  4 16  1  0  0  0
  5  9  1  0  0  0
  5  6  1  0  0  0
  6  7  1  0  0  0
  7 17  1  0  0  0
  7  8  1  0  0  0
  8  9  2  0  0  0
  8 27  1  0  0  0
  9 10  1  0  0  0
 10 15  1  0  0  0
 10 11  2  0  0  0
 11 12  1  0  0  0
 11 28  1  0  0  0
 12 13  2  0  0  0
 12 29  1  0  0  0
 13 14  1  0  0  0
 13 30  1  0  0  0
 14 15  2  0  0  0
 14 31  1  0  0  0
 15 32  1  0  0  0
 16 33  1  0  0  0
 16 34  1  0  0  0
 17 18  1  0  0  0
 17 19  1  0  0  0
 17 35  1  0  0  0
 18 25  1  0  0  0
 18 36  1  0  0  0
 18 37  1  0  0  0
 19 20  2  0  0  0
 19 24  1  0  0  0
 20 21  1  0  0  0
 20 38  1  0  0  0
 21 22  2  0  0  0
 21 39  1  0  0  0
 22 23  1  0  0  0
 22 40  1  0  0  0
 23 24  2  0  0  0
 23 41  1  0  0  0
 24 42  1  0  0  0
 25 43  1  0  0  0
M  END
> <s_m_entry_id>
32257

> <s_m_entry_name>
dock_pv.520

> <s_m_Source_Path>
/home/csk/Desktop/cluster/DUD-E-result/src

> <s_m_Source_File>
dock_pv.maegz

> <i_m_Source_File_Index>
520

> <chembl_id>
CHEMBL471945

> <chembl_pref_name>
None

> <i_lp_mmshare_version>
53161

> <r_lp_tautomer_probability>
1

> <s_lp_Force_Field>
OPLS_2005

> <r_lp_Energy>
21.017031

> <b_lp_Chiralities_Consistent>
1

> <s_lp_Variant>
CHEMBL267_lig1540-1

> <s_i_glide_gridfile>
glide-grid_3el8

> <i_i_glide_lignum>
1721

> <i_i_glide_rotatable_bonds>
5

> <r_i_docking_score>
-6.97264940983425

> <r_i_glide_ligand_efficiency>
-0.27890597639337

> <r_i_glide_ligand_efficiency_sa>
-0.815526021392767

> <r_i_glide_ligand_efficiency_ln>
-1.65272686357202

> <r_i_glide_gscore>
-6.97264940983425

> <r_i_glide_lipo>
-2.58752291399687

> <r_i_glide_hbond>
-0.32

> <r_i_glide_metal>
0

> <r_i_glide_rewards>
-2.16777904563696

> <r_i_glide_evdw>
-40.1525535583496

> <r_i_glide_ecoul>
-3.85954689979553

> <r_i_glide_erotb>
0.689212262686391

> <r_i_glide_esite>
0

> <r_i_glide_emodel>
-58.0708455438538

> <r_i_glide_energy>
-44.0121004581451

> <r_i_glide_einternal>
8.12326049804688

> <i_i_glide_confnum>
122

> <i_i_glide_posenum>
136

> <r_i_glide_eff_state_penalty>
0

> <s_user_duplicate_titles>
CHEMBL267_lig1540,460058

> <i_f3d_flags>
0

> <s_m_subgroup_title>
dock_pv

> <s_m_subgroupid>
dock_pv

> <b_m_subgroup_collapsed>
1

$$$$
CHEMBL267_lig2743
                    3D
 Schrodinger Suite 2021-1.
 46 50  0  0  1  0            999 V2000
    7.3983   12.6154    1.1629 N   0  0  0  0  0  0
    6.9825   11.7994    2.2028 C   0  0  0  0  0  0
    5.8262   11.0363    2.0690 C   0  0  0  0  0  0
    5.4547   10.2063    3.1288 C   0  0  0  0  0  0
    6.2255   10.1588    4.3056 C   0  0  0  0  0  0
    7.3667   10.9760    4.3361 C   0  0  0  0  0  0
    7.7520   11.7790    3.3142 N   0  0  0  0  0  0
    5.8447    9.3025    5.4751 C   0  0  0  0  0  0
    6.7760    8.8992    6.4351 C   0  0  0  0  0  0
    6.3551    8.1761    7.5460 C   0  0  0  0  0  0
    4.9907    7.8385    7.6731 C   0  0  0  0  0  0
    4.5968    7.1672    8.7863 N   0  0  0  0  0  0
    3.2994    6.8064    8.8880 C   0  0  0  0  0  0
    2.3634    7.0512    7.8848 C   0  0  0  0  0  0
    0.9583    6.5302    8.0570 C   0  0  0  0  0  0
    0.4848    6.0713    9.0935 O   0  0  0  0  0  0
    0.2274    6.6493    6.9256 N   0  0  0  0  0  0
    0.5371    7.2035    5.7242 C   0  0  0  0  0  0
   -0.2306    7.0641    4.7747 O   0  0  0  0  0  0
    1.6940    7.9462    5.7388 N   0  0  0  0  0  0
    1.7003    9.0669    4.8764 C   0  0  0  0  0  0
    1.8756    8.9015    3.4954 C   0  0  0  0  0  0
    1.8145   10.0066    2.6472 C   0  0  0  0  0  0
    1.5896   11.2797    3.1700 C   0  0  0  0  0  0
    1.4099   11.4620    4.5466 C   0  0  0  0  0  0
    1.4724   10.3487    5.3967 C   0  0  0  0  0  0
    1.1335   12.8649    5.0883 C   0  0  0  0  0  0
    0.0869   13.4030    4.4601 F   0  0  0  0  0  0
    2.1988   13.6398    4.8836 F   0  0  0  0  0  0
    0.8692   12.8618    6.3980 F   0  0  0  0  0  0
    2.7176    7.7840    6.7345 C   0  0  0  0  0  0
    4.0862    8.2205    6.6280 C   0  0  0  0  0  0
    4.5368    8.9413    5.5582 N   0  0  0  0  0  0
    6.8536   12.6370    0.2985 H   0  0  0  0  0  0
    8.2295   13.1746    1.2755 H   0  0  0  0  0  0
    5.2284   11.0841    1.1687 H   0  0  0  0  0  0
    4.5683    9.5994    3.0310 H   0  0  0  0  0  0
    8.0142   11.0252    5.1954 H   0  0  0  0  0  0
    7.8204    9.1489    6.3376 H   0  0  0  0  0  0
    7.0559    7.8757    8.3139 H   0  0  0  0  0  0
    3.0418    6.2533    9.7836 H   0  0  0  0  0  0
   -0.7036    6.2371    6.9774 H   0  0  0  0  0  0
    2.0366    7.9181    3.0754 H   0  0  0  0  0  0
    1.9357    9.8730    1.5819 H   0  0  0  0  0  0
    1.5455   12.1254    2.4988 H   0  0  0  0  0  0
    1.3338   10.4681    6.4613 H   0  0  0  0  0  0
  1  2  1  0  0  0
  1 34  1  0  0  0
  1 35  1  0  0  0
  2  3  2  0  0  0
  2  7  1  0  0  0
  3  4  1  0  0  0
  3 36  1  0  0  0
  4  5  2  0  0  0
  4 37  1  0  0  0
  5  6  1  0  0  0
  5  8  1  0  0  0
  6  7  2  0  0  0
  6 38  1  0  0  0
  8  9  2  0  0  0
  8 33  1  0  0  0
  9 10  1  0  0  0
  9 39  1  0  0  0
 10 11  2  0  0  0
 10 40  1  0  0  0
 11 12  1  0  0  0
 11 32  1  0  0  0
 12 13  2  0  0  0
 13 14  1  0  0  0
 13 41  1  0  0  0
 14 15  1  0  0  0
 14 31  2  0  0  0
 15 16  2  0  0  0
 15 17  1  0  0  0
 17 18  1  0  0  0
 17 42  1  0  0  0
 18 19  2  0  0  0
 18 20  1  0  0  0
 20 21  1  0  0  0
 20 31  1  0  0  0
 21 22  2  0  0  0
 21 26  1  0  0  0
 22 23  1  0  0  0
 22 43  1  0  0  0
 23 24  2  0  0  0
 23 44  1  0  0  0
 24 25  1  0  0  0
 24 45  1  0  0  0
 25 26  2  0  0  0
 25 27  1  0  0  0
 26 46  1  0  0  0
 27 28  1  0  0  0
 27 29  1  0  0  0
 27 30  1  0  0  0
 31 32  1  0  0  0
 32 33  2  0  0  0
M  END
> <s_m_entry_id>
32258

> <s_m_entry_name>
dock_pv.521

> <s_m_Source_Path>
/home/csk/Desktop/cluster/DUD-E-result/src

> <s_m_Source_File>
dock_pv.maegz

> <i_m_Source_File_Index>
521

> <chembl_id>
CHEMBL3903725

> <chembl_pref_name>
None

> <i_lp_mmshare_version>
53161

> <r_lp_tautomer_probability>
0.999999772200052

> <s_lp_Force_Field>
OPLS_2005

> <r_lp_Energy>
45.961952

> <b_lp_Chiralities_Consistent>
1

> <s_lp_Variant>
CHEMBL267_lig2743-1

> <s_i_glide_gridfile>
glide-grid_3el8

> <i_i_glide_lignum>
3107

> <i_i_glide_rotatable_bonds>
3

> <r_i_docking_score>
-6.97180472235037

> <r_i_glide_ligand_efficiency>
-0.211266809768193

> <r_i_glide_ligand_efficiency_sa>
-0.67764554433038

> <r_i_glide_ligand_efficiency_ln>
-1.5504932721778

> <r_i_glide_gscore>
-6.97180472235037

> <r_i_glide_lipo>
-2.49259621584507

> <r_i_glide_hbond>
-0.456

> <r_i_glide_metal>
0

> <r_i_glide_rewards>
-1.14876016592934

> <r_i_glide_evdw>
-43.211067199707

> <r_i_glide_ecoul>
-5.53465270996094

> <r_i_glide_erotb>
0.197681902932274

> <r_i_glide_esite>
-0.0813789770287383

> <r_i_glide_emodel>
-68.0126340567173

> <r_i_glide_energy>
-48.745719909668

> <r_i_glide_einternal>
0.547259449958801

> <i_i_glide_confnum>
2

> <i_i_glide_posenum>
146

> <r_i_glide_eff_state_penalty>
0

> <s_user_duplicate_titles>
CHEMBL267_lig2743

> <i_f3d_flags>
0

> <s_m_subgroup_title>
dock_pv

> <s_m_subgroupid>
dock_pv

> <b_m_subgroup_collapsed>
1

$$$$
CHEMBL267_lig3419
                    3D
 Schrodinger Suite 2021-1.
 43 45  0  0  1  0            999 V2000
    5.0650    7.2833    7.6918 N   0  0  0  0  0  0
    6.1877    6.5903    7.9880 C   0  0  0  0  0  0
    7.4301    6.7940    7.4955 N   0  0  0  0  0  0
    5.1159    8.3234    6.8144 C   0  0  0  0  0  0
    6.3821    8.6459    6.2386 C   0  0  0  0  0  0
    7.4768    7.8153    6.6390 C   0  0  0  0  0  0
    8.5980    8.2377    5.9711 N   0  0  0  0  0  0
    8.2894    9.3225    5.1880 C   0  0  0  0  0  0
    6.9424    9.6013    5.3086 C   0  0  0  0  0  0
    3.8975    9.0370    6.5501 N   0  0  0  0  0  0
    2.5412    8.4375    6.6510 C   0  0  1  0  0  0
    3.9610   10.1970    5.6583 C   0  0  0  0  0  0
    2.3576    7.4817    5.4559 C   0  0  0  0  0  0
    1.0053    6.9289    5.4979 N   0  0  0  0  0  0
    0.6997    6.1700    6.7229 C   0  0  0  0  0  0
    0.7467    7.1881    7.8795 C   0  0  0  0  0  0
    2.1838    7.7300    7.9971 C   0  0  2  0  0  0
    2.3835    8.6290    9.2217 C   0  0  0  0  0  0
    0.1978    6.8971    4.4116 C   0  0  0  0  0  0
   -0.8341    6.2370    4.3880 O   0  0  0  0  0  0
    0.4931    7.7712    3.1884 C   0  0  0  0  0  0
    0.8111    9.1878    3.4138 C   0  0  0  0  0  0
    1.0669   10.3024    3.5879 N   0  0  0  0  0  0
    6.0717    5.7654    8.6778 H   0  0  0  0  0  0
    9.5150    7.8081    5.9862 H   0  0  0  0  0  0
    9.0609    9.7982    4.5966 H   0  0  0  0  0  0
    6.4504   10.3997    4.7738 H   0  0  0  0  0  0
    1.8231    9.2520    6.5350 H   0  0  0  0  0  0
    4.1926    9.8864    4.6388 H   0  0  0  0  0  0
    3.0220   10.7507    5.6307 H   0  0  0  0  0  0
    4.7261   10.8991    5.9879 H   0  0  0  0  0  0
    3.0141    6.6370    5.5880 H   0  0  0  0  0  0
    2.5982    7.9694    4.5147 H   0  0  0  0  0  0
   -0.2020    5.5762    6.6694 H   0  0  0  0  0  0
    1.4951    5.4370    6.8590 H   0  0  0  0  0  0
    0.0149    7.9854    7.7506 H   0  0  0  0  0  0
    0.4671    6.6906    8.8096 H   0  0  0  0  0  0
    2.7856    6.8361    8.1391 H   0  0  0  0  0  0
    1.7108    9.4804    9.1879 H   0  0  0  0  0  0
    2.1980    8.0777   10.1437 H   0  0  0  0  0  0
    3.3980    9.0161    9.2794 H   0  0  0  0  0  0
   -0.3863    7.7707    2.5451 H   0  0  0  0  0  0
    1.3127    7.3217    2.6276 H   0  0  0  0  0  0
  1  2  1  0  0  0
  1  4  2  0  0  0
  2  3  2  0  0  0
  2 24  1  0  0  0
  3  6  1  0  0  0
  4  5  1  0  0  0
  4 10  1  0  0  0
  5  9  1  0  0  0
  5  6  2  0  0  0
  6  7  1  0  0  0
  7  8  1  0  0  0
  7 25  1  0  0  0
  8  9  2  0  0  0
  8 26  1  0  0  0
  9 27  1  0  0  0
 10 11  1  0  0  0
 10 12  1  0  0  0
 11 13  1  0  0  0
 11 17  1  0  0  0
 11 28  1  0  0  0
 12 29  1  0  0  0
 12 30  1  0  0  0
 12 31  1  0  0  0
 13 14  1  0  0  0
 13 32  1  0  0  0
 13 33  1  0  0  0
 14 15  1  0  0  0
 14 19  1  0  0  0
 15 16  1  0  0  0
 15 34  1  0  0  0
 15 35  1  0  0  0
 16 17  1  0  0  0
 16 36  1  0  0  0
 16 37  1  0  0  0
 17 18  1  0  0  0
 17 38  1  0  0  0
 18 39  1  0  0  0
 18 40  1  0  0  0
 18 41  1  0  0  0
 19 20  2  0  0  0
 19 21  1  0  0  0
 21 22  1  0  0  0
 21 42  1  0  0  0
 21 43  1  0  0  0
 22 23  3  0  0  0
M  END
> <s_m_entry_id>
32259

> <s_m_entry_name>
dock_pv.522

> <s_m_Source_Path>
/home/csk/Desktop/cluster/DUD-E-result/src

> <s_m_Source_File>
dock_pv.maegz

> <i_m_Source_File_Index>
522

> <chembl_id>
CHEMBL234085

> <chembl_pref_name>
None

> <i_lp_mmshare_version>
53161

> <r_lp_tautomer_probability>
0.999998369746258

> <s_lp_Force_Field>
OPLS_2005

> <r_lp_Energy>
26.766019

> <b_lp_Chiralities_Consistent>
1

> <s_lp_Variant>
CHEMBL267_lig3419-2

> <s_i_glide_gridfile>
glide-grid_3el8

> <i_i_glide_lignum>
4079

> <i_i_glide_rotatable_bonds>
4

> <r_i_docking_score>
-6.9705527752746

> <r_i_glide_ligand_efficiency>
-0.303067511968461

> <r_i_glide_ligand_efficiency_sa>
-0.861883689052065

> <r_i_glide_ligand_efficiency_ln>
-1.68554286653947

> <r_i_glide_gscore>
-6.9705527752746

> <r_i_glide_lipo>
-1.56127481279404

> <r_i_glide_hbond>
-0.213080341436871

> <r_i_glide_metal>
0

> <r_i_glide_rewards>
-3.57329974635704

> <r_i_glide_evdw>
-28.2992000579834

> <r_i_glide_ecoul>
-5.02004241943359

> <r_i_glide_erotb>
0.570600221807648

> <r_i_glide_esite>
-0.0255317306800859

> <r_i_glide_emodel>
-44.1331843482927

> <r_i_glide_energy>
-33.319242477417

> <r_i_glide_einternal>
7.23676776885986

> <i_i_glide_confnum>
8

> <i_i_glide_posenum>
122

> <r_i_glide_eff_state_penalty>
0

> <s_user_duplicate_titles>
CHEMBL267_lig3419

> <i_f3d_flags>
0

> <s_m_subgroup_title>
dock_pv

> <s_m_subgroupid>
dock_pv

> <b_m_subgroup_collapsed>
1

$$$$
CHEMBL267_lig457
                    3D
 Schrodinger Suite 2021-1.
 53 56  0  0  1  0            999 V2000
    5.8103    8.3319    6.4825 C   0  0  0  0  0  0
    4.7752    9.1250    6.0030 N   0  0  0  0  0  0
    5.2759    7.4356    7.4573 C   0  0  0  0  0  0
    3.8712    7.7294    7.5842 C   0  0  0  0  0  0
    3.6210    8.7103    6.6415 C   0  0  0  0  0  0
    3.4716   13.4852    3.9879 C   0  0  0  0  0  0
    4.2180   12.3719    4.3841 N   0  0  0  0  0  0
    4.8692   10.1571    4.9528 C   0  0  1  0  0  0
    7.0930    8.3651    6.0909 N   0  0  0  0  0  0
    6.1961    6.4914    7.9722 C   0  0  0  0  0  0
    7.4980    6.4937    7.5872 N   0  0  0  0  0  0
    3.6583   11.1094    4.8812 C   0  0  0  0  0  0
    2.1293   13.2645    4.1327 O   0  0  0  0  0  0
    7.8748    7.4385    6.6934 C   0  0  0  0  0  0
    6.0560   11.1086    5.1203 C   0  0  0  0  0  0
    2.8670    7.1016    8.4845 C   0  0  0  0  0  0
    5.6785   12.3668    4.3422 C   0  0  0  0  0  0
    3.9554   14.5445    3.5880 O   0  0  0  0  0  0
    1.1024   14.2323    3.8516 C   0  0  0  0  0  0
    5.7979    5.4370    8.7878 N   0  0  0  0  0  0
    1.6570    6.6408    7.9595 C   0  0  0  0  0  0
    3.1367    6.9573    9.8479 C   0  0  0  0  0  0
    1.2151   15.4578    4.7882 C   0  0  0  0  0  0
   -0.2118   13.4916    4.1465 C   0  0  0  0  0  0
    1.1097   14.6672    2.3664 C   0  0  0  0  0  0
    0.7258    6.0290    8.7945 C   0  0  0  0  0  0
    2.1990    6.3540   10.6835 C   0  0  0  0  0  0
    0.9977    5.8897   10.1534 C   0  0  0  0  0  0
    2.6759    9.1727    6.3938 H   0  0  0  0  0  0
    4.9455    9.6044    4.0150 H   0  0  0  0  0  0
    3.2177   11.2782    5.8644 H   0  0  0  0  0  0
    2.8746   10.7100    4.2341 H   0  0  0  0  0  0
    8.9173    7.4368    6.4011 H   0  0  0  0  0  0
    7.0075   10.6977    4.7820 H   0  0  0  0  0  0
    6.1660   11.3821    6.1722 H   0  0  0  0  0  0
    6.0074   12.3054    3.3032 H   0  0  0  0  0  0
    6.1025   13.2681    4.7873 H   0  0  0  0  0  0
    4.8348    5.3761    9.0901 H   0  0  0  0  0  0
    6.4923    4.7613    9.0852 H   0  0  0  0  0  0
    1.4436    6.7380    6.9053 H   0  0  0  0  0  0
    4.0689    7.3141   10.2625 H   0  0  0  0  0  0
    0.3540   16.1181    4.6887 H   0  0  0  0  0  0
    2.1025   16.0520    4.5746 H   0  0  0  0  0  0
    1.2741   15.1507    5.8338 H   0  0  0  0  0  0
   -0.3315   12.6370    3.4826 H   0  0  0  0  0  0
   -0.2400   13.1155    5.1720 H   0  0  0  0  0  0
   -1.0793   14.1376    4.0091 H   0  0  0  0  0  0
    1.0972   13.8023    1.7032 H   0  0  0  0  0  0
    0.2385   15.2753    2.1244 H   0  0  0  0  0  0
    1.9903   15.2535    2.1085 H   0  0  0  0  0  0
   -0.2022    5.6570    8.3881 H   0  0  0  0  0  0
    2.4122    6.2391   11.7355 H   0  0  0  0  0  0
    0.2741    5.4119   10.7975 H   0  0  0  0  0  0
  1  2  1  0  0  0
  1  3  2  0  0  0
  1  9  1  0  0  0
  2  5  1  0  0  0
  2  8  1  0  0  0
  3  4  1  0  0  0
  3 10  1  0  0  0
  4 16  1  0  0  0
  4  5  2  0  0  0
  5 29  1  0  0  0
  6  7  1  0  0  0
  6 13  1  0  0  0
  6 18  2  0  0  0
  7 12  1  0  0  0
  7 17  1  0  0  0
  8 12  1  0  0  0
  8 15  1  0  0  0
  8 30  1  0  0  0
  9 14  2  0  0  0
 10 20  1  0  0  0
 10 11  2  0  0  0
 11 14  1  0  0  0
 12 31  1  0  0  0
 12 32  1  0  0  0
 13 19  1  0  0  0
 14 33  1  0  0  0
 15 17  1  0  0  0
 15 34  1  0  0  0
 15 35  1  0  0  0
 16 21  2  0  0  0
 16 22  1  0  0  0
 17 36  1  0  0  0
 17 37  1  0  0  0
 19 23  1  0  0  0
 19 24  1  0  0  0
 19 25  1  0  0  0
 20 38  1  0  0  0
 20 39  1  0  0  0
 21 26  1  0  0  0
 21 40  1  0  0  0
 22 27  2  0  0  0
 22 41  1  0  0  0
 23 42  1  0  0  0
 23 43  1  0  0  0
 23 44  1  0  0  0
 24 45  1  0  0  0
 24 46  1  0  0  0
 24 47  1  0  0  0
 25 48  1  0  0  0
 25 49  1  0  0  0
 25 50  1  0  0  0
 26 28  2  0  0  0
 26 51  1  0  0  0
 27 28  1  0  0  0
 27 52  1  0  0  0
 28 53  1  0  0  0
M  END
> <s_m_entry_id>
32260

> <s_m_entry_name>
dock_pv.523

> <s_m_Source_Path>
/home/csk/Desktop/cluster/DUD-E-result/src

> <s_m_Source_File>
dock_pv.maegz

> <i_m_Source_File_Index>
523

> <chembl_id>
CHEMBL353823

> <chembl_pref_name>
None

> <i_lp_mmshare_version>
53161

> <r_lp_tautomer_probability>
1

> <s_lp_Force_Field>
OPLS_2005

> <r_lp_Energy>
38.871698

> <b_lp_Chiralities_Consistent>
1

> <s_lp_Variant>
CHEMBL267_lig457-2

> <s_i_glide_gridfile>
glide-grid_3el8

> <i_i_glide_lignum>
548

> <i_i_glide_rotatable_bonds>
5

> <r_i_docking_score>
-6.96999072345023

> <r_i_glide_ligand_efficiency>
-0.248928240123222

> <r_i_glide_ligand_efficiency_sa>
-0.755892747906997

> <r_i_glide_ligand_efficiency_ln>
-1.60887850679246

> <r_i_glide_gscore>
-6.96999072345023

> <r_i_glide_lipo>
-2.2972377182658

> <r_i_glide_hbond>
-0.42499225504477

> <r_i_glide_metal>
0

> <r_i_glide_rewards>
-2.12810978913105

> <r_i_glide_evdw>
-40.2800445556641

> <r_i_glide_ecoul>
-4.29540967941284

> <r_i_glide_erotb>
0.538662718686523

> <r_i_glide_esite>
0

> <r_i_glide_emodel>
-60.9175022478925

> <r_i_glide_energy>
-44.5754542350769

> <r_i_glide_einternal>
2.8803825378418

> <i_i_glide_confnum>
6

> <i_i_glide_posenum>
128

> <r_i_glide_eff_state_penalty>
0

> <s_user_duplicate_titles>
CHEMBL267_lig457

> <i_f3d_flags>
0

> <s_m_subgroup_title>
dock_pv

> <s_m_subgroupid>
dock_pv

> <b_m_subgroup_collapsed>
1

$$$$
CHEMBL267_lig3597
                    3D
 Schrodinger Suite 2021-1.
 28 30  0  0  1  0            999 V2000
   -0.7575    4.1176    9.1988 Cl  0  0  0  0  0  0
    0.4961    8.9282    7.4925 O   0  0  0  0  0  0
    8.3311    6.8326    7.5885 O   0  0  0  0  0  0
    4.2310    7.0438    8.3817 N   0  0  0  0  0  0
    2.6547    9.0333    6.9544 N   0  0  0  0  0  0
    2.9839    5.2468    9.1875 N   0  0  0  0  0  0
    1.8579    4.5450    9.3782 N   0  0  0  0  0  0
    6.6187    5.4917    8.0396 N   0  0  0  0  0  0
    4.7959    7.7957    7.3417 C   0  0  0  0  0  0
    1.7783    7.0147    8.1006 C   0  0  0  0  0  0
    2.9844    6.4491    8.5542 C   0  0  0  0  0  0
    3.9920    8.7381    6.6474 C   0  0  0  0  0  0
    1.6044    8.3889    7.4878 C   0  0  0  0  0  0
    6.1637    7.6543    6.9637 C   0  0  0  0  0  0
    0.6010    6.2762    8.3130 C   0  0  0  0  0  0
    0.6777    5.0419    8.9470 C   0  0  0  0  0  0
    4.5433    9.4635    5.5874 C   0  0  0  0  0  0
    6.6784    8.4409    5.9223 C   0  0  0  0  0  0
    7.1185    6.6427    7.5838 C   0  0  0  0  0  0
    5.8756    9.3292    5.2304 C   0  0  0  0  0  0
    4.9307    6.5552    8.9207 H   0  0  0  0  0  0
    2.3439    9.9092    6.5638 H   0  0  0  0  0  0
    5.6544    5.2535    7.8640 H   0  0  0  0  0  0
    7.2246    4.8114    8.4781 H   0  0  0  0  0  0
   -0.3666    6.6368    7.9954 H   0  0  0  0  0  0
    3.9368   10.1690    5.0372 H   0  0  0  0  0  0
    7.7102    8.3412    5.6131 H   0  0  0  0  0  0
    6.2825    9.9129    4.4174 H   0  0  0  0  0  0
  1 16  1  0  0  0
  2 13  2  0  0  0
  3 19  2  0  0  0
  4  9  1  0  0  0
  4 11  1  0  0  0
  4 21  1  0  0  0
  5 12  1  0  0  0
  5 13  1  0  0  0
  5 22  1  0  0  0
  6  7  1  0  0  0
  6 11  2  0  0  0
  7 16  2  0  0  0
  8 19  1  0  0  0
  8 23  1  0  0  0
  8 24  1  0  0  0
  9 12  2  0  0  0
  9 14  1  0  0  0
 10 11  1  0  0  0
 10 13  1  0  0  0
 10 15  2  0  0  0
 12 17  1  0  0  0
 14 18  2  0  0  0
 14 19  1  0  0  0
 15 16  1  0  0  0
 15 25  1  0  0  0
 17 20  2  0  0  0
 17 26  1  0  0  0
 18 20  1  0  0  0
 18 27  1  0  0  0
 20 28  1  0  0  0
M  END
> <s_m_entry_id>
32262

> <s_m_entry_name>
dock_pv.525

> <s_m_Source_Path>
/home/csk/Desktop/cluster/DUD-E-result/src

> <s_m_Source_File>
dock_pv.maegz

> <i_m_Source_File_Index>
525

> <chembl_id>
CHEMBL1968070

> <chembl_pref_name>
None

> <i_lp_mmshare_version>
53161

> <r_lp_tautomer_probability>
0.999989120118012

> <s_lp_Force_Field>
OPLS_2005

> <r_lp_Energy>
35.628592

> <b_lp_Chiralities_Consistent>
1

> <s_lp_Variant>
CHEMBL267_lig3597-1

> <s_i_glide_gridfile>
glide-grid_3el8

> <i_i_glide_lignum>
4337

> <i_i_glide_rotatable_bonds>
1

> <r_i_docking_score>
-6.96661991381135

> <r_i_glide_ligand_efficiency>
-0.348330995690568

> <r_i_glide_ligand_efficiency_sa>
-0.945515790164351

> <r_i_glide_ligand_efficiency_ln>
-1.7435151899241

> <r_i_glide_gscore>
-6.96661991381135

> <r_i_glide_lipo>
-2.00280813518573

> <r_i_glide_hbond>
-0.664174182102723

> <r_i_glide_metal>
0

> <r_i_glide_rewards>
-1.91009778252753

> <r_i_glide_evdw>
-31.5986194610596

> <r_i_glide_ecoul>
-5.39739227294922

> <r_i_glide_erotb>
0

> <r_i_glide_esite>
0

> <r_i_glide_emodel>
-52.4484660686307

> <r_i_glide_energy>
-36.9960117340088

> <r_i_glide_einternal>
1.35828351974487

> <i_i_glide_confnum>
1

> <i_i_glide_posenum>
11

> <r_i_glide_eff_state_penalty>
0

> <s_user_duplicate_titles>
CHEMBL267_lig3597

> <i_f3d_flags>
0

> <s_m_subgroup_title>
dock_pv

> <s_m_subgroupid>
dock_pv

> <b_m_subgroup_collapsed>
1

$$$$
CHEMBL267_lig3417
                    3D
 Schrodinger Suite 2021-1.
 27 29  0  0  1  0            999 V2000
    5.9889    9.4386    5.2881 S   0  0  0  0  0  0
    7.9061    6.7655    7.4845 O   0  0  0  0  0  0
    8.5976    8.2371    5.8819 O   0  0  0  0  0  0
    1.9736   10.0163    5.4865 N   0  0  0  0  0  0
    3.9846    8.4894    6.7443 C   0  0  0  0  0  0
    4.2817    9.3994    5.6842 C   0  0  0  0  0  0
    2.6327    8.3718    7.1683 C   0  0  0  0  0  0
    6.3256    8.2224    6.5126 C   0  0  0  0  0  0
    5.1758    7.8369    7.1912 C   0  0  0  0  0  0
    2.1921    7.4777    8.2787 C   0  0  0  0  0  0
    3.2566   10.1399    5.0876 C   0  0  0  0  0  0
    1.6897    9.1548    6.4893 C   0  0  0  0  0  0
    7.6584    7.6825    6.7023 C   0  0  0  0  0  0
    2.8806    7.4505    9.4985 C   0  0  0  0  0  0
    1.0510    6.6773    8.1279 C   0  0  0  0  0  0
    2.4453    6.6369   10.5419 C   0  0  0  0  0  0
    0.6033    5.8724    9.1717 C   0  0  0  0  0  0
    1.3038    5.8550   10.3752 C   0  0  0  0  0  0
    9.3844    7.6824    5.8330 H   0  0  0  0  0  0
    5.1779    7.0877    7.9691 H   0  0  0  0  0  0
    3.4532   10.8371    4.2867 H   0  0  0  0  0  0
    0.6447    9.1126    6.7623 H   0  0  0  0  0  0
    3.7517    8.0698    9.6505 H   0  0  0  0  0  0
    0.4988    6.6740    7.1988 H   0  0  0  0  0  0
    2.9857    6.6158   11.4772 H   0  0  0  0  0  0
   -0.2842    5.2672    9.0496 H   0  0  0  0  0  0
    0.9579    5.2310   11.1852 H   0  0  0  0  0  0
  1  6  1  0  0  0
  1  8  1  0  0  0
  2 13  2  0  0  0
  3 13  1  0  0  0
  3 19  1  0  0  0
  4 11  1  0  0  0
  4 12  2  0  0  0
  5  6  1  0  0  0
  5  7  2  0  0  0
  5  9  1  0  0  0
  6 11  2  0  0  0
  7 10  1  0  0  0
  7 12  1  0  0  0
  8  9  2  0  0  0
  8 13  1  0  0  0
  9 20  1  0  0  0
 10 14  2  0  0  0
 10 15  1  0  0  0
 11 21  1  0  0  0
 12 22  1  0  0  0
 14 16  1  0  0  0
 14 23  1  0  0  0
 15 17  2  0  0  0
 15 24  1  0  0  0
 16 18  2  0  0  0
 16 25  1  0  0  0
 17 18  1  0  0  0
 17 26  1  0  0  0
 18 27  1  0  0  0
M  END
> <s_m_entry_id>
32263

> <s_m_entry_name>
dock_pv.526

> <s_m_Source_Path>
/home/csk/Desktop/cluster/DUD-E-result/src

> <s_m_Source_File>
dock_pv.maegz

> <i_m_Source_File_Index>
526

> <chembl_id>
CHEMBL1996390

> <chembl_pref_name>
None

> <i_lp_mmshare_version>
53161

> <r_lp_tautomer_probability>
1

> <s_lp_Force_Field>
OPLS_2005

> <r_lp_Energy>
11.616204

> <b_lp_Chiralities_Consistent>
1

> <s_lp_Variant>
CHEMBL267_lig3417-1

> <s_i_glide_gridfile>
glide-grid_3el8

> <i_i_glide_lignum>
4075

> <i_i_glide_rotatable_bonds>
3

> <r_i_docking_score>
-6.96558511264791

> <r_i_glide_ligand_efficiency>
-0.386976950702662

> <r_i_glide_ligand_efficiency_sa>
-1.0141665123341

> <r_i_glide_ligand_efficiency_ln>
-1.79046773576589

> <r_i_glide_gscore>
-6.96558511264791

> <r_i_glide_lipo>
-2.29502139619641

> <r_i_glide_hbond>
-0.222071155984831

> <r_i_glide_metal>
0

> <r_i_glide_rewards>
-2.43692324063347

> <r_i_glide_evdw>
-31.4882946014404

> <r_i_glide_ecoul>
-6.51583528518677

> <r_i_glide_erotb>
0.540220703016836

> <r_i_glide_esite>
0

> <r_i_glide_emodel>
-52.0756107478107

> <r_i_glide_energy>
-38.0041298866272

> <r_i_glide_einternal>
4.34046030044556

> <i_i_glide_confnum>
2

> <i_i_glide_posenum>
138

> <r_i_glide_eff_state_penalty>
0

> <s_user_duplicate_titles>
CHEMBL267_lig3417

> <i_f3d_flags>
0

> <s_m_subgroup_title>
dock_pv

> <s_m_subgroupid>
dock_pv

> <b_m_subgroup_collapsed>
1

$$$$
CHEMBL267_lig1802
                    3D
 Schrodinger Suite 2021-1.
 39 42  0  0  1  0            999 V2000
    7.8220    7.4969    6.7791 N   0  0  0  0  0  0
    8.0145    8.4810    5.8656 C   0  0  0  0  0  0
    7.0753    9.2874    5.3026 N   0  0  0  0  0  0
    6.5493    7.2914    7.1889 C   0  0  0  0  0  0
    5.4866    8.0845    6.7217 C   0  0  0  0  0  0
    5.8346    9.0494    5.7519 C   0  0  0  0  0  0
    4.6439    9.6517    5.3789 N   0  0  0  0  0  0
    3.6046    9.1451    6.0820 N   0  0  0  0  0  0
    4.0702    8.2371    6.9101 C   0  0  0  0  0  0
    3.1841    7.5716    7.9116 C   0  0  0  0  0  0
    3.6383    7.4127    9.2242 C   0  0  0  0  0  0
    2.8540    6.7764   10.1831 C   0  0  0  0  0  0
    1.5870    6.2945    9.8368 C   0  0  0  0  0  0
    1.1213    6.4508    8.5290 C   0  0  0  0  0  0
    1.9161    7.0855    7.5709 C   0  0  0  0  0  0
    6.3279    6.1987    8.0124 N   0  0  0  0  0  0
    0.4720    5.4444   11.1301 Br  0  0  0  0  0  0
    3.3517    6.6370   11.4518 O   0  0  0  0  0  0
    4.4070   10.7483    4.4308 C   0  0  0  0  0  0
    4.9998   12.0895    4.9133 C   0  0  0  0  0  0
    5.6012   12.7339    3.6612 C   0  0  0  0  0  0
    6.0853   11.5483    2.8247 C   0  0  0  0  0  0
    5.0070   10.4789    3.0311 C   0  0  0  0  0  0
    9.0337    8.6276    5.5364 H   0  0  0  0  0  0
    4.6023    7.8006    9.5130 H   0  0  0  0  0  0
    0.1431    6.0778    8.2573 H   0  0  0  0  0  0
    1.5478    7.1940    6.5606 H   0  0  0  0  0  0
    5.3834    5.9728    8.2873 H   0  0  0  0  0  0
    7.1055    5.6200    8.2899 H   0  0  0  0  0  0
    3.7531    5.7625   11.5875 H   0  0  0  0  0  0
    3.3219   10.8183    4.3198 H   0  0  0  0  0  0
    4.2502   12.7289    5.3801 H   0  0  0  0  0  0
    5.7999   11.9337    5.6395 H   0  0  0  0  0  0
    4.8361   13.2897    3.1161 H   0  0  0  0  0  0
    6.4055   13.4319    3.8989 H   0  0  0  0  0  0
    6.2166   11.8100    1.7733 H   0  0  0  0  0  0
    7.0476   11.1944    3.1983 H   0  0  0  0  0  0
    5.3962    9.4668    2.9059 H   0  0  0  0  0  0
    4.2302   10.6008    2.2744 H   0  0  0  0  0  0
  1  2  2  0  0  0
  1  4  1  0  0  0
  2  3  1  0  0  0
  2 24  1  0  0  0
  3  6  2  0  0  0
  4  5  2  0  0  0
  4 16  1  0  0  0
  5  9  1  0  0  0
  5  6  1  0  0  0
  6  7  1  0  0  0
  7  8  1  0  0  0
  7 19  1  0  0  0
  8  9  2  0  0  0
  9 10  1  0  0  0
 10 15  1  0  0  0
 10 11  2  0  0  0
 11 12  1  0  0  0
 11 25  1  0  0  0
 12 13  2  0  0  0
 12 18  1  0  0  0
 13 14  1  0  0  0
 13 17  1  0  0  0
 14 15  2  0  0  0
 14 26  1  0  0  0
 15 27  1  0  0  0
 16 28  1  0  0  0
 16 29  1  0  0  0
 18 30  1  0  0  0
 19 20  1  0  0  0
 19 23  1  0  0  0
 19 31  1  0  0  0
 20 21  1  0  0  0
 20 32  1  0  0  0
 20 33  1  0  0  0
 21 22  1  0  0  0
 21 34  1  0  0  0
 21 35  1  0  0  0
 22 23  1  0  0  0
 22 36  1  0  0  0
 22 37  1  0  0  0
 23 38  1  0  0  0
 23 39  1  0  0  0
M  END
> <s_m_entry_id>
32264

> <s_m_entry_name>
dock_pv.527

> <s_m_Source_Path>
/home/csk/Desktop/cluster/DUD-E-result/src

> <s_m_Source_File>
dock_pv.maegz

> <i_m_Source_File_Index>
527

> <chembl_id>
CHEMBL1242376

> <chembl_pref_name>
None

> <i_lp_mmshare_version>
53161

> <r_lp_tautomer_probability>
0.999999999997365

> <s_lp_Force_Field>
OPLS_2005

> <r_lp_Energy>
30.874157

> <b_lp_Chiralities_Consistent>
1

> <s_lp_Variant>
CHEMBL267_lig1802-1

> <s_i_glide_gridfile>
glide-grid_3el8

> <i_i_glide_lignum>
2065

> <i_i_glide_rotatable_bonds>
3

> <r_i_docking_score>
-6.96491529969992

> <r_i_glide_ligand_efficiency>
-0.302822404334779

> <r_i_glide_ligand_efficiency_sa>
-0.861186635546856

> <r_i_glide_ligand_efficiency_ln>
-1.68417967382771

> <r_i_glide_gscore>
-6.96491529969992

> <r_i_glide_lipo>
-2.27760707717454

> <r_i_glide_hbond>
-0.32

> <r_i_glide_metal>
0

> <r_i_glide_rewards>
-1.67811140771028

> <r_i_glide_evdw>
-37.2539215087891

> <r_i_glide_ecoul>
-7.35063505172729

> <r_i_glide_erotb>
0.276094518383442

> <r_i_glide_esite>
0

> <r_i_glide_emodel>
-58.5537676100501

> <r_i_glide_energy>
-44.6045565605164

> <r_i_glide_einternal>
5.46611213684082

> <i_i_glide_confnum>
40

> <i_i_glide_posenum>
128

> <r_i_glide_eff_state_penalty>
0

> <s_user_duplicate_titles>
CHEMBL267_lig1802

> <i_f3d_flags>
0

> <s_m_subgroup_title>
dock_pv

> <s_m_subgroupid>
dock_pv

> <b_m_subgroup_collapsed>
1

$$$$
CHEMBL267_lig3501
                    3D
 Schrodinger Suite 2021-1.
 46 50  0  0  1  0            999 V2000
    0.3066    6.2359    4.9611 F   0  0  0  0  0  0
    1.3754    9.9956    2.2677 F   0  0  0  0  0  0
   -0.1407    6.1098    9.9993 O   0  0  0  0  0  0
    5.2670   12.1452    5.2311 O   0  0  0  0  0  0
    1.9218    6.6654    9.2865 N   0  0  0  0  0  0
    5.9220    7.9941    6.9571 N   0  0  0  0  0  0
    0.3005    7.1130    7.8049 N   0  0  0  0  0  0
    4.5824    8.0934    7.1374 N   0  0  0  0  0  0
    8.0064    8.2758    6.2765 N   0  0  0  0  0  0
    8.0317    7.2156    7.1627 N   0  0  0  0  0  0
    2.5548    7.1376    8.1425 C   0  0  0  0  0  0
    1.4698    7.4586    7.2943 C   0  0  0  0  0  0
    4.0412    7.1648    7.9794 C   0  0  0  0  0  0
    0.5968    6.6340    8.9782 C   0  0  0  0  0  0
    6.7741    8.7447    6.1481 C   0  0  0  0  0  0
    1.4798    8.0816    5.9460 C   0  0  0  0  0  0
    6.7560    7.0304    7.5530 C   0  0  0  0  0  0
    6.3658    9.8992    5.1980 C   0  0  0  0  0  0
    4.7870    6.1545    8.5899 C   0  0  0  0  0  0
    2.0613    6.2074   10.5918 C   0  0  0  0  0  0
    6.1565    6.0624    8.3678 C   0  0  0  0  0  0
    0.8721    7.4606    4.8465 C   0  0  0  0  0  0
    0.7765    5.8424   10.9781 C   0  0  0  0  0  0
    2.0480    9.3485    5.7906 C   0  0  0  0  0  0
    0.8394    8.1075    3.6154 C   0  0  0  0  0  0
    5.5931   10.9923    5.9878 C   0  0  0  0  0  0
    2.0155    9.9918    4.5548 C   0  0  0  0  0  0
    1.4117    9.3690    3.4648 C   0  0  0  0  0  0
    7.6154   10.5555    4.5411 C   0  0  0  0  0  0
    5.4787    9.3282    4.0653 C   0  0  0  0  0  0
    4.7723   11.8781    4.4534 H   0  0  0  0  0  0
    4.3016    5.3986    9.1880 H   0  0  0  0  0  0
    2.9990    6.1662   11.1198 H   0  0  0  0  0  0
    6.7340    5.2581    8.7879 H   0  0  0  0  0  0
    0.3647    5.4383   11.8920 H   0  0  0  0  0  0
    2.5034    9.8351    6.6389 H   0  0  0  0  0  0
    0.3495    7.6263    2.7881 H   0  0  0  0  0  0
    6.1971   11.3174    6.8353 H   0  0  0  0  0  0
    4.6638   10.5955    6.3867 H   0  0  0  0  0  0
    2.4509   10.9732    4.4406 H   0  0  0  0  0  0
    7.3441   11.3126    3.8039 H   0  0  0  0  0  0
    8.2477   11.0385    5.2803 H   0  0  0  0  0  0
    8.2553    9.8372    4.0344 H   0  0  0  0  0  0
    5.1038   10.1084    3.4018 H   0  0  0  0  0  0
    6.0356    8.6276    3.4464 H   0  0  0  0  0  0
    4.6167    8.7869    4.4540 H   0  0  0  0  0  0
  1 22  1  0  0  0
  2 28  1  0  0  0
  3 14  1  0  0  0
  3 23  1  0  0  0
  4 26  1  0  0  0
  4 31  1  0  0  0
  5 11  1  0  0  0
  5 14  1  0  0  0
  5 20  1  0  0  0
  6  8  1  0  0  0
  6 15  1  0  0  0
  6 17  1  0  0  0
  7 12  1  0  0  0
  7 14  2  0  0  0
  8 13  2  0  0  0
  9 10  1  0  0  0
  9 15  2  0  0  0
 10 17  2  0  0  0
 11 12  2  0  0  0
 11 13  1  0  0  0
 12 16  1  0  0  0
 13 19  1  0  0  0
 15 18  1  0  0  0
 16 22  1  0  0  0
 16 24  2  0  0  0
 17 21  1  0  0  0
 18 26  1  0  0  0
 18 29  1  0  0  0
 18 30  1  0  0  0
 19 21  2  0  0  0
 19 32  1  0  0  0
 20 23  2  0  0  0
 20 33  1  0  0  0
 21 34  1  0  0  0
 22 25  2  0  0  0
 23 35  1  0  0  0
 24 27  1  0  0  0
 24 36  1  0  0  0
 25 28  1  0  0  0
 25 37  1  0  0  0
 26 38  1  0  0  0
 26 39  1  0  0  0
 27 28  2  0  0  0
 27 40  1  0  0  0
 29 41  1  0  0  0
 29 42  1  0  0  0
 29 43  1  0  0  0
 30 44  1  0  0  0
 30 45  1  0  0  0
 30 46  1  0  0  0
M  END
> <s_m_entry_id>
32265

> <s_m_entry_name>
dock_pv.528

> <s_m_Source_Path>
/home/csk/Desktop/cluster/DUD-E-result/src

> <s_m_Source_File>
dock_pv.maegz

> <i_m_Source_File_Index>
528

> <chembl_id>
CHEMBL1972849

> <chembl_pref_name>
None

> <i_lp_mmshare_version>
53161

> <r_lp_tautomer_probability>
1

> <s_lp_Force_Field>
OPLS_2005

> <r_lp_Energy>
51.320929

> <b_lp_Chiralities_Consistent>
1

> <s_lp_Variant>
CHEMBL267_lig3501-1

> <s_i_glide_gridfile>
glide-grid_3el8

> <i_i_glide_lignum>
4210

> <i_i_glide_rotatable_bonds>
5

> <r_i_docking_score>
-6.95948136713767

> <r_i_glide_ligand_efficiency>
-0.231982712237922

> <r_i_glide_ligand_efficiency_sa>
-0.72082422346779

> <r_i_glide_ligand_efficiency_ln>
-1.58126999623665

> <r_i_glide_gscore>
-6.95948136713767

> <r_i_glide_lipo>
-2.58650100910096

> <r_i_glide_hbond>
-0.0274083948446834

> <r_i_glide_metal>
0

> <r_i_glide_rewards>
-2.28779668969097

> <r_i_glide_evdw>
-42.8290138244629

> <r_i_glide_ecoul>
-2.36623573303223

> <r_i_glide_erotb>
0.467899156865927

> <r_i_glide_esite>
-0.029288379189007

> <r_i_glide_emodel>
-61.7500744815574

> <r_i_glide_energy>
-45.1952495574951

> <r_i_glide_einternal>
2.43756103515625

> <i_i_glide_confnum>
13

> <i_i_glide_posenum>
25

> <r_i_glide_eff_state_penalty>
0

> <s_user_duplicate_titles>
CHEMBL267_lig3501

> <i_f3d_flags>
0

> <s_m_subgroup_title>
dock_pv

> <s_m_subgroupid>
dock_pv

> <b_m_subgroup_collapsed>
1

$$$$
CHEMBL267_lig1918
                    3D
 Schrodinger Suite 2021-1.
 39 42  0  0  1  0            999 V2000
    2.1446    6.6377   12.0873 N   0  0  0  0  0  0
    0.9979    5.9271   12.1521 C   0  0  0  0  0  0
    0.3346    5.3205   11.1422 N   0  0  0  0  0  0
    2.6379    6.8996   10.8578 C   0  0  0  0  0  0
    2.0178    6.3744    9.7161 C   0  0  0  0  0  0
    0.8901    5.5516    9.9486 C   0  0  0  0  0  0
    0.5505    5.0247    8.7176 N   0  0  0  0  0  0
    1.3064    5.5886    7.7403 N   0  0  0  0  0  0
    2.1635    6.4135    8.3010 C   0  0  0  0  0  0
    3.1423    7.2139    7.5190 C   0  0  0  0  0  0
    4.5079    7.1249    7.8074 C   0  0  0  0  0  0
    3.5994    8.8087    5.7458 C   0  0  0  0  0  0
    2.6985    8.0600    6.5006 C   0  0  0  0  0  0
    3.7658    7.7104   10.7886 N   0  0  0  0  0  0
    4.9886    8.6911    5.9875 C   0  0  0  0  0  0
    5.4536    7.8372    7.0313 C   0  0  0  0  0  0
    6.8528    7.7014    7.2290 C   0  0  0  0  0  0
    7.7213    8.3996    6.3905 C   0  0  0  0  0  0
    7.3048    9.2335    5.4074 N   0  0  0  0  0  0
    5.9701    9.3678    5.2264 C   0  0  0  0  0  0
   -0.2897    3.8619    8.3900 C   0  0  0  0  0  0
   -1.5721    3.7436    9.2399 C   0  0  0  0  0  0
    0.5590    2.5804    8.4839 C   0  0  0  0  0  0
    0.5980    5.8100   13.1413 H   0  0  0  0  0  0
    4.8585    6.4542    8.5796 H   0  0  0  0  0  0
    3.2465    9.4539    4.9539 H   0  0  0  0  0  0
    1.6410    8.1298    6.2868 H   0  0  0  0  0  0
    4.1602    7.9327    9.8877 H   0  0  0  0  0  0
    4.1816    8.0230   11.6538 H   0  0  0  0  0  0
    7.2309    7.0454    7.9993 H   0  0  0  0  0  0
    8.7914    8.2973    6.5012 H   0  0  0  0  0  0
    5.6655   10.0269    4.4266 H   0  0  0  0  0  0
   -0.6020    4.0025    7.3623 H   0  0  0  0  0  0
   -2.1934    2.9213    8.8837 H   0  0  0  0  0  0
   -1.3631    3.5440   10.2899 H   0  0  0  0  0  0
   -2.1864    4.6372    9.1887 H   0  0  0  0  0  0
   -0.0121    1.7033    8.1786 H   0  0  0  0  0  0
    1.4354    2.6373    7.8424 H   0  0  0  0  0  0
    0.9087    2.4056    9.5028 H   0  0  0  0  0  0
  1  2  2  0  0  0
  1  4  1  0  0  0
  2  3  1  0  0  0
  2 24  1  0  0  0
  3  6  2  0  0  0
  4 14  1  0  0  0
  4  5  2  0  0  0
  5  9  1  0  0  0
  5  6  1  0  0  0
  6  7  1  0  0  0
  7  8  1  0  0  0
  7 21  1  0  0  0
  8  9  2  0  0  0
  9 10  1  0  0  0
 10 13  1  0  0  0
 10 11  2  0  0  0
 11 16  1  0  0  0
 11 25  1  0  0  0
 12 15  1  0  0  0
 12 13  2  0  0  0
 12 26  1  0  0  0
 13 27  1  0  0  0
 14 28  1  0  0  0
 14 29  1  0  0  0
 15 16  2  0  0  0
 15 20  1  0  0  0
 16 17  1  0  0  0
 17 18  2  0  0  0
 17 30  1  0  0  0
 18 19  1  0  0  0
 18 31  1  0  0  0
 19 20  2  0  0  0
 20 32  1  0  0  0
 21 22  1  0  0  0
 21 23  1  0  0  0
 21 33  1  0  0  0
 22 34  1  0  0  0
 22 35  1  0  0  0
 22 36  1  0  0  0
 23 37  1  0  0  0
 23 38  1  0  0  0
 23 39  1  0  0  0
M  END
> <s_m_entry_id>
32266

> <s_m_entry_name>
dock_pv.529

> <s_m_Source_Path>
/home/csk/Desktop/cluster/DUD-E-result/src

> <s_m_Source_File>
dock_pv.maegz

> <i_m_Source_File_Index>
529

> <chembl_id>
CHEMBL1242207

> <chembl_pref_name>
None

> <i_lp_mmshare_version>
53161

> <r_lp_tautomer_probability>
1

> <s_lp_Force_Field>
OPLS_2005

> <r_lp_Energy>
12.079814

> <b_lp_Chiralities_Consistent>
1

> <s_lp_Variant>
CHEMBL267_lig1918-1

> <s_i_glide_gridfile>
glide-grid_3el8

> <i_i_glide_lignum>
2194

> <i_i_glide_rotatable_bonds>
2

> <r_i_docking_score>
-6.95914756663316

> <r_i_glide_ligand_efficiency>
-0.302571633331876

> <r_i_glide_ligand_efficiency_sa>
-0.860473476172942

> <r_i_glide_ligand_efficiency_ln>
-1.68278498367325

> <r_i_glide_gscore>
-6.95914756663316

> <r_i_glide_lipo>
-3.1983314393793

> <r_i_glide_hbond>
0

> <r_i_glide_metal>
0

> <r_i_glide_rewards>
-2.44257442447272

> <r_i_glide_evdw>
-34.7896919250488

> <r_i_glide_ecoul>
1.48105585575104

> <r_i_glide_erotb>
0.199084515108651

> <r_i_glide_esite>
0

> <r_i_glide_emodel>
-41.829489729154

> <r_i_glide_energy>
-33.3086360692978

> <r_i_glide_einternal>
2.97025299072266

> <i_i_glide_confnum>
3

> <i_i_glide_posenum>
57

> <r_i_glide_eff_state_penalty>
0

> <s_user_duplicate_titles>
CHEMBL267_lig1918

> <i_f3d_flags>
0

> <s_m_subgroup_title>
dock_pv

> <s_m_subgroupid>
dock_pv

> <b_m_subgroup_collapsed>
1

$$$$
CHEMBL267_lig735
                    3D
 Schrodinger Suite 2021-1.
 38 41  0  0  1  0            999 V2000
    4.0989    7.3178    8.5413 C   0  0  0  0  0  0
    3.0703    7.4391    7.6694 N   0  0  0  0  0  0
   -0.1354    3.9551    9.3967 N   0  0  0  0  0  0
   -0.5978    1.9975    8.3879 N   0  0  0  0  0  0
    3.3334    7.9559    6.4442 C   0  0  0  0  0  0
    0.6048    4.9435   10.0671 C   0  0  0  0  0  0
    0.3418    2.8172    8.7887 C   0  0  0  0  0  0
    3.8288    6.7793    9.8013 N   0  0  0  0  0  0
    5.3769    7.6979    8.2923 N   0  0  0  0  0  0
    1.8244    5.3914    9.5483 C   0  0  0  0  0  0
    2.1981    7.9277    5.4827 C   0  0  0  0  0  0
   -1.4959    3.8369    9.2780 C   0  0  0  0  0  0
   -1.7254    2.6307    8.6454 C   0  0  0  0  0  0
    2.6233    6.2657   10.2942 C   0  0  0  0  0  0
    1.1395    8.8051    3.4811 N   0  0  0  0  0  0
    4.6235    8.3900    6.1049 C   0  0  0  0  0  0
    5.6228    8.2371    7.0696 C   0  0  0  0  0  0
    2.1170    8.8366    4.4185 C   0  0  0  0  0  0
    0.1731    5.4110   11.3127 C   0  0  0  0  0  0
    0.9964    6.2370   12.0734 C   0  0  0  0  0  0
    1.1816    6.9584    5.5731 C   0  0  0  0  0  0
    0.1981    7.8366    3.5864 C   0  0  0  0  0  0
    2.2305    6.6371   11.5761 C   0  0  0  0  0  0
    0.1725    6.9015    4.6162 C   0  0  0  0  0  0
    1.4026    2.6229    8.7682 H   0  0  0  0  0  0
    4.6208    6.6875   10.4193 H   0  0  0  0  0  0
    2.1642    5.0529    8.5802 H   0  0  0  0  0  0
   -2.1611    4.6084    9.6373 H   0  0  0  0  0  0
   -2.6887    2.2105    8.3886 H   0  0  0  0  0  0
    4.8564    8.7834    5.1273 H   0  0  0  0  0  0
    6.6421    8.5350    6.8689 H   0  0  0  0  0  0
    2.8552    9.6136    4.2875 H   0  0  0  0  0  0
   -0.7733    5.0880   11.7228 H   0  0  0  0  0  0
    0.6796    6.5651   13.0517 H   0  0  0  0  0  0
    1.1817    6.2259    6.3670 H   0  0  0  0  0  0
   -0.5549    7.8216    2.8098 H   0  0  0  0  0  0
    2.8695    7.2676   12.1758 H   0  0  0  0  0  0
   -0.6029    6.1501    4.6685 H   0  0  0  0  0  0
  1  2  1  0  0  0
  1  8  1  0  0  0
  1  9  2  0  0  0
  2  5  2  0  0  0
  3  6  1  0  0  0
  3  7  1  0  0  0
  3 12  1  0  0  0
  4  7  2  0  0  0
  4 13  1  0  0  0
  5 11  1  0  0  0
  5 16  1  0  0  0
  6 10  2  0  0  0
  6 19  1  0  0  0
  7 25  1  0  0  0
  8 14  1  0  0  0
  8 26  1  0  0  0
  9 17  1  0  0  0
 10 14  1  0  0  0
 10 27  1  0  0  0
 11 18  1  0  0  0
 11 21  2  0  0  0
 12 13  2  0  0  0
 12 28  1  0  0  0
 13 29  1  0  0  0
 14 23  2  0  0  0
 15 18  2  0  0  0
 15 22  1  0  0  0
 16 17  2  0  0  0
 16 30  1  0  0  0
 17 31  1  0  0  0
 18 32  1  0  0  0
 19 20  2  0  0  0
 19 33  1  0  0  0
 20 23  1  0  0  0
 20 34  1  0  0  0
 21 24  1  0  0  0
 21 35  1  0  0  0
 22 24  2  0  0  0
 22 36  1  0  0  0
 23 37  1  0  0  0
 24 38  1  0  0  0
M  END
> <s_m_entry_id>
32267

> <s_m_entry_name>
dock_pv.530

> <s_m_Source_Path>
/home/csk/Desktop/cluster/DUD-E-result/src

> <s_m_Source_File>
dock_pv.maegz

> <i_m_Source_File_Index>
530

> <chembl_id>
CHEMBL291963

> <chembl_pref_name>
None

> <i_lp_mmshare_version>
53161

> <r_lp_tautomer_probability>
0.999999987636

> <s_lp_Force_Field>
OPLS_2005

> <r_lp_Energy>
14.895114

> <b_lp_Chiralities_Consistent>
1

> <s_lp_Variant>
CHEMBL267_lig735-1

> <s_i_glide_gridfile>
glide-grid_3el8

> <i_i_glide_lignum>
860

> <i_i_glide_rotatable_bonds>
4

> <r_i_docking_score>
-6.95782383929302

> <r_i_glide_ligand_efficiency>
-0.289909326637209

> <r_i_glide_ligand_efficiency_sa>
-0.836243202655375

> <r_i_glide_ligand_efficiency_ln>
-1.66532651847465

> <r_i_glide_gscore>
-6.95782383929302

> <r_i_glide_lipo>
-3.0935419562444

> <r_i_glide_hbond>
0

> <r_i_glide_metal>
0

> <r_i_glide_rewards>
-2.17995008692906

> <r_i_glide_evdw>
-40.7013282775879

> <r_i_glide_ecoul>
-2.64488768577576

> <r_i_glide_erotb>
0.752419328407111

> <r_i_glide_esite>
-0.00495155778091082

> <r_i_glide_emodel>
-59.2437434502725

> <r_i_glide_energy>
-43.3462159633636

> <r_i_glide_einternal>
2.50671291351318

> <i_i_glide_confnum>
23

> <i_i_glide_posenum>
147

> <r_i_glide_eff_state_penalty>
0

> <s_user_duplicate_titles>
CHEMBL267_lig735

> <i_f3d_flags>
0

> <s_m_subgroup_title>
dock_pv

> <s_m_subgroupid>
dock_pv

> <b_m_subgroup_collapsed>
1

$$$$
CHEMBL267_lig1472
                    3D
 Schrodinger Suite 2021-1.
 33 35  0  0  1  0            999 V2000
    1.0022    6.8940    8.4089 C   0  0  0  0  0  0
    2.1591    6.9237    9.1892 C   0  0  0  0  0  0
    3.3375    7.4014    8.6226 C   0  0  0  0  0  0
    1.0069    7.4180    7.1236 C   0  0  0  0  0  0
    3.4255    7.8681    7.2943 C   0  0  0  0  0  0
    2.2040    7.9397    6.5795 C   0  0  0  0  0  0
    2.1057    8.6120    5.2563 C   0  0  0  0  0  0
    2.6999    9.7901    5.1639 O   0  0  0  0  0  0
    4.0472    9.7681    4.7457 C   0  0  0  0  0  0
    1.3954    8.1838    4.3454 O   0  0  0  0  0  0
    5.0815    9.0143    5.5871 C   0  0  0  0  0  0
    4.8073    8.1941    6.7211 C   0  0  0  0  0  0
    5.9247    7.5756    7.3325 C   0  0  0  0  0  0
    7.2265    7.7201    6.8568 C   0  0  0  0  0  0
    7.4650    8.5088    5.7359 C   0  0  0  0  0  0
    6.3989    9.1590    5.1332 C   0  0  0  0  0  0
    8.2535    7.0688    7.4931 O   0  0  0  0  0  0
    8.7201    8.6376    5.1895 O   0  0  0  0  0  0
    2.2229    6.5204   10.5083 O   0  0  0  0  0  0
    1.0650    5.9772   11.1336 C   0  0  0  0  0  0
   -0.2019    7.4373    6.4709 O   0  0  0  0  0  0
    0.0778    6.5061    8.8096 H   0  0  0  0  0  0
    4.1948    7.4014    9.2760 H   0  0  0  0  0  0
    4.3683   10.8087    4.6826 H   0  0  0  0  0  0
    4.0942    9.3856    3.7235 H   0  0  0  0  0  0
    5.8137    6.8993    8.1647 H   0  0  0  0  0  0
    6.6024    9.7723    4.2667 H   0  0  0  0  0  0
    9.1101    7.4366    7.2572 H   0  0  0  0  0  0
    9.2252    7.8115    5.1881 H   0  0  0  0  0  0
    1.2652    5.8373   12.1956 H   0  0  0  0  0  0
    0.2007    6.6350   11.0577 H   0  0  0  0  0  0
    0.8079    5.0083   10.7052 H   0  0  0  0  0  0
   -0.8558    6.8167    6.8198 H   0  0  0  0  0  0
  1  4  1  0  0  0
  1  2  2  0  0  0
  1 22  1  0  0  0
  2  3  1  0  0  0
  2 19  1  0  0  0
  3  5  2  0  0  0
  3 23  1  0  0  0
  4  6  2  0  0  0
  4 21  1  0  0  0
  5  6  1  0  0  0
  5 12  1  0  0  0
  6  7  1  0  0  0
  7 10  2  0  0  0
  7  8  1  0  0  0
  8  9  1  0  0  0
  9 11  1  0  0  0
  9 24  1  0  0  0
  9 25  1  0  0  0
 11 12  2  0  0  0
 11 16  1  0  0  0
 12 13  1  0  0  0
 13 14  2  0  0  0
 13 26  1  0  0  0
 14 15  1  0  0  0
 14 17  1  0  0  0
 15 16  2  0  0  0
 15 18  1  0  0  0
 16 27  1  0  0  0
 17 28  1  0  0  0
 18 29  1  0  0  0
 19 20  1  0  0  0
 20 30  1  0  0  0
 20 31  1  0  0  0
 20 32  1  0  0  0
 21 33  1  0  0  0
M  END
> <s_m_entry_id>
32269

> <s_m_entry_name>
dock_pv.532

> <s_m_Source_Path>
/home/csk/Desktop/cluster/DUD-E-result/src

> <s_m_Source_File>
dock_pv.maegz

> <i_m_Source_File_Index>
532

> <chembl_id>
CHEMBL507058

> <chembl_pref_name>
ALTERLACTONE

> <i_lp_mmshare_version>
53161

> <r_lp_tautomer_probability>
0.999999999999776

> <s_lp_Force_Field>
OPLS_2005

> <r_lp_Energy>
47.7299

> <b_lp_Chiralities_Consistent>
1

> <s_lp_Variant>
CHEMBL267_lig1472-1

> <s_i_glide_gridfile>
glide-grid_3el8

> <i_i_glide_lignum>
1647

> <i_i_glide_rotatable_bonds>
4

> <r_i_docking_score>
-6.95499900995939

> <r_i_glide_ligand_efficiency>
-0.331190429045685

> <r_i_glide_ligand_efficiency_sa>
-0.913729280752888

> <r_i_glide_ligand_efficiency_ln>
-1.71960945131367

> <r_i_glide_gscore>
-6.95499900995939

> <r_i_glide_lipo>
-2.59883458159064

> <r_i_glide_hbond>
0

> <r_i_glide_metal>
0

> <r_i_glide_rewards>
-1.59036318935508

> <r_i_glide_evdw>
-31.3171234130859

> <r_i_glide_ecoul>
-7.9996337890625

> <r_i_glide_erotb>
0

> <r_i_glide_esite>
0

> <r_i_glide_emodel>
-54.009126994038

> <r_i_glide_energy>
-39.3167572021484

> <r_i_glide_einternal>
3.98393106460571

> <i_i_glide_confnum>
1

> <i_i_glide_posenum>
114

> <r_i_glide_eff_state_penalty>
0

> <s_user_duplicate_titles>
CHEMBL267_lig1472

> <i_f3d_flags>
0

> <s_m_subgroup_title>
dock_pv

> <s_m_subgroupid>
dock_pv

> <b_m_subgroup_collapsed>
1

$$$$
CHEMBL267_lig3469
                    3D
 Schrodinger Suite 2021-1.
 50 53  0  0  1  0            999 V2000
    8.2014    6.5926    7.5878 F   0  0  0  0  0  0
    3.6075    6.6371   10.5441 O   0  0  0  0  0  0
    3.0182   11.4216    4.2552 N   0  0  0  0  0  0
    5.1747   11.4563    4.9707 N   0  0  0  0  0  0
    2.1668    8.3272    5.8348 N   0  0  0  0  0  0
    3.0256   14.0861    3.4664 N   0  0  0  0  0  0
    0.4599    6.9909    4.7785 N   0  0  0  0  0  0
    1.0432    6.5671    7.0001 N   0  0  0  0  0  0
    3.3188   10.1560    4.7237 C   0  0  0  0  0  0
    4.6649   10.2522    5.1632 C   0  0  0  0  0  0
    4.1858   12.1841    4.4130 C   0  0  0  0  0  0
    2.3264    9.0341    4.6870 C   0  0  0  0  0  0
    5.5681    9.2183    5.7667 C   0  0  0  0  0  0
    1.8757   11.9814    3.7320 C   0  0  0  0  0  0
    4.1466   13.5245    3.9880 C   0  0  0  0  0  0
    1.5759    8.7388    3.5426 C   0  0  0  0  0  0
    1.2372    7.3297    5.8388 C   0  0  0  0  0  0
    5.1519    8.4267    6.8396 C   0  0  0  0  0  0
    6.8847    9.0981    5.3023 C   0  0  0  0  0  0
    1.9144   13.3196    3.3456 C   0  0  0  0  0  0
    0.6449    7.7025    3.6363 C   0  0  0  0  0  0
    6.0335    7.5407    7.4524 C   0  0  0  0  0  0
    7.7694    8.2108    5.9093 C   0  0  0  0  0  0
    7.3405    7.4396    6.9853 C   0  0  0  0  0  0
    1.6878    6.9265    8.2645 C   0  0  0  0  0  0
    1.5117    5.9077    9.4263 C   0  0  0  0  0  0
    2.2110    6.4688   10.6991 C   0  0  0  0  0  0
    0.0127    5.7004    9.7497 C   0  0  0  0  0  0
    2.1279    4.5422    9.0339 C   0  0  0  0  0  0
    4.0299    5.7940   10.7828 H   0  0  0  0  0  0
    0.2320    5.9655    7.0249 H   0  0  0  0  0  0
    0.9993   11.3575    3.6486 H   0  0  0  0  0  0
    5.0157   14.1618    4.0755 H   0  0  0  0  0  0
    1.7043    9.2821    2.6179 H   0  0  0  0  0  0
    4.1663    8.5445    7.2548 H   0  0  0  0  0  0
    7.2342    9.7151    4.4868 H   0  0  0  0  0  0
    1.0434   13.8029    2.9253 H   0  0  0  0  0  0
    0.0258    7.4373    2.7900 H   0  0  0  0  0  0
    5.7088    6.9492    8.2966 H   0  0  0  0  0  0
    8.7882    8.1322    5.5596 H   0  0  0  0  0  0
    1.3201    7.9086    8.5650 H   0  0  0  0  0  0
    2.7511    7.0725    8.0761 H   0  0  0  0  0  0
    2.0334    5.8346   11.5665 H   0  0  0  0  0  0
    1.7973    7.4370   10.9615 H   0  0  0  0  0  0
   -0.5393    5.2886    8.9041 H   0  0  0  0  0  0
   -0.1268    5.0102   10.5827 H   0  0  0  0  0  0
   -0.4735    6.6352   10.0263 H   0  0  0  0  0  0
    1.6384    4.1118    8.1598 H   0  0  0  0  0  0
    3.1872    4.6376    8.7914 H   0  0  0  0  0  0
    2.0378    3.8136    9.8388 H   0  0  0  0  0  0
  1 24  1  0  0  0
  2 27  1  0  0  0
  2 30  1  0  0  0
  3  9  1  0  0  0
  3 11  1  0  0  0
  3 14  1  0  0  0
  4 10  1  0  0  0
  4 11  2  0  0  0
  5 12  2  0  0  0
  5 17  1  0  0  0
  6 15  2  0  0  0
  6 20  1  0  0  0
  7 17  2  0  0  0
  7 21  1  0  0  0
  8 17  1  0  0  0
  8 25  1  0  0  0
  8 31  1  0  0  0
  9 10  2  0  0  0
  9 12  1  0  0  0
 10 13  1  0  0  0
 11 15  1  0  0  0
 12 16  1  0  0  0
 13 18  2  0  0  0
 13 19  1  0  0  0
 14 20  2  0  0  0
 14 32  1  0  0  0
 15 33  1  0  0  0
 16 21  2  0  0  0
 16 34  1  0  0  0
 18 22  1  0  0  0
 18 35  1  0  0  0
 19 23  2  0  0  0
 19 36  1  0  0  0
 20 37  1  0  0  0
 21 38  1  0  0  0
 22 24  2  0  0  0
 22 39  1  0  0  0
 23 24  1  0  0  0
 23 40  1  0  0  0
 25 26  1  0  0  0
 25 41  1  0  0  0
 25 42  1  0  0  0
 26 27  1  0  0  0
 26 28  1  0  0  0
 26 29  1  0  0  0
 27 43  1  0  0  0
 27 44  1  0  0  0
 28 45  1  0  0  0
 28 46  1  0  0  0
 28 47  1  0  0  0
 29 48  1  0  0  0
 29 49  1  0  0  0
 29 50  1  0  0  0
M  END
> <s_m_entry_id>
32270

> <s_m_entry_name>
dock_pv.533

> <s_m_Source_Path>
/home/csk/Desktop/cluster/DUD-E-result/src

> <s_m_Source_File>
dock_pv.maegz

> <i_m_Source_File_Index>
533

> <chembl_id>
CHEMBL1991395

> <chembl_pref_name>
None

> <i_lp_mmshare_version>
53161

> <r_lp_tautomer_probability>
0.999999987636

> <s_lp_Force_Field>
OPLS_2005

> <r_lp_Energy>
19.351846

> <b_lp_Chiralities_Consistent>
1

> <s_lp_Variant>
CHEMBL267_lig3469-1

> <s_i_glide_gridfile>
glide-grid_3el8

> <i_i_glide_lignum>
4165

> <i_i_glide_rotatable_bonds>
7

> <r_i_docking_score>
-6.94934434706499

> <r_i_glide_ligand_efficiency>
-0.239632563691896

> <r_i_glide_ligand_efficiency_sa>
-0.736227156586483

> <r_i_glide_ligand_efficiency_ln>
-1.59122363530993

> <r_i_glide_gscore>
-6.94934434706499

> <r_i_glide_lipo>
-2.64816479228923

> <r_i_glide_hbond>
-0.32

> <r_i_glide_metal>
0

> <r_i_glide_rewards>
-1.26633087632009

> <r_i_glide_evdw>
-40.5777587890625

> <r_i_glide_ecoul>
-9.64438533782959

> <r_i_glide_erotb>
0.760697061671895

> <r_i_glide_esite>
0

> <r_i_glide_emodel>
-67.4701271760023

> <r_i_glide_energy>
-50.2221441268921

> <r_i_glide_einternal>
4.50957012176514

> <i_i_glide_confnum>
42

> <i_i_glide_posenum>
86

> <r_i_glide_eff_state_penalty>
0

> <s_user_duplicate_titles>
CHEMBL267_lig3469

> <i_f3d_flags>
0

> <s_m_subgroup_title>
dock_pv

> <s_m_subgroupid>
dock_pv

> <b_m_subgroup_collapsed>
1

$$$$
CHEMBL267_lig2726
                    3D
 Schrodinger Suite 2021-1.
 41 43  0  0  1  0            999 V2000
    7.7913    6.9567    6.6102 C   0  0  0  0  0  0
    7.4274    8.4372    6.8092 C   0  0  0  0  0  0
    7.2725    8.7923    8.2967 C   0  0  0  0  0  0
    6.2093    8.7834    6.0688 N   0  0  0  0  0  0
    5.0191    8.2383    6.4062 N   0  0  0  0  0  0
    4.0984    8.7074    5.5908 C   0  0  0  0  0  0
    2.6713    8.2646    5.6917 C   0  0  0  0  0  0
    1.8383    8.2631    4.5662 C   0  0  0  0  0  0
    0.5217    7.8242    4.6610 C   0  0  0  0  0  0
    0.0221    7.4017    5.8896 C   0  0  0  0  0  0
    0.8253    7.4008    7.0325 C   0  0  0  0  0  0
    0.2554    6.9438    8.2336 N   0  0  0  0  0  0
    1.1614    6.1134    9.5206 S   0  0  0  0  0  0
    0.1971    5.8461   10.5915 O   0  0  0  0  0  0
    2.3714    6.8886    9.8055 O   0  0  0  0  0  0
    1.6492    4.5505    8.7872 C   0  0  0  0  0  0
    1.1154    3.3918    9.2176 C   0  0  0  0  0  0
    2.1448    7.8539    6.9239 C   0  0  0  0  0  0
    4.6995    9.6084    4.6495 C   0  0  0  0  0  0
    4.3283   10.4139    3.5583 C   0  0  0  0  0  0
    5.2469   11.1627    2.8946 N   0  0  0  0  0  0
    6.5274   11.1064    3.3448 C   0  0  0  0  0  0
    7.0103   10.3786    4.3880 N   0  0  0  0  0  0
    6.0692    9.6460    4.9987 C   0  0  0  0  0  0
    8.7868    6.7531    7.0029 H   0  0  0  0  0  0
    7.0925    6.2944    7.1259 H   0  0  0  0  0  0
    7.7988    6.6921    5.5515 H   0  0  0  0  0  0
    8.2368    9.0370    6.3892 H   0  0  0  0  0  0
    8.2035    8.6359    8.8422 H   0  0  0  0  0  0
    6.9979    9.8369    8.4071 H   0  0  0  0  0  0
    6.4923    8.2003    8.7752 H   0  0  0  0  0  0
    2.2131    8.5602    3.5988 H   0  0  0  0  0  0
   -0.1106    7.8047    3.7837 H   0  0  0  0  0  0
   -1.0015    7.0625    5.9385 H   0  0  0  0  0  0
   -0.7089    6.6371    8.1633 H   0  0  0  0  0  0
    2.3844    4.6103    8.0001 H   0  0  0  0  0  0
    0.3809    3.3652   10.0119 H   0  0  0  0  0  0
    1.3992    2.4451    8.7815 H   0  0  0  0  0  0
    2.7911    7.8923    7.7832 H   0  0  0  0  0  0
    3.3078   10.4744    3.2111 H   0  0  0  0  0  0
    7.2448   11.7188    2.8153 H   0  0  0  0  0  0
  1  2  1  0  0  0
  1 25  1  0  0  0
  1 26  1  0  0  0
  1 27  1  0  0  0
  2  3  1  0  0  0
  2  4  1  0  0  0
  2 28  1  0  0  0
  3 29  1  0  0  0
  3 30  1  0  0  0
  3 31  1  0  0  0
  4  5  1  0  0  0
  4 24  1  0  0  0
  5  6  2  0  0  0
  6  7  1  0  0  0
  6 19  1  0  0  0
  7  8  2  0  0  0
  7 18  1  0  0  0
  8  9  1  0  0  0
  8 32  1  0  0  0
  9 10  2  0  0  0
  9 33  1  0  0  0
 10 11  1  0  0  0
 10 34  1  0  0  0
 11 12  1  0  0  0
 11 18  2  0  0  0
 12 13  1  0  0  0
 12 35  1  0  0  0
 13 14  2  0  0  0
 13 15  2  0  0  0
 13 16  1  0  0  0
 16 17  2  0  0  0
 16 36  1  0  0  0
 17 37  1  0  0  0
 17 38  1  0  0  0
 18 39  1  0  0  0
 19 20  2  0  0  0
 19 24  1  0  0  0
 20 21  1  0  0  0
 20 40  1  0  0  0
 21 22  2  0  0  0
 22 23  1  0  0  0
 22 41  1  0  0  0
 23 24  2  0  0  0
M  END
> <s_m_entry_id>
32271

> <s_m_entry_name>
dock_pv.534

> <s_m_Source_Path>
/home/csk/Desktop/cluster/DUD-E-result/src

> <s_m_Source_File>
dock_pv.maegz

> <i_m_Source_File_Index>
534

> <chembl_id>
CHEMBL3937010

> <chembl_pref_name>
None

> <i_lp_mmshare_version>
53161

> <r_lp_tautomer_probability>
1

> <s_lp_Force_Field>
OPLS_2005

> <r_lp_Energy>
5.31355

> <b_lp_Chiralities_Consistent>
1

> <s_lp_Variant>
CHEMBL267_lig2726-1

> <s_i_glide_gridfile>
glide-grid_3el8

> <i_i_glide_lignum>
3090

> <i_i_glide_rotatable_bonds>
5

> <r_i_docking_score>
-6.94902363586122

> <r_i_glide_ligand_efficiency>
-0.289542651494218

> <r_i_glide_ligand_efficiency_sa>
-0.835185528521651

> <r_i_glide_ligand_efficiency_ln>
-1.6632202259784

> <r_i_glide_gscore>
-6.94902363586122

> <r_i_glide_lipo>
-2.70058643066751

> <r_i_glide_hbond>
-0.32

> <r_i_glide_metal>
0

> <r_i_glide_rewards>
-2.12676465428557

> <r_i_glide_evdw>
-37.5373229980469

> <r_i_glide_ecoul>
-3.45549702644348

> <r_i_glide_erotb>
0.643605938043753

> <r_i_glide_esite>
-0.0500877850830251

> <r_i_glide_emodel>
-58.2835512387404

> <r_i_glide_energy>
-40.9928200244904

> <r_i_glide_einternal>
0.553260624408722

> <i_i_glide_confnum>
1

> <i_i_glide_posenum>
59

> <r_i_glide_eff_state_penalty>
0

> <s_user_duplicate_titles>
CHEMBL267_lig2726

> <i_f3d_flags>
0

> <s_m_subgroup_title>
dock_pv

> <s_m_subgroupid>
dock_pv

> <b_m_subgroup_collapsed>
1

$$$$
CHEMBL267_lig1354
                    3D
 Schrodinger Suite 2021-1.
 52 54  0  0  1  0            999 V2000
   -0.6020    4.6350    9.5964 N   0  0  0  0  0  0
    0.4981    5.4783    9.6484 C   0  0  0  0  0  0
    0.9996    5.8155   10.8651 N   0  0  0  0  0  0
    2.0582    6.6370   10.8997 C   0  0  0  0  0  0
    2.6967    7.2403    9.8829 N   0  0  0  0  0  0
    2.1606    6.8874    8.6874 C   0  0  0  0  0  0
    2.5067    7.3071    7.4346 N   0  0  0  0  0  0
    1.7037    6.6379    6.5845 C   0  0  0  0  0  0
    0.8382    5.8657    7.1882 N   0  0  0  0  0  0
    1.1035    6.0202    8.4939 C   0  0  0  0  0  0
    3.5855    8.3141    7.1291 C   0  0  2  0  0  0
    3.4477    8.7943    5.8270 O   0  0  0  0  0  0
    4.6781    9.3426    5.3939 C   0  0  2  0  0  0
    4.6289    9.5705    3.8617 C   0  0  0  0  0  0
    5.1976   10.8123    3.4650 O   0  0  0  0  0  0
    4.4760   12.2207    3.8603 P   0  0  2  0  0  0
    5.2274   12.6369    5.2316 O   0  0  0  0  0  0
    2.9918   12.1904    3.9387 O   0  0  0  0  0  0
    5.0908   13.2710    2.8037 O   0  0  0  0  0  0
    4.9110   14.9089    2.4097 P   0  0  2  0  0  0
    6.4232   15.5854    2.7880 O   0  0  0  0  0  0
    3.7978   15.5764    3.1816 O   0  0  0  0  0  0
    4.7390   15.0367    0.7351 O   0  0  0  0  0  0
    3.5107   15.3081   -0.3911 P   0  0  1  0  0  0
    2.6597   16.6781    0.1518 O   0  0  0  0  0  0
    3.9855   15.4449   -1.8159 O   0  0  0  0  0  0
    2.4211   14.0310   -0.1754 O   0  0  0  0  0  0
    2.3814   12.4215   -0.2722 P   0  0  0  0  0  0
    2.5980   12.1330   -1.8539 O   0  0  0  0  0  0
    3.7980   11.9968    0.3880 O   0  0  0  0  0  0
    1.1825   11.7825    0.3302 O   0  0  0  0  0  0
    5.6422    8.2688    5.8897 C   0  0  1  0  0  0
    6.9672    8.7424    6.0402 O   0  0  0  0  0  0
    5.0214    7.7647    7.2007 C   0  0  1  0  0  0
    5.6379    8.2370    8.3871 O   0  0  0  0  0  0
   -1.1918    4.7324    8.7790 H   0  0  0  0  0  0
   -1.0379    4.4385   10.4843 H   0  0  0  0  0  0
    2.4356    6.8645   11.8864 H   0  0  0  0  0  0
    1.7857    6.7832    5.5162 H   0  0  0  0  0  0
    3.3982    9.1472    7.8103 H   0  0  0  0  0  0
    4.8357   10.2780    5.9332 H   0  0  0  0  0  0
    3.5994    9.5269    3.4994 H   0  0  0  0  0  0
    5.1581    8.7761    3.3351 H   0  0  0  0  0  0
    6.1986   12.6536    5.1554 H   0  0  0  0  0  0
    6.7010   15.6584    3.7393 H   0  0  0  0  0  0
    1.8131   16.9465   -0.2470 H   0  0  0  0  0  0
    3.4551   12.4269   -2.2513 H   0  0  0  0  0  0
    4.5732   12.2370   -0.1840 H   0  0  0  0  0  0
    5.6424    7.4371    5.1879 H   0  0  0  0  0  0
    7.0672    8.9840    6.9675 H   0  0  0  0  0  0
    4.9988    6.6738    7.2049 H   0  0  0  0  0  0
    5.2190    7.8021    9.1380 H   0  0  0  0  0  0
  1  2  1  0  0  0
  1 36  1  0  0  0
  1 37  1  0  0  0
  2  3  2  0  0  0
  2 10  1  0  0  0
  3  4  1  0  0  0
  4  5  2  0  0  0
  4 38  1  0  0  0
  5  6  1  0  0  0
  6  7  1  0  0  0
  6 10  2  0  0  0
  7  8  1  0  0  0
  7 11  1  0  0  0
  8  9  2  0  0  0
  8 39  1  0  0  0
  9 10  1  0  0  0
 11 12  1  0  0  0
 11 34  1  0  0  0
 11 40  1  0  0  0
 12 13  1  0  0  0
 13 14  1  0  0  0
 13 32  1  0  0  0
 13 41  1  0  0  0
 14 15  1  0  0  0
 14 42  1  0  0  0
 14 43  1  0  0  0
 15 16  1  0  0  0
 16 17  1  0  0  0
 16 18  2  0  0  0
 16 19  1  0  0  0
 17 44  1  0  0  0
 19 20  1  0  0  0
 20 21  1  0  0  0
 20 22  2  0  0  0
 20 23  1  0  0  0
 21 45  1  0  0  0
 23 24  1  0  0  0
 24 25  1  0  0  0
 24 26  2  0  0  0
 24 27  1  0  0  0
 25 46  1  0  0  0
 27 28  1  0  0  0
 28 29  1  0  0  0
 28 30  1  0  0  0
 28 31  2  0  0  0
 29 47  1  0  0  0
 30 48  1  0  0  0
 32 33  1  0  0  0
 32 34  1  0  0  0
 32 49  1  0  0  0
 33 50  1  0  0  0
 34 35  1  0  0  0
 34 51  1  0  0  0
 35 52  1  0  0  0
M  END
> <s_m_entry_id>
32272

> <s_m_entry_name>
dock_pv.535

> <s_m_Source_Path>
/home/csk/Desktop/cluster/DUD-E-result/src

> <s_m_Source_File>
dock_pv.maegz

> <i_m_Source_File_Index>
535

> <chembl_id>
CHEMBL490984

> <chembl_pref_name>
None

> <i_lp_mmshare_version>
53161

> <r_lp_tautomer_probability>
0.999997216410988

> <s_lp_Force_Field>
OPLS_2005

> <r_lp_Energy>
33.47176

> <b_lp_Chiralities_Consistent>
1

> <s_lp_Variant>
CHEMBL267_lig1354-7

> <s_i_glide_gridfile>
glide-grid_3el8

> <i_i_glide_lignum>
1514

> <i_i_glide_rotatable_bonds>
17

> <r_i_docking_score>
-6.94819313499971

> <r_i_glide_ligand_efficiency>
-0.198519803857135

> <r_i_glide_ligand_efficiency_sa>
-0.649371441532739

> <r_i_glide_ligand_efficiency_ln>
-1.52528259997062

> <r_i_glide_gscore>
-6.94819313499971

> <r_i_glide_lipo>
-1.05558348568194

> <r_i_glide_hbond>
-0.236751762141688

> <r_i_glide_metal>
0

> <r_i_glide_rewards>
-1.23679012283018

> <r_i_glide_evdw>
-35.8114051818848

> <r_i_glide_ecoul>
-20.5170783996582

> <r_i_glide_erotb>
0.501373397443756

> <r_i_glide_esite>
-0.052309142746692

> <r_i_glide_emodel>
-69.9361836169096

> <r_i_glide_energy>
-56.328483581543

> <r_i_glide_einternal>
24.4278182983398

> <i_i_glide_confnum>
7

> <i_i_glide_posenum>
6

> <r_i_glide_eff_state_penalty>
0

> <s_user_duplicate_titles>
CHEMBL267_lig1354

> <i_f3d_flags>
0

> <s_m_subgroup_title>
dock_pv

> <s_m_subgroupid>
dock_pv

> <b_m_subgroup_collapsed>
1

$$$$
CHEMBL267_lig3848
                    3D
 Schrodinger Suite 2021-1.
 50 54  0  0  1  0            999 V2000
    0.8234    7.6851    7.6830 C   0  0  0  0  0  0
    0.5981    6.6301    8.5688 C   0  0  0  0  0  0
    1.5753    5.8787    9.1369 N   0  0  0  0  0  0
    2.1311    8.0087    7.3197 C   0  0  0  0  0  0
    3.1851    7.2502    7.8637 C   0  0  0  0  0  0
    2.8135    6.2118    8.7670 C   0  0  0  0  0  0
    3.9652    5.6084    9.1879 N   0  0  0  0  0  0
    5.0405    6.1964    8.5825 C   0  0  0  0  0  0
    4.6298    7.2180    7.7427 C   0  0  0  0  0  0
    5.5124    8.0439    6.8680 C   0  0  0  0  0  0
    4.8883    8.8625    5.9881 N   0  0  0  0  0  0
    5.6683    9.5787    5.1366 C   0  0  0  0  0  0
    7.0646    9.4894    5.1878 C   0  0  0  0  0  0
    7.6213    8.6025    6.1167 C   0  0  0  0  0  0
    6.8596    7.8703    6.9695 N   0  0  0  0  0  0
    7.8619   10.2372    4.3879 F   0  0  0  0  0  0
    5.0529   10.4268    4.1986 N   0  0  0  0  0  0
    3.6690   10.8837    4.3688 C   0  0  1  0  0  0
    3.6603   12.3068    5.0019 C   0  0  1  0  0  0
    4.2135   13.3152    3.9557 C   0  0  0  0  0  0
    3.3882   13.2611    2.6359 C   0  0  0  0  0  0
    2.2280   12.2261    2.7309 C   0  0  1  0  0  0
    2.8762   10.8341    3.0210 C   0  0  2  0  0  0
    1.6060    9.4704    3.1131 P   0  0  0  0  0  0
   -0.2144    8.3914    7.1875 F   0  0  0  0  0  0
    0.5213    9.8827    1.9875 O   0  0  0  0  0  0
    2.3592    8.2378    2.3880 O   0  0  0  0  0  0
    0.9987    9.1233    4.4233 O   0  0  0  0  0  0
    2.1715   12.6669    5.2608 C   0  0  0  0  0  0
    1.3448   12.6307    3.9447 C   0  0  0  0  0  0
   -0.4106    6.3561    8.8431 H   0  0  0  0  0  0
    2.3114    8.8154    6.6280 H   0  0  0  0  0  0
    4.0630    4.8688    9.8747 H   0  0  0  0  0  0
    6.0338    5.8233    8.7874 H   0  0  0  0  0  0
    8.6922    8.4793    6.1852 H   0  0  0  0  0  0
    5.6508   10.9659    3.5898 H   0  0  0  0  0  0
    3.1627   10.2409    5.0852 H   0  0  0  0  0  0
    4.2347   12.3361    5.9301 H   0  0  0  0  0  0
    4.1807   14.3208    4.3746 H   0  0  0  0  0  0
    5.2686   13.1266    3.7525 H   0  0  0  0  0  0
    4.0436   13.0115    1.7989 H   0  0  0  0  0  0
    2.9877   14.2503    2.4062 H   0  0  0  0  0  0
    1.6486   12.2144    1.8068 H   0  0  0  0  0  0
    3.5198   10.5751    2.1789 H   0  0  0  0  0  0
    0.1982    9.1331    1.4395 H   0  0  0  0  0  0
    1.7586    7.6597    1.8716 H   0  0  0  0  0  0
    1.7406   11.9771    5.9887 H   0  0  0  0  0  0
    2.0984   13.6559    5.7146 H   0  0  0  0  0  0
    0.8812   13.6008    3.7629 H   0  0  0  0  0  0
    0.5187   11.9325    4.0532 H   0  0  0  0  0  0
  1  2  2  0  0  0
  1  4  1  0  0  0
  1 25  1  0  0  0
  2  3  1  0  0  0
  2 31  1  0  0  0
  3  6  2  0  0  0
  4  5  2  0  0  0
  4 32  1  0  0  0
  5  6  1  0  0  0
  5  9  1  0  0  0
  6  7  1  0  0  0
  7  8  1  0  0  0
  7 33  1  0  0  0
  8  9  2  0  0  0
  8 34  1  0  0  0
  9 10  1  0  0  0
 10 11  2  0  0  0
 10 15  1  0  0  0
 11 12  1  0  0  0
 12 13  2  0  0  0
 12 17  1  0  0  0
 13 14  1  0  0  0
 13 16  1  0  0  0
 14 15  2  0  0  0
 14 35  1  0  0  0
 17 18  1  0  0  0
 17 36  1  0  0  0
 18 19  1  0  0  0
 18 23  1  0  0  0
 18 37  1  0  0  0
 19 20  1  0  0  0
 19 29  1  0  0  0
 19 38  1  0  0  0
 20 21  1  0  0  0
 20 39  1  0  0  0
 20 40  1  0  0  0
 21 22  1  0  0  0
 21 41  1  0  0  0
 21 42  1  0  0  0
 22 23  1  0  0  0
 22 30  1  0  0  0
 22 43  1  0  0  0
 23 24  1  0  0  0
 23 44  1  0  0  0
 24 26  1  0  0  0
 24 27  1  0  0  0
 24 28  2  0  0  0
 26 45  1  0  0  0
 27 46  1  0  0  0
 29 30  1  0  0  0
 29 47  1  0  0  0
 29 48  1  0  0  0
 30 49  1  0  0  0
 30 50  1  0  0  0
M  END
> <s_m_entry_id>
32273

> <s_m_entry_name>
dock_pv.536

> <s_m_Source_Path>
/home/csk/Desktop/cluster/DUD-E-result/src

> <s_m_Source_File>
dock_pv.maegz

> <i_m_Source_File_Index>
536

> <chembl_id>
CHEMBL3401976

> <chembl_pref_name>
None

> <i_lp_mmshare_version>
53161

> <r_lp_tautomer_probability>
0.999998015729938

> <s_lp_Force_Field>
OPLS_2005

> <r_lp_Energy>
27.226014

> <b_lp_Chiralities_Consistent>
1

> <s_lp_Variant>
CHEMBL267_lig3848-1

> <s_i_glide_gridfile>
glide-grid_3el8

> <i_i_glide_lignum>
4733

> <i_i_glide_rotatable_bonds>
6

> <r_i_docking_score>
-6.94790826265665

> <r_i_glide_ligand_efficiency>
-0.231596942088555

> <r_i_glide_ligand_efficiency_sa>
-0.719625545921209

> <r_i_glide_ligand_efficiency_ln>
-1.57864046079949

> <r_i_glide_gscore>
-6.94790826265665

> <r_i_glide_lipo>
-1.78470880925123

> <r_i_glide_hbond>
-0.271442091207738

> <r_i_glide_metal>
0

> <r_i_glide_rewards>
-1.24009137715156

> <r_i_glide_evdw>
-36.3252716064453

> <r_i_glide_ecoul>
-14.094030380249

> <r_i_glide_erotb>
0.420459079238102

> <r_i_glide_esite>
-0.141756926924599

> <r_i_glide_emodel>
-69.4943861398064

> <r_i_glide_energy>
-50.4193019866943

> <r_i_glide_einternal>
4.037682056427

> <i_i_glide_confnum>
7

> <i_i_glide_posenum>
111

> <r_i_glide_eff_state_penalty>
0

> <s_user_duplicate_titles>
CHEMBL267_lig3848

> <i_f3d_flags>
0

> <s_m_subgroup_title>
dock_pv

> <s_m_subgroupid>
dock_pv

> <b_m_subgroup_collapsed>
1

$$$$
CHEMBL267_lig3021
                    3D
 Schrodinger Suite 2021-1.
 34 36  0  0  1  0            999 V2000
    7.5551   11.5795    3.2745 C   0  0  0  0  0  0
    6.7055   10.6498    4.1219 C   0  0  0  0  0  0
    5.3476   10.4811    3.8338 C   0  0  0  0  0  0
    4.5596    9.6016    4.5816 C   0  0  0  0  0  0
    3.2174    9.4420    4.1832 N   0  0  0  0  0  0
    2.1736    8.6180    4.6234 C   0  0  0  0  0  0
    1.1648    8.4209    3.7370 N   0  0  0  0  0  0
    0.1991    7.5320    4.0922 C   0  0  0  0  0  0
    0.2205    6.8507    5.3130 C   0  0  0  0  0  0
    1.2832    7.1318    6.1854 C   0  0  0  0  0  0
    2.2491    8.0283    5.8426 N   0  0  0  0  0  0
    1.4526    6.4629    7.5206 C   0  0  0  0  0  0
    0.5987    5.5972    8.0194 N   0  0  0  0  0  0
    0.9679    5.1530    9.2034 C   0  0  0  0  0  0
    2.1640    5.6535    9.7029 C   0  0  0  0  0  0
    2.8308    6.7642    8.5540 S   0  0  0  0  0  0
    5.1559    8.9057    5.6465 C   0  0  0  0  0  0
    6.5129    9.0651    5.9532 C   0  0  0  0  0  0
    7.2822    9.9342    5.1743 C   0  0  0  0  0  0
    7.1362    8.3014    7.1228 C   0  0  0  0  0  0
    8.4361    8.0721    6.9254 F   0  0  0  0  0  0
    6.5408    7.1260    7.3243 F   0  0  0  0  0  0
    6.9988    9.0335    8.2276 F   0  0  0  0  0  0
    7.2003   11.5954    2.2426 H   0  0  0  0  0  0
    7.5247   12.5970    3.6682 H   0  0  0  0  0  0
    8.5932   11.2446    3.2389 H   0  0  0  0  0  0
    4.9109   11.0292    3.0094 H   0  0  0  0  0  0
    3.0117    9.8574    3.2865 H   0  0  0  0  0  0
   -0.5890    7.3652    3.3690 H   0  0  0  0  0  0
   -0.5514    6.1374    5.5669 H   0  0  0  0  0  0
    0.3337    4.4387    9.7120 H   0  0  0  0  0  0
    2.6695    5.4352   10.6362 H   0  0  0  0  0  0
    4.5973    8.2145    6.2532 H   0  0  0  0  0  0
    8.3362   10.0522    5.3803 H   0  0  0  0  0  0
  1  2  1  0  0  0
  1 24  1  0  0  0
  1 25  1  0  0  0
  1 26  1  0  0  0
  2  3  1  0  0  0
  2 19  2  0  0  0
  3  4  2  0  0  0
  3 27  1  0  0  0
  4  5  1  0  0  0
  4 17  1  0  0  0
  5  6  1  0  0  0
  5 28  1  0  0  0
  6  7  2  0  0  0
  6 11  1  0  0  0
  7  8  1  0  0  0
  8  9  2  0  0  0
  8 29  1  0  0  0
  9 10  1  0  0  0
  9 30  1  0  0  0
 10 11  2  0  0  0
 10 12  1  0  0  0
 12 13  2  0  0  0
 12 16  1  0  0  0
 13 14  1  0  0  0
 14 15  2  0  0  0
 14 31  1  0  0  0
 15 16  1  0  0  0
 15 32  1  0  0  0
 17 18  2  0  0  0
 17 33  1  0  0  0
 18 19  1  0  0  0
 18 20  1  0  0  0
 19 34  1  0  0  0
 20 21  1  0  0  0
 20 22  1  0  0  0
 20 23  1  0  0  0
M  END
> <s_m_entry_id>
32275

> <s_m_entry_name>
dock_pv.538

> <s_m_Source_Path>
/home/csk/Desktop/cluster/DUD-E-result/src

> <s_m_Source_File>
dock_pv.maegz

> <i_m_Source_File_Index>
538

> <chembl_id>
CHEMBL471776

> <chembl_pref_name>
None

> <i_lp_mmshare_version>
53161

> <r_lp_tautomer_probability>
0.999999987636

> <s_lp_Force_Field>
OPLS_2005

> <r_lp_Energy>
4.27914

> <b_lp_Chiralities_Consistent>
1

> <s_lp_Variant>
CHEMBL267_lig3021-1

> <s_i_glide_gridfile>
glide-grid_3el8

> <i_i_glide_lignum>
3438

> <i_i_glide_rotatable_bonds>
4

> <r_i_docking_score>
-6.94487987238262

> <r_i_glide_ligand_efficiency>
-0.301951298799244

> <r_i_glide_ligand_efficiency_sa>
-0.858709327280972

> <r_i_glide_ligand_efficiency_ln>
-1.67933492583117

> <r_i_glide_gscore>
-6.94487987238262

> <r_i_glide_lipo>
-2.98988821675645

> <r_i_glide_hbond>
0

> <r_i_glide_metal>
0

> <r_i_glide_rewards>
-2.33614198032189

> <r_i_glide_evdw>
-34.7202033996582

> <r_i_glide_ecoul>
-2.55781936645508

> <r_i_glide_erotb>
0.500833399646895

> <r_i_glide_esite>
0

> <r_i_glide_emodel>
-53.111017283893

> <r_i_glide_energy>
-37.2780227661133

> <r_i_glide_einternal>
1.6351603269577

> <i_i_glide_confnum>
1

> <i_i_glide_posenum>
343

> <r_i_glide_eff_state_penalty>
0

> <s_user_duplicate_titles>
CHEMBL267_lig3021

> <i_f3d_flags>
0

> <s_m_subgroup_title>
dock_pv

> <s_m_subgroupid>
dock_pv

> <b_m_subgroup_collapsed>
1

$$$$
CHEMBL267_lig3514
                    3D
 Schrodinger Suite 2021-1.
 36 40  0  0  1  0            999 V2000
    3.2716    7.6164    8.4292 N   0  0  0  0  0  0
    0.4459    4.4324    9.5399 N   0  0  0  0  0  0
    2.1896    8.2835    7.9711 N   0  0  0  0  0  0
    0.0863    5.2103   10.5704 N   0  0  0  0  0  0
    2.5235    8.9040    6.7886 N   0  0  0  0  0  0
    1.0642    6.1774   10.7119 N   0  0  0  0  0  0
   -2.2990   -0.1595    8.0898 N   0  0  0  0  0  0
   -1.3037   -1.0024    7.7921 N   0  0  0  0  0  0
    4.3587    7.8363    7.5947 C   0  0  0  0  0  0
   -0.3231    3.3180    9.1367 C   0  0  0  0  0  0
    1.9908    5.9815    9.7901 C   0  0  0  0  0  0
    3.8425    8.6474    6.5555 C   0  0  0  0  0  0
   -0.4356    1.0147    8.3881 C   0  0  0  0  0  0
    3.2022    6.8870    9.6931 C   0  0  0  0  0  0
    1.6409    4.8758    9.0290 C   0  0  0  0  0  0
   -1.8385    1.0917    8.4584 C   0  0  0  0  0  0
    0.3274    2.1462    8.7398 C   0  0  0  0  0  0
   -1.7191    3.3552    9.1883 C   0  0  0  0  0  0
    5.7010    7.4333    7.6156 C   0  0  0  0  0  0
   -2.5047    2.2547    8.8585 C   0  0  0  0  0  0
    4.6747    9.0789    5.5145 C   0  0  0  0  0  0
   -0.2019   -0.3348    7.9879 C   0  0  0  0  0  0
    6.5128    7.8838    6.5697 C   0  0  0  0  0  0
    6.0150    8.6876    5.5435 C   0  0  0  0  0  0
   -3.2615   -0.4329    7.9636 H   0  0  0  0  0  0
    4.1116    6.2942    9.7929 H   0  0  0  0  0  0
    3.2332    7.6222   10.4983 H   0  0  0  0  0  0
    2.1167    4.3921    8.1916 H   0  0  0  0  0  0
    1.3980    2.1047    8.7883 H   0  0  0  0  0  0
   -2.2266    4.2376    9.5317 H   0  0  0  0  0  0
    6.1002    6.7952    8.3882 H   0  0  0  0  0  0
   -3.5789    2.3034    8.9321 H   0  0  0  0  0  0
    4.2904    9.7003    4.7192 H   0  0  0  0  0  0
    0.7354   -0.8230    7.8251 H   0  0  0  0  0  0
    7.5550    7.5928    6.5471 H   0  0  0  0  0  0
    6.6803    9.0102    4.7559 H   0  0  0  0  0  0
  1  3  1  0  0  0
  1  9  1  0  0  0
  1 14  1  0  0  0
  2  4  1  0  0  0
  2 10  1  0  0  0
  2 15  1  0  0  0
  3  5  2  0  0  0
  4  6  2  0  0  0
  5 12  1  0  0  0
  6 11  1  0  0  0
  7  8  1  0  0  0
  7 16  1  0  0  0
  7 25  1  0  0  0
  8 22  2  0  0  0
  9 12  1  0  0  0
  9 19  2  0  0  0
 10 17  1  0  0  0
 10 18  2  0  0  0
 11 14  1  0  0  0
 11 15  2  0  0  0
 12 21  2  0  0  0
 13 16  1  0  0  0
 13 17  2  0  0  0
 13 22  1  0  0  0
 14 26  1  0  0  0
 14 27  1  0  0  0
 15 28  1  0  0  0
 16 20  2  0  0  0
 17 29  1  0  0  0
 18 20  1  0  0  0
 18 30  1  0  0  0
 19 23  1  0  0  0
 19 31  1  0  0  0
 20 32  1  0  0  0
 21 24  1  0  0  0
 21 33  1  0  0  0
 22 34  1  0  0  0
 23 24  2  0  0  0
 23 35  1  0  0  0
 24 36  1  0  0  0
M  END
> <s_m_entry_id>
32276

> <s_m_entry_name>
dock_pv.539

> <s_m_Source_Path>
/home/csk/Desktop/cluster/DUD-E-result/src

> <s_m_Source_File>
dock_pv.maegz

> <i_m_Source_File_Index>
539

> <chembl_id>
CHEMBL1966069

> <chembl_pref_name>
None

> <i_lp_mmshare_version>
53161

> <r_lp_tautomer_probability>
1

> <s_lp_Force_Field>
OPLS_2005

> <r_lp_Energy>
13.587688

> <b_lp_Chiralities_Consistent>
1

> <s_lp_Variant>
CHEMBL267_lig3514-1

> <s_i_glide_gridfile>
glide-grid_3el8

> <i_i_glide_lignum>
4224

> <i_i_glide_rotatable_bonds>
3

> <r_i_docking_score>
-6.94427060645337

> <r_i_glide_ligand_efficiency>
-0.289344608602224

> <r_i_glide_ligand_efficiency_sa>
-0.834614273970495

> <r_i_glide_ligand_efficiency_ln>
-1.66208260793879

> <r_i_glide_gscore>
-6.94427060645337

> <r_i_glide_lipo>
-3.32254755041323

> <r_i_glide_hbond>
0

> <r_i_glide_metal>
0

> <r_i_glide_rewards>
-1.82863701134095

> <r_i_glide_evdw>
-38.4804191589355

> <r_i_glide_ecoul>
-2.36352205276489

> <r_i_glide_erotb>
0.558127239613655

> <r_i_glide_esite>
-0.0726640184513313

> <r_i_glide_emodel>
-56.5931791664614

> <r_i_glide_energy>
-40.8439412117004

> <r_i_glide_einternal>
2.78335976600647

> <i_i_glide_confnum>
24

> <i_i_glide_posenum>
284

> <r_i_glide_eff_state_penalty>
0

> <s_user_duplicate_titles>
CHEMBL267_lig3514

> <i_f3d_flags>
0

> <s_m_subgroup_title>
dock_pv

> <s_m_subgroupid>
dock_pv

> <b_m_subgroup_collapsed>
1

$$$$
CHEMBL267_lig792
                    3D
 Schrodinger Suite 2021-1.
 37 40  0  0  1  0            999 V2000
    2.0808    7.0995    8.8089 C   0  0  0  0  0  0
    0.0568    6.2368    8.7871 N   0  0  0  0  0  0
    3.3883    7.5966    8.6887 C   0  0  0  0  0  0
    0.9480    6.9053    7.9751 C   0  0  0  0  0  0
    1.5966   10.2167    4.2885 N   0  3  0  0  0  0
    0.4408    6.0438   10.0606 N   0  0  0  0  0  0
    1.6871    6.5956   10.0863 C   0  0  0  0  0  0
    4.1980    7.6597    9.7725 N   0  0  0  0  0  0
    0.7299    7.2962    6.5550 C   0  0  0  0  0  0
    3.8516    7.9841    7.4249 N   0  0  0  0  0  0
    2.4787    6.6397   11.1626 N   0  0  0  0  0  0
    1.1114    8.8956    4.7501 C   0  0  0  0  0  0
    1.1574    8.5499    6.1078 C   0  0  0  0  0  0
    3.7020    7.1878   10.9448 C   0  0  0  0  0  0
    2.0494   10.9976    5.1226 O   0  5  0  0  0  0
    1.5298   10.4811    3.0931 O   0  0  0  0  0  0
    5.1316    8.2353    6.9158 C   0  0  0  0  0  0
    6.2732    7.6395    7.4583 C   0  0  0  0  0  0
    7.5129    7.8326    6.8561 C   0  0  0  0  0  0
    8.8924    7.0373    7.4991 Cl  0  0  0  0  0  0
    0.1981    6.3962    5.6333 C   0  0  0  0  0  0
    0.5958    7.9591    3.8418 C   0  0  0  0  0  0
    0.1227    6.7265    4.2854 C   0  0  0  0  0  0
    6.4963    9.2459    5.1892 C   0  0  0  0  0  0
    5.2490    9.0366    5.7765 C   0  0  0  0  0  0
    7.6308    8.6368    5.7243 C   0  0  0  0  0  0
   -0.8526    5.9206    8.4666 H   0  0  0  0  0  0
    3.1256    7.9986    6.7265 H   0  0  0  0  0  0
    1.5483    9.2572    6.8265 H   0  0  0  0  0  0
    4.3646    7.2122   11.7980 H   0  0  0  0  0  0
    6.1996    6.9882    8.3162 H   0  0  0  0  0  0
   -0.1653    5.4371    5.9610 H   0  0  0  0  0  0
    0.5305    8.1893    2.7878 H   0  0  0  0  0  0
   -0.3066    6.0227    3.5881 H   0  0  0  0  0  0
    6.5811    9.8668    4.3106 H   0  0  0  0  0  0
    4.3743    9.4961    5.3406 H   0  0  0  0  0  0
    8.5963    8.7768    5.2587 H   0  0  0  0  0  0
  1  3  1  0  0  0
  1  4  2  0  0  0
  1  7  1  0  0  0
  2  4  1  0  0  0
  2  6  1  0  0  0
  2 27  1  0  0  0
  3  8  2  0  0  0
  3 10  1  0  0  0
  4  9  1  0  0  0
  5 12  1  0  0  0
  5 15  1  0  0  0
  5 16  2  0  0  0
  6  7  2  0  0  0
  7 11  1  0  0  0
  8 14  1  0  0  0
  9 13  2  0  0  0
  9 21  1  0  0  0
 10 17  1  0  0  0
 10 28  1  0  0  0
 11 14  2  0  0  0
 12 13  1  0  0  0
 12 22  2  0  0  0
 13 29  1  0  0  0
 14 30  1  0  0  0
 17 18  2  0  0  0
 17 25  1  0  0  0
 18 19  1  0  0  0
 18 31  1  0  0  0
 19 20  1  0  0  0
 19 26  2  0  0  0
 21 23  2  0  0  0
 21 32  1  0  0  0
 22 23  1  0  0  0
 22 33  1  0  0  0
 23 34  1  0  0  0
 24 25  2  0  0  0
 24 26  1  0  0  0
 24 35  1  0  0  0
 25 36  1  0  0  0
 26 37  1  0  0  0
M  CHG  2   5   1  15  -1
M  END
> <s_m_entry_id>
32277

> <s_m_entry_name>
dock_pv.540

> <s_m_Source_Path>
/home/csk/Desktop/cluster/DUD-E-result/src

> <s_m_Source_File>
dock_pv.maegz

> <i_m_Source_File_Index>
540

> <chembl_id>
CHEMBL118904

> <chembl_pref_name>
None

> <i_lp_mmshare_version>
53161

> <r_lp_tautomer_probability>
1

> <s_lp_Force_Field>
OPLS_2005

> <r_lp_Energy>
28.967423

> <b_lp_Chiralities_Consistent>
1

> <s_lp_Variant>
CHEMBL267_lig792-1

> <s_i_glide_gridfile>
glide-grid_3el8

> <i_i_glide_lignum>
920

> <i_i_glide_rotatable_bonds>
4

> <r_i_docking_score>
-6.93998206011183

> <r_i_glide_ligand_efficiency>
-0.266922386927378

> <r_i_glide_ligand_efficiency_sa>
-0.790756520983482

> <r_i_glide_ligand_efficiency_ln>
-1.62983201487876

> <r_i_glide_gscore>
-6.93998206011183

> <r_i_glide_lipo>
-2.77073745536777

> <r_i_glide_hbond>
-0.32

> <r_i_glide_metal>
0

> <r_i_glide_rewards>
-1.36108922225126

> <r_i_glide_evdw>
-40.0369606018066

> <r_i_glide_ecoul>
-5.80004978179932

> <r_i_glide_erotb>
0.429348308400128

> <r_i_glide_esite>
-0.0456481935327036

> <r_i_glide_emodel>
-63.1224031086515

> <r_i_glide_energy>
-45.837010383606

> <r_i_glide_einternal>
2.1179301738739

> <i_i_glide_confnum>
4

> <i_i_glide_posenum>
183

> <r_i_glide_eff_state_penalty>
0

> <s_user_duplicate_titles>
CHEMBL267_lig792

> <i_f3d_flags>
0

> <s_m_subgroup_title>
dock_pv

> <s_m_subgroupid>
dock_pv

> <b_m_subgroup_collapsed>
1

$$$$
CHEMBL267_lig3628
                    3D
 Schrodinger Suite 2021-1.
 27 29  0  0  1  0            999 V2000
    5.9554    9.3617    5.1430 S   0  0  0  0  0  0
    3.3956    7.0370   11.8541 F   0  0  0  0  0  0
    8.0031    6.8341    7.3842 O   0  0  0  0  0  0
    8.5980    8.2371    5.6855 O   0  0  0  0  0  0
    1.9334    9.8477    5.4258 N   0  0  0  0  0  0
    4.0224    8.4501    6.7106 C   0  0  0  0  0  0
    4.2625    9.3030    5.5908 C   0  0  0  0  0  0
    2.6896    8.3403    7.1907 C   0  0  0  0  0  0
    6.3549    8.2112    6.4102 C   0  0  0  0  0  0
    5.2376    7.8376    7.1498 C   0  0  0  0  0  0
    2.3131    7.5428    8.3918 C   0  0  0  0  0  0
    3.2015    9.9807    4.9822 C   0  0  0  0  0  0
    1.7039    9.0491    6.4908 C   0  0  0  0  0  0
    7.7045    7.7083    6.5716 C   0  0  0  0  0  0
    3.0545    7.6314    9.5778 C   0  0  0  0  0  0
    1.1721    6.7258    8.3804 C   0  0  0  0  0  0
    2.6675    6.9308   10.7194 C   0  0  0  0  0  0
    0.7738    6.0320    9.5237 C   0  0  0  0  0  0
    1.5211    6.1393   10.6950 C   0  0  0  0  0  0
    9.3888    7.6837    5.6316 H   0  0  0  0  0  0
    5.2797    7.1296    7.9646 H   0  0  0  0  0  0
    3.3574   10.6278    4.1310 H   0  0  0  0  0  0
    0.6709    9.0028    6.8030 H   0  0  0  0  0  0
    3.9295    8.2611    9.6330 H   0  0  0  0  0  0
    0.5775    6.6281    7.4818 H   0  0  0  0  0  0
   -0.1174    5.4201    9.5031 H   0  0  0  0  0  0
    1.2157    5.6088   11.5846 H   0  0  0  0  0  0
  1  7  1  0  0  0
  1  9  1  0  0  0
  2 17  1  0  0  0
  3 14  2  0  0  0
  4 14  1  0  0  0
  4 20  1  0  0  0
  5 12  1  0  0  0
  5 13  2  0  0  0
  6  7  1  0  0  0
  6  8  2  0  0  0
  6 10  1  0  0  0
  7 12  2  0  0  0
  8 11  1  0  0  0
  8 13  1  0  0  0
  9 10  2  0  0  0
  9 14  1  0  0  0
 10 21  1  0  0  0
 11 15  1  0  0  0
 11 16  2  0  0  0
 12 22  1  0  0  0
 13 23  1  0  0  0
 15 17  2  0  0  0
 15 24  1  0  0  0
 16 18  1  0  0  0
 16 25  1  0  0  0
 17 19  1  0  0  0
 18 19  2  0  0  0
 18 26  1  0  0  0
 19 27  1  0  0  0
M  END
> <s_m_entry_id>
32278

> <s_m_entry_name>
dock_pv.541

> <s_m_Source_Path>
/home/csk/Desktop/cluster/DUD-E-result/src

> <s_m_Source_File>
dock_pv.maegz

> <i_m_Source_File_Index>
541

> <chembl_id>
CHEMBL1974457

> <chembl_pref_name>
None

> <i_lp_mmshare_version>
53161

> <r_lp_tautomer_probability>
1

> <s_lp_Force_Field>
OPLS_2005

> <r_lp_Energy>
11.723625

> <b_lp_Chiralities_Consistent>
1

> <s_lp_Variant>
CHEMBL267_lig3628-1

> <s_i_glide_gridfile>
glide-grid_3el8

> <i_i_glide_lignum>
4389

> <i_i_glide_rotatable_bonds>
3

> <r_i_docking_score>
-6.93763390784802

> <r_i_glide_ligand_efficiency>
-0.365138626728843

> <r_i_glide_ligand_efficiency_sa>
-0.97433651261902

> <r_i_glide_ligand_efficiency_ln>
-1.75883920235321

> <r_i_glide_gscore>
-6.93763390784802

> <r_i_glide_lipo>
-2.29838713570101

> <r_i_glide_hbond>
-0.235600539397281

> <r_i_glide_metal>
0

> <r_i_glide_rewards>
-2.33750071487343

> <r_i_glide_evdw>
-31.9919891357422

> <r_i_glide_ecoul>
-6.3125433921814

> <r_i_glide_erotb>
0.480335447738021

> <r_i_glide_esite>
0

> <r_i_glide_emodel>
-52.1405490904466

> <r_i_glide_energy>
-38.3045325279236

> <r_i_glide_einternal>
4.57599496841431

> <i_i_glide_confnum>
7

> <i_i_glide_posenum>
200

> <r_i_glide_eff_state_penalty>
0

> <s_user_duplicate_titles>
CHEMBL267_lig3628

> <i_f3d_flags>
0

> <s_m_subgroup_title>
dock_pv

> <s_m_subgroupid>
dock_pv

> <b_m_subgroup_collapsed>
1

$$$$
CHEMBL267_lig838
                    3D
 Schrodinger Suite 2021-1.
 54 57  0  0  1  0            999 V2000
    0.9323    9.8898    6.2807 C   0  0  0  0  0  0
    1.3617    8.9761    7.2801 O   0  0  0  0  0  0
    2.6774    8.5440    7.3040 C   0  0  0  0  0  0
    3.6445    8.9807    6.3864 C   0  0  0  0  0  0
    4.9863    8.5234    6.4728 C   0  0  0  0  0  0
    6.0520    8.9381    5.6175 C   0  0  0  0  0  0
    5.8035    9.8452    4.5704 N   0  0  0  0  0  0
    6.6466   10.6498    3.7825 C   0  0  0  0  0  0
    7.9452   10.9990    4.1840 C   0  0  0  0  0  0
    8.7511   11.7897    3.3674 C   0  0  0  0  0  0
    8.2691   12.2412    2.1403 C   0  0  0  0  0  0
    9.3730   13.3118    1.0231 Br  0  0  0  0  0  0
    6.9801   11.9098    1.7356 C   0  0  0  0  0  0
    6.1698   11.1189    2.5507 C   0  0  0  0  0  0
    4.9214   10.8051    2.1284 F   0  0  0  0  0  0
    7.3166    8.4679    5.7602 N   0  0  0  0  0  0
    7.5266    7.5834    6.7589 C   0  0  0  0  0  0
    6.6043    7.1180    7.6339 N   0  0  0  0  0  0
    5.3332    7.5947    7.4997 C   0  0  0  0  0  0
    4.3402    7.1561    8.4038 C   0  0  0  0  0  0
    3.0254    7.6360    8.3130 C   0  0  0  0  0  0
    1.9922    7.2772    9.1595 O   0  0  0  0  0  0
    2.1238    6.3345   10.2229 C   0  0  0  0  0  0
    1.1381    5.1678    9.9922 C   0  0  0  0  0  0
   -0.2686    5.6061    9.5875 C   0  0  0  0  0  0
   -1.2080    4.3770    9.4877 C   0  0  0  0  0  0
   -0.6980    3.4156    8.4972 N   0  0  2  0  0  0
   -1.6125    2.2870    8.3650 C   0  0  0  0  0  0
    0.6700    2.9708    8.7765 C   0  0  0  0  0  0
    1.6184    4.1824    8.9157 C   0  0  0  0  0  0
   -0.1376   10.0615    6.3963 H   0  0  0  0  0  0
    1.4308   10.8539    6.3863 H   0  0  0  0  0  0
    1.0930    9.5021    5.2733 H   0  0  0  0  0  0
    3.3885    9.6858    5.6141 H   0  0  0  0  0  0
    4.8236    9.9747    4.3723 H   0  0  0  0  0  0
    8.3352   10.6770    5.1368 H   0  0  0  0  0  0
    9.7497   12.0512    3.6834 H   0  0  0  0  0  0
    6.5997   12.2684    0.7893 H   0  0  0  0  0  0
    8.5367    7.2082    6.8574 H   0  0  0  0  0  0
    4.6451    6.4496    9.1585 H   0  0  0  0  0  0
    1.8502    6.8564   11.1398 H   0  0  0  0  0  0
    3.1212    5.9472   10.4102 H   0  0  0  0  0  0
    0.9981    4.6368   10.9300 H   0  0  0  0  0  0
   -0.2813    6.1888    8.6646 H   0  0  0  0  0  0
   -0.6021    6.3034   10.3525 H   0  0  0  0  0  0
   -2.2102    4.6827    9.1880 H   0  0  0  0  0  0
   -1.3228    3.8890   10.4566 H   0  0  0  0  0  0
   -2.6019    2.6381    8.0707 H   0  0  0  0  0  0
   -1.2791    1.5969    7.5890 H   0  0  0  0  0  0
   -1.7187    1.7283    9.2919 H   0  0  0  0  0  0
    0.9982    2.3240    7.9639 H   0  0  0  0  0  0
    0.6847    2.3581    9.6790 H   0  0  0  0  0  0
    2.6020    3.8370    9.2097 H   0  0  0  0  0  0
    1.7786    4.6676    7.9508 H   0  0  0  0  0  0
  1  2  1  0  0  0
  1 31  1  0  0  0
  1 32  1  0  0  0
  1 33  1  0  0  0
  2  3  1  0  0  0
  3 21  2  0  0  0
  3  4  1  0  0  0
  4  5  2  0  0  0
  4 34  1  0  0  0
  5 19  1  0  0  0
  5  6  1  0  0  0
  6  7  1  0  0  0
  6 16  2  0  0  0
  7  8  1  0  0  0
  7 35  1  0  0  0
  8 14  2  0  0  0
  8  9  1  0  0  0
  9 10  2  0  0  0
  9 36  1  0  0  0
 10 11  1  0  0  0
 10 37  1  0  0  0
 11 12  1  0  0  0
 11 13  2  0  0  0
 13 14  1  0  0  0
 13 38  1  0  0  0
 14 15  1  0  0  0
 16 17  1  0  0  0
 17 18  2  0  0  0
 17 39  1  0  0  0
 18 19  1  0  0  0
 19 20  2  0  0  0
 20 21  1  0  0  0
 20 40  1  0  0  0
 21 22  1  0  0  0
 22 23  1  0  0  0
 23 24  1  0  0  0
 23 41  1  0  0  0
 23 42  1  0  0  0
 24 30  1  0  0  0
 24 25  1  0  0  0
 24 43  1  0  0  0
 25 26  1  0  0  0
 25 44  1  0  0  0
 25 45  1  0  0  0
 26 27  1  0  0  0
 26 46  1  0  0  0
 26 47  1  0  0  0
 27 28  1  0  0  0
 27 29  1  0  0  0
 28 48  1  0  0  0
 28 49  1  0  0  0
 28 50  1  0  0  0
 29 30  1  0  0  0
 29 51  1  0  0  0
 29 52  1  0  0  0
 30 53  1  0  0  0
 30 54  1  0  0  0
M  END
> <s_m_entry_id>
32279

> <s_m_entry_name>
dock_pv.542

> <s_m_Source_Path>
/home/csk/Desktop/cluster/DUD-E-result/src

> <s_m_Source_File>
dock_pv.maegz

> <i_m_Source_File_Index>
542

> <chembl_id>
CHEMBL24828

> <chembl_pref_name>
VANDETANIB

> <i_lp_mmshare_version>
53161

> <r_lp_tautomer_probability>
0.999978000241998

> <s_lp_Force_Field>
OPLS_2005

> <r_lp_Energy>
28.107214

> <b_lp_Chiralities_Consistent>
1

> <s_lp_Variant>
CHEMBL267_lig838-1

> <s_i_glide_gridfile>
glide-grid_3el8

> <i_i_glide_lignum>
966

> <i_i_glide_rotatable_bonds>
6

> <r_i_docking_score>
-6.93601927864784

> <r_i_glide_ligand_efficiency>
-0.231200642621595

> <r_i_glide_ligand_efficiency_sa>
-0.718394151336773

> <r_i_glide_ligand_efficiency_ln>
-1.57593915409183

> <r_i_glide_gscore>
-6.93601927864784

> <r_i_glide_lipo>
-3.01524509213099

> <r_i_glide_hbond>
-0.161764392270797

> <r_i_glide_metal>
0

> <r_i_glide_rewards>
-1.40987164570071

> <r_i_glide_evdw>
-43.4271697998047

> <r_i_glide_ecoul>
-4.17121696472168

> <r_i_glide_erotb>
0.447902886153148

> <r_i_glide_esite>
0

> <r_i_glide_emodel>
-65.8763108984098

> <r_i_glide_energy>
-47.5983867645264

> <r_i_glide_einternal>
3.18034434318542

> <i_i_glide_confnum>
2

> <i_i_glide_posenum>
171

> <r_i_glide_eff_state_penalty>
0

> <s_user_duplicate_titles>
CHEMBL267_lig838,33576

> <i_f3d_flags>
0

> <s_m_subgroup_title>
dock_pv

> <s_m_subgroupid>
dock_pv

> <b_m_subgroup_collapsed>
1

$$$$
CHEMBL267_lig781
                    3D
 Schrodinger Suite 2021-1.
 30 32  0  0  1  0            999 V2000
    2.8335    8.8179    6.5811 C   0  0  0  0  0  0
    3.3186    7.9795    7.5398 C   0  0  0  0  0  0
    3.9342    9.2327    5.7028 C   0  0  0  0  0  0
    4.7663    7.8075    7.3348 C   0  0  0  0  0  0
    5.1291    8.5690    6.2350 C   0  0  0  0  0  0
    1.4419    9.2269    6.4786 C   0  0  0  0  0  0
    2.5698    7.2640    8.6155 C   0  0  0  0  0  0
    3.8392    9.9825    4.7302 O   0  0  0  0  0  0
    0.6910    9.3812    7.4409 O   0  0  0  0  0  0
    1.3463    6.6262    8.3596 C   0  0  0  0  0  0
    3.0782    7.2458    9.9209 C   0  0  0  0  0  0
    0.9981    9.4309    5.2406 N   0  0  0  0  0  0
    1.1241    6.0694   10.6876 C   0  0  0  0  0  0
    5.7330    7.0339    7.9878 C   0  0  0  0  0  0
    2.3665    6.6370   10.9504 C   0  0  0  0  0  0
    0.6171    6.0438    9.3921 C   0  0  0  0  0  0
    0.1898    5.4370   11.9881 Cl  0  0  0  0  0  0
    6.4510    8.6026    5.7839 C   0  0  0  0  0  0
    7.0561    7.0525    7.5384 C   0  0  0  0  0  0
    7.4156    7.8373    6.4408 C   0  0  0  0  0  0
    0.9358    6.6019    7.3590 H   0  0  0  0  0  0
    4.0163    7.7282   10.1513 H   0  0  0  0  0  0
    0.0307    9.6812    5.1021 H   0  0  0  0  0  0
    1.6263    9.3657    4.4534 H   0  0  0  0  0  0
    5.4749    6.3985    8.8227 H   0  0  0  0  0  0
    2.7591    6.6438   11.9569 H   0  0  0  0  0  0
   -0.3461    5.5920    9.1923 H   0  0  0  0  0  0
    6.7352    9.1972    4.9267 H   0  0  0  0  0  0
    7.7987    6.4405    8.0269 H   0  0  0  0  0  0
    8.4380    7.8426    6.0911 H   0  0  0  0  0  0
  1  2  2  0  0  0
  1  3  1  0  0  0
  1  6  1  0  0  0
  2  4  1  0  0  0
  2  7  1  0  0  0
  3  5  1  0  0  0
  3  8  2  0  0  0
  4 14  2  0  0  0
  4  5  1  0  0  0
  5 18  2  0  0  0
  6  9  2  0  0  0
  6 12  1  0  0  0
  7 10  2  0  0  0
  7 11  1  0  0  0
 10 16  1  0  0  0
 10 21  1  0  0  0
 11 15  2  0  0  0
 11 22  1  0  0  0
 12 23  1  0  0  0
 12 24  1  0  0  0
 13 15  1  0  0  0
 13 17  1  0  0  0
 13 16  2  0  0  0
 14 19  1  0  0  0
 14 25  1  0  0  0
 15 26  1  0  0  0
 16 27  1  0  0  0
 18 20  1  0  0  0
 18 28  1  0  0  0
 19 20  2  0  0  0
 19 29  1  0  0  0
 20 30  1  0  0  0
M  END
> <s_m_entry_id>
32280

> <s_m_entry_name>
dock_pv.543

> <s_m_Source_Path>
/home/csk/Desktop/cluster/DUD-E-result/src

> <s_m_Source_File>
dock_pv.maegz

> <i_m_Source_File_Index>
543

> <chembl_id>
CHEMBL99724

> <chembl_pref_name>
None

> <i_lp_mmshare_version>
53161

> <r_lp_tautomer_probability>
1

> <s_lp_Force_Field>
OPLS_2005

> <r_lp_Energy>
29.51609

> <b_lp_Chiralities_Consistent>
1

> <s_lp_Variant>
CHEMBL267_lig781-1

> <s_i_glide_gridfile>
glide-grid_3el8

> <i_i_glide_lignum>
909

> <i_i_glide_rotatable_bonds>
2

> <r_i_docking_score>
-6.93573727933538

> <r_i_glide_ligand_efficiency>
-0.346786863966769

> <r_i_glide_ligand_efficiency_sa>
-0.941324371815114

> <r_i_glide_ligand_efficiency_ln>
-1.73578628509222

> <r_i_glide_gscore>
-6.93573727933538

> <r_i_glide_lipo>
-3.04511787675641

> <r_i_glide_hbond>
0

> <r_i_glide_metal>
0

> <r_i_glide_rewards>
-2.03393141234121

> <r_i_glide_evdw>
-33.9215621948242

> <r_i_glide_ecoul>
-2.57110905647278

> <r_i_glide_erotb>
0.225056477974369

> <r_i_glide_esite>
0

> <r_i_glide_emodel>
-51.4480520370495

> <r_i_glide_energy>
-36.492671251297

> <r_i_glide_einternal>
0.938117504119873

> <i_i_glide_confnum>
3

> <i_i_glide_posenum>
322

> <r_i_glide_eff_state_penalty>
0

> <s_user_duplicate_titles>
CHEMBL267_lig781

> <i_f3d_flags>
0

> <s_m_subgroup_title>
dock_pv

> <s_m_subgroupid>
dock_pv

> <b_m_subgroup_collapsed>
1

$$$$
CHEMBL267_lig3881
                    3D
 Schrodinger Suite 2021-1.
 46 49  0  0  1  0            999 V2000
    2.5839    8.1960    6.1095 C   0  0  0  0  0  0
    3.7560    8.6369    5.5882 N   0  0  0  0  0  0
    4.8342    8.3105    6.3121 C   0  0  0  0  0  0
    4.8006    7.5888    7.5387 C   0  0  0  0  0  0
    3.5234    7.2354    8.0048 C   0  0  0  0  0  0
    2.4150    7.5372    7.2806 N   0  0  0  0  0  0
    6.1672    8.5628    6.0073 N   0  0  0  0  0  0
    6.1568    7.3908    7.9437 C   0  0  0  0  0  0
    6.9473    8.0176    7.0061 C   0  0  0  0  0  0
    3.3740    6.5579    9.2222 N   0  0  0  0  0  0
    1.1508    8.4434    5.1079 S   0  0  0  0  0  0
   -0.1900    7.4540    5.8323 C   0  0  0  0  0  0
    6.7126    9.2080    4.8140 C   0  0  0  0  0  0
    6.5499   10.7459    4.8074 C   0  0  2  0  0  0
    5.1204   11.2214    4.5660 C   0  0  0  0  0  0
    4.4999   10.9837    3.3336 C   0  0  0  0  0  0
    3.1771   11.3667    3.1320 C   0  0  0  0  0  0
    2.4754   11.9884    4.1624 C   0  0  0  0  0  0
    3.0887   12.2371    5.3878 C   0  0  0  0  0  0
    4.4145   11.8614    5.5882 C   0  0  0  0  0  0
    7.6616   11.4373    3.5912 Cl  0  0  0  0  0  0
    2.2060    5.9954    9.7471 C   0  0  0  0  0  0
    1.4564    5.0815    9.0015 C   0  0  0  0  0  0
    0.2818    4.5473    9.5268 C   0  0  0  0  0  0
   -0.1596    4.9439   10.7884 C   0  0  0  0  0  0
    0.5981    5.8370   11.5459 C   0  0  0  0  0  0
    1.7904    6.3480   11.0319 C   0  0  0  0  0  0
   -0.6115    3.3859    8.6204 Cl  0  0  0  0  0  0
    6.5180    6.8317    8.7880 H   0  0  0  0  0  0
    8.0250    8.0863    6.9443 H   0  0  0  0  0  0
    4.2201    6.3607    9.7352 H   0  0  0  0  0  0
   -1.0405    7.4206    5.1545 H   0  0  0  0  0  0
    0.1402    6.4300    6.0076 H   0  0  0  0  0  0
   -0.5158    7.8795    6.7805 H   0  0  0  0  0  0
    6.2530    8.7492    3.9378 H   0  0  0  0  0  0
    7.7761    8.9661    4.7880 H   0  0  0  0  0  0
    6.9088   11.1293    5.7634 H   0  0  0  0  0  0
    5.0364   10.4907    2.5364 H   0  0  0  0  0  0
    2.6947   11.1740    2.1846 H   0  0  0  0  0  0
    1.4456   12.2754    4.0092 H   0  0  0  0  0  0
    2.5342   12.7137    6.1822 H   0  0  0  0  0  0
    4.8824   12.0469    6.5431 H   0  0  0  0  0  0
    1.7855    4.7873    8.0156 H   0  0  0  0  0  0
   -1.0831    4.5495   11.1864 H   0  0  0  0  0  0
    0.2607    6.1331   12.5281 H   0  0  0  0  0  0
    2.3760    7.0353   11.6237 H   0  0  0  0  0  0
  1  2  1  0  0  0
  1  6  2  0  0  0
  1 11  1  0  0  0
  2  3  2  0  0  0
  3  4  1  0  0  0
  3  7  1  0  0  0
  4  5  2  0  0  0
  4  8  1  0  0  0
  5  6  1  0  0  0
  5 10  1  0  0  0
  7  9  1  0  0  0
  7 13  1  0  0  0
  8  9  2  0  0  0
  8 29  1  0  0  0
  9 30  1  0  0  0
 10 22  1  0  0  0
 10 31  1  0  0  0
 11 12  1  0  0  0
 12 32  1  0  0  0
 12 33  1  0  0  0
 12 34  1  0  0  0
 13 14  1  0  0  0
 13 35  1  0  0  0
 13 36  1  0  0  0
 14 15  1  0  0  0
 14 21  1  0  0  0
 14 37  1  0  0  0
 15 16  1  0  0  0
 15 20  2  0  0  0
 16 17  2  0  0  0
 16 38  1  0  0  0
 17 18  1  0  0  0
 17 39  1  0  0  0
 18 19  2  0  0  0
 18 40  1  0  0  0
 19 20  1  0  0  0
 19 41  1  0  0  0
 20 42  1  0  0  0
 22 23  1  0  0  0
 22 27  2  0  0  0
 23 24  2  0  0  0
 23 43  1  0  0  0
 24 25  1  0  0  0
 24 28  1  0  0  0
 25 26  2  0  0  0
 25 44  1  0  0  0
 26 27  1  0  0  0
 26 45  1  0  0  0
 27 46  1  0  0  0
M  END
> <s_m_entry_id>
32281

> <s_m_entry_name>
dock_pv.544

> <s_m_Source_Path>
/home/csk/Desktop/cluster/DUD-E-result/src

> <s_m_Source_File>
dock_pv.maegz

> <i_m_Source_File_Index>
544

> <chembl_id>
CHEMBL4068876

> <chembl_pref_name>
None

> <i_lp_mmshare_version>
53161

> <r_lp_tautomer_probability>
1

> <s_lp_Force_Field>
OPLS_2005

> <r_lp_Energy>
15.871248

> <b_lp_Chiralities_Consistent>
1

> <s_lp_Variant>
CHEMBL267_lig3881-1

> <s_i_glide_gridfile>
glide-grid_3el8

> <i_i_glide_lignum>
4792

> <i_i_glide_rotatable_bonds>
6

> <r_i_docking_score>
-6.935307512617

> <r_i_glide_ligand_efficiency>
-0.247689554022036

> <r_i_glide_ligand_efficiency_sa>
-0.752131367356696

> <r_i_glide_ligand_efficiency_ln>
-1.60087260338883

> <r_i_glide_gscore>
-6.935307512617

> <r_i_glide_lipo>
-3.79936260100348

> <r_i_glide_hbond>
0

> <r_i_glide_metal>
0

> <r_i_glide_rewards>
-1.3294344087377

> <r_i_glide_evdw>
-46.9249877929688

> <r_i_glide_ecoul>
0.00522410962730646

> <r_i_glide_erotb>
0.538955270328522

> <r_i_glide_esite>
0

> <r_i_glide_emodel>
-63.0625658135111

> <r_i_glide_energy>
-46.9197636833414

> <r_i_glide_einternal>
6.51719999313354

> <i_i_glide_confnum>
3

> <i_i_glide_posenum>
85

> <r_i_glide_eff_state_penalty>
0

> <s_user_duplicate_titles>
CHEMBL267_lig3881

> <i_f3d_flags>
0

> <s_m_subgroup_title>
dock_pv

> <s_m_subgroupid>
dock_pv

> <b_m_subgroup_collapsed>
1

$$$$
CHEMBL267_lig1882
                    3D
 Schrodinger Suite 2021-1.
 41 44  0  0  1  0            999 V2000
    7.4773    7.2361    6.9969 N   0  0  0  0  0  0
    7.6022    8.1533    6.0012 C   0  0  0  0  0  0
    6.6192    8.9092    5.4361 N   0  0  0  0  0  0
    6.2348    7.0585    7.5097 C   0  0  0  0  0  0
    5.1465    7.8303    7.0635 C   0  0  0  0  0  0
    5.4161    8.7132    5.9944 C   0  0  0  0  0  0
    4.1951    9.2830    5.6674 N   0  0  0  0  0  0
    3.2154    8.8314    6.4814 N   0  0  0  0  0  0
    3.7495    7.9938    7.3391 C   0  0  0  0  0  0
    2.9553    7.4000    8.4477 C   0  0  0  0  0  0
    1.7199    6.7780    8.2348 C   0  0  0  0  0  0
    1.0100    6.2416    9.3119 C   0  0  0  0  0  0
    1.5218    6.3485   10.6106 C   0  0  0  0  0  0
    2.7642    6.9443   10.8192 C   0  0  0  0  0  0
    3.4757    7.4631    9.7422 C   0  0  0  0  0  0
    6.0533    5.9973    8.3880 N   0  0  0  0  0  0
    0.5980    5.8370   11.9800 Cl  0  0  0  0  0  0
   -0.2021    5.6423    9.1050 O   0  0  0  0  0  0
    3.8743   10.2591    4.6247 C   0  0  0  0  0  0
    3.0310    9.6526    3.4702 C   0  0  2  0  0  0
    2.8259   10.6357    2.3104 C   0  0  0  0  0  0
    1.5849   10.2370    1.6691 N   0  0  2  0  0  0
    0.7094    9.9592    2.7899 C   0  0  0  0  0  0
    1.5851    9.2713    3.8384 C   0  0  0  0  0  0
    8.5964    8.2798    5.5949 H   0  0  0  0  0  0
    1.3170    6.7102    7.2345 H   0  0  0  0  0  0
    3.1670    7.0284   11.8197 H   0  0  0  0  0  0
    4.4208    7.9508    9.9187 H   0  0  0  0  0  0
    5.1308    5.8118    8.7542 H   0  0  0  0  0  0
    6.8407    5.4149    8.6352 H   0  0  0  0  0  0
   -0.6448    5.8093    8.2632 H   0  0  0  0  0  0
    4.8118   10.6601    4.2351 H   0  0  0  0  0  0
    3.3515   11.0955    5.0914 H   0  0  0  0  0  0
    3.5562    8.7753    3.0881 H   0  0  0  0  0  0
    3.6620   10.6369    1.6107 H   0  0  0  0  0  0
    2.7535   11.6617    2.6775 H   0  0  0  0  0  0
    1.7030    9.3669    1.1616 H   0  0  0  0  0  0
    0.2697   10.8792    3.1774 H   0  0  0  0  0  0
   -0.1058    9.3109    2.4631 H   0  0  0  0  0  0
    1.2959    9.6083    4.8349 H   0  0  0  0  0  0
    1.4476    8.1890    3.8099 H   0  0  0  0  0  0
  1  2  2  0  0  0
  1  4  1  0  0  0
  2  3  1  0  0  0
  2 25  1  0  0  0
  3  6  2  0  0  0
  4  5  2  0  0  0
  4 16  1  0  0  0
  5  9  1  0  0  0
  5  6  1  0  0  0
  6  7  1  0  0  0
  7  8  1  0  0  0
  7 19  1  0  0  0
  8  9  2  0  0  0
  9 10  1  0  0  0
 10 15  1  0  0  0
 10 11  2  0  0  0
 11 12  1  0  0  0
 11 26  1  0  0  0
 12 13  2  0  0  0
 12 18  1  0  0  0
 13 14  1  0  0  0
 13 17  1  0  0  0
 14 15  2  0  0  0
 14 27  1  0  0  0
 15 28  1  0  0  0
 16 29  1  0  0  0
 16 30  1  0  0  0
 18 31  1  0  0  0
 19 20  1  0  0  0
 19 32  1  0  0  0
 19 33  1  0  0  0
 20 21  1  0  0  0
 20 24  1  0  0  0
 20 34  1  0  0  0
 21 22  1  0  0  0
 21 35  1  0  0  0
 21 36  1  0  0  0
 22 23  1  0  0  0
 22 37  1  0  0  0
 23 24  1  0  0  0
 23 38  1  0  0  0
 23 39  1  0  0  0
 24 40  1  0  0  0
 24 41  1  0  0  0
M  END
> <s_m_entry_id>
32282

> <s_m_entry_name>
dock_pv.545

> <s_m_Source_Path>
/home/csk/Desktop/cluster/DUD-E-result/src

> <s_m_Source_File>
dock_pv.maegz

> <i_m_Source_File_Index>
545

> <chembl_id>
CHEMBL1241770

> <chembl_pref_name>
None

> <i_lp_mmshare_version>
53161

> <r_lp_tautomer_probability>
0.999999999997365

> <s_lp_Force_Field>
OPLS_2005

> <r_lp_Energy>
27.6781

> <b_lp_Chiralities_Consistent>
1

> <s_lp_Variant>
CHEMBL267_lig1882-1

> <s_i_glide_gridfile>
glide-grid_3el8

> <i_i_glide_lignum>
2151

> <i_i_glide_rotatable_bonds>
4

> <r_i_docking_score>
-6.93507496104167

> <r_i_glide_ligand_efficiency>
-0.28896145671007

> <r_i_glide_ligand_efficiency_sa>
-0.833509072668023

> <r_i_glide_ligand_efficiency_ln>
-1.6598816680311

> <r_i_glide_gscore>
-6.93507496104167

> <r_i_glide_lipo>
-2.20445534503884

> <r_i_glide_hbond>
-0.470696706157801

> <r_i_glide_metal>
0

> <r_i_glide_rewards>
-2.06378678444954

> <r_i_glide_evdw>
-36.5182189941406

> <r_i_glide_ecoul>
-5.66314268112183

> <r_i_glide_erotb>
0.479246226479821

> <r_i_glide_esite>
0

> <r_i_glide_emodel>
-57.3766234866364

> <r_i_glide_energy>
-42.1813616752625

> <r_i_glide_einternal>
2.11652278900146

> <i_i_glide_confnum>
44

> <i_i_glide_posenum>
100

> <r_i_glide_eff_state_penalty>
0

> <s_user_duplicate_titles>
CHEMBL267_lig1882

> <i_f3d_flags>
0

> <s_m_subgroup_title>
dock_pv

> <s_m_subgroupid>
dock_pv

> <b_m_subgroup_collapsed>
1

$$$$
CHEMBL267_lig3022
                    3D
 Schrodinger Suite 2021-1.
 35 37  0  0  1  0            999 V2000
    2.8952    7.6550    7.5361 C   0  0  0  0  0  0
    3.8897    7.1464    8.3760 C   0  0  0  0  0  0
    5.2273    7.2330    7.9910 C   0  0  0  0  0  0
    5.5885    7.8394    6.7845 C   0  0  0  0  0  0
    4.5789    8.3566    5.9641 C   0  0  0  0  0  0
    3.2252    8.2579    6.3230 C   0  0  0  0  0  0
    3.5968    6.6409    9.6462 N   0  0  0  0  0  0
    2.3866    6.2085   10.1893 C   0  0  0  0  0  0
    2.1580    6.6361   11.4541 N   0  0  0  0  0  0
    0.9979    6.2375   12.0267 C   0  0  0  0  0  0
    0.0755    5.4357   11.3691 C   0  0  0  0  0  0
    0.4202    4.9800   10.0917 C   0  0  0  0  0  0
    1.5709    5.3828    9.4731 N   0  0  0  0  0  0
   -0.4216    3.9358    9.4323 C   0  0  0  0  0  0
    0.2719    2.6450    8.4922 S   0  0  0  0  0  0
   -1.3108    1.9371    8.3862 C   0  0  0  0  0  0
   -2.2234    2.7688    9.0123 C   0  0  0  0  0  0
   -1.7217    3.8370    9.5951 N   0  0  0  0  0  0
    2.1746    8.7274    5.5605 O   0  0  0  0  0  0
    2.4449    9.3315    4.3009 C   0  0  0  0  0  0
    7.0524    7.9463    6.3545 C   0  0  0  0  0  0
    7.2170    7.4371    5.1355 F   0  0  0  0  0  0
    7.3978    9.2311    6.3143 F   0  0  0  0  0  0
    7.8844    7.3140    7.1892 F   0  0  0  0  0  0
    1.8568    7.5975    7.8239 H   0  0  0  0  0  0
    5.9905    6.8334    8.6425 H   0  0  0  0  0  0
    4.8641    8.8209    5.0320 H   0  0  0  0  0  0
    4.2239    6.9706   10.3639 H   0  0  0  0  0  0
    0.8093    6.5964   13.0291 H   0  0  0  0  0  0
   -0.8374    5.1270   11.8565 H   0  0  0  0  0  0
   -1.4943    1.0167    7.8520 H   0  0  0  0  0  0
   -3.2878    2.5969    9.0569 H   0  0  0  0  0  0
    1.5046    9.6275    3.8347 H   0  0  0  0  0  0
    2.9468    8.6411    3.6208 H   0  0  0  0  0  0
    3.0531   10.2297    4.4119 H   0  0  0  0  0  0
  1  6  1  0  0  0
  1  2  2  0  0  0
  1 25  1  0  0  0
  2  7  1  0  0  0
  2  3  1  0  0  0
  3  4  2  0  0  0
  3 26  1  0  0  0
  4  5  1  0  0  0
  4 21  1  0  0  0
  5  6  2  0  0  0
  5 27  1  0  0  0
  6 19  1  0  0  0
  7  8  1  0  0  0
  7 28  1  0  0  0
  8 13  1  0  0  0
  8  9  2  0  0  0
  9 10  1  0  0  0
 10 11  2  0  0  0
 10 29  1  0  0  0
 11 12  1  0  0  0
 11 30  1  0  0  0
 12 13  2  0  0  0
 12 14  1  0  0  0
 14 15  1  0  0  0
 14 18  2  0  0  0
 15 16  1  0  0  0
 16 17  2  0  0  0
 16 31  1  0  0  0
 17 18  1  0  0  0
 17 32  1  0  0  0
 19 20  1  0  0  0
 20 33  1  0  0  0
 20 34  1  0  0  0
 20 35  1  0  0  0
 21 22  1  0  0  0
 21 23  1  0  0  0
 21 24  1  0  0  0
M  END
> <s_m_entry_id>
32283

> <s_m_entry_name>
dock_pv.546

> <s_m_Source_Path>
/home/csk/Desktop/cluster/DUD-E-result/src

> <s_m_Source_File>
dock_pv.maegz

> <i_m_Source_File_Index>
546

> <chembl_id>
CHEMBL512319

> <chembl_pref_name>
None

> <i_lp_mmshare_version>
53161

> <r_lp_tautomer_probability>
0.999999987636

> <s_lp_Force_Field>
OPLS_2005

> <r_lp_Energy>
6.22267

> <b_lp_Chiralities_Consistent>
1

> <s_lp_Variant>
CHEMBL267_lig3022-1

> <s_i_glide_gridfile>
glide-grid_3el8

> <i_i_glide_lignum>
3439

> <i_i_glide_rotatable_bonds>
5

> <r_i_docking_score>
-6.9321684941579

> <r_i_glide_ligand_efficiency>
-0.288840353923246

> <r_i_glide_ligand_efficiency_sa>
-0.833159751783873

> <r_i_glide_ligand_efficiency_ln>
-1.65918601713674

> <r_i_glide_gscore>
-6.9321684941579

> <r_i_glide_lipo>
-3.26556407725768

> <r_i_glide_hbond>
0

> <r_i_glide_metal>
0

> <r_i_glide_rewards>
-2.25586638441552

> <r_i_glide_evdw>
-37.5282974243164

> <r_i_glide_ecoul>
0.0299764610826969

> <r_i_glide_erotb>
0.461180369568715

> <r_i_glide_esite>
0

> <r_i_glide_emodel>
-47.0475843644597

> <r_i_glide_energy>
-37.4983209632337

> <r_i_glide_einternal>
12.4328470230103

> <i_i_glide_confnum>
4

> <i_i_glide_posenum>
137

> <r_i_glide_eff_state_penalty>
0

> <s_user_duplicate_titles>
CHEMBL267_lig3022

> <i_f3d_flags>
0

> <s_m_subgroup_title>
dock_pv

> <s_m_subgroupid>
dock_pv

> <b_m_subgroup_collapsed>
1

$$$$
CHEMBL267_lig3307
                    3D
 Schrodinger Suite 2021-1.
 34 37  0  0  1  0            999 V2000
    6.5980    5.7980    7.9880 C   0  0  0  0  0  0
    4.4209    7.6325    7.9388 C   0  0  0  0  0  0
    4.2835    6.3843    8.5611 C   0  0  0  0  0  0
    5.3642    5.4955    8.5717 C   0  0  0  0  0  0
    3.0120    6.0121    9.2226 C   0  0  0  0  0  0
    2.1771    5.0370    8.7829 C   0  0  0  0  0  0
    0.9717    4.7346    9.5571 C   0  0  0  0  0  0
    0.7468    5.4304   10.6258 N   0  0  0  0  0  0
    1.7241    6.2557   11.2081 C   0  0  0  0  0  0
    2.7611    6.6443   10.4122 N   0  0  0  0  0  0
    1.7781    6.6370   12.3705 O   0  0  0  0  0  0
    0.0736    3.6489    9.1446 C   0  0  0  0  0  0
   -1.3165    3.8092    9.1880 C   0  0  0  0  0  0
   -2.1521    2.7691    8.7880 C   0  0  0  0  0  0
   -1.6003    1.5544    8.3880 C   0  0  0  0  0  0
   -0.2226    1.3665    8.3880 C   0  0  0  0  0  0
    0.6085    2.4172    8.7603 C   0  0  0  0  0  0
    5.6339    7.9516    7.3013 C   0  0  0  0  0  0
    6.7109    7.0370    7.3509 C   0  0  0  0  0  0
    7.7375    7.6281    6.6381 N   0  0  0  0  0  0
    7.3741    8.8211    6.1388 N   0  0  0  0  0  0
    6.1444    9.0370    6.5277 C   0  0  0  0  0  0
    7.4066    5.0837    8.0181 H   0  0  0  0  0  0
    3.5924    8.3250    7.9155 H   0  0  0  0  0  0
    5.2496    4.5390    9.0620 H   0  0  0  0  0  0
    2.4129    4.5028    7.8747 H   0  0  0  0  0  0
    3.4243    7.2794   10.8257 H   0  0  0  0  0  0
   -1.7591    4.7411    9.5054 H   0  0  0  0  0  0
   -3.2250    2.8998    8.7907 H   0  0  0  0  0  0
   -2.2522    0.7491    8.0812 H   0  0  0  0  0  0
    0.1980    0.4129    8.1027 H   0  0  0  0  0  0
    1.6746    2.2549    8.7873 H   0  0  0  0  0  0
    8.6536    7.2547    6.4280 H   0  0  0  0  0  0
    5.6322    9.9451    6.2473 H   0  0  0  0  0  0
  1 19  2  0  0  0
  1  4  1  0  0  0
  1 23  1  0  0  0
  2 18  2  0  0  0
  2  3  1  0  0  0
  2 24  1  0  0  0
  3  4  2  0  0  0
  3  5  1  0  0  0
  4 25  1  0  0  0
  5 10  1  0  0  0
  5  6  2  0  0  0
  6 26  1  0  0  0
  6  7  1  0  0  0
  7 12  1  0  0  0
  7  8  2  0  0  0
  8  9  1  0  0  0
  9 11  2  0  0  0
  9 10  1  0  0  0
 10 27  1  0  0  0
 12 13  2  0  0  0
 12 17  1  0  0  0
 13 14  1  0  0  0
 13 28  1  0  0  0
 14 15  2  0  0  0
 14 29  1  0  0  0
 15 16  1  0  0  0
 15 30  1  0  0  0
 16 17  2  0  0  0
 16 31  1  0  0  0
 17 32  1  0  0  0
 18 19  1  0  0  0
 18 22  1  0  0  0
 19 20  1  0  0  0
 20 21  1  0  0  0
 20 33  1  0  0  0
 21 22  2  0  0  0
 22 34  1  0  0  0
M  END
> <s_m_entry_id>
32284

> <s_m_entry_name>
dock_pv.547

> <s_m_Source_Path>
/home/csk/Desktop/cluster/DUD-E-result/src

> <s_m_Source_File>
dock_pv.maegz

> <i_m_Source_File_Index>
547

> <chembl_id>
CHEMBL526133

> <chembl_pref_name>
None

> <i_lp_mmshare_version>
53161

> <r_lp_tautomer_probability>
0.478063516132417

> <s_lp_Force_Field>
OPLS_2005

> <r_lp_Energy>
20.099217

> <b_lp_Chiralities_Consistent>
1

> <s_lp_Variant>
CHEMBL267_lig3307-2

> <s_i_glide_gridfile>
glide-grid_3el8

> <i_i_glide_lignum>
3896

> <i_i_glide_rotatable_bonds>
2

> <r_i_docking_score>
-6.92872754214238

> <r_i_glide_ligand_efficiency>
-0.314942161006472

> <r_i_glide_ligand_efficiency_sa>
-0.882480321112475

> <r_i_glide_ligand_efficiency_ln>
-1.69363374277738

> <r_i_glide_gscore>
-6.92872754214238

> <r_i_glide_lipo>
-3.38099000882363

> <r_i_glide_hbond>
-0.0585295573786586

> <r_i_glide_metal>
0

> <r_i_glide_rewards>
-1.7820678910482

> <r_i_glide_evdw>
-37.9339256286621

> <r_i_glide_ecoul>
-1.65428280830383

> <r_i_glide_erotb>
0.437698617786782

> <r_i_glide_esite>
0

> <r_i_glide_emodel>
-51.5279043122829

> <r_i_glide_energy>
-39.5882084369659

> <r_i_glide_einternal>
8.90573024749756

> <i_i_glide_confnum>
3

> <i_i_glide_posenum>
87

> <r_i_glide_eff_state_penalty>
0

> <s_user_duplicate_titles>
CHEMBL267_lig3307,CHEMBL267_lig3307

> <i_f3d_flags>
0

> <s_m_subgroup_title>
dock_pv

> <s_m_subgroupid>
dock_pv

> <b_m_subgroup_collapsed>
1

$$$$
CHEMBL267_lig3518
                    3D
 Schrodinger Suite 2021-1.
 38 40  0  0  1  0            999 V2000
    0.2124    7.3860    5.2189 N   0  0  0  0  0  0
    1.0800    7.3257    6.2602 C   0  0  0  0  0  0
    2.3074    7.9113    6.2858 N   0  0  0  0  0  0
    2.6814    8.6210    5.1874 C   0  0  0  0  0  0
    1.8261    8.7734    4.0923 C   0  0  0  0  0  0
    0.5977    8.1155    4.1425 C   0  0  0  0  0  0
    3.9754    9.1482    5.0584 N   0  0  0  0  0  0
    5.2407    8.8716    5.6197 C   0  0  0  0  0  0
    6.4104    9.4595    5.0652 C   0  0  0  0  0  0
    7.6628    9.0804    5.5880 C   0  0  0  0  0  0
    7.7693    8.1931    6.6532 C   0  0  0  0  0  0
    6.6233    7.6508    7.2151 C   0  0  0  0  0  0
    5.3770    7.9807    6.6943 C   0  0  0  0  0  0
    6.3658   10.4261    3.8909 C   0  0  0  0  0  0
    7.5083   11.1452    3.7011 O   0  0  0  0  0  0
    5.3834   10.5547    3.1623 O   0  0  0  0  0  0
    0.5980    6.6143    7.3652 N   0  0  0  0  0  0
    1.0014    6.4683    8.7012 C   0  0  0  0  0  0
    2.2507    6.8607    9.1945 C   0  0  0  0  0  0
    2.5519    6.7185   10.5467 C   0  0  0  0  0  0
    1.5890    6.2371   11.4295 C   0  0  0  0  0  0
    0.3505    5.8209   10.9480 C   0  0  0  0  0  0
    0.0705    5.9185    9.5861 C   0  0  0  0  0  0
    3.7977    7.0421   11.0043 O   0  0  0  0  0  0
    2.1202    9.3240    3.2105 H   0  0  0  0  0  0
   -0.0907    8.1557    3.3095 H   0  0  0  0  0  0
    4.0738    9.7241    4.2310 H   0  0  0  0  0  0
    8.5909    9.4520    5.1781 H   0  0  0  0  0  0
    8.7424    7.9188    7.0345 H   0  0  0  0  0  0
    6.6968    6.9533    8.0366 H   0  0  0  0  0  0
    4.5274    7.4953    7.1322 H   0  0  0  0  0  0
    8.1324   11.0050    4.4117 H   0  0  0  0  0  0
   -0.3271    6.2362    7.1886 H   0  0  0  0  0  0
    3.0058    7.2692    8.5519 H   0  0  0  0  0  0
    1.7984    6.1837   12.4868 H   0  0  0  0  0  0
   -0.3980    5.4347   11.6258 H   0  0  0  0  0  0
   -0.9040    5.6030    9.2334 H   0  0  0  0  0  0
    4.0830    6.4442   11.7029 H   0  0  0  0  0  0
  1  6  1  0  0  0
  1  2  2  0  0  0
  2 17  1  0  0  0
  2  3  1  0  0  0
  3  4  2  0  0  0
  4  7  1  0  0  0
  4  5  1  0  0  0
  5  6  2  0  0  0
  5 25  1  0  0  0
  6 26  1  0  0  0
  7  8  1  0  0  0
  7 27  1  0  0  0
  8 13  1  0  0  0
  8  9  2  0  0  0
  9 14  1  0  0  0
  9 10  1  0  0  0
 10 11  2  0  0  0
 10 28  1  0  0  0
 11 12  1  0  0  0
 11 29  1  0  0  0
 12 13  2  0  0  0
 12 30  1  0  0  0
 13 31  1  0  0  0
 14 15  1  0  0  0
 14 16  2  0  0  0
 15 32  1  0  0  0
 17 18  1  0  0  0
 17 33  1  0  0  0
 18 19  2  0  0  0
 18 23  1  0  0  0
 19 20  1  0  0  0
 19 34  1  0  0  0
 20 21  2  0  0  0
 20 24  1  0  0  0
 21 22  1  0  0  0
 21 35  1  0  0  0
 22 23  2  0  0  0
 22 36  1  0  0  0
 23 37  1  0  0  0
 24 38  1  0  0  0
M  END
> <s_m_entry_id>
32285

> <s_m_entry_name>
dock_pv.548

> <s_m_Source_Path>
/home/csk/Desktop/cluster/DUD-E-result/src

> <s_m_Source_File>
dock_pv.maegz

> <i_m_Source_File_Index>
548

> <chembl_id>
CHEMBL243088

> <chembl_pref_name>
None

> <i_lp_mmshare_version>
53161

> <r_lp_tautomer_probability>
0.999999624730965

> <s_lp_Force_Field>
OPLS_2005

> <r_lp_Energy>
20.655625

> <b_lp_Chiralities_Consistent>
1

> <s_lp_Variant>
CHEMBL267_lig3518-1

> <s_i_glide_gridfile>
glide-grid_3el8

> <i_i_glide_lignum>
4231

> <i_i_glide_rotatable_bonds>
7

> <r_i_docking_score>
-6.92775600161478

> <r_i_glide_ligand_efficiency>
-0.288656500067283

> <r_i_glide_ligand_efficiency_sa>
-0.83262942549491

> <r_i_glide_ligand_efficiency_ln>
-1.65812990519508

> <r_i_glide_gscore>
-6.92775600161478

> <r_i_glide_lipo>
-2.71297936283107

> <r_i_glide_hbond>
-0.435306040733528

> <r_i_glide_metal>
0

> <r_i_glide_rewards>
-1.73688511413964

> <r_i_glide_evdw>
-38.6049728393555

> <r_i_glide_ecoul>
-6.74848794937134

> <r_i_glide_erotb>
0.899936350462925

> <r_i_glide_esite>
0

> <r_i_glide_emodel>
-61.6041625220942

> <r_i_glide_energy>
-45.3534607887268

> <r_i_glide_einternal>
6.93408012390137

> <i_i_glide_confnum>
8

> <i_i_glide_posenum>
364

> <r_i_glide_eff_state_penalty>
0

> <s_user_duplicate_titles>
CHEMBL267_lig3518

> <i_f3d_flags>
0

> <s_m_subgroup_title>
dock_pv

> <s_m_subgroupid>
dock_pv

> <b_m_subgroup_collapsed>
1

$$$$
CHEMBL267_lig3878
                    3D
 Schrodinger Suite 2021-1.
 49 52  0  0  1  0            999 V2000
    1.6646    7.3878    6.1175 C   0  0  0  0  0  0
    0.9945    6.8491    7.1714 N   0  0  0  0  0  0
    1.7114    6.7975    8.3023 C   0  0  0  0  0  0
    3.0565    7.2531    8.4358 C   0  0  0  0  0  0
    3.6464    7.7809    7.2701 C   0  0  0  0  0  0
    2.9317    7.8562    6.1175 N   0  0  0  0  0  0
    1.2977    6.3199    9.5405 N   0  0  0  0  0  0
    3.4382    7.0289    9.7990 C   0  0  0  0  0  0
    2.3478    6.4574   10.4247 C   0  0  0  0  0  0
    4.9779    8.2363    7.3008 N   0  0  0  0  0  0
    5.6391    8.6689    6.0661 C   0  0  0  0  0  0
    5.2075   10.0844    5.6286 C   0  0  0  0  0  0
    5.8137   10.5348    4.3102 C   0  0  0  0  0  0
    5.0314   10.5536    3.1524 C   0  0  0  0  0  0
    5.5677   11.0367    1.9620 C   0  0  0  0  0  0
    6.8864   11.4833    1.9295 C   0  0  0  0  0  0
    7.6759   11.4514    3.0775 C   0  0  0  0  0  0
    7.1383   10.9769    4.2705 C   0  0  0  0  0  0
    0.8364    7.5011    4.5627 S   0  0  0  0  0  0
   -0.8235    6.8345    4.8073 C   0  0  0  0  0  0
   -0.0022    5.7284    9.8711 C   0  0  0  0  0  0
   -0.2242    4.2887    9.4095 C   0  0  0  0  0  0
    0.8434    3.4075    9.2329 C   0  0  0  0  0  0
    0.5979    2.1148    8.7879 C   0  0  0  0  0  0
   -0.6910    1.7106    8.4507 C   0  0  0  0  0  0
   -1.7631    2.5680    8.6699 C   0  0  0  0  0  0
   -1.5297    3.8375    9.1868 C   0  0  0  0  0  0
   -0.9085    0.4563    7.9949 F   0  0  0  0  0  0
    4.3854    7.2380   10.2731 H   0  0  0  0  0  0
    2.2368    6.1213   11.4467 H   0  0  0  0  0  0
    5.5414    7.6645    7.9127 H   0  0  0  0  0  0
    5.4326    7.9445    5.2754 H   0  0  0  0  0  0
    6.7135    8.6513    6.2524 H   0  0  0  0  0  0
    5.4895   10.8124    6.3881 H   0  0  0  0  0  0
    4.1212   10.1594    5.5672 H   0  0  0  0  0  0
    4.0045   10.2176    3.1780 H   0  0  0  0  0  0
    4.9627   11.0771    1.0672 H   0  0  0  0  0  0
    7.2955   11.8635    1.0038 H   0  0  0  0  0  0
    8.6968   11.8028    3.0436 H   0  0  0  0  0  0
    7.7451   10.9666    5.1643 H   0  0  0  0  0  0
   -1.3819    6.8205    3.8744 H   0  0  0  0  0  0
   -0.7463    5.8194    5.1842 H   0  0  0  0  0  0
   -1.3666    7.4349    5.5381 H   0  0  0  0  0  0
   -0.1572    5.7876   10.9495 H   0  0  0  0  0  0
   -0.7589    6.3606    9.4082 H   0  0  0  0  0  0
    1.8548    3.7031    9.4706 H   0  0  0  0  0  0
    1.3980    1.4022    8.7882 H   0  0  0  0  0  0
   -2.7686    2.2429    8.4460 H   0  0  0  0  0  0
   -2.3678    4.5025    9.3374 H   0  0  0  0  0  0
  1  2  1  0  0  0
  1  6  2  0  0  0
  1 19  1  0  0  0
  2  3  2  0  0  0
  3  4  1  0  0  0
  3  7  1  0  0  0
  4  5  2  0  0  0
  4  8  1  0  0  0
  5  6  1  0  0  0
  5 10  1  0  0  0
  7  9  1  0  0  0
  7 21  1  0  0  0
  8  9  2  0  0  0
  8 29  1  0  0  0
  9 30  1  0  0  0
 10 11  1  0  0  0
 10 31  1  0  0  0
 11 12  1  0  0  0
 11 32  1  0  0  0
 11 33  1  0  0  0
 12 13  1  0  0  0
 12 34  1  0  0  0
 12 35  1  0  0  0
 13 14  1  0  0  0
 13 18  2  0  0  0
 14 15  2  0  0  0
 14 36  1  0  0  0
 15 16  1  0  0  0
 15 37  1  0  0  0
 16 17  2  0  0  0
 16 38  1  0  0  0
 17 18  1  0  0  0
 17 39  1  0  0  0
 18 40  1  0  0  0
 19 20  1  0  0  0
 20 41  1  0  0  0
 20 42  1  0  0  0
 20 43  1  0  0  0
 21 22  1  0  0  0
 21 44  1  0  0  0
 21 45  1  0  0  0
 22 23  1  0  0  0
 22 27  2  0  0  0
 23 24  2  0  0  0
 23 46  1  0  0  0
 24 25  1  0  0  0
 24 47  1  0  0  0
 25 26  2  0  0  0
 25 28  1  0  0  0
 26 27  1  0  0  0
 26 48  1  0  0  0
 27 49  1  0  0  0
M  END
> <s_m_entry_id>
32286

> <s_m_entry_name>
dock_pv.549

> <s_m_Source_Path>
/home/csk/Desktop/cluster/DUD-E-result/src

> <s_m_Source_File>
dock_pv.maegz

> <i_m_Source_File_Index>
549

> <chembl_id>
CHEMBL4063136

> <chembl_pref_name>
None

> <i_lp_mmshare_version>
53161

> <r_lp_tautomer_probability>
1

> <s_lp_Force_Field>
OPLS_2005

> <r_lp_Energy>
11.324801

> <b_lp_Chiralities_Consistent>
1

> <s_lp_Variant>
CHEMBL267_lig3878-1

> <s_i_glide_gridfile>
glide-grid_3el8

> <i_i_glide_lignum>
4788

> <i_i_glide_rotatable_bonds>
7

> <r_i_docking_score>
-6.92606133615629

> <r_i_glide_ligand_efficiency>
-0.247359333434153

> <r_i_glide_ligand_efficiency_sa>
-0.75112862316236

> <r_i_glide_ligand_efficiency_ln>
-1.59873831438216

> <r_i_glide_gscore>
-6.92606133615629

> <r_i_glide_lipo>
-3.28623733645309

> <r_i_glide_hbond>
0

> <r_i_glide_metal>
0

> <r_i_glide_rewards>
-1.76157868118716

> <r_i_glide_evdw>
-42.3683128356934

> <r_i_glide_ecoul>
-2.62372303009033

> <r_i_glide_erotb>
0.633728777782172

> <r_i_glide_esite>
0

> <r_i_glide_emodel>
-61.7822329134693

> <r_i_glide_energy>
-44.9920358657837

> <r_i_glide_einternal>
3.82997226715088

> <i_i_glide_confnum>
10

> <i_i_glide_posenum>
261

> <r_i_glide_eff_state_penalty>
0

> <s_user_duplicate_titles>
CHEMBL267_lig3878

> <i_f3d_flags>
0

> <s_m_subgroup_title>
dock_pv

> <s_m_subgroupid>
dock_pv

> <b_m_subgroup_collapsed>
1

$$$$
CHEMBL267_lig415
                    3D
 Schrodinger Suite 2021-1.
 63 66  0  0  1  0            999 V2000
    5.5792    8.7277    6.2411 C   0  0  0  0  0  0
    4.5137    8.2225    7.0772 C   0  0  0  0  0  0
    5.4342    9.8087    5.3389 N   0  0  0  0  0  0
    4.8044    7.1235    7.9421 C   0  0  0  0  0  0
    6.8595    8.1506    6.3943 C   0  0  0  0  0  0
    4.3858   10.2786    4.5271 C   0  0  0  0  0  0
    3.2014    8.7698    7.1464 C   0  0  0  0  0  0
    6.0300    6.5443    7.9913 N   0  0  0  0  0  0
    3.8079    6.6088    8.7991 C   0  0  0  0  0  0
    2.5247    7.1701    8.8244 C   0  0  0  0  0  0
    8.0556    8.6378    5.7143 C   0  0  0  0  0  0
    9.0042    9.0376    5.1880 N   0  0  0  0  0  0
    2.2106    8.2340    7.9738 C   0  0  0  0  0  0
   -1.1289    2.9480    8.4386 N   0  0  1  0  0  0
    3.3207    9.4479    4.1535 C   0  0  0  0  0  0
    7.0245    7.0720    7.2531 C   0  0  0  0  0  0
    1.5013    6.7529    9.6503 O   0  0  0  0  0  0
    4.4157   11.6077    4.0668 C   0  0  0  0  0  0
    3.3603   12.0894    3.2876 C   0  0  0  0  0  0
    2.2422    9.9442    3.4077 C   0  0  0  0  0  0
   -1.6464    3.8348    9.4996 C   0  0  0  0  0  0
    0.2959    2.5885    8.5230 C   0  0  0  0  0  0
    1.6278    5.6663   10.5633 C   0  0  0  0  0  0
    0.9089    8.7121    8.0035 O   0  0  0  0  0  0
    2.2802   11.2671    2.9757 C   0  0  0  0  0  0
    0.7081    4.5136   10.1079 C   0  0  0  0  0  0
   -0.6938    5.0060    9.8043 C   0  0  0  0  0  0
    1.1834    3.8072    8.8368 C   0  0  0  0  0  0
    1.1120    9.2217    3.0864 O   0  0  0  0  0  0
   -1.9386    1.7354    8.3818 C   0  0  0  0  0  0
    5.5565   12.5580    4.4250 C   0  0  0  0  0  0
    0.4828    9.6832    7.0543 C   0  0  0  0  0  0
    1.0453    7.8356    3.4039 C   0  0  0  0  0  0
    6.3011   10.2954    5.1625 H   0  0  0  0  0  0
    2.9760    9.6531    6.5800 H   0  0  0  0  0  0
    4.0872    5.7808    9.4302 H   0  0  0  0  0  0
    3.3108    8.4292    4.5004 H   0  0  0  0  0  0
    7.9869    6.5957    7.3782 H   0  0  0  0  0  0
    3.3662   13.1086    2.9315 H   0  0  0  0  0  0
   -1.7997    3.2638   10.4148 H   0  0  0  0  0  0
   -2.6321    4.2008    9.2057 H   0  0  0  0  0  0
    0.4361    1.8492    9.3139 H   0  0  0  0  0  0
    0.5977    2.1003    7.5958 H   0  0  0  0  0  0
    2.6360    5.3202   10.7552 H   0  0  0  0  0  0
    1.2795    6.0313   11.5307 H   0  0  0  0  0  0
    1.4608   11.6580    2.3903 H   0  0  0  0  0  0
    0.5986    3.7787   10.9064 H   0  0  0  0  0  0
   -1.0020    5.5321   10.7031 H   0  0  0  0  0  0
   -0.7246    5.7629    9.0201 H   0  0  0  0  0  0
    1.2628    4.4876    7.9879 H   0  0  0  0  0  0
    2.1980    3.4675    8.9969 H   0  0  0  0  0  0
   -1.7522    1.0687    9.2218 H   0  0  0  0  0  0
   -2.9996    1.9804    8.3881 H   0  0  0  0  0  0
   -1.7332    1.1768    7.4689 H   0  0  0  0  0  0
    5.7218   12.5651    5.5026 H   0  0  0  0  0  0
    6.4830   12.2359    3.9505 H   0  0  0  0  0  0
    5.3526   13.5870    4.1244 H   0  0  0  0  0  0
   -0.5851    9.8568    7.1886 H   0  0  0  0  0  0
    0.9958   10.6355    7.1899 H   0  0  0  0  0  0
    0.6319    9.3419    6.0296 H   0  0  0  0  0  0
    0.0710    7.4501    3.1035 H   0  0  0  0  0  0
    1.1502    7.6511    4.4729 H   0  0  0  0  0  0
    1.8033    7.2656    2.8655 H   0  0  0  0  0  0
  1  2  1  0  0  0
  1  3  1  0  0  0
  1  5  2  0  0  0
  2  4  1  0  0  0
  2  7  2  0  0  0
  3  6  1  0  0  0
  3 34  1  0  0  0
  4  9  2  0  0  0
  4  8  1  0  0  0
  5 11  1  0  0  0
  5 16  1  0  0  0
  6 15  2  0  0  0
  6 18  1  0  0  0
  7 13  1  0  0  0
  7 35  1  0  0  0
  8 16  2  0  0  0
  9 10  1  0  0  0
  9 36  1  0  0  0
 10 13  2  0  0  0
 10 17  1  0  0  0
 11 12  3  0  0  0
 13 24  1  0  0  0
 14 22  1  0  0  0
 14 30  1  0  0  0
 14 21  1  0  0  0
 15 20  1  0  0  0
 15 37  1  0  0  0
 16 38  1  0  0  0
 17 23  1  0  0  0
 18 19  2  0  0  0
 18 31  1  0  0  0
 19 25  1  0  0  0
 19 39  1  0  0  0
 20 29  1  0  0  0
 20 25  2  0  0  0
 21 27  1  0  0  0
 21 40  1  0  0  0
 21 41  1  0  0  0
 22 28  1  0  0  0
 22 42  1  0  0  0
 22 43  1  0  0  0
 23 26  1  0  0  0
 23 44  1  0  0  0
 23 45  1  0  0  0
 24 32  1  0  0  0
 25 46  1  0  0  0
 26 27  1  0  0  0
 26 28  1  0  0  0
 26 47  1  0  0  0
 27 48  1  0  0  0
 27 49  1  0  0  0
 28 50  1  0  0  0
 28 51  1  0  0  0
 29 33  1  0  0  0
 30 52  1  0  0  0
 30 53  1  0  0  0
 30 54  1  0  0  0
 31 55  1  0  0  0
 31 56  1  0  0  0
 31 57  1  0  0  0
 32 58  1  0  0  0
 32 59  1  0  0  0
 32 60  1  0  0  0
 33 61  1  0  0  0
 33 62  1  0  0  0
 33 63  1  0  0  0
M  END
> <s_m_entry_id>
32288

> <s_m_entry_name>
dock_pv.551

> <s_m_Source_Path>
/home/csk/Desktop/cluster/DUD-E-result/src

> <s_m_Source_File>
dock_pv.maegz

> <i_m_Source_File_Index>
551

> <chembl_id>
CHEMBL290308

> <chembl_pref_name>
None

> <i_lp_mmshare_version>
53161

> <r_lp_tautomer_probability>
1

> <s_lp_Force_Field>
OPLS_2005

> <r_lp_Energy>
44.930541

> <b_lp_Chiralities_Consistent>
1

> <s_lp_Variant>
CHEMBL267_lig415-1

> <s_i_glide_gridfile>
glide-grid_3el8

> <i_i_glide_lignum>
491

> <i_i_glide_rotatable_bonds>
7

> <r_i_docking_score>
-6.92409507533608

> <r_i_glide_ligand_efficiency>
-0.209821062888972

> <r_i_glide_ligand_efficiency_sa>
-0.673008261588198

> <r_i_glide_ligand_efficiency_ln>
-1.53988289370915

> <r_i_glide_gscore>
-6.92409507533608

> <r_i_glide_lipo>
-3.36546678025073

> <r_i_glide_hbond>
-0.228563289663968

> <r_i_glide_metal>
0

> <r_i_glide_rewards>
-1.13042750102031

> <r_i_glide_evdw>
-45.4624977111816

> <r_i_glide_ecoul>
-2.85634684562683

> <r_i_glide_erotb>
0.501939408002037

> <r_i_glide_esite>
0

> <r_i_glide_emodel>
-63.306420459303

> <r_i_glide_energy>
-48.3188445568085

> <r_i_glide_einternal>
7.40642547607422

> <i_i_glide_confnum>
1

> <i_i_glide_posenum>
25

> <r_i_glide_eff_state_penalty>
0

> <s_user_duplicate_titles>
CHEMBL267_lig415,61726

> <i_f3d_flags>
0

> <s_m_subgroup_title>
dock_pv

> <s_m_subgroupid>
dock_pv

> <b_m_subgroup_collapsed>
1

$$$$
CHEMBL267_lig1818
                    3D
 Schrodinger Suite 2021-1.
 48 52  0  0  1  0            999 V2000
    1.0635    9.9846    5.9169 N   0  0  0  0  0  0
    0.9008    9.0203    6.8526 C   0  0  0  0  0  0
    1.8585    8.2392    7.4127 N   0  0  0  0  0  0
    2.3179   10.1737    5.4449 C   0  0  0  0  0  0
    3.3959    9.3849    5.8951 C   0  0  0  0  0  0
    3.0842    8.4452    6.9066 C   0  0  0  0  0  0
    4.2899    7.8371    7.2392 N   0  0  0  0  0  0
    5.2973    8.3227    6.4824 N   0  0  0  0  0  0
    4.8021    9.2151    5.6562 C   0  0  0  0  0  0
    5.6583    9.8967    4.6454 C   0  0  0  0  0  0
    5.1571   10.1224    3.3616 C   0  0  0  0  0  0
    5.8914   10.8483    2.4286 C   0  0  0  0  0  0
    7.1554   11.3390    2.7630 C   0  0  0  0  0  0
    7.6852   11.0767    4.0270 C   0  0  0  0  0  0
    6.9374   10.3648    4.9670 C   0  0  0  0  0  0
    2.4762   11.2003    4.5232 N   0  0  0  0  0  0
    7.8810   12.0400    1.8618 F   0  0  0  0  0  0
    5.3511   11.0427    1.1880 O   0  0  0  0  0  0
    4.6314    6.8182    8.2382 C   0  0  0  0  0  0
    3.4506    6.2713    9.0145 C   0  0  0  0  0  0
    2.6749    5.3508    8.4941 N   0  0  0  0  0  0
    1.7438    5.1672    9.4379 N   0  0  0  0  0  0
    1.8903    5.9177   10.5381 N   0  0  0  0  0  0
    3.0001    6.5745   10.3069 C   0  0  0  0  0  0
    0.6597    4.2827    9.2622 C   0  0  0  0  0  0
    3.6303    7.4352   11.3750 C   0  0  0  0  0  0
    0.8324    3.0626    8.6032 C   0  0  0  0  0  0
   -0.2551    2.2221    8.3880 C   0  0  0  0  0  0
   -1.5258    2.6236    8.7881 C   0  0  0  0  0  0
   -1.6972    3.8181    9.4809 C   0  0  0  0  0  0
   -0.6022    4.6376    9.7345 C   0  0  0  0  0  0
   -0.1115    8.8550    7.1874 H   0  0  0  0  0  0
    4.1888    9.7341    3.0805 H   0  0  0  0  0  0
    8.6688   11.4420    4.2838 H   0  0  0  0  0  0
    7.3439   10.1935    5.9530 H   0  0  0  0  0  0
    3.3927   11.4029    4.1523 H   0  0  0  0  0  0
    1.6623   11.7236    4.2399 H   0  0  0  0  0  0
    5.7985   11.6838    0.6175 H   0  0  0  0  0  0
    5.1711    6.0170    7.7323 H   0  0  0  0  0  0
    5.3539    7.2712    8.9137 H   0  0  0  0  0  0
    3.7911    8.4639   11.0517 H   0  0  0  0  0  0
    3.0452    7.4369   12.2948 H   0  0  0  0  0  0
    4.6019    7.0366   11.6571 H   0  0  0  0  0  0
    1.8019    2.7703    8.2430 H   0  0  0  0  0  0
   -0.1156    1.2672    7.9047 H   0  0  0  0  0  0
   -2.3793    1.9889    8.5932 H   0  0  0  0  0  0
   -2.6796    4.1186    9.8073 H   0  0  0  0  0  0
   -0.7578    5.5697   10.2572 H   0  0  0  0  0  0
  1  4  1  0  0  0
  1  2  2  0  0  0
  2  3  1  0  0  0
  2 32  1  0  0  0
  3  6  2  0  0  0
  4  5  2  0  0  0
  4 16  1  0  0  0
  5  9  1  0  0  0
  5  6  1  0  0  0
  6  7  1  0  0  0
  7  8  1  0  0  0
  7 19  1  0  0  0
  8  9  2  0  0  0
  9 10  1  0  0  0
 10 15  1  0  0  0
 10 11  2  0  0  0
 11 12  1  0  0  0
 11 33  1  0  0  0
 12 18  1  0  0  0
 12 13  2  0  0  0
 13 17  1  0  0  0
 13 14  1  0  0  0
 14 15  2  0  0  0
 14 34  1  0  0  0
 15 35  1  0  0  0
 16 36  1  0  0  0
 16 37  1  0  0  0
 18 38  1  0  0  0
 19 20  1  0  0  0
 19 39  1  0  0  0
 19 40  1  0  0  0
 20 21  2  0  0  0
 20 24  1  0  0  0
 21 22  1  0  0  0
 22 23  1  0  0  0
 22 25  1  0  0  0
 23 24  2  0  0  0
 24 26  1  0  0  0
 25 27  2  0  0  0
 25 31  1  0  0  0
 26 41  1  0  0  0
 26 42  1  0  0  0
 26 43  1  0  0  0
 27 28  1  0  0  0
 27 44  1  0  0  0
 28 29  2  0  0  0
 28 45  1  0  0  0
 29 30  1  0  0  0
 29 46  1  0  0  0
 30 31  2  0  0  0
 30 47  1  0  0  0
 31 48  1  0  0  0
M  END
> <s_m_entry_id>
32289

> <s_m_entry_name>
dock_pv.552

> <s_m_Source_Path>
/home/csk/Desktop/cluster/DUD-E-result/src

> <s_m_Source_File>
dock_pv.maegz

> <i_m_Source_File_Index>
552

> <chembl_id>
CHEMBL1242845

> <chembl_pref_name>
None

> <i_lp_mmshare_version>
53161

> <r_lp_tautomer_probability>
0.999999999997365

> <s_lp_Force_Field>
OPLS_2005

> <r_lp_Energy>
13.27581

> <b_lp_Chiralities_Consistent>
1

> <s_lp_Variant>
CHEMBL267_lig1818-1

> <s_i_glide_gridfile>
glide-grid_3el8

> <i_i_glide_lignum>
2084

> <i_i_glide_rotatable_bonds>
5

> <r_i_docking_score>
-6.92352937738074

> <r_i_glide_ligand_efficiency>
-0.223339657334863

> <r_i_glide_ligand_efficiency_sa>
-0.701594877660371

> <r_i_glide_ligand_efficiency_ln>
-1.56146805529284

> <r_i_glide_gscore>
-6.92352937738074

> <r_i_glide_lipo>
-2.93599988679966

> <r_i_glide_hbond>
-0.267221725326954

> <r_i_glide_metal>
0

> <r_i_glide_rewards>
-1.41273209901148

> <r_i_glide_evdw>
-45.0934104919434

> <r_i_glide_ecoul>
-3.26604294776917

> <r_i_glide_erotb>
0.455730653671808

> <r_i_glide_esite>
-0.0187293531519092

> <r_i_glide_emodel>
-60.4526192812426

> <r_i_glide_energy>
-48.3594534397125

> <r_i_glide_einternal>
8.6030855178833

> <i_i_glide_confnum>
14

> <i_i_glide_posenum>
27

> <r_i_glide_eff_state_penalty>
0

> <s_user_duplicate_titles>
CHEMBL267_lig1818

> <i_f3d_flags>
0

> <s_m_subgroup_title>
dock_pv

> <s_m_subgroupid>
dock_pv

> <b_m_subgroup_collapsed>
1

$$$$
CHEMBL267_lig2234
                    3D
 Schrodinger Suite 2021-1.
 38 41  0  0  1  0            999 V2000
    0.9918    7.6010    5.4640 C   0  0  0  0  0  0
    2.1979    8.2297    5.1880 C   0  0  0  0  0  0
    3.2086    8.3448    6.1496 C   0  0  0  0  0  0
    0.7452    7.0777    6.7256 C   0  0  0  0  0  0
    1.7151    7.1711    7.7579 C   0  0  0  0  0  0
    2.9640    7.7982    7.4561 C   0  0  0  0  0  0
    3.9304    7.8889    8.4102 N   0  0  0  0  0  0
    3.7187    7.4627    9.6545 N   0  0  0  0  0  0
    2.5374    6.9084   10.0342 C   0  0  0  0  0  0
    1.5017    6.6986    9.0931 C   0  0  0  0  0  0
    0.2855    6.0965    9.4484 N   0  0  0  0  0  0
    2.3936    6.6380   11.5268 C   0  0  0  0  0  0
    3.3977    7.0326   12.3281 N   0  0  0  0  0  0
    1.3439    6.2369   12.0198 O   0  0  0  0  0  0
    4.5082    8.9951    5.7762 C   0  0  0  0  0  0
    4.5769   10.3066    5.2495 C   0  0  0  0  0  0
    5.8015   10.8705    4.8754 C   0  0  0  0  0  0
    5.6834    8.2491    5.9582 C   0  0  0  0  0  0
    6.8951    8.8277    5.5875 C   0  0  0  0  0  0
    6.9740   10.1249    5.0388 C   0  0  0  0  0  0
    8.3643   10.3185    4.7880 C   0  0  0  0  0  0
    9.0699    9.2873    5.1822 N   0  0  0  0  0  0
    8.1979    8.3720    5.6393 N   0  0  0  0  0  0
    3.3336   11.1762    5.1113 C   0  0  0  0  0  0
    0.2397    7.5206    4.6923 H   0  0  0  0  0  0
    2.3595    8.6121    4.1898 H   0  0  0  0  0  0
   -0.2018    6.6014    6.9132 H   0  0  0  0  0  0
   -0.4090    5.8541    8.7523 H   0  0  0  0  0  0
    0.1539    5.8339   10.4198 H   0  0  0  0  0  0
    3.2873    6.9564   13.3294 H   0  0  0  0  0  0
    4.3043    7.2413   11.9426 H   0  0  0  0  0  0
    5.8467   11.8707    4.4679 H   0  0  0  0  0  0
    5.6464    7.2591    6.3874 H   0  0  0  0  0  0
    8.8458   11.1876    4.3661 H   0  0  0  0  0  0
    8.5329    7.4715    5.9523 H   0  0  0  0  0  0
    3.5861   12.2381    5.0367 H   0  0  0  0  0  0
    2.7588   10.8897    4.2275 H   0  0  0  0  0  0
    2.6906   11.0752    5.9870 H   0  0  0  0  0  0
  1  2  2  0  0  0
  1  4  1  0  0  0
  1 25  1  0  0  0
  2  3  1  0  0  0
  2 26  1  0  0  0
  3  6  2  0  0  0
  3 15  1  0  0  0
  4  5  2  0  0  0
  4 27  1  0  0  0
  5  6  1  0  0  0
  5 10  1  0  0  0
  6  7  1  0  0  0
  7  8  2  0  0  0
  8  9  1  0  0  0
  9 10  2  0  0  0
  9 12  1  0  0  0
 10 11  1  0  0  0
 11 28  1  0  0  0
 11 29  1  0  0  0
 12 13  1  0  0  0
 12 14  2  0  0  0
 13 30  1  0  0  0
 13 31  1  0  0  0
 15 16  2  0  0  0
 15 18  1  0  0  0
 16 17  1  0  0  0
 16 24  1  0  0  0
 17 20  2  0  0  0
 17 32  1  0  0  0
 18 19  2  0  0  0
 18 33  1  0  0  0
 19 20  1  0  0  0
 19 23  1  0  0  0
 20 21  1  0  0  0
 21 22  2  0  0  0
 21 34  1  0  0  0
 22 23  1  0  0  0
 23 35  1  0  0  0
 24 36  1  0  0  0
 24 37  1  0  0  0
 24 38  1  0  0  0
M  END
> <s_m_entry_id>
32290

> <s_m_entry_name>
dock_pv.553

> <s_m_Source_Path>
/home/csk/Desktop/cluster/DUD-E-result/src

> <s_m_Source_File>
dock_pv.maegz

> <i_m_Source_File_Index>
553

> <chembl_id>
CHEMBL3586447

> <chembl_pref_name>
None

> <i_lp_mmshare_version>
53161

> <r_lp_tautomer_probability>
0.980392156862745

> <s_lp_Force_Field>
OPLS_2005

> <r_lp_Energy>
37.54364

> <b_lp_Chiralities_Consistent>
1

> <s_lp_Variant>
CHEMBL267_lig2234-1

> <s_i_glide_gridfile>
glide-grid_3el8

> <i_i_glide_lignum>
2524

> <i_i_glide_rotatable_bonds>
2

> <r_i_docking_score>
-6.92262260386329

> <r_i_glide_ligand_efficiency>
-0.288442608494304

> <r_i_glide_ligand_efficiency_sa>
-0.832012455437121

> <r_i_glide_ligand_efficiency_ln>
-1.65690124755687

> <r_i_glide_gscore>
-6.92262260386329

> <r_i_glide_lipo>
-2.59522159288723

> <r_i_glide_hbond>
-0.190725312034218

> <r_i_glide_metal>
0

> <r_i_glide_rewards>
-1.72710066564633

> <r_i_glide_evdw>
-35.9799423217773

> <r_i_glide_ecoul>
-5.21435308456421

> <r_i_glide_erotb>
0.183976822601598

> <r_i_glide_esite>
-0.012401777123609

> <r_i_glide_emodel>
-56.2869193568951

> <r_i_glide_energy>
-41.1942954063416

> <r_i_glide_einternal>
1.68759202957153

> <i_i_glide_confnum>
4

> <i_i_glide_posenum>
263

> <r_i_glide_eff_state_penalty>
0

> <s_user_duplicate_titles>
CHEMBL267_lig2234

> <i_f3d_flags>
0

> <s_m_subgroup_title>
dock_pv

> <s_m_subgroupid>
dock_pv

> <b_m_subgroup_collapsed>
1

$$$$
CHEMBL267_lig1496
                    3D
 Schrodinger Suite 2021-1.
 55 58  0  0  1  0            999 V2000
    7.3503    8.2576    6.6977 N   0  0  0  0  0  0
    6.8652    7.3653    7.5876 C   0  0  0  0  0  0
    5.5670    7.1169    7.8868 N   0  0  0  0  0  0
    6.4440    8.9934    6.0168 C   0  0  0  0  0  0
    5.0553    8.8328    6.2197 C   0  0  0  0  0  0
    4.6826    7.8364    7.1748 C   0  0  0  0  0  0
    3.2855    7.7480    7.2033 N   0  0  0  0  0  0
    2.8260    8.6785    6.2867 C   0  0  0  0  0  0
    3.8451    9.4151    5.7148 C   0  0  0  0  0  0
    3.6885   10.5520    4.7710 C   0  0  0  0  0  0
    2.8357   10.4389    3.6715 C   0  0  0  0  0  0
    2.6829   11.5058    2.7700 C   0  0  0  0  0  0
    3.3969   12.6835    2.9928 C   0  0  0  0  0  0
    4.2466   12.8059    4.0902 C   0  0  0  0  0  0
    4.3925   11.7435    4.9782 C   0  0  0  0  0  0
    2.4455    6.8466    7.9319 C   0  0  0  0  0  0
    2.9384    5.6376    8.4464 C   0  0  0  0  0  0
    2.1178    4.7923    9.1875 C   0  0  0  0  0  0
    0.7870    5.1341    9.4246 C   0  0  0  0  0  0
    0.2845    6.3273    8.9164 C   0  0  0  0  0  0
    1.1042    7.1825    8.1850 C   0  0  0  0  0  0
    6.9598    9.8932    5.0938 N   0  0  0  0  0  0
   -0.1057    4.2250   10.2660 C   0  0  0  0  0  0
    1.8635   11.4767    1.6579 O   0  0  0  0  0  0
    1.1318   10.2882    1.3692 C   0  0  0  0  0  0
   -1.3330    3.6244    9.5343 C   0  0  0  0  0  0
   -1.0019    2.8543    8.3355 N   0  0  1  0  0  0
   -0.3014    1.5908    8.5592 C   0  0  0  0  0  0
   -1.2728    0.4051    8.7397 C   0  0  0  0  0  0
   -1.8017   -0.0281    7.4994 O   0  0  0  0  0  0
    7.5991    6.7813    8.1193 H   0  0  0  0  0  0
    1.7652    8.7780    6.1134 H   0  0  0  0  0  0
    2.3022    9.5134    3.5255 H   0  0  0  0  0  0
    3.2923   13.5097    2.3046 H   0  0  0  0  0  0
    4.7927   13.7249    4.2560 H   0  0  0  0  0  0
    5.0420   11.8478    5.8354 H   0  0  0  0  0  0
    3.9521    5.3122    8.2782 H   0  0  0  0  0  0
    2.5253    3.8727    9.5820 H   0  0  0  0  0  0
   -0.7481    6.5832    9.0914 H   0  0  0  0  0  0
    0.6764    8.1042    7.8249 H   0  0  0  0  0  0
    6.3285   10.4446    4.5294 H   0  0  0  0  0  0
    7.9627    9.9519    4.9916 H   0  0  0  0  0  0
   -0.4566    4.7951   11.1249 H   0  0  0  0  0  0
    0.5008    3.4350   10.7037 H   0  0  0  0  0  0
    0.5596   10.4275    0.4524 H   0  0  0  0  0  0
    1.7979    9.4392    1.2129 H   0  0  0  0  0  0
    0.4240   10.0450    2.1638 H   0  0  0  0  0  0
   -1.9557    4.4498    9.1887 H   0  0  0  0  0  0
   -1.9562    3.0415   10.2115 H   0  0  0  0  0  0
   -1.8757    2.6454    7.8675 H   0  0  0  0  0  0
    0.3557    1.6641    9.4232 H   0  0  0  0  0  0
    0.3726    1.3813    7.7306 H   0  0  0  0  0  0
   -2.0927    0.6533    9.4149 H   0  0  0  0  0  0
   -0.7369   -0.4332    9.1865 H   0  0  0  0  0  0
   -2.5154    0.5652    7.2157 H   0  0  0  0  0  0
  1  4  1  0  0  0
  1  2  2  0  0  0
  2  3  1  0  0  0
  2 31  1  0  0  0
  3  6  2  0  0  0
  4  5  2  0  0  0
  4 22  1  0  0  0
  5  9  1  0  0  0
  5  6  1  0  0  0
  6  7  1  0  0  0
  7  8  1  0  0  0
  7 16  1  0  0  0
  8  9  2  0  0  0
  8 32  1  0  0  0
  9 10  1  0  0  0
 10 15  1  0  0  0
 10 11  2  0  0  0
 11 12  1  0  0  0
 11 33  1  0  0  0
 12 24  1  0  0  0
 12 13  2  0  0  0
 13 14  1  0  0  0
 13 34  1  0  0  0
 14 15  2  0  0  0
 14 35  1  0  0  0
 15 36  1  0  0  0
 16 17  2  0  0  0
 16 21  1  0  0  0
 17 18  1  0  0  0
 17 37  1  0  0  0
 18 19  2  0  0  0
 18 38  1  0  0  0
 19 20  1  0  0  0
 19 23  1  0  0  0
 20 21  2  0  0  0
 20 39  1  0  0  0
 21 40  1  0  0  0
 22 41  1  0  0  0
 22 42  1  0  0  0
 23 26  1  0  0  0
 23 43  1  0  0  0
 23 44  1  0  0  0
 24 25  1  0  0  0
 25 45  1  0  0  0
 25 46  1  0  0  0
 25 47  1  0  0  0
 26 27  1  0  0  0
 26 48  1  0  0  0
 26 49  1  0  0  0
 27 28  1  0  0  0
 27 50  1  0  0  0
 28 29  1  0  0  0
 28 51  1  0  0  0
 28 52  1  0  0  0
 29 30  1  0  0  0
 29 53  1  0  0  0
 29 54  1  0  0  0
 30 55  1  0  0  0
M  END
> <s_m_entry_id>
32291

> <s_m_entry_name>
dock_pv.554

> <s_m_Source_Path>
/home/csk/Desktop/cluster/DUD-E-result/src

> <s_m_Source_File>
dock_pv.maegz

> <i_m_Source_File_Index>
554

> <chembl_id>
CHEMBL470925

> <chembl_pref_name>
None

> <i_lp_mmshare_version>
53161

> <r_lp_tautomer_probability>
1

> <s_lp_Force_Field>
OPLS_2005

> <r_lp_Energy>
28.755226

> <b_lp_Chiralities_Consistent>
1

> <s_lp_Variant>
CHEMBL267_lig1496-1

> <s_i_glide_gridfile>
glide-grid_3el8

> <i_i_glide_lignum>
1677

> <i_i_glide_rotatable_bonds>
9

> <r_i_docking_score>
-6.92214533961756

> <r_i_glide_ligand_efficiency>
-0.230738177987252

> <r_i_glide_ligand_efficiency_sa>
-0.716957166193719

> <r_i_glide_ligand_efficiency_ln>
-1.57278684397548

> <r_i_glide_gscore>
-6.92214533961756

> <r_i_glide_lipo>
-2.65096767519239

> <r_i_glide_hbond>
-0.330353763635565

> <r_i_glide_metal>
0

> <r_i_glide_rewards>
-1.751610744056

> <r_i_glide_evdw>
-43.3315162658691

> <r_i_glide_ecoul>
-5.77918195724487

> <r_i_glide_erotb>
0.844239950146587

> <r_i_glide_esite>
0

> <r_i_glide_emodel>
-68.4533853248691

> <r_i_glide_energy>
-49.110698223114

> <r_i_glide_einternal>
4.86891794204712

> <i_i_glide_confnum>
1

> <i_i_glide_posenum>
23

> <r_i_glide_eff_state_penalty>
0

> <s_user_duplicate_titles>
CHEMBL267_lig1496,460061

> <i_f3d_flags>
0

> <s_m_subgroup_title>
dock_pv

> <s_m_subgroupid>
dock_pv

> <b_m_subgroup_collapsed>
1

$$$$
CHEMBL267_lig3050
                    3D
 Schrodinger Suite 2021-1.
 50 53  0  0  1  0            999 V2000
    5.1184    8.6362    6.6409 N   0  0  0  0  0  0
    5.2855    7.5238    7.4095 C   0  0  0  0  0  0
    4.2672    6.8237    7.9880 N   0  0  0  0  0  0
    3.8649    9.1083    6.3880 C   0  0  0  0  0  0
    2.7516    8.4171    6.9215 C   0  0  0  0  0  0
    3.0432    7.2795    7.7059 C   0  0  0  0  0  0
    1.8256    6.7070    8.0372 N   0  0  0  0  0  0
    0.8036    7.4485    7.5537 N   0  0  0  0  0  0
    1.3201    8.4806    6.9371 C   0  0  0  0  0  0
    1.5982    5.3314    8.4932 C   0  0  0  0  0  0
    0.2431    5.0660    9.2130 C   0  0  1  0  0  0
   -0.2998    3.6432    9.0254 C   0  0  0  0  0  0
    0.3783    5.4795   10.9427 Cl  0  0  0  0  0  0
    0.5330    2.5585    8.7158 C   0  0  0  0  0  0
   -0.0228    1.3210    8.3880 C   0  0  0  0  0  0
   -1.4019    1.1579    8.3880 C   0  0  0  0  0  0
   -2.2278    2.2022    8.7880 C   0  0  0  0  0  0
   -1.6805    3.4371    9.1073 C   0  0  0  0  0  0
    6.6119    7.0372    7.5880 N   0  0  0  0  0  0
    7.7197    7.6253    6.8304 C   0  0  0  0  0  0
    3.7638   10.2570    5.5882 N   0  0  0  0  0  0
    6.8263    5.6775    8.0928 C   0  0  0  0  0  0
    2.4688   10.9011    5.2872 C   0  0  0  0  0  0
    2.4868   12.0366    4.2433 C   0  0  0  0  0  0
    3.5469   12.9360    4.5115 O   0  0  0  0  0  0
    4.7938   12.2801    4.3687 C   0  0  0  0  0  0
    4.9282   11.1609    5.4210 C   0  0  0  0  0  0
    0.6676    9.2050    6.4733 H   0  0  0  0  0  0
    2.4357    5.0202    9.1204 H   0  0  0  0  0  0
    1.6634    4.7297    7.5878 H   0  0  0  0  0  0
   -0.5305    5.7182    8.8047 H   0  0  0  0  0  0
    1.6058    2.6689    8.6902 H   0  0  0  0  0  0
    0.5980    0.4793    8.1260 H   0  0  0  0  0  0
   -1.8375    0.2077    8.1155 H   0  0  0  0  0  0
   -3.2996    2.0636    8.8070 H   0  0  0  0  0  0
   -2.3415    4.2516    9.3670 H   0  0  0  0  0  0
    7.6774    8.7148    6.8431 H   0  0  0  0  0  0
    8.6883    7.3300    7.2352 H   0  0  0  0  0  0
    7.6732    7.3094    5.7873 H   0  0  0  0  0  0
    6.5980    4.9317    7.3338 H   0  0  0  0  0  0
    7.8606    5.5255    8.3880 H   0  0  0  0  0  0
    6.1986    5.4597    8.9580 H   0  0  0  0  0  0
    1.8027   10.1367    4.8889 H   0  0  0  0  0  0
    2.0216   11.2646    6.2125 H   0  0  0  0  0  0
    1.5461   12.5868    4.2782 H   0  0  0  0  0  0
    2.5631   11.6338    3.2308 H   0  0  0  0  0  0
    5.5901   13.0132    4.5036 H   0  0  0  0  0  0
    4.9148   11.8830    3.3582 H   0  0  0  0  0  0
    5.1599   11.6078    6.3881 H   0  0  0  0  0  0
    5.8013   10.5671    5.1459 H   0  0  0  0  0  0
  1  2  2  0  0  0
  1  4  1  0  0  0
  2 19  1  0  0  0
  2  3  1  0  0  0
  3  6  2  0  0  0
  4 21  1  0  0  0
  4  5  2  0  0  0
  5  9  1  0  0  0
  5  6  1  0  0  0
  6  7  1  0  0  0
  7  8  1  0  0  0
  7 10  1  0  0  0
  8  9  2  0  0  0
  9 28  1  0  0  0
 10 11  1  0  0  0
 10 29  1  0  0  0
 10 30  1  0  0  0
 11 12  1  0  0  0
 11 13  1  0  0  0
 11 31  1  0  0  0
 12 14  2  0  0  0
 12 18  1  0  0  0
 14 15  1  0  0  0
 14 32  1  0  0  0
 15 16  2  0  0  0
 15 33  1  0  0  0
 16 17  1  0  0  0
 16 34  1  0  0  0
 17 18  2  0  0  0
 17 35  1  0  0  0
 18 36  1  0  0  0
 19 20  1  0  0  0
 19 22  1  0  0  0
 20 37  1  0  0  0
 20 38  1  0  0  0
 20 39  1  0  0  0
 21 23  1  0  0  0
 21 27  1  0  0  0
 22 40  1  0  0  0
 22 41  1  0  0  0
 22 42  1  0  0  0
 23 24  1  0  0  0
 23 43  1  0  0  0
 23 44  1  0  0  0
 24 25  1  0  0  0
 24 45  1  0  0  0
 24 46  1  0  0  0
 25 26  1  0  0  0
 26 27  1  0  0  0
 26 47  1  0  0  0
 26 48  1  0  0  0
 27 49  1  0  0  0
 27 50  1  0  0  0
M  END
> <s_m_entry_id>
32293

> <s_m_entry_name>
dock_pv.556

> <s_m_Source_Path>
/home/csk/Desktop/cluster/DUD-E-result/src

> <s_m_Source_File>
dock_pv.maegz

> <i_m_Source_File_Index>
556

> <chembl_id>
CHEMBL473923

> <chembl_pref_name>
None

> <i_lp_mmshare_version>
53161

> <r_lp_tautomer_probability>
1

> <s_lp_Force_Field>
OPLS_2005

> <r_lp_Energy>
17.327095

> <b_lp_Chiralities_Consistent>
1

> <s_lp_Variant>
CHEMBL267_lig3050-2

> <s_i_glide_gridfile>
glide-grid_3el8

> <i_i_glide_lignum>
3493

> <i_i_glide_rotatable_bonds>
5

> <r_i_docking_score>
-6.9201479241751

> <r_i_glide_ligand_efficiency>
-0.256301774969448

> <r_i_glide_ligand_efficiency_sa>
-0.768905324063616

> <r_i_glide_ligand_efficiency_ln>
-1.61089634919301

> <r_i_glide_gscore>
-6.9201479241751

> <r_i_glide_lipo>
-3.25305565547837

> <r_i_glide_hbond>
0

> <r_i_glide_metal>
0

> <r_i_glide_rewards>
-1.90450675961235

> <r_i_glide_evdw>
-39.8278579711914

> <r_i_glide_ecoul>
-1.94310534000397

> <r_i_glide_erotb>
0.520273190475791

> <r_i_glide_esite>
0

> <r_i_glide_emodel>
-53.6724387706022

> <r_i_glide_energy>
-41.7709633111954

> <r_i_glide_einternal>
10.2696990966797

> <i_i_glide_confnum>
14

> <i_i_glide_posenum>
59

> <r_i_glide_eff_state_penalty>
0

> <s_user_duplicate_titles>
CHEMBL267_lig3050

> <i_f3d_flags>
0

> <s_m_subgroup_title>
dock_pv

> <s_m_subgroupid>
dock_pv

> <b_m_subgroup_collapsed>
1

$$$$
CHEMBL267_lig3068
                    3D
 Schrodinger Suite 2021-1.
 45 48  0  0  1  0            999 V2000
    4.3091    6.0077    8.7440 C   0  0  0  0  0  0
    3.7359    7.0371    7.9923 C   0  0  0  0  0  0
    4.4721    7.8569    7.1917 N   0  0  0  0  0  0
    5.6777    5.7465    8.6494 C   0  0  0  0  0  0
    6.4620    6.6012    7.8635 C   0  0  0  0  0  0
    5.8049    7.6375    7.1863 N   0  0  0  0  0  0
    6.8151    8.3180    6.5082 C   0  0  0  0  0  0
    7.9722    7.7285    6.7654 N   0  0  0  0  0  0
    7.7822    6.6367    7.5879 N   0  0  0  0  0  0
    6.6908    9.5360    5.6250 C   0  0  0  0  0  0
    7.7709    9.9221    4.8190 C   0  0  0  0  0  0
    7.6865   11.0374    3.9874 C   0  0  0  0  0  0
    6.5185   11.7938    3.9482 C   0  0  0  0  0  0
    5.4288   11.4395    4.7492 C   0  0  0  0  0  0
    5.5339   10.3230    5.5859 C   0  0  0  0  0  0
    4.1357   12.2514    4.7130 C   0  0  0  0  0  0
    4.3634   13.5201    4.3787 F   0  0  0  0  0  0
    3.5293   12.2370    5.8997 F   0  0  0  0  0  0
    3.3122   11.7149    3.8133 F   0  0  0  0  0  0
    2.3329    7.1569    8.0672 N   0  0  0  0  0  0
    1.4652    7.7121    7.0154 C   0  0  1  0  0  0
    1.7151    9.2211    6.7562 C   0  0  0  0  0  0
    1.0010    9.7260    5.4957 C   0  0  0  0  0  0
    1.2641    8.8557    4.2496 C   0  0  1  0  0  0
    0.8507    7.3987    4.5130 C   0  0  0  0  0  0
    1.5627    6.8181    5.7510 C   0  0  0  0  0  0
    0.6002    9.3818    3.1194 O   0  0  0  0  0  0
    3.6953    5.3738    9.3702 H   0  0  0  0  0  0
    6.1310    4.9278    9.1885 H   0  0  0  0  0  0
    8.6892    9.3532    4.8274 H   0  0  0  0  0  0
    8.5263   11.3134    3.3700 H   0  0  0  0  0  0
    6.4669   12.6556    3.2953 H   0  0  0  0  0  0
    4.7000   10.0805    6.2135 H   0  0  0  0  0  0
    1.9002    6.4173    8.5999 H   0  0  0  0  0  0
    0.4481    7.5864    7.3885 H   0  0  0  0  0  0
    1.3791    9.8129    7.6105 H   0  0  0  0  0  0
    2.7623    9.4559    6.6463 H   0  0  0  0  0  0
   -0.0638    9.7195    5.7160 H   0  0  0  0  0  0
    1.2693   10.7646    5.2970 H   0  0  0  0  0  0
    2.3308    8.9088    4.0206 H   0  0  0  0  0  0
   -0.2312    7.3426    4.6547 H   0  0  0  0  0  0
    1.0702    6.7789    3.6412 H   0  0  0  0  0  0
    2.6011    6.6377    5.4927 H   0  0  0  0  0  0
    1.1392    5.8372    5.9673 H   0  0  0  0  0  0
    0.5978    8.7221    2.4145 H   0  0  0  0  0  0
  1  4  2  0  0  0
  1  2  1  0  0  0
  1 28  1  0  0  0
  2  3  2  0  0  0
  2 20  1  0  0  0
  3  6  1  0  0  0
  4  5  1  0  0  0
  4 29  1  0  0  0
  5  9  2  0  0  0
  5  6  1  0  0  0
  6  7  1  0  0  0
  7  8  2  0  0  0
  7 10  1  0  0  0
  8  9  1  0  0  0
 10 15  1  0  0  0
 10 11  2  0  0  0
 11 12  1  0  0  0
 11 30  1  0  0  0
 12 13  2  0  0  0
 12 31  1  0  0  0
 13 14  1  0  0  0
 13 32  1  0  0  0
 14 15  2  0  0  0
 14 16  1  0  0  0
 15 33  1  0  0  0
 16 17  1  0  0  0
 16 18  1  0  0  0
 16 19  1  0  0  0
 20 21  1  0  0  0
 20 34  1  0  0  0
 21 22  1  0  0  0
 21 26  1  0  0  0
 21 35  1  0  0  0
 22 23  1  0  0  0
 22 36  1  0  0  0
 22 37  1  0  0  0
 23 24  1  0  0  0
 23 38  1  0  0  0
 23 39  1  0  0  0
 24 25  1  0  0  0
 24 27  1  0  0  0
 24 40  1  0  0  0
 25 26  1  0  0  0
 25 41  1  0  0  0
 25 42  1  0  0  0
 26 43  1  0  0  0
 26 44  1  0  0  0
 27 45  1  0  0  0
M  END
> <s_m_entry_id>
32294

> <s_m_entry_name>
dock_pv.557

> <s_m_Source_Path>
/home/csk/Desktop/cluster/DUD-E-result/src

> <s_m_Source_File>
dock_pv.maegz

> <i_m_Source_File_Index>
557

> <chembl_id>
CHEMBL494221

> <chembl_pref_name>
None

> <i_lp_mmshare_version>
53161

> <r_lp_tautomer_probability>
1

> <s_lp_Force_Field>
OPLS_2005

> <r_lp_Energy>
17.844481

> <b_lp_Chiralities_Consistent>
1

> <s_lp_Variant>
CHEMBL267_lig3068-1

> <s_i_glide_gridfile>
glide-grid_3el8

> <i_i_glide_lignum>
3526

> <i_i_glide_rotatable_bonds>
5

> <r_i_docking_score>
-6.91858548160982

> <r_i_glide_ligand_efficiency>
-0.25624390672629

> <r_i_glide_ligand_efficiency_sa>
-0.768731719334331

> <r_i_glide_ligand_efficiency_ln>
-1.61053263832269

> <r_i_glide_gscore>
-6.91858548160982

> <r_i_glide_lipo>
-2.34003309179142

> <r_i_glide_hbond>
-0.22758717786357

> <r_i_glide_metal>
0

> <r_i_glide_rewards>
-2.08696897098466

> <r_i_glide_evdw>
-35.3333930969238

> <r_i_glide_ecoul>
-6.03562211990356

> <r_i_glide_erotb>
0.408016731861563

> <r_i_glide_esite>
0

> <r_i_glide_emodel>
-53.791578779173

> <r_i_glide_energy>
-41.3690152168274

> <r_i_glide_einternal>
9.258131980896

> <i_i_glide_confnum>
9

> <i_i_glide_posenum>
33

> <r_i_glide_eff_state_penalty>
0

> <s_user_duplicate_titles>
CHEMBL267_lig3068

> <i_f3d_flags>
0

> <s_m_subgroup_title>
dock_pv

> <s_m_subgroupid>
dock_pv

> <b_m_subgroup_collapsed>
1

$$$$
CHEMBL267_lig2188
                    3D
 Schrodinger Suite 2021-1.
 39 41  0  0  1  0            999 V2000
    5.1211    8.3862    6.7276 C   0  0  0  0  0  0
    5.0356    7.3358    7.6453 C   0  0  0  0  0  0
    6.2097    6.6370    7.9781 C   0  0  0  0  0  0
    7.4425    6.8950    7.4651 N   0  0  0  0  0  0
    6.3784    8.7097    6.1931 C   0  0  0  0  0  0
    7.4841    7.9148    6.6048 C   0  0  0  0  0  0
    8.5980    8.3955    5.9561 N   0  0  0  0  0  0
    8.2581    9.4914    5.1880 C   0  0  0  0  0  0
    6.8898    9.6981    5.2875 C   0  0  0  0  0  0
    9.2972   10.2370    4.4533 C   0  0  0  0  0  0
    3.7773    7.0460    8.1996 N   0  0  0  0  0  0
    3.5469    5.8076    8.9366 C   0  0  0  0  0  0
   10.5412    9.7311    4.6617 O   0  0  0  0  0  0
   11.6717   10.3067    4.0234 C   0  0  0  0  0  0
    9.0378   11.2061    3.7380 O   0  0  0  0  0  0
    2.2926    5.8441    9.7819 C   0  0  0  0  0  0
    1.0323    5.3127    9.5618 C   0  0  0  0  0  0
    0.3031    5.5669   10.7208 C   0  0  0  0  0  0
    0.9980    6.2370   11.6054 N   0  0  0  0  0  0
    2.2012    6.4222   11.0390 N   0  0  0  0  0  0
    3.2486    7.0370   11.8674 C   0  0  0  0  0  0
    3.9283    8.2370   11.1880 C   0  0  0  0  0  0
    4.2452    8.9517    6.4471 H   0  0  0  0  0  0
    6.1979    5.8064    8.6654 H   0  0  0  0  0  0
    9.5410    8.0286    5.9878 H   0  0  0  0  0  0
    6.3433   10.4832    4.7849 H   0  0  0  0  0  0
    2.9651    7.4314    7.7395 H   0  0  0  0  0  0
    3.4876    4.9986    8.2086 H   0  0  0  0  0  0
    4.3835    5.5718    9.5880 H   0  0  0  0  0  0
   12.5850    9.8369    4.3880 H   0  0  0  0  0  0
   11.7404   11.3760    4.2291 H   0  0  0  0  0  0
   11.6221   10.1632    2.9431 H   0  0  0  0  0  0
    0.6953    4.7705    8.6903 H   0  0  0  0  0  0
   -0.7085    5.2489   10.9171 H   0  0  0  0  0  0
    2.8176    7.3551   12.8189 H   0  0  0  0  0  0
    3.9723    6.2692   12.1322 H   0  0  0  0  0  0
    4.5278    8.7979   11.9052 H   0  0  0  0  0  0
    4.5980    7.9169   10.4041 H   0  0  0  0  0  0
    3.2178    8.9210   10.7284 H   0  0  0  0  0  0
  1  5  1  0  0  0
  1  2  2  0  0  0
  1 23  1  0  0  0
  2  3  1  0  0  0
  2 11  1  0  0  0
  3  4  2  0  0  0
  3 24  1  0  0  0
  4  6  1  0  0  0
  5  6  2  0  0  0
  5  9  1  0  0  0
  6  7  1  0  0  0
  7  8  1  0  0  0
  7 25  1  0  0  0
  8  9  2  0  0  0
  8 10  1  0  0  0
  9 26  1  0  0  0
 10 13  1  0  0  0
 10 15  2  0  0  0
 11 12  1  0  0  0
 11 27  1  0  0  0
 12 16  1  0  0  0
 12 28  1  0  0  0
 12 29  1  0  0  0
 13 14  1  0  0  0
 14 30  1  0  0  0
 14 31  1  0  0  0
 14 32  1  0  0  0
 16 17  2  0  0  0
 16 20  1  0  0  0
 17 18  1  0  0  0
 17 33  1  0  0  0
 18 19  2  0  0  0
 18 34  1  0  0  0
 19 20  1  0  0  0
 20 21  1  0  0  0
 21 22  1  0  0  0
 21 35  1  0  0  0
 21 36  1  0  0  0
 22 37  1  0  0  0
 22 38  1  0  0  0
 22 39  1  0  0  0
M  END
> <s_m_entry_id>
32295

> <s_m_entry_name>
dock_pv.558

> <s_m_Source_Path>
/home/csk/Desktop/cluster/DUD-E-result/src

> <s_m_Source_File>
dock_pv.maegz

> <i_m_Source_File_Index>
558

> <chembl_id>
CHEMBL3347418

> <chembl_pref_name>
None

> <i_lp_mmshare_version>
53161

> <r_lp_tautomer_probability>
1

> <s_lp_Force_Field>
OPLS_2005

> <r_lp_Energy>
8.959593

> <b_lp_Chiralities_Consistent>
1

> <s_lp_Variant>
CHEMBL267_lig2188-1

> <s_i_glide_gridfile>
glide-grid_3el8

> <i_i_glide_lignum>
2477

> <i_i_glide_rotatable_bonds>
6

> <r_i_docking_score>
-6.91826130869753

> <r_i_glide_ligand_efficiency>
-0.314466423122615

> <r_i_glide_ligand_efficiency_sa>
-0.881147284852198

> <r_i_glide_ligand_efficiency_ln>
-1.69107541355831

> <r_i_glide_gscore>
-6.91826130869753

> <r_i_glide_lipo>
-2.0283694079681

> <r_i_glide_hbond>
-0.163172343045704

> <r_i_glide_metal>
0

> <r_i_glide_rewards>
-3.09182473470533

> <r_i_glide_evdw>
-35.3168067932129

> <r_i_glide_ecoul>
-4.59288692474365

> <r_i_glide_erotb>
0.819878555393798

> <r_i_glide_esite>
0

> <r_i_glide_emodel>
-54.8359479013762

> <r_i_glide_energy>
-39.9096937179565

> <r_i_glide_einternal>
2.82345938682556

> <i_i_glide_confnum>
18

> <i_i_glide_posenum>
278

> <r_i_glide_eff_state_penalty>
0

> <s_user_duplicate_titles>
CHEMBL267_lig2188

> <i_f3d_flags>
0

> <s_m_subgroup_title>
dock_pv

> <s_m_subgroupid>
dock_pv

> <b_m_subgroup_collapsed>
1

$$$$
CHEMBL267_lig3113
                    3D
 Schrodinger Suite 2021-1.
 43 46  0  0  1  0            999 V2000
    1.8924    7.0452    9.5445 N   0  0  0  0  0  0
    2.6379    8.1773    9.5270 C   0  0  0  0  0  0
    2.8304    9.0259    8.4842 N   0  0  0  0  0  0
    1.2400    6.7145    8.3970 C   0  0  0  0  0  0
    1.4099    7.4840    7.2343 C   0  0  0  0  0  0
    2.2404    8.6161    7.3569 C   0  0  0  0  0  0
    2.4104    9.0986    6.0710 N   0  0  0  0  0  0
    1.6418    8.4144    5.1917 N   0  0  0  0  0  0
    1.0121    7.4793    5.8623 C   0  0  0  0  0  0
    0.4475    5.5665    8.3552 N   0  0  0  0  0  0
    3.3775   10.0804    5.5725 C   0  0  0  0  0  0
    4.5889    9.4279    4.8319 C   0  0  1  0  0  0
    5.2140   10.6389    3.6694 Cl  0  0  0  0  0  0
    5.6897    8.7831    5.7126 C   0  0  0  0  0  0
    5.3502    7.8372    6.6868 C   0  0  0  0  0  0
    7.6589    7.4746    7.2313 C   0  0  0  0  0  0
    8.0315    8.3861    6.2498 C   0  0  0  0  0  0
    6.3176    7.2181    7.4712 C   0  0  0  0  0  0
    7.0531    9.0550    5.5125 C   0  0  0  0  0  0
    8.5972    6.8103    7.9426 F   0  0  0  0  0  0
    0.1875    4.7909    9.5594 C   0  0  0  0  0  0
   -0.4260    3.4712    9.1576 C   0  0  0  0  0  0
    0.4372    2.4949    8.7631 N   0  0  0  0  0  0
   -1.4605    1.0460    8.3879 C   0  0  0  0  0  0
   -2.3234    2.0657    8.7887 C   0  0  0  0  0  0
   -0.0909    1.3004    8.3882 C   0  0  0  0  0  0
   -1.8106    3.2978    9.1875 C   0  0  0  0  0  0
    3.1431    8.4312   10.4469 H   0  0  0  0  0  0
    0.3527    6.7837    5.3607 H   0  0  0  0  0  0
   -0.2570    5.5141    7.6287 H   0  0  0  0  0  0
    3.7128   10.7140    6.3925 H   0  0  0  0  0  0
    2.8275   10.7297    4.8886 H   0  0  0  0  0  0
    4.2098    8.6384    4.1847 H   0  0  0  0  0  0
    4.3398    7.5074    6.8192 H   0  0  0  0  0  0
    9.0787    8.5734    6.0615 H   0  0  0  0  0  0
    6.0315    6.4886    8.2150 H   0  0  0  0  0  0
    7.3828    9.7569    4.7621 H   0  0  0  0  0  0
    1.1120    4.6128   10.1105 H   0  0  0  0  0  0
   -0.4796    5.3405   10.2265 H   0  0  0  0  0  0
   -1.8519    0.0883    8.0786 H   0  0  0  0  0  0
   -3.3908    1.8986    8.7950 H   0  0  0  0  0  0
    0.5976    0.5227    8.0983 H   0  0  0  0  0  0
   -2.4710    4.0953    9.4981 H   0  0  0  0  0  0
  1  2  2  0  0  0
  1  4  1  0  0  0
  2  3  1  0  0  0
  2 28  1  0  0  0
  3  6  2  0  0  0
  4  5  2  0  0  0
  4 10  1  0  0  0
  5  9  1  0  0  0
  5  6  1  0  0  0
  6  7  1  0  0  0
  7  8  1  0  0  0
  7 11  1  0  0  0
  8  9  2  0  0  0
  9 29  1  0  0  0
 10 21  1  0  0  0
 10 30  1  0  0  0
 11 12  1  0  0  0
 11 31  1  0  0  0
 11 32  1  0  0  0
 12 13  1  0  0  0
 12 14  1  0  0  0
 12 33  1  0  0  0
 14 15  2  0  0  0
 14 19  1  0  0  0
 15 18  1  0  0  0
 15 34  1  0  0  0
 16 17  1  0  0  0
 16 18  2  0  0  0
 16 20  1  0  0  0
 17 19  2  0  0  0
 17 35  1  0  0  0
 18 36  1  0  0  0
 19 37  1  0  0  0
 21 22  1  0  0  0
 21 38  1  0  0  0
 21 39  1  0  0  0
 22 23  2  0  0  0
 22 27  1  0  0  0
 23 26  1  0  0  0
 24 25  1  0  0  0
 24 26  2  0  0  0
 24 40  1  0  0  0
 25 27  2  0  0  0
 25 41  1  0  0  0
 26 42  1  0  0  0
 27 43  1  0  0  0
M  END
> <s_m_entry_id>
32296

> <s_m_entry_name>
dock_pv.559

> <s_m_Source_Path>
/home/csk/Desktop/cluster/DUD-E-result/src

> <s_m_Source_File>
dock_pv.maegz

> <i_m_Source_File_Index>
559

> <chembl_id>
CHEMBL1773092

> <chembl_pref_name>
None

> <i_lp_mmshare_version>
53161

> <r_lp_tautomer_probability>
1

> <s_lp_Force_Field>
OPLS_2005

> <r_lp_Energy>
5.164613

> <b_lp_Chiralities_Consistent>
1

> <s_lp_Variant>
CHEMBL267_lig3113-2

> <s_i_glide_gridfile>
glide-grid_3el8

> <i_i_glide_lignum>
3593

> <i_i_glide_rotatable_bonds>
6

> <r_i_docking_score>
-6.91743776193767

> <r_i_glide_ligand_efficiency>
-0.256201398590284

> <r_i_glide_ligand_efficiency_sa>
-0.768604194926455

> <r_i_glide_ligand_efficiency_ln>
-1.61026546810465

> <r_i_glide_gscore>
-6.91743776193767

> <r_i_glide_lipo>
-3.47473401416581

> <r_i_glide_hbond>
-0.295794703076877

> <r_i_glide_metal>
0

> <r_i_glide_rewards>
-1.52762561907638

> <r_i_glide_evdw>
-35.652214050293

> <r_i_glide_ecoul>
-4.0547342300415

> <r_i_glide_erotb>
0.795305749906248

> <r_i_glide_esite>
-0.0237683385039765

> <r_i_glide_emodel>
-53.6502845843872

> <r_i_glide_energy>
-39.7069482803345

> <r_i_glide_einternal>
7.58801937103271

> <i_i_glide_confnum>
58

> <i_i_glide_posenum>
26

> <r_i_glide_eff_state_penalty>
0

> <s_user_duplicate_titles>
CHEMBL267_lig3113

> <i_f3d_flags>
0

> <s_m_subgroup_title>
dock_pv

> <s_m_subgroupid>
dock_pv

> <b_m_subgroup_collapsed>
1

$$$$
CHEMBL267_lig1764
                    3D
 Schrodinger Suite 2021-1.
 42 45  0  0  1  0            999 V2000
    4.2525    7.6785    7.4819 N   0  0  0  0  0  0
    4.3529    8.4936    6.3908 C   0  0  0  0  0  0
    3.3206    8.8729    5.5872 N   0  0  0  0  0  0
    3.0346    7.1780    7.8157 C   0  0  0  0  0  0
    1.9407    7.5013    6.9995 C   0  0  0  0  0  0
    2.1287    8.3604    5.8908 C   0  0  0  0  0  0
    0.9607    8.5626    5.2047 N   0  0  0  0  0  0
    0.0829    7.8372    5.8514 C   0  0  0  0  0  0
    0.5984    7.1901    6.9489 N   0  0  0  0  0  0
    2.9828    6.3881    8.9701 N   0  0  0  0  0  0
    1.8626    5.7474    9.5093 C   0  0  0  0  0  0
    1.4205    6.1056   10.7815 C   0  0  0  0  0  0
    0.2493    5.5491   11.2913 C   0  0  0  0  0  0
   -0.4775    4.6371   10.5295 C   0  0  0  0  0  0
   -0.0431    4.2579    9.2520 C   0  0  0  0  0  0
    1.1509    4.7978    8.7697 C   0  0  0  0  0  0
    5.6221    8.8994    5.9782 N   0  0  0  0  0  0
    6.8642    8.4170    6.6097 C   0  0  0  0  0  0
    8.0646    8.5097    5.6433 C   0  0  0  0  0  0
    8.2255    9.8458    5.1880 O   0  0  0  0  0  0
    7.0723   10.3549    4.5344 C   0  0  0  0  0  0
    5.8419   10.2647    5.4597 C   0  0  0  0  0  0
   -0.7426    3.4073    8.4173 O   0  0  0  0  0  0
   -2.0743    3.0400    8.7840 C   0  0  0  0  0  0
    0.0533    6.5791    7.5469 H   0  0  0  0  0  0
   -0.9627    7.7184    5.5989 H   0  0  0  0  0  0
    3.8518    6.2732    9.4697 H   0  0  0  0  0  0
    1.9674    6.8304   11.3677 H   0  0  0  0  0  0
   -0.1104    5.8402   12.2667 H   0  0  0  0  0  0
   -1.3956    4.2488   10.9434 H   0  0  0  0  0  0
    1.5010    4.5187    7.7878 H   0  0  0  0  0  0
    7.0548    8.9646    7.5332 H   0  0  0  0  0  0
    6.7490    7.3687    6.8853 H   0  0  0  0  0  0
    7.9445    7.8274    4.7995 H   0  0  0  0  0  0
    8.9782    8.2099    6.1574 H   0  0  0  0  0  0
    6.8913    9.8354    3.5925 H   0  0  0  0  0  0
    7.2582   11.3964    4.2736 H   0  0  0  0  0  0
    4.9809   10.5993    4.8797 H   0  0  0  0  0  0
    5.9367   10.9607    6.2957 H   0  0  0  0  0  0
   -2.5348    2.4613    7.9877 H   0  0  0  0  0  0
   -2.1001    2.4209    9.6794 H   0  0  0  0  0  0
   -2.7039    3.9176    8.9430 H   0  0  0  0  0  0
  1  2  2  0  0  0
  1  4  1  0  0  0
  2 17  1  0  0  0
  2  3  1  0  0  0
  3  6  2  0  0  0
  4 10  1  0  0  0
  4  5  2  0  0  0
  5  9  1  0  0  0
  5  6  1  0  0  0
  6  7  1  0  0  0
  7  8  2  0  0  0
  8  9  1  0  0  0
  8 26  1  0  0  0
  9 25  1  0  0  0
 10 11  1  0  0  0
 10 27  1  0  0  0
 11 12  2  0  0  0
 11 16  1  0  0  0
 12 13  1  0  0  0
 12 28  1  0  0  0
 13 14  2  0  0  0
 13 29  1  0  0  0
 14 15  1  0  0  0
 14 30  1  0  0  0
 15 16  2  0  0  0
 15 23  1  0  0  0
 16 31  1  0  0  0
 17 18  1  0  0  0
 17 22  1  0  0  0
 18 19  1  0  0  0
 18 32  1  0  0  0
 18 33  1  0  0  0
 19 20  1  0  0  0
 19 34  1  0  0  0
 19 35  1  0  0  0
 20 21  1  0  0  0
 21 22  1  0  0  0
 21 36  1  0  0  0
 21 37  1  0  0  0
 22 38  1  0  0  0
 22 39  1  0  0  0
 23 24  1  0  0  0
 24 40  1  0  0  0
 24 41  1  0  0  0
 24 42  1  0  0  0
M  END
> <s_m_entry_id>
32297

> <s_m_entry_name>
dock_pv.560

> <s_m_Source_Path>
/home/csk/Desktop/cluster/DUD-E-result/src

> <s_m_Source_File>
dock_pv.maegz

> <i_m_Source_File_Index>
560

> <chembl_id>
CHEMBL1173484

> <chembl_pref_name>
None

> <i_lp_mmshare_version>
53161

> <r_lp_tautomer_probability>
0.0419191988452545

> <s_lp_Force_Field>
OPLS_2005

> <r_lp_Energy>
28.066688

> <b_lp_Chiralities_Consistent>
1

> <s_lp_Variant>
CHEMBL267_lig1764-2

> <s_i_glide_gridfile>
glide-grid_3el8

> <i_i_glide_lignum>
2007

> <i_i_glide_rotatable_bonds>
4

> <r_i_docking_score>
-6.91021086401342

> <r_i_glide_ligand_efficiency>
-0.287925452667226

> <r_i_glide_ligand_efficiency_sa>
-0.830520719899931

> <r_i_glide_ligand_efficiency_ln>
-1.65393054867317

> <r_i_glide_gscore>
-6.91021086401342

> <r_i_glide_lipo>
-2.60125491272996

> <r_i_glide_hbond>
-0.233088199797333

> <r_i_glide_metal>
0

> <r_i_glide_rewards>
-2.11996031822751

> <r_i_glide_evdw>
-38.6806907653809

> <r_i_glide_ecoul>
-3.66740989685059

> <r_i_glide_erotb>
0.528238589538025

> <r_i_glide_esite>
0

> <r_i_glide_emodel>
-52.7910870501257

> <r_i_glide_energy>
-42.3481006622314

> <r_i_glide_einternal>
14.8500356674194

> <i_i_glide_confnum>
15

> <i_i_glide_posenum>
82

> <r_i_glide_eff_state_penalty>
0

> <s_user_duplicate_titles>
CHEMBL267_lig1764,650820

> <i_f3d_flags>
0

> <s_m_subgroup_title>
dock_pv

> <s_m_subgroupid>
dock_pv

> <b_m_subgroup_collapsed>
1

$$$$
CHEMBL267_lig2892 
                    3D
 Schrodinger Suite 2021-1.
 53 57  0  0  1  0            999 V2000
    1.8357    5.6774    8.4213 C   0  0  0  0  0  0
    1.5557    6.7869    7.6139 C   0  0  0  0  0  0
    2.4997    7.6628    7.1592 N   0  0  0  0  0  0
    3.1411    5.4970    8.8530 C   0  0  0  0  0  0
    4.0863    6.3630    8.3891 N   0  0  0  0  0  0
    3.7715    7.4224    7.5160 C   0  0  0  0  0  0
    5.0363    7.9445    7.1261 C   0  0  0  0  0  0
    5.9432    7.1895    7.8825 C   0  0  0  0  0  0
    5.4006    6.2419    8.6107 N   0  0  0  0  0  0
    5.4013    8.9330    6.1226 C   0  0  0  0  0  0
    6.6103    9.6086    6.1683 C   0  0  0  0  0  0
    6.9103   10.5888    4.7809 S   0  0  0  0  0  0
    5.3618   10.1561    4.1170 C   0  0  0  0  0  0
    4.6748    9.2798    4.9691 C   0  0  0  0  0  0
    5.0132   10.6105    2.7948 C   0  0  0  0  0  0
    5.8729   10.8728    1.9514 O   0  0  0  0  0  0
    3.6956   10.7841    2.5907 N   0  0  0  0  0  0
    3.1106   11.3887    1.3836 C   0  0  2  0  0  0
    3.2200   12.9375    1.3789 C   0  0  0  0  0  0
    2.6218   13.5953    0.1200 C   0  0  0  0  0  0
    1.1942   13.1095   -0.1659 C   0  0  0  0  0  0
    1.1458   11.5740   -0.2356 C   0  0  0  0  0  0
    1.6704   10.8889    1.0470 C   0  0  2  0  0  0
    0.7369   11.0164    2.1591 N   0  0  0  0  0  0
    0.8164    4.6595    8.7396 C   0  0  0  0  0  0
    0.9091    3.2662    8.6137 C   0  0  0  0  0  0
   -0.2381    2.6531    8.7900 N   0  0  0  0  0  0
   -1.0822    3.6313    9.1366 N   0  0  0  0  0  0
   -0.4671    4.8534    9.1881 C   0  0  0  0  0  0
   -2.4776    3.3283    9.3940 C   0  0  0  0  0  0
    0.5483    6.9516    7.2549 H   0  0  0  0  0  0
    3.4693    4.6794    9.4802 H   0  0  0  0  0  0
    7.0184    7.2940    7.8549 H   0  0  0  0  0  0
    7.3676    9.5224    6.9310 H   0  0  0  0  0  0
    3.7122    8.8494    4.7351 H   0  0  0  0  0  0
    3.0660   10.6387    3.3620 H   0  0  0  0  0  0
    3.7134   11.0375    0.5404 H   0  0  0  0  0  0
    4.2650   13.2397    1.4698 H   0  0  0  0  0  0
    2.7013   13.3306    2.2545 H   0  0  0  0  0  0
    2.6340   14.6802    0.2252 H   0  0  0  0  0  0
    3.2566   13.3692   -0.7396 H   0  0  0  0  0  0
    0.5211   13.4674    0.6142 H   0  0  0  0  0  0
    0.8368   13.5375   -1.1021 H   0  0  0  0  0  0
    0.1193   11.2648   -0.4246 H   0  0  0  0  0  0
    1.7117   11.2144   -1.0980 H   0  0  0  0  0  0
    1.7733    9.8278    0.8196 H   0  0  0  0  0  0
   -0.1725   10.7005    1.8512 H   0  0  0  0  0  0
    1.0080   10.3844    2.8986 H   0  0  0  0  0  0
    1.7899    2.7270    8.3031 H   0  0  0  0  0  0
   -1.0045    5.7515    9.4396 H   0  0  0  0  0  0
   -3.0801    4.2185    9.2041 H   0  0  0  0  0  0
   -2.8183    2.5300    8.7317 H   0  0  0  0  0  0
   -2.5971    3.0202   10.4312 H   0  0  0  0  0  0
  1  2  1  0  0  0
  1  4  2  0  0  0
  1 25  1  0  0  0
  2  3  2  0  0  0
  2 31  1  0  0  0
  3  6  1  0  0  0
  4  5  1  0  0  0
  4 32  1  0  0  0
  5  6  1  0  0  0
  5  9  1  0  0  0
  6  7  2  0  0  0
  7  8  1  0  0  0
  7 10  1  0  0  0
  8  9  2  0  0  0
  8 33  1  0  0  0
 10 11  2  0  0  0
 10 14  1  0  0  0
 11 12  1  0  0  0
 11 34  1  0  0  0
 12 13  1  0  0  0
 13 14  2  0  0  0
 13 15  1  0  0  0
 14 35  1  0  0  0
 15 16  2  0  0  0
 15 17  1  0  0  0
 17 18  1  0  0  0
 17 36  1  0  0  0
 18 19  1  0  0  0
 18 23  1  0  0  0
 18 37  1  0  0  0
 19 20  1  0  0  0
 19 38  1  0  0  0
 19 39  1  0  0  0
 20 21  1  0  0  0
 20 40  1  0  0  0
 20 41  1  0  0  0
 21 22  1  0  0  0
 21 42  1  0  0  0
 21 43  1  0  0  0
 22 23  1  0  0  0
 22 44  1  0  0  0
 22 45  1  0  0  0
 23 24  1  0  0  0
 23 46  1  0  0  0
 24 47  1  0  0  0
 24 48  1  0  0  0
 25 26  1  0  0  0
 25 29  2  0  0  0
 26 27  2  0  0  0
 26 49  1  0  0  0
 27 28  1  0  0  0
 28 29  1  0  0  0
 28 30  1  0  0  0
 29 50  1  0  0  0
 30 51  1  0  0  0
 30 52  1  0  0  0
 30 53  1  0  0  0
M  END
> <s_m_entry_id>
32298

> <s_m_entry_name>
dock_pv.561

> <s_m_Source_Path>
/home/csk/Desktop/cluster/DUD-E-result/src

> <s_m_Source_File>
dock_pv.maegz

> <i_m_Source_File_Index>
561

> <chembl_id>
CHEMBL4568087

> <chembl_pref_name>
None

> <i_lp_mmshare_version>
53161

> <r_lp_tautomer_probability>
1

> <s_lp_Force_Field>
OPLS_2005

> <r_lp_Energy>
23.368655

> <b_lp_Chiralities_Consistent>
1

> <s_lp_Variant>
CHEMBL267_lig2892 -1

> <s_i_glide_gridfile>
glide-grid_3el8

> <i_i_glide_lignum>
3272

> <i_i_glide_rotatable_bonds>
5

> <r_i_docking_score>
-6.90181189944481

> <r_i_glide_ligand_efficiency>
-0.23006039664816

> <r_i_glide_ligand_efficiency_sa>
-0.714851141987352

> <r_i_glide_ligand_efficiency_ln>
-1.56816686481765

> <r_i_glide_gscore>
-6.90181189944481

> <r_i_glide_lipo>
-2.85886780591703

> <r_i_glide_hbond>
-0.142411992963012

> <r_i_glide_metal>
0

> <r_i_glide_rewards>
-1.58418810268537

> <r_i_glide_evdw>
-42.6573448181152

> <r_i_glide_ecoul>
-4.93815755844116

> <r_i_glide_erotb>
0.557246876792537

> <r_i_glide_esite>
0

> <r_i_glide_emodel>
-62.3433827394642

> <r_i_glide_energy>
-47.5955023765564

> <r_i_glide_einternal>
9.10191917419434

> <i_i_glide_confnum>
15

> <i_i_glide_posenum>
73

> <r_i_glide_eff_state_penalty>
0

> <s_user_duplicate_titles>
CHEMBL267_lig2892 

> <i_f3d_flags>
0

> <s_m_subgroup_title>
dock_pv

> <s_m_subgroupid>
dock_pv

> <b_m_subgroup_collapsed>
1

$$$$
CHEMBL267_lig1551
                    3D
 Schrodinger Suite 2021-1.
 35 37  0  0  1  0            999 V2000
    1.4862    8.6674    4.1338 C   0  0  0  0  0  0
    0.7219    7.5318    3.8654 C   0  0  0  0  0  0
    0.4144    6.6370    4.8874 C   0  0  0  0  0  0
    1.9456    8.9202    5.4365 C   0  0  0  0  0  0
    1.6371    8.0156    6.4633 C   0  0  0  0  0  0
    0.8671    6.8832    6.1847 C   0  0  0  0  0  0
    0.5980    5.9540    7.2690 C   0  0  0  0  0  0
    1.1886    6.0512    8.4703 C   0  0  0  0  0  0
    2.2252    7.1673    8.6637 C   0  0  0  0  0  0
    2.0467    8.2916    7.7635 O   0  0  0  0  0  0
    0.9325    5.0753    9.6245 C   0  0  0  0  0  0
    0.0999    3.8389    9.2747 C   0  0  0  0  0  0
   -1.2914    3.8370    9.4106 C   0  0  0  0  0  0
   -2.0499    2.7387    9.0003 C   0  0  0  0  0  0
   -1.4106    1.6185    8.4443 C   0  0  0  0  0  0
   -0.0200    1.5867    8.3880 C   0  0  0  0  0  0
    0.7271    2.6926    8.7880 C   0  0  0  0  0  0
   -2.1146    0.5311    7.9880 O   0  0  0  0  0  0
    1.7729    9.5240    3.1007 O   0  0  0  0  0  0
    2.6894   10.0482    5.6848 O   0  0  0  0  0  0
   -3.4079    2.7712    9.1880 O   0  0  0  0  0  0
    0.3614    7.3410    2.8641 H   0  0  0  0  0  0
   -0.1780    5.7597    4.6681 H   0  0  0  0  0  0
   -0.1291    5.1738    7.1006 H   0  0  0  0  0  0
    2.1726    7.5421    9.6862 H   0  0  0  0  0  0
    3.2308    6.7652    8.5333 H   0  0  0  0  0  0
    0.4534    5.6159   10.4425 H   0  0  0  0  0  0
    1.9016    4.7453   10.0013 H   0  0  0  0  0  0
   -1.8020    4.6871    9.8225 H   0  0  0  0  0  0
    0.4787    0.7084    8.0053 H   0  0  0  0  0  0
    1.7980    2.6638    8.6951 H   0  0  0  0  0  0
   -2.8504    0.8008    7.4071 H   0  0  0  0  0  0
    1.3980    9.2210    2.2673 H   0  0  0  0  0  0
    2.8140   10.5421    4.8692 H   0  0  0  0  0  0
   -3.8823    2.2370    8.5409 H   0  0  0  0  0  0
  1  2  2  0  0  0
  1  4  1  0  0  0
  1 19  1  0  0  0
  2  3  1  0  0  0
  2 22  1  0  0  0
  3  6  2  0  0  0
  3 23  1  0  0  0
  4  5  2  0  0  0
  4 20  1  0  0  0
  5  6  1  0  0  0
  5 10  1  0  0  0
  6  7  1  0  0  0
  7  8  2  0  0  0
  7 24  1  0  0  0
  8 11  1  0  0  0
  8  9  1  0  0  0
  9 10  1  0  0  0
  9 25  1  0  0  0
  9 26  1  0  0  0
 11 12  1  0  0  0
 11 27  1  0  0  0
 11 28  1  0  0  0
 12 13  2  0  0  0
 12 17  1  0  0  0
 13 14  1  0  0  0
 13 29  1  0  0  0
 14 15  2  0  0  0
 14 21  1  0  0  0
 15 16  1  0  0  0
 15 18  1  0  0  0
 16 17  2  0  0  0
 16 30  1  0  0  0
 17 31  1  0  0  0
 18 32  1  0  0  0
 19 33  1  0  0  0
 20 34  1  0  0  0
 21 35  1  0  0  0
M  END
> <s_m_entry_id>
32300

> <s_m_entry_name>
dock_pv.563

> <s_m_Source_Path>
/home/csk/Desktop/cluster/DUD-E-result/src

> <s_m_Source_File>
dock_pv.maegz

> <i_m_Source_File_Index>
563

> <chembl_id>
CHEMBL477560

> <chembl_pref_name>
HEMATOXYLENE

> <i_lp_mmshare_version>
53161

> <r_lp_tautomer_probability>
0.999999999999776

> <s_lp_Force_Field>
OPLS_2005

> <r_lp_Energy>
16.700786

> <b_lp_Chiralities_Consistent>
1

> <s_lp_Variant>
CHEMBL267_lig1551-1

> <s_i_glide_gridfile>
glide-grid_3el8

> <i_i_glide_lignum>
1737

> <i_i_glide_rotatable_bonds>
6

> <r_i_docking_score>
-6.89094461786653

> <r_i_glide_ligand_efficiency>
-0.328140219898406

> <r_i_glide_ligand_efficiency_sa>
-0.90531398500198

> <r_i_glide_ligand_efficiency_ln>
-1.70377213230279

> <r_i_glide_gscore>
-6.89094461786653

> <r_i_glide_lipo>
-2.90766075144705

> <r_i_glide_hbond>
0

> <r_i_glide_metal>
0

> <r_i_glide_rewards>
-1.57931735332717

> <r_i_glide_evdw>
-28.7103519439697

> <r_i_glide_ecoul>
-9.41034507751465

> <r_i_glide_erotb>
0.443102845733379

> <r_i_glide_esite>
0

> <r_i_glide_emodel>
-53.2871173951698

> <r_i_glide_energy>
-38.1206970214844

> <r_i_glide_einternal>
4.78644800186157

> <i_i_glide_confnum>
2

> <i_i_glide_posenum>
104

> <r_i_glide_eff_state_penalty>
0

> <s_user_duplicate_titles>
CHEMBL267_lig1551

> <i_f3d_flags>
0

> <s_m_subgroup_title>
dock_pv

> <s_m_subgroupid>
dock_pv

> <b_m_subgroup_collapsed>
1

$$$$
CHEMBL267_lig1780
                    3D
 Schrodinger Suite 2021-1.
 48 51  0  0  1  0            999 V2000
    3.7319    8.4859    6.6322 N   0  0  0  0  0  0
    3.9863    7.8363    7.7976 C   0  0  0  0  0  0
    5.2140    7.4165    8.2135 N   0  0  0  0  0  0
    4.7532    8.7744    5.7962 C   0  0  0  0  0  0
    6.0433    8.3492    6.1526 C   0  0  0  0  0  0
    6.2265    7.6724    7.3853 C   0  0  0  0  0  0
    7.5413    7.3512    7.5900 N   0  0  0  0  0  0
    8.1560    7.8366    6.5469 C   0  0  0  0  0  0
    7.3145    8.3932    5.6165 N   0  0  0  0  0  0
    4.3497    9.4512    4.6448 N   0  0  0  0  0  0
    5.0010   10.3268    3.7683 C   0  0  0  0  0  0
    4.3306   10.6930    2.6020 C   0  0  0  0  0  0
    4.9305   11.5537    1.6862 C   0  0  0  0  0  0
    6.2185   12.0336    1.9201 C   0  0  0  0  0  0
    6.9132   11.6713    3.0808 C   0  0  0  0  0  0
    6.2671   10.8595    4.0216 C   0  0  0  0  0  0
    2.9042    7.6373    8.6546 N   0  0  0  0  0  0
    1.4846    7.7716    8.2656 C   0  0  0  0  0  0
    0.6723    6.4750    8.4869 C   0  0  0  0  0  0
    0.7798    5.9964    9.8679 N   0  0  0  0  0  0
    2.1958    5.7665   10.1675 C   0  0  0  0  0  0
    2.9933    7.0757   10.0156 C   0  0  0  0  0  0
    8.3090   12.1065    3.3006 N   0  3  0  0  0  0
    8.7258   13.0841    2.6851 O   0  0  0  0  0  0
    9.0000   11.4406    4.0695 O   0  5  0  0  0  0
   -0.0525    4.8104   10.1492 C   0  0  0  0  0  0
    0.0690    3.5906    9.2041 C   0  0  0  0  0  0
   -0.6015    3.8238    7.9883 O   0  0  0  0  0  0
    7.6321    8.8040    4.7499 H   0  0  0  0  0  0
    9.2235    7.8371    6.3886 H   0  0  0  0  0  0
    3.3506    9.4015    4.5178 H   0  0  0  0  0  0
    3.3393   10.3137    2.3964 H   0  0  0  0  0  0
    4.3997   11.8397    0.7888 H   0  0  0  0  0  0
    6.6795   12.6795    1.1868 H   0  0  0  0  0  0
    6.7618   10.6681    4.9579 H   0  0  0  0  0  0
    1.0437    8.6188    8.7877 H   0  0  0  0  0  0
    1.3963    8.0241    7.2095 H   0  0  0  0  0  0
    1.0334    5.7196    7.7868 H   0  0  0  0  0  0
   -0.3757    6.6502    8.2513 H   0  0  0  0  0  0
    2.2983    5.4371   11.1981 H   0  0  0  0  0  0
    2.6227    4.9858    9.5346 H   0  0  0  0  0  0
    2.6493    7.8270   10.7268 H   0  0  0  0  0  0
    4.0253    6.8733   10.3035 H   0  0  0  0  0  0
   -1.1013    5.0451   10.3198 H   0  0  0  0  0  0
    0.2510    4.4669   11.1388 H   0  0  0  0  0  0
   -0.4050    2.7177    9.6442 H   0  0  0  0  0  0
    1.1068    3.3099    9.0208 H   0  0  0  0  0  0
   -1.3171    4.4573    8.1396 H   0  0  0  0  0  0
  1  2  2  0  0  0
  1  4  1  0  0  0
  2 17  1  0  0  0
  2  3  1  0  0  0
  3  6  2  0  0  0
  4 10  1  0  0  0
  4  5  2  0  0  0
  5  9  1  0  0  0
  5  6  1  0  0  0
  6  7  1  0  0  0
  7  8  2  0  0  0
  8  9  1  0  0  0
  8 30  1  0  0  0
  9 29  1  0  0  0
 10 11  1  0  0  0
 10 31  1  0  0  0
 11 16  1  0  0  0
 11 12  2  0  0  0
 12 13  1  0  0  0
 12 32  1  0  0  0
 13 14  2  0  0  0
 13 33  1  0  0  0
 14 15  1  0  0  0
 14 34  1  0  0  0
 15 16  2  0  0  0
 15 23  1  0  0  0
 16 35  1  0  0  0
 17 18  1  0  0  0
 17 22  1  0  0  0
 18 19  1  0  0  0
 18 36  1  0  0  0
 18 37  1  0  0  0
 19 20  1  0  0  0
 19 38  1  0  0  0
 19 39  1  0  0  0
 20 21  1  0  0  0
 20 26  1  0  0  0
 21 22  1  0  0  0
 21 40  1  0  0  0
 21 41  1  0  0  0
 22 42  1  0  0  0
 22 43  1  0  0  0
 23 24  2  0  0  0
 23 25  1  0  0  0
 26 27  1  0  0  0
 26 44  1  0  0  0
 26 45  1  0  0  0
 27 28  1  0  0  0
 27 46  1  0  0  0
 27 47  1  0  0  0
 28 48  1  0  0  0
M  CHG  2  23   1  25  -1
M  END
> <s_m_entry_id>
32301

> <s_m_entry_name>
dock_pv.564

> <s_m_Source_Path>
/home/csk/Desktop/cluster/DUD-E-result/src

> <s_m_Source_File>
dock_pv.maegz

> <i_m_Source_File_Index>
564

> <chembl_id>
CHEMBL1173225

> <chembl_pref_name>
None

> <i_lp_mmshare_version>
53161

> <r_lp_tautomer_probability>
0.0419191988452545

> <s_lp_Force_Field>
OPLS_2005

> <r_lp_Energy>
51.957157

> <b_lp_Chiralities_Consistent>
1

> <s_lp_Variant>
CHEMBL267_lig1780-2

> <s_i_glide_gridfile>
glide-grid_3el8

> <i_i_glide_lignum>
2039

> <i_i_glide_rotatable_bonds>
7

> <r_i_docking_score>
-6.88899403498294

> <r_i_glide_ligand_efficiency>
-0.246035501249391

> <r_i_glide_ligand_efficiency_sa>
-0.747108688953961

> <r_i_glide_ligand_efficiency_ln>
-1.5901820929281

> <r_i_glide_gscore>
-6.88899403498294

> <r_i_glide_lipo>
-1.7246526954143

> <r_i_glide_hbond>
-0.54015746896857

> <r_i_glide_metal>
0

> <r_i_glide_rewards>
-2.11555194905828

> <r_i_glide_evdw>
-37.6023979187012

> <r_i_glide_ecoul>
-8.5761194229126

> <r_i_glide_erotb>
0.657905887830154

> <r_i_glide_esite>
0

> <r_i_glide_emodel>
-61.76222237195

> <r_i_glide_energy>
-46.1785173416138

> <r_i_glide_einternal>
8.32349491119385

> <i_i_glide_confnum>
9

> <i_i_glide_posenum>
342

> <r_i_glide_eff_state_penalty>
0

> <s_user_duplicate_titles>
CHEMBL267_lig1780,650099

> <i_f3d_flags>
0

> <s_m_subgroup_title>
dock_pv

> <s_m_subgroupid>
dock_pv

> <b_m_subgroup_collapsed>
1

$$$$
CHEMBL267_lig3859
                    3D
 Schrodinger Suite 2021-1.
 52 56  0  0  1  0            999 V2000
    0.8108    7.6761    7.6536 C   0  0  0  0  0  0
    0.5675    6.6387    8.5563 C   0  0  0  0  0  0
    1.5294    5.8784    9.1366 N   0  0  0  0  0  0
    2.1216    7.9672    7.2790 C   0  0  0  0  0  0
    3.1585    7.1952    7.8358 C   0  0  0  0  0  0
    2.7727    6.1807    8.7584 C   0  0  0  0  0  0
    3.9169    5.5665    9.1879 N   0  0  0  0  0  0
    5.0024    6.1333    8.5763 C   0  0  0  0  0  0
    4.5986    7.1347    7.7104 C   0  0  0  0  0  0
    5.4768    7.9260    6.8060 C   0  0  0  0  0  0
    4.8517    8.5824    5.7997 N   0  0  0  0  0  0
    5.6291    9.2984    4.9466 C   0  0  0  0  0  0
    7.0134    9.4027    5.1404 C   0  0  0  0  0  0
    7.5739    8.6370    6.1694 C   0  0  0  0  0  0
    6.8199    7.8915    7.0193 N   0  0  0  0  0  0
    7.7783   10.2346    4.3883 F   0  0  0  0  0  0
    5.0128    9.9759    3.8807 N   0  0  0  0  0  0
    3.6594   10.5262    4.0600 C   0  0  1  0  0  0
    3.6900   11.5826    5.2138 C   0  0  2  0  0  0
    4.6703   12.7081    4.7886 C   0  0  0  0  0  0
    4.2258   13.3485    3.4437 C   0  0  0  0  0  0
    2.9087   12.7063    2.9144 C   0  0  2  0  0  0
    3.1618   11.1685    2.7069 C   0  0  2  0  0  0
   -0.2113    8.4011    7.1518 F   0  0  0  0  0  0
    1.9283   10.4199    2.1063 C   0  0  1  0  0  0
    1.5188   10.9082    0.7058 C   0  0  0  0  0  0
    2.1980    9.0369    1.9930 O   0  0  0  0  0  0
    3.9499   11.0881    1.9542 H   0  0  0  0  0  0
    2.2690   12.1963    5.3414 C   0  0  0  0  0  0
    1.8330   12.8903    4.0222 C   0  0  0  0  0  0
   -0.4442    6.3887    8.8406 H   0  0  0  0  0  0
    2.3240    8.7600    6.5758 H   0  0  0  0  0  0
    4.0027    4.8356    9.8871 H   0  0  0  0  0  0
    5.9913    5.7522    8.7885 H   0  0  0  0  0  0
    8.6403    8.6369    6.3426 H   0  0  0  0  0  0
    5.6398   10.5452    3.3312 H   0  0  0  0  0  0
    2.9975    9.7006    4.3283 H   0  0  0  0  0  0
    3.9910   11.1467    6.1673 H   0  0  0  0  0  0
    4.7224   13.4370    5.5879 H   0  0  0  0  0  0
    5.6938   12.3401    4.7078 H   0  0  0  0  0  0
    5.0169   13.2357    2.7004 H   0  0  0  0  0  0
    4.0955   14.4244    3.5698 H   0  0  0  0  0  0
    2.6058   13.1951    1.9880 H   0  0  0  0  0  0
    1.0731   10.5030    2.7766 H   0  0  0  0  0  0
    1.1667   11.9385    0.7280 H   0  0  0  0  0  0
    0.7080   10.3063    0.2947 H   0  0  0  0  0  0
    2.3534   10.8581    0.0049 H   0  0  0  0  0  0
    1.4821    8.6126    1.4950 H   0  0  0  0  0  0
    1.5547   11.4131    5.6006 H   0  0  0  0  0  0
    2.2402   12.9065    6.1692 H   0  0  0  0  0  0
    1.6845   13.9556    4.2054 H   0  0  0  0  0  0
    0.8597   12.5252    3.6953 H   0  0  0  0  0  0
  1  2  2  0  0  0
  1  4  1  0  0  0
  1 24  1  0  0  0
  2  3  1  0  0  0
  2 31  1  0  0  0
  3  6  2  0  0  0
  4  5  2  0  0  0
  4 32  1  0  0  0
  5  6  1  0  0  0
  5  9  1  0  0  0
  6  7  1  0  0  0
  7  8  1  0  0  0
  7 33  1  0  0  0
  8  9  2  0  0  0
  8 34  1  0  0  0
  9 10  1  0  0  0
 10 11  2  0  0  0
 10 15  1  0  0  0
 11 12  1  0  0  0
 12 13  2  0  0  0
 12 17  1  0  0  0
 13 14  1  0  0  0
 13 16  1  0  0  0
 14 15  2  0  0  0
 14 35  1  0  0  0
 17 18  1  0  0  0
 17 36  1  0  0  0
 18 19  1  0  0  0
 18 23  1  0  0  0
 18 37  1  0  0  0
 19 20  1  0  0  0
 19 29  1  0  0  0
 19 38  1  0  0  0
 20 21  1  0  0  0
 20 39  1  0  0  0
 20 40  1  0  0  0
 21 22  1  0  0  0
 21 41  1  0  0  0
 21 42  1  0  0  0
 22 23  1  0  0  0
 22 30  1  0  0  0
 22 43  1  0  0  0
 23 25  1  0  0  0
 23 28  1  0  0  0
 25 26  1  0  0  0
 25 27  1  0  0  0
 25 44  1  0  0  0
 26 45  1  0  0  0
 26 46  1  0  0  0
 26 47  1  0  0  0
 27 48  1  0  0  0
 29 30  1  0  0  0
 29 49  1  0  0  0
 29 50  1  0  0  0
 30 51  1  0  0  0
 30 52  1  0  0  0
M  END
> <s_m_entry_id>
32302

> <s_m_entry_name>
dock_pv.565

> <s_m_Source_Path>
/home/csk/Desktop/cluster/DUD-E-result/src

> <s_m_Source_File>
dock_pv.maegz

> <i_m_Source_File_Index>
565

> <chembl_id>
CHEMBL3401987

> <chembl_pref_name>
None

> <i_lp_mmshare_version>
53161

> <r_lp_tautomer_probability>
0.999998015729938

> <s_lp_Force_Field>
OPLS_2005

> <r_lp_Energy>
41.866822

> <b_lp_Chiralities_Consistent>
1

> <s_lp_Variant>
CHEMBL267_lig3859-2

> <s_i_glide_gridfile>
glide-grid_3el8

> <i_i_glide_lignum>
4749

> <i_i_glide_rotatable_bonds>
5

> <r_i_docking_score>
-6.88009193362498

> <r_i_glide_ligand_efficiency>
-0.237244549435344

> <r_i_glide_ligand_efficiency_sa>
-0.728890420214335

> <r_i_glide_ligand_efficiency_ln>
-1.57536658872186

> <r_i_glide_gscore>
-6.88009193362498

> <r_i_glide_lipo>
-1.96012510421422

> <r_i_glide_hbond>
-0.580636338907244

> <r_i_glide_metal>
0

> <r_i_glide_rewards>
-1.48740077962614

> <r_i_glide_evdw>
-33.1979598999023

> <r_i_glide_ecoul>
-10.3215179443359

> <r_i_glide_erotb>
0.49124373004128

> <r_i_glide_esite>
-0.135047754273149

> <r_i_glide_emodel>
-55.7280192952581

> <r_i_glide_energy>
-43.5194778442383

> <r_i_glide_einternal>
4.62007761001587

> <i_i_glide_confnum>
4

> <i_i_glide_posenum>
275

> <r_i_glide_eff_state_penalty>
0

> <s_user_duplicate_titles>
CHEMBL267_lig3859

> <i_f3d_flags>
0

> <s_m_subgroup_title>
dock_pv

> <s_m_subgroupid>
dock_pv

> <b_m_subgroup_collapsed>
1

$$$$
CHEMBL267_lig3761
                    3D
 Schrodinger Suite 2021-1.
 36 40  0  0  1  0            999 V2000
    1.9841   10.2828    2.1199 S   0  0  0  0  0  0
   -0.3503    6.2260    4.0347 O   0  0  0  0  0  0
    1.0192    7.4975    5.4125 N   0  0  0  0  0  0
    2.2550    8.4918    6.9450 N   0  0  0  0  0  0
    0.7260    8.0880    3.1880 N   0  0  0  0  0  0
    0.8241    6.8035    6.5342 N   0  0  0  0  0  0
    1.6902    6.2370   11.5458 N   0  0  0  0  0  0
    2.2271    9.4391    4.5811 C   0  0  0  0  0  0
    1.8939    8.5261    5.6872 C   0  0  0  0  0  0
    1.5887    9.1639    3.3704 C   0  0  0  0  0  0
    3.0732   10.5616    4.4887 C   0  0  0  0  0  0
    3.0587   11.1224    3.1984 C   0  0  0  0  0  0
    0.3927    7.1970    4.1560 C   0  0  0  0  0  0
    1.5729    7.4473    7.4109 C   0  0  0  0  0  0
    3.9618   11.1019    5.6024 C   0  0  0  0  0  0
    1.6262    7.0228    8.8446 C   0  0  0  0  0  0
    3.9251   12.2890    2.7470 C   0  0  0  0  0  0
    5.0346   12.0621    5.0391 C   0  0  0  0  0  0
    4.4689   13.0320    3.9867 C   0  0  0  0  0  0
    0.5977    6.2360    9.3949 C   0  0  0  0  0  0
    2.6976    7.3860    9.6725 C   0  0  0  0  0  0
    0.6652    5.8690   10.7380 C   0  0  0  0  0  0
    2.6966    6.9672   11.0029 C   0  0  0  0  0  0
    0.3367    7.8926    2.2700 H   0  0  0  0  0  0
    4.4427   10.2846    6.1436 H   0  0  0  0  0  0
    3.3499   11.6316    6.3338 H   0  0  0  0  0  0
    3.3714   12.9771    2.1059 H   0  0  0  0  0  0
    4.7615   11.9194    2.1511 H   0  0  0  0  0  0
    5.4816   12.6275    5.8582 H   0  0  0  0  0  0
    5.8476   11.4849    4.5969 H   0  0  0  0  0  0
    3.6731   13.6297    4.4339 H   0  0  0  0  0  0
    5.2398   13.7425    3.6815 H   0  0  0  0  0  0
   -0.2495    5.9231    8.8000 H   0  0  0  0  0  0
    3.5182    7.9741    9.2911 H   0  0  0  0  0  0
   -0.1194    5.2793   11.1900 H   0  0  0  0  0  0
    3.5158    7.2155   11.6635 H   0  0  0  0  0  0
  1 10  1  0  0  0
  1 12  1  0  0  0
  2 13  2  0  0  0
  3  6  1  0  0  0
  3  9  1  0  0  0
  3 13  1  0  0  0
  4  9  2  0  0  0
  4 14  1  0  0  0
  5 10  1  0  0  0
  5 13  1  0  0  0
  5 24  1  0  0  0
  6 14  2  0  0  0
  7 22  2  0  0  0
  7 23  1  0  0  0
  8  9  1  0  0  0
  8 10  2  0  0  0
  8 11  1  0  0  0
 11 12  2  0  0  0
 11 15  1  0  0  0
 12 17  1  0  0  0
 14 16  1  0  0  0
 15 18  1  0  0  0
 15 25  1  0  0  0
 15 26  1  0  0  0
 16 20  2  0  0  0
 16 21  1  0  0  0
 17 19  1  0  0  0
 17 27  1  0  0  0
 17 28  1  0  0  0
 18 19  1  0  0  0
 18 29  1  0  0  0
 18 30  1  0  0  0
 19 31  1  0  0  0
 19 32  1  0  0  0
 20 22  1  0  0  0
 20 33  1  0  0  0
 21 23  2  0  0  0
 21 34  1  0  0  0
 22 35  1  0  0  0
 23 36  1  0  0  0
M  END
> <s_m_entry_id>
32303

> <s_m_entry_name>
dock_pv.566

> <s_m_Source_Path>
/home/csk/Desktop/cluster/DUD-E-result/src

> <s_m_Source_File>
dock_pv.maegz

> <i_m_Source_File_Index>
566

> <chembl_id>
CHEMBL1966808

> <chembl_pref_name>
None

> <i_lp_mmshare_version>
53161

> <r_lp_tautomer_probability>
1

> <s_lp_Force_Field>
OPLS_2005

> <r_lp_Energy>
26.549533

> <b_lp_Chiralities_Consistent>
1

> <s_lp_Variant>
CHEMBL267_lig3761-1

> <s_i_glide_gridfile>
glide-grid_3el8

> <i_i_glide_lignum>
4595

> <i_i_glide_rotatable_bonds>
1

> <r_i_docking_score>
-6.87878456030045

> <r_i_glide_ligand_efficiency>
-0.29907758957828

> <r_i_glide_ligand_efficiency_sa>
-0.850536880526319

> <r_i_glide_ligand_efficiency_ln>
-1.66335248005055

> <r_i_glide_gscore>
-6.87878456030045

> <r_i_glide_lipo>
-1.21981385108617

> <r_i_glide_hbond>
-0.32

> <r_i_glide_metal>
0

> <r_i_glide_rewards>
-2.99300818348808

> <r_i_glide_evdw>
-37.5542793273926

> <r_i_glide_ecoul>
-3.92743015289307

> <r_i_glide_erotb>
0.178952764798918

> <r_i_glide_esite>
-0.0580868012215276

> <r_i_glide_emodel>
-58.2857082282336

> <r_i_glide_energy>
-41.4817094802856

> <r_i_glide_einternal>
0.516793489456177

> <i_i_glide_confnum>
3

> <i_i_glide_posenum>
76

> <r_i_glide_eff_state_penalty>
0

> <s_user_duplicate_titles>
CHEMBL267_lig3761

> <i_f3d_flags>
0

> <s_m_subgroup_title>
dock_pv

> <s_m_subgroupid>
dock_pv

> <b_m_subgroup_collapsed>
1

$$$$
CHEMBL267_lig1958
                    3D
 Schrodinger Suite 2021-1.
 37 39  0  0  1  0            999 V2000
   -0.7126    3.6879    9.1973 C   0  0  0  0  0  0
   -2.0591    3.3256    9.1880 C   0  0  0  0  0  0
   -2.4326    2.0455    8.7880 C   0  0  0  0  0  0
   -1.4624    1.1252    8.3880 C   0  0  0  0  0  0
   -0.1240    1.4941    8.3880 C   0  0  0  0  0  0
    0.2590    2.7747    8.7779 C   0  0  0  0  0  0
   -0.3605    4.9444    9.7026 N   0  0  0  0  0  0
    0.6294    5.7256    9.1760 C   0  0  0  0  0  0
    0.5980    5.9116    7.8350 O   0  0  0  0  0  0
    1.4833    6.9095    7.6131 C   0  0  0  0  0  0
    2.0374    7.2129    8.8494 C   0  0  0  0  0  0
    1.4652    6.5102    9.8119 N   0  0  0  0  0  0
   -1.9009   -0.5675    7.9880 S   0  0  0  0  0  0
   -2.2020   -0.5630    6.2766 N   0  0  0  0  0  0
   -0.7109   -1.3932    8.2090 O   0  0  0  0  0  0
   -3.1665   -0.8721    8.6641 O   0  0  0  0  0  0
    1.5980    7.4418    6.2301 C   0  0  0  0  0  0
    0.7916    6.9355    5.2027 C   0  0  0  0  0  0
    0.8617    7.4749    3.9197 C   0  0  0  0  0  0
    1.7378    8.5266    3.6530 C   0  0  0  0  0  0
    2.5489    9.0370    4.6738 C   0  0  0  0  0  0
    2.4791    8.4923    5.9557 C   0  0  0  0  0  0
    3.4148   10.0704    4.4262 O   0  0  0  0  0  0
    1.7980    9.0486    2.3880 O   0  0  0  0  0  0
   -2.8172    4.0266    9.5071 H   0  0  0  0  0  0
   -3.4773    1.7662    8.7943 H   0  0  0  0  0  0
    0.5980    0.7542    8.1012 H   0  0  0  0  0  0
    1.3068    3.0365    8.7986 H   0  0  0  0  0  0
   -1.1478    5.4124   10.1376 H   0  0  0  0  0  0
    2.7862    7.9634    9.0559 H   0  0  0  0  0  0
   -2.9555    0.1099    6.0606 H   0  0  0  0  0  0
   -1.3603   -0.3777    5.7279 H   0  0  0  0  0  0
    0.0932    6.1335    5.3973 H   0  0  0  0  0  0
    0.2261    7.0810    3.1397 H   0  0  0  0  0  0
    3.1052    8.8999    6.7356 H   0  0  0  0  0  0
    3.3453   10.3520    3.5092 H   0  0  0  0  0  0
    1.2296    8.5880    1.7528 H   0  0  0  0  0  0
  1  6  1  0  0  0
  1  2  2  0  0  0
  1  7  1  0  0  0
  2  3  1  0  0  0
  2 25  1  0  0  0
  3  4  2  0  0  0
  3 26  1  0  0  0
  4 13  1  0  0  0
  4  5  1  0  0  0
  5  6  2  0  0  0
  5 27  1  0  0  0
  6 28  1  0  0  0
  7  8  1  0  0  0
  7 29  1  0  0  0
  8 12  2  0  0  0
  8  9  1  0  0  0
  9 10  1  0  0  0
 10 17  1  0  0  0
 10 11  2  0  0  0
 11 12  1  0  0  0
 11 30  1  0  0  0
 13 14  1  0  0  0
 13 15  2  0  0  0
 13 16  2  0  0  0
 14 31  1  0  0  0
 14 32  1  0  0  0
 17 18  2  0  0  0
 17 22  1  0  0  0
 18 19  1  0  0  0
 18 33  1  0  0  0
 19 20  2  0  0  0
 19 34  1  0  0  0
 20 21  1  0  0  0
 20 24  1  0  0  0
 21 22  2  0  0  0
 21 23  1  0  0  0
 22 35  1  0  0  0
 23 36  1  0  0  0
 24 37  1  0  0  0
M  END
> <s_m_entry_id>
32304

> <s_m_entry_name>
dock_pv.567

> <s_m_Source_Path>
/home/csk/Desktop/cluster/DUD-E-result/src

> <s_m_Source_File>
dock_pv.maegz

> <i_m_Source_File_Index>
567

> <chembl_id>
CHEMBL1271642

> <chembl_pref_name>
None

> <i_lp_mmshare_version>
53161

> <r_lp_tautomer_probability>
0.999999999999776

> <s_lp_Force_Field>
OPLS_2005

> <r_lp_Energy>
17.870325

> <b_lp_Chiralities_Consistent>
1

> <s_lp_Variant>
CHEMBL267_lig1958-1

> <s_i_glide_gridfile>
glide-grid_3el8

> <i_i_glide_lignum>
2239

> <i_i_glide_rotatable_bonds>
6

> <r_i_docking_score>
-6.87757030695848

> <r_i_glide_ligand_efficiency>
-0.286565429456603

> <r_i_glide_ligand_efficiency_sa>
-0.826597734121831

> <r_i_glide_ligand_efficiency_ln>
-1.64611816559236

> <r_i_glide_gscore>
-6.87757030695848

> <r_i_glide_lipo>
-2.35095789352166

> <r_i_glide_hbond>
-0.251682184458457

> <r_i_glide_metal>
0

> <r_i_glide_rewards>
-1.15357474924341

> <r_i_glide_evdw>
-39.2731704711914

> <r_i_glide_ecoul>
-10.1086797714233

> <r_i_glide_erotb>
0.473020167345316

> <r_i_glide_esite>
-0.114415157807197

> <r_i_glide_emodel>
-65.799420773567

> <r_i_glide_energy>
-49.3818502426147

> <r_i_glide_einternal>
9.30336666107178

> <i_i_glide_confnum>
9

> <i_i_glide_posenum>
76

> <r_i_glide_eff_state_penalty>
0

> <s_user_duplicate_titles>
CHEMBL267_lig1958

> <i_f3d_flags>
0

> <s_m_subgroup_title>
dock_pv

> <s_m_subgroupid>
dock_pv

> <b_m_subgroup_collapsed>
1

$$$$
CHEMBL267_lig1410
                    3D
 Schrodinger Suite 2021-1.
 46 50  0  0  1  0            999 V2000
    4.9242    5.9425    8.6454 C   0  0  0  0  0  0
    3.5330    6.0318    8.5439 C   0  0  0  0  0  0
    2.9268    7.0091    7.8079 N   0  0  0  0  0  0
    3.7417    7.9029    7.1861 C   0  0  0  0  0  0
    5.0985    7.8985    7.2737 N   0  0  0  0  0  0
    5.6768    6.9097    7.9881 C   0  0  0  0  0  0
    2.7881    5.0369    9.1879 N   0  0  0  0  0  0
    1.4317    4.8583    9.2465 C   0  0  0  0  0  0
    0.7456    3.6549    9.0341 C   0  0  0  0  0  0
   -0.5939    3.9140    9.2447 C   0  0  0  0  0  0
   -0.6020    5.2374    9.5880 N   0  0  0  0  0  0
    0.5993    5.8245    9.5674 N   0  0  0  0  0  0
   -1.8498    3.0766    9.1721 C   0  0  0  0  0  0
    3.1030    8.8890    6.4149 N   0  0  0  0  0  0
    3.6017    9.9666    5.6545 C   0  0  0  0  0  0
    4.9319   10.0463    5.2228 C   0  0  0  0  0  0
    5.4347   11.1723    4.5615 C   0  0  0  0  0  0
    4.5483   12.2160    4.2661 C   0  0  0  0  0  0
    3.2063   12.1330    4.6403 C   0  0  0  0  0  0
    2.7379   11.0157    5.3336 C   0  0  0  0  0  0
    6.9009   11.2132    4.2243 C   0  0  0  0  0  0
    7.7803   10.4223    4.7874 N   0  0  0  0  0  0
    7.5544   12.3542    3.0575 S   0  0  0  0  0  0
    9.1474   11.6643    3.3466 C   0  0  0  0  0  0
    9.0366   10.6375    4.3210 C   0  0  0  0  0  0
   10.1722    9.9129    4.7163 C   0  0  0  0  0  0
   11.3969   10.2368    4.1325 C   0  0  0  0  0  0
   11.4994   11.2506    3.1805 C   0  0  0  0  0  0
   10.3842   11.9824    2.7687 C   0  0  0  0  0  0
    5.4107    5.1478    9.1890 H   0  0  0  0  0  0
    6.7561    6.8993    8.0193 H   0  0  0  0  0  0
    3.3744    4.4207    9.7321 H   0  0  0  0  0  0
    1.1807    2.7043    8.7655 H   0  0  0  0  0  0
   -1.4536    5.7479    9.8180 H   0  0  0  0  0  0
   -2.5385    3.4369    8.4084 H   0  0  0  0  0  0
   -2.3928    3.0816   10.1166 H   0  0  0  0  0  0
   -1.6295    2.0359    8.9348 H   0  0  0  0  0  0
    2.0984    8.8080    6.4339 H   0  0  0  0  0  0
    5.6114    9.2321    5.3976 H   0  0  0  0  0  0
    4.8916   13.1036    3.7541 H   0  0  0  0  0  0
    2.5322   12.9430    4.4035 H   0  0  0  0  0  0
    1.7008   10.9795    5.6366 H   0  0  0  0  0  0
   10.1024    9.1195    5.4452 H   0  0  0  0  0  0
   12.2840    9.6878    4.4178 H   0  0  0  0  0  0
   12.4664   11.4656    2.7479 H   0  0  0  0  0  0
   10.4704   12.7629    2.0243 H   0  0  0  0  0  0
  1  6  1  0  0  0
  1  2  2  0  0  0
  1 30  1  0  0  0
  2  7  1  0  0  0
  2  3  1  0  0  0
  3  4  2  0  0  0
  4 14  1  0  0  0
  4  5  1  0  0  0
  5  6  2  0  0  0
  6 31  1  0  0  0
  7  8  1  0  0  0
  7 32  1  0  0  0
  8  9  1  0  0  0
  8 12  2  0  0  0
  9 10  2  0  0  0
  9 33  1  0  0  0
 10 11  1  0  0  0
 10 13  1  0  0  0
 11 12  1  0  0  0
 11 34  1  0  0  0
 13 35  1  0  0  0
 13 36  1  0  0  0
 13 37  1  0  0  0
 14 15  1  0  0  0
 14 38  1  0  0  0
 15 16  2  0  0  0
 15 20  1  0  0  0
 16 17  1  0  0  0
 16 39  1  0  0  0
 17 18  2  0  0  0
 17 21  1  0  0  0
 18 19  1  0  0  0
 18 40  1  0  0  0
 19 20  2  0  0  0
 19 41  1  0  0  0
 20 42  1  0  0  0
 21 22  2  0  0  0
 21 23  1  0  0  0
 22 25  1  0  0  0
 23 24  1  0  0  0
 24 25  2  0  0  0
 24 29  1  0  0  0
 25 26  1  0  0  0
 26 27  2  0  0  0
 26 43  1  0  0  0
 27 28  1  0  0  0
 27 44  1  0  0  0
 28 29  2  0  0  0
 28 45  1  0  0  0
 29 46  1  0  0  0
M  END
> <s_m_entry_id>
32305

> <s_m_entry_name>
dock_pv.568

> <s_m_Source_Path>
/home/csk/Desktop/cluster/DUD-E-result/src

> <s_m_Source_File>
dock_pv.maegz

> <i_m_Source_File_Index>
568

> <chembl_id>
CHEMBL491686

> <chembl_pref_name>
None

> <i_lp_mmshare_version>
53161

> <r_lp_tautomer_probability>
0.842599732729633

> <s_lp_Force_Field>
OPLS_2005

> <r_lp_Energy>
14.144183

> <b_lp_Chiralities_Consistent>
1

> <s_lp_Variant>
CHEMBL267_lig1410-1

> <s_i_glide_gridfile>
glide-grid_3el8

> <i_i_glide_lignum>
1577

> <i_i_glide_rotatable_bonds>
5

> <r_i_docking_score>
-6.87668469051372

> <r_i_glide_ligand_efficiency>
-0.237127058293577

> <r_i_glide_ligand_efficiency_sa>
-0.728529450203019

> <r_i_glide_ligand_efficiency_ln>
-1.57458641644961

> <r_i_glide_gscore>
-6.87668469051372

> <r_i_glide_lipo>
-3.19971314872916

> <r_i_glide_hbond>
-0.31346283214787

> <r_i_glide_metal>
0

> <r_i_glide_rewards>
-0.930169158426768

> <r_i_glide_evdw>
-44.429012298584

> <r_i_glide_ecoul>
-5.37598419189453

> <r_i_glide_erotb>
0.613956303825111

> <r_i_glide_esite>
-0.019447611321654

> <r_i_glide_emodel>
-68.3701767686421

> <r_i_glide_energy>
-49.8049964904785

> <r_i_glide_einternal>
5.25045537948608

> <i_i_glide_confnum>
6

> <i_i_glide_posenum>
33

> <r_i_glide_eff_state_penalty>
0

> <s_user_duplicate_titles>
CHEMBL267_lig1410,457830

> <i_f3d_flags>
0

> <s_m_subgroup_title>
dock_pv

> <s_m_subgroupid>
dock_pv

> <b_m_subgroup_collapsed>
1

$$$$
CHEMBL267_lig3415
                    3D
 Schrodinger Suite 2021-1.
 43 46  0  0  1  0            999 V2000
    4.5980    7.5278    9.1880 O   0  0  0  0  0  0
   -0.4902   -0.1979    8.0387 O   0  0  0  0  0  0
   -3.2079    0.3654    8.7880 O   0  0  0  0  0  0
    3.0449   10.9892    1.9760 O   0  5  0  0  0  0
    4.9476   10.3643    2.7870 O   0  0  0  0  0  0
    1.0028    7.7645    7.0937 N   0  0  0  0  0  0
    3.9170    8.2443    7.2005 N   0  0  0  0  0  0
    3.7206   10.4170    2.8256 N   0  3  0  0  0  0
    1.3655    6.6852    7.9028 C   0  0  0  0  0  0
    2.6708    6.4530    8.3516 C   0  0  0  0  0  0
    1.7031    8.4467    6.0942 C   0  0  0  0  0  0
    3.1015    8.6489    6.1393 C   0  0  0  0  0  0
    3.7916    7.4530    8.2735 C   0  0  0  0  0  0
    0.6894    4.4909    8.7703 C   0  0  0  0  0  0
    0.4012    5.7440    8.2380 C   0  0  0  0  0  0
   -0.3323    3.4035    8.7972 C   0  0  0  0  0  0
    2.9646    5.2619    9.0367 C   0  0  0  0  0  0
    3.7319    9.2809    5.0607 C   0  0  0  0  0  0
    1.9927    4.2765    9.1946 C   0  0  0  0  0  0
    3.0215    9.7531    3.9517 C   0  0  0  0  0  0
    0.9982    8.9378    4.9920 C   0  0  0  0  0  0
    1.6360    9.5790    3.9352 C   0  0  0  0  0  0
   -0.0000    2.1029    8.3916 C   0  0  0  0  0  0
   -0.9294    1.0626    8.3878 C   0  0  0  0  0  0
   -1.6520    3.6469    9.1882 C   0  0  0  0  0  0
   -2.2429    1.3369    8.7879 C   0  0  0  0  0  0
   -2.6018    2.6267    9.1870 C   0  0  0  0  0  0
   -1.1588   -0.8446    6.9590 C   0  0  0  0  0  0
   -3.8579    0.6119    8.1154 H   0  0  0  0  0  0
    0.0180    7.7328    6.8757 H   0  0  0  0  0  0
    4.7876    8.7490    7.2537 H   0  0  0  0  0  0
   -0.6019    5.9845    7.9880 H   0  0  0  0  0  0
    3.9567    5.0644    9.4181 H   0  0  0  0  0  0
    4.8049    9.4146    5.0897 H   0  0  0  0  0  0
    2.2434    3.3400    9.6641 H   0  0  0  0  0  0
   -0.0703    8.7890    4.9347 H   0  0  0  0  0  0
    1.0466    9.9197    3.0948 H   0  0  0  0  0  0
    0.9980    1.8748    8.0779 H   0  0  0  0  0  0
   -1.9497    4.6370    9.4997 H   0  0  0  0  0  0
   -3.6168    2.8393    9.4893 H   0  0  0  0  0  0
   -0.4925   -1.5823    6.5147 H   0  0  0  0  0  0
   -2.0365   -1.3857    7.3122 H   0  0  0  0  0  0
   -1.4704   -0.1630    6.1675 H   0  0  0  0  0  0
  1 13  2  0  0  0
  2 24  1  0  0  0
  2 28  1  0  0  0
  3 26  1  0  0  0
  3 29  1  0  0  0
  4  8  1  0  0  0
  5  8  2  0  0  0
  6  9  1  0  0  0
  6 11  1  0  0  0
  6 30  1  0  0  0
  7 12  1  0  0  0
  7 13  1  0  0  0
  7 31  1  0  0  0
  8 20  1  0  0  0
  9 10  1  0  0  0
  9 15  2  0  0  0
 10 13  1  0  0  0
 10 17  2  0  0  0
 11 12  1  0  0  0
 11 21  2  0  0  0
 12 18  2  0  0  0
 14 15  1  0  0  0
 14 16  1  0  0  0
 14 19  2  0  0  0
 15 32  1  0  0  0
 16 23  1  0  0  0
 16 25  2  0  0  0
 17 19  1  0  0  0
 17 33  1  0  0  0
 18 20  1  0  0  0
 18 34  1  0  0  0
 19 35  1  0  0  0
 20 22  2  0  0  0
 21 22  1  0  0  0
 21 36  1  0  0  0
 22 37  1  0  0  0
 23 24  2  0  0  0
 23 38  1  0  0  0
 24 26  1  0  0  0
 25 27  1  0  0  0
 25 39  1  0  0  0
 26 27  2  0  0  0
 27 40  1  0  0  0
 28 41  1  0  0  0
 28 42  1  0  0  0
 28 43  1  0  0  0
M  CHG  2   4  -1   8   1
M  END
> <s_m_entry_id>
32306

> <s_m_entry_name>
dock_pv.569

> <s_m_Source_Path>
/home/csk/Desktop/cluster/DUD-E-result/src

> <s_m_Source_File>
dock_pv.maegz

> <i_m_Source_File_Index>
569

> <chembl_id>
CHEMBL1995740

> <chembl_pref_name>
None

> <i_lp_mmshare_version>
53161

> <r_lp_tautomer_probability>
1

> <s_lp_Force_Field>
OPLS_2005

> <r_lp_Energy>
44.982732

> <b_lp_Chiralities_Consistent>
1

> <s_lp_Variant>
CHEMBL267_lig3415-1

> <s_i_glide_gridfile>
glide-grid_3el8

> <i_i_glide_lignum>
4073

> <i_i_glide_rotatable_bonds>
4

> <r_i_docking_score>
-6.86824962979685

> <r_i_glide_ligand_efficiency>
-0.245294629635602

> <r_i_glide_ligand_efficiency_sa>
-0.744858966384452

> <r_i_glide_ligand_efficiency_ln>
-1.58539367512894

> <r_i_glide_gscore>
-6.86824962979685

> <r_i_glide_lipo>
-3.21053013841658

> <r_i_glide_hbond>
0

> <r_i_glide_metal>
0

> <r_i_glide_rewards>
-1.24860012054131

> <r_i_glide_evdw>
-32.6991348266602

> <r_i_glide_ecoul>
-6.06784582138062

> <r_i_glide_erotb>
0.136014243701142

> <r_i_glide_esite>
0

> <r_i_glide_emodel>
-45.1207104500593

> <r_i_glide_energy>
-38.7669806480408

> <r_i_glide_einternal>
8.15346527099609

> <i_i_glide_confnum>
1

> <i_i_glide_posenum>
191

> <r_i_glide_eff_state_penalty>
0

> <s_user_duplicate_titles>
CHEMBL267_lig3415

> <i_f3d_flags>
0

> <s_m_subgroup_title>
dock_pv

> <s_m_subgroupid>
dock_pv

> <b_m_subgroup_collapsed>
1

$$$$
CHEMBL267_lig784
                    3D
 Schrodinger Suite 2021-1.
 30 32  0  0  1  0            999 V2000
    2.5412    8.6514    6.5844 C   0  0  0  0  0  0
    3.1129    7.9106    7.5715 C   0  0  0  0  0  0
    3.5763    9.1071    5.6547 C   0  0  0  0  0  0
    4.5612    7.8365    7.3275 C   0  0  0  0  0  0
    4.8343    8.5629    6.1789 C   0  0  0  0  0  0
    1.1211    8.9375    6.5073 C   0  0  0  0  0  0
    2.4404    7.1933    8.6937 C   0  0  0  0  0  0
    3.3916    9.7964    4.6509 O   0  0  0  0  0  0
    0.4183    9.2023    7.4813 O   0  0  0  0  0  0
    0.5980    8.8706    5.2851 N   0  0  0  0  0  0
    5.6026    7.1736    7.9880 C   0  0  0  0  0  0
    6.1356    8.6712    5.6836 C   0  0  0  0  0  0
    2.9655    7.2698    9.9913 C   0  0  0  0  0  0
    1.2678    6.4518    8.4817 C   0  0  0  0  0  0
    6.9082    7.2696    7.4968 C   0  0  0  0  0  0
    7.1756    8.0203    6.3494 C   0  0  0  0  0  0
    0.6146    5.8290    9.5429 C   0  0  0  0  0  0
    2.3209    6.6356   11.0515 C   0  0  0  0  0  0
    1.1435    5.9252   10.8253 C   0  0  0  0  0  0
   -0.3908    9.0345    5.1644 H   0  0  0  0  0  0
    1.1841    8.7009    4.4810 H   0  0  0  0  0  0
    5.4119    6.5703    8.8646 H   0  0  0  0  0  0
    6.3495    9.2367    4.7877 H   0  0  0  0  0  0
    3.8628    7.8386   10.1883 H   0  0  0  0  0  0
    0.8441    6.3581    7.4914 H   0  0  0  0  0  0
    7.7142    6.7462    7.9884 H   0  0  0  0  0  0
    8.1840    8.0798    5.9663 H   0  0  0  0  0  0
   -0.2997    5.2786    9.3698 H   0  0  0  0  0  0
    2.7305    6.6991   12.0489 H   0  0  0  0  0  0
    0.6383    5.4424   11.6513 H   0  0  0  0  0  0
  1  2  2  0  0  0
  1  3  1  0  0  0
  1  6  1  0  0  0
  2  4  1  0  0  0
  2  7  1  0  0  0
  3  5  1  0  0  0
  3  8  2  0  0  0
  4 11  2  0  0  0
  4  5  1  0  0  0
  5 12  2  0  0  0
  6  9  2  0  0  0
  6 10  1  0  0  0
  7 13  2  0  0  0
  7 14  1  0  0  0
 10 20  1  0  0  0
 10 21  1  0  0  0
 11 15  1  0  0  0
 11 22  1  0  0  0
 12 16  1  0  0  0
 12 23  1  0  0  0
 13 18  1  0  0  0
 13 24  1  0  0  0
 14 17  2  0  0  0
 14 25  1  0  0  0
 15 16  2  0  0  0
 15 26  1  0  0  0
 16 27  1  0  0  0
 17 19  1  0  0  0
 17 28  1  0  0  0
 18 19  2  0  0  0
 18 29  1  0  0  0
 19 30  1  0  0  0
M  END
> <s_m_entry_id>
32307

> <s_m_entry_name>
dock_pv.570

> <s_m_Source_Path>
/home/csk/Desktop/cluster/DUD-E-result/src

> <s_m_Source_File>
dock_pv.maegz

> <i_m_Source_File_Index>
570

> <chembl_id>
CHEMBL329706

> <chembl_pref_name>
None

> <i_lp_mmshare_version>
53161

> <r_lp_tautomer_probability>
1

> <s_lp_Force_Field>
OPLS_2005

> <r_lp_Energy>
30.303317

> <b_lp_Chiralities_Consistent>
1

> <s_lp_Variant>
CHEMBL267_lig784-1

> <s_i_glide_gridfile>
glide-grid_3el8

> <i_i_glide_lignum>
912

> <i_i_glide_rotatable_bonds>
2

> <r_i_docking_score>
-6.86654237307441

> <r_i_glide_ligand_efficiency>
-0.361396967003916

> <r_i_glide_ligand_efficiency_sa>
-0.964352261649868

> <r_i_glide_ligand_efficiency_ln>
-1.74081597138194

> <r_i_glide_gscore>
-6.86654237307441

> <r_i_glide_lipo>
-2.84327208107232

> <r_i_glide_hbond>
-0.108416245580744

> <r_i_glide_metal>
0

> <r_i_glide_rewards>
-2.1238787309895

> <r_i_glide_evdw>
-30.9625968933105

> <r_i_glide_ecoul>
-3.49509286880493

> <r_i_glide_erotb>
0.281418459554421

> <r_i_glide_esite>
0

> <r_i_glide_emodel>
-48.7946739097481

> <r_i_glide_energy>
-34.4576897621155

> <r_i_glide_einternal>
1.07604110240936

> <i_i_glide_confnum>
1

> <i_i_glide_posenum>
171

> <r_i_glide_eff_state_penalty>
0

> <s_user_duplicate_titles>
CHEMBL267_lig784

> <i_f3d_flags>
0

> <s_m_subgroup_title>
dock_pv

> <s_m_subgroupid>
dock_pv

> <b_m_subgroup_collapsed>
1

$$$$
CHEMBL267_lig3529
                    3D
 Schrodinger Suite 2021-1.
 34 37  0  0  1  0            999 V2000
    3.8206    7.8286    7.3591 C   0  0  0  0  0  0
    3.7529    8.6817    6.2506 C   0  0  0  0  0  0
    4.8965    9.1212    5.5860 C   0  0  0  0  0  0
    5.0677    7.4256    7.8530 C   0  0  0  0  0  0
    6.2328    7.8212    7.1788 C   0  0  0  0  0  0
    6.1446    8.6715    6.0345 C   0  0  0  0  0  0
    7.3673    8.9369    5.4846 N   0  0  0  0  0  0
    8.2071    8.2366    6.2628 N   0  0  0  0  0  0
    7.6216    7.5683    7.3084 C   0  0  0  0  0  0
    2.5695    7.2856    7.9861 C   0  0  0  0  0  0
    2.4284    6.2404    8.8996 C   0  0  0  0  0  0
    1.0788    6.1271    9.1109 N   0  0  0  0  0  0
    0.4137    7.0245    8.3827 N   0  0  0  0  0  0
    1.3636    7.7518    7.6908 N   0  0  0  0  0  0
    0.3600    5.2183    9.9931 C   0  0  0  0  0  0
   -0.2344    3.9760    9.3327 C   0  0  0  0  0  0
   -1.6224    3.8370    9.2716 C   0  0  0  0  0  0
   -2.2013    2.6671    8.8017 C   0  0  0  0  0  0
   -1.3851    1.6243    8.3877 C   0  0  0  0  0  0
   -0.0007    1.7657    8.3881 C   0  0  0  0  0  0
    0.5825    2.9431    8.8620 C   0  0  0  0  0  0
    2.7906    8.9937    5.8715 H   0  0  0  0  0  0
    4.8159    9.7646    4.7222 H   0  0  0  0  0  0
    5.1354    6.7668    8.7062 H   0  0  0  0  0  0
    9.1982    8.2067    6.0619 H   0  0  0  0  0  0
    8.2187    6.9818    7.9876 H   0  0  0  0  0  0
    3.1338    5.5903    9.3974 H   0  0  0  0  0  0
   -0.4232    5.7899   10.4964 H   0  0  0  0  0  0
    1.0359    4.9114   10.7883 H   0  0  0  0  0  0
   -2.2672    4.6370    9.5898 H   0  0  0  0  0  0
   -3.2768    2.5629    8.7724 H   0  0  0  0  0  0
   -1.8354    0.7103    8.0280 H   0  0  0  0  0  0
    0.5980    0.9367    8.0495 H   0  0  0  0  0  0
    1.6575    3.0347    8.9012 H   0  0  0  0  0  0
  1  2  1  0  0  0
  1 10  1  0  0  0
  1  4  2  0  0  0
  2  3  2  0  0  0
  2 22  1  0  0  0
  3  6  1  0  0  0
  3 23  1  0  0  0
  4 24  1  0  0  0
  4  5  1  0  0  0
  5  6  1  0  0  0
  5  9  2  0  0  0
  6  7  2  0  0  0
  7  8  1  0  0  0
  8 25  1  0  0  0
  8  9  1  0  0  0
  9 26  1  0  0  0
 10 11  2  0  0  0
 10 14  1  0  0  0
 11 12  1  0  0  0
 11 27  1  0  0  0
 12 13  1  0  0  0
 12 15  1  0  0  0
 13 14  2  0  0  0
 15 16  1  0  0  0
 15 28  1  0  0  0
 15 29  1  0  0  0
 16 17  2  0  0  0
 16 21  1  0  0  0
 17 18  1  0  0  0
 17 30  1  0  0  0
 18 19  2  0  0  0
 18 31  1  0  0  0
 19 20  1  0  0  0
 19 32  1  0  0  0
 20 21  2  0  0  0
 20 33  1  0  0  0
 21 34  1  0  0  0
M  END
> <s_m_entry_id>
32308

> <s_m_entry_name>
dock_pv.571

> <s_m_Source_Path>
/home/csk/Desktop/cluster/DUD-E-result/src

> <s_m_Source_File>
dock_pv.maegz

> <i_m_Source_File_Index>
571

> <chembl_id>
CHEMBL1682345

> <chembl_pref_name>
None

> <i_lp_mmshare_version>
53161

> <r_lp_tautomer_probability>
0.0196078431372549

> <s_lp_Force_Field>
OPLS_2005

> <r_lp_Energy>
26.479724

> <b_lp_Chiralities_Consistent>
1

> <s_lp_Variant>
CHEMBL267_lig3529-2

> <s_i_glide_gridfile>
glide-grid_3el8

> <i_i_glide_lignum>
4244

> <i_i_glide_rotatable_bonds>
3

> <r_i_docking_score>
-6.86613646043131

> <r_i_glide_ligand_efficiency>
-0.326958879068158

> <r_i_glide_ligand_efficiency_sa>
-0.902054755228169

> <r_i_glide_ligand_efficiency_ln>
-1.69763836550654

> <r_i_glide_gscore>
-6.86613646043131

> <r_i_glide_lipo>
-3.44940904858275

> <r_i_glide_hbond>
-0.016537835415915

> <r_i_glide_metal>
0

> <r_i_glide_rewards>
-1.8138314596266

> <r_i_glide_evdw>
-35.536808013916

> <r_i_glide_ecoul>
-3.25697326660156

> <r_i_glide_erotb>
0.711346017659921

> <r_i_glide_esite>
-0.0323177437799197

> <r_i_glide_emodel>
-53.8627607070449

> <r_i_glide_energy>
-38.7937812805176

> <r_i_glide_einternal>
0.635510325431824

> <i_i_glide_confnum>
5

> <i_i_glide_posenum>
374

> <r_i_glide_eff_state_penalty>
0

> <s_user_duplicate_titles>
CHEMBL267_lig3529

> <i_f3d_flags>
0

> <s_m_subgroup_title>
dock_pv

> <s_m_subgroupid>
dock_pv

> <b_m_subgroup_collapsed>
1

$$$$
CHEMBL267_lig1904
                    3D
 Schrodinger Suite 2021-1.
 41 44  0  0  1  0            999 V2000
    8.0379    7.6950    6.8455 N   0  0  0  0  0  0
    8.4312    8.6020    5.9138 C   0  0  0  0  0  0
    7.6476    9.4429    5.1882 N   0  0  0  0  0  0
    6.7085    7.5954    7.0786 C   0  0  0  0  0  0
    5.7847    8.4136    6.3978 C   0  0  0  0  0  0
    6.3433    9.3179    5.4634 C   0  0  0  0  0  0
    5.2714   10.0130    4.9217 N   0  0  0  0  0  0
    4.1043    9.5635    5.4276 N   0  0  0  0  0  0
    4.3683    8.6361    6.3189 C   0  0  0  0  0  0
    3.2725    7.9870    7.0885 C   0  0  0  0  0  0
    3.4258    7.7646    8.4563 C   0  0  0  0  0  0
    1.0913    6.9251    7.1447 C   0  0  0  0  0  0
    2.1072    7.5664    6.4429 C   0  0  0  0  0  0
    6.3054    6.6214    7.9880 N   0  0  0  0  0  0
    1.2307    6.6853    8.5326 C   0  0  0  0  0  0
    2.4204    7.1096    9.1993 C   0  0  0  0  0  0
    2.5637    6.8658   10.5888 C   0  0  0  0  0  0
    1.5423    6.2368   11.2919 C   0  0  0  0  0  0
    0.3866    5.8271   10.6436 C   0  0  0  0  0  0
    0.2198    6.0384    9.2807 C   0  0  0  0  0  0
    5.2398   11.0755    3.9082 C   0  0  0  0  0  0
    5.6844   10.5172    2.5466 C   0  0  0  0  0  0
    6.0785   12.2855    4.3615 C   0  0  0  0  0  0
   -0.6020    5.2111   11.3510 O   0  0  0  0  0  0
    9.4930    8.6480    5.7190 H   0  0  0  0  0  0
    4.3142    8.1085    8.9695 H   0  0  0  0  0  0
    0.1944    6.6021    6.6338 H   0  0  0  0  0  0
    1.9913    7.7286    5.3811 H   0  0  0  0  0  0
    5.3194    6.4600    8.1329 H   0  0  0  0  0  0
    7.0035    6.0402    8.4242 H   0  0  0  0  0  0
    3.4634    7.1773   11.1010 H   0  0  0  0  0  0
    1.6437    6.0743   12.3552 H   0  0  0  0  0  0
   -0.6811    5.7049    8.7890 H   0  0  0  0  0  0
    4.2060   11.4156    3.8075 H   0  0  0  0  0  0
    5.5477   11.2531    1.7524 H   0  0  0  0  0  0
    6.7383   10.2366    2.5587 H   0  0  0  0  0  0
    5.1017    9.6334    2.2827 H   0  0  0  0  0  0
    5.9531   13.1301    3.6810 H   0  0  0  0  0  0
    5.7879   12.6263    5.3573 H   0  0  0  0  0  0
    7.1430   12.0481    4.3878 H   0  0  0  0  0  0
   -1.4582    5.2883   10.9085 H   0  0  0  0  0  0
  1  2  2  0  0  0
  1  4  1  0  0  0
  2  3  1  0  0  0
  2 25  1  0  0  0
  3  6  2  0  0  0
  4 14  1  0  0  0
  4  5  2  0  0  0
  5  9  1  0  0  0
  5  6  1  0  0  0
  6  7  1  0  0  0
  7  8  1  0  0  0
  7 21  1  0  0  0
  8  9  2  0  0  0
  9 10  1  0  0  0
 10 13  1  0  0  0
 10 11  2  0  0  0
 11 16  1  0  0  0
 11 26  1  0  0  0
 12 15  1  0  0  0
 12 13  2  0  0  0
 12 27  1  0  0  0
 13 28  1  0  0  0
 14 29  1  0  0  0
 14 30  1  0  0  0
 15 16  1  0  0  0
 15 20  2  0  0  0
 16 17  2  0  0  0
 17 18  1  0  0  0
 17 31  1  0  0  0
 18 19  2  0  0  0
 18 32  1  0  0  0
 19 20  1  0  0  0
 19 24  1  0  0  0
 20 33  1  0  0  0
 21 22  1  0  0  0
 21 23  1  0  0  0
 21 34  1  0  0  0
 22 35  1  0  0  0
 22 36  1  0  0  0
 22 37  1  0  0  0
 23 38  1  0  0  0
 23 39  1  0  0  0
 23 40  1  0  0  0
 24 41  1  0  0  0
M  END
> <s_m_entry_id>
32309

> <s_m_entry_name>
dock_pv.572

> <s_m_Source_Path>
/home/csk/Desktop/cluster/DUD-E-result/src

> <s_m_Source_File>
dock_pv.maegz

> <i_m_Source_File_Index>
572

> <chembl_id>
CHEMBL1242662

> <chembl_pref_name>
None

> <i_lp_mmshare_version>
53161

> <r_lp_tautomer_probability>
1

> <s_lp_Force_Field>
OPLS_2005

> <r_lp_Energy>
15.921113

> <b_lp_Chiralities_Consistent>
1

> <s_lp_Variant>
CHEMBL267_lig1904-1

> <s_i_glide_gridfile>
glide-grid_3el8

> <i_i_glide_lignum>
2179

> <i_i_glide_rotatable_bonds>
3

> <r_i_docking_score>
-6.86078893298763

> <r_i_glide_ligand_efficiency>
-0.285866205541151

> <r_i_glide_ligand_efficiency_sa>
-0.824580823340749

> <r_i_glide_ligand_efficiency_ln>
-1.64210161275406

> <r_i_glide_gscore>
-6.86078893298763

> <r_i_glide_lipo>
-2.30308195511456

> <r_i_glide_hbond>
-0.145350687107966

> <r_i_glide_metal>
0

> <r_i_glide_rewards>
-2.16158659784933

> <r_i_glide_evdw>
-35.7553215026855

> <r_i_glide_ecoul>
-4.30625915527344

> <r_i_glide_erotb>
0.182935255509518

> <r_i_glide_esite>
0

> <r_i_glide_emodel>
-56.4133534466445

> <r_i_glide_energy>
-40.061580657959

> <r_i_glide_einternal>
2.22152996063232

> <i_i_glide_confnum>
2

> <i_i_glide_posenum>
96

> <r_i_glide_eff_state_penalty>
0

> <s_user_duplicate_titles>
CHEMBL267_lig1904

> <i_f3d_flags>
0

> <s_m_subgroup_title>
dock_pv

> <s_m_subgroupid>
dock_pv

> <b_m_subgroup_collapsed>
1

$$$$
CHEMBL267_lig3855
                    3D
 Schrodinger Suite 2021-1.
 50 54  0  0  1  0            999 V2000
    0.8941    7.8035    7.6778 C   0  0  0  0  0  0
    0.6835    6.7643    8.5856 C   0  0  0  0  0  0
    1.6696    6.0328    9.1630 N   0  0  0  0  0  0
    2.1970    8.1216    7.2893 C   0  0  0  0  0  0
    3.2587    7.3715    7.8288 C   0  0  0  0  0  0
    2.9037    6.3556    8.7672 C   0  0  0  0  0  0
    4.0647    5.7646    9.1880 N   0  0  0  0  0  0
    5.1248    6.3087    8.5164 C   0  0  0  0  0  0
    4.7006    7.3292    7.6779 C   0  0  0  0  0  0
    5.5775    8.1446    6.7868 C   0  0  0  0  0  0
    4.9698    9.0557    5.9878 N   0  0  0  0  0  0
    5.7631    9.7938    5.1651 C   0  0  0  0  0  0
    7.1548    9.6230    5.1606 C   0  0  0  0  0  0
    7.6878    8.6368    5.9941 C   0  0  0  0  0  0
    6.9149    7.8895    6.8212 N   0  0  0  0  0  0
    7.9654   10.3825    4.3872 F   0  0  0  0  0  0
    5.1842   10.7500    4.3123 N   0  0  0  0  0  0
    3.7908   11.1878    4.4363 C   0  0  1  0  0  0
    3.7196   12.6373    4.9781 C   0  0  1  0  0  0
    4.2292   13.6041    3.8685 C   0  0  0  0  0  0
    3.4043   13.4451    2.5569 C   0  0  0  0  0  0
    3.0210   11.0435    3.0906 C   0  0  1  0  0  0
   -0.1547    8.4994    7.1876 F   0  0  0  0  0  0
    1.8419    9.5549    3.2045 S   0  0  0  0  0  0
    0.6443    9.8471    1.9880 N   0  0  0  0  0  0
    2.5787    8.3624    2.7881 O   0  0  0  0  0  0
    1.1339    9.5960    4.4862 O   0  0  0  0  0  0
    2.2133   12.9538    5.2128 C   0  0  0  0  0  0
    1.3882   12.8047    3.9044 C   0  0  0  0  0  0
    2.2916   12.3714    2.7162 C   0  0  1  0  0  0
   -0.3206    6.4922    8.8776 H   0  0  0  0  0  0
    2.3764    8.9135    6.5807 H   0  0  0  0  0  0
    4.1730    5.0372    9.8877 H   0  0  0  0  0  0
    6.1178    5.9219    8.7036 H   0  0  0  0  0  0
    8.7513    8.4467    6.0177 H   0  0  0  0  0  0
    5.7928   11.2799    3.7051 H   0  0  0  0  0  0
    3.2948   10.5668    5.1801 H   0  0  0  0  0  0
    4.2939   12.7397    5.9008 H   0  0  0  0  0  0
    4.1600   14.6351    4.2133 H   0  0  0  0  0  0
    5.2884   13.4374    3.6706 H   0  0  0  0  0  0
    4.0649   13.1773    1.7305 H   0  0  0  0  0  0
    2.9626   14.4022    2.2732 H   0  0  0  0  0  0
    3.6661   10.7315    2.2678 H   0  0  0  0  0  0
    0.5983    9.0904    1.2882 H   0  0  0  0  0  0
   -0.2724   10.0625    2.3824 H   0  0  0  0  0  0
    1.8100   12.2977    5.9870 H   0  0  0  0  0  0
    2.1011   13.9692    5.5939 H   0  0  0  0  0  0
    0.8997   13.7515    3.6671 H   0  0  0  0  0  0
    0.5720   12.0976    4.0474 H   0  0  0  0  0  0
    1.7174   12.2765    1.7929 H   0  0  0  0  0  0
  1  2  2  0  0  0
  1  4  1  0  0  0
  1 23  1  0  0  0
  2  3  1  0  0  0
  2 31  1  0  0  0
  3  6  2  0  0  0
  4  5  2  0  0  0
  4 32  1  0  0  0
  5  6  1  0  0  0
  5  9  1  0  0  0
  6  7  1  0  0  0
  7  8  1  0  0  0
  7 33  1  0  0  0
  8  9  2  0  0  0
  8 34  1  0  0  0
  9 10  1  0  0  0
 10 11  2  0  0  0
 10 15  1  0  0  0
 11 12  1  0  0  0
 12 13  2  0  0  0
 12 17  1  0  0  0
 13 14  1  0  0  0
 13 16  1  0  0  0
 14 15  2  0  0  0
 14 35  1  0  0  0
 17 18  1  0  0  0
 17 36  1  0  0  0
 18 19  1  0  0  0
 18 22  1  0  0  0
 18 37  1  0  0  0
 19 20  1  0  0  0
 19 28  1  0  0  0
 19 38  1  0  0  0
 20 21  1  0  0  0
 20 39  1  0  0  0
 20 40  1  0  0  0
 21 30  1  0  0  0
 21 41  1  0  0  0
 21 42  1  0  0  0
 22 30  1  0  0  0
 22 24  1  0  0  0
 22 43  1  0  0  0
 24 25  1  0  0  0
 24 26  2  0  0  0
 24 27  2  0  0  0
 25 44  1  0  0  0
 25 45  1  0  0  0
 28 29  1  0  0  0
 28 46  1  0  0  0
 28 47  1  0  0  0
 29 30  1  0  0  0
 29 48  1  0  0  0
 29 49  1  0  0  0
 30 50  1  0  0  0
M  END
> <s_m_entry_id>
32310

> <s_m_entry_name>
dock_pv.573

> <s_m_Source_Path>
/home/csk/Desktop/cluster/DUD-E-result/src

> <s_m_Source_File>
dock_pv.maegz

> <i_m_Source_File_Index>
573

> <chembl_id>
CHEMBL3401983

> <chembl_pref_name>
None

> <i_lp_mmshare_version>
53161

> <r_lp_tautomer_probability>
0.999998015729938

> <s_lp_Force_Field>
OPLS_2005

> <r_lp_Energy>
32.440475

> <b_lp_Chiralities_Consistent>
1

> <s_lp_Variant>
CHEMBL267_lig3855-1

> <s_i_glide_gridfile>
glide-grid_3el8

> <i_i_glide_lignum>
4742

> <i_i_glide_rotatable_bonds>
4

> <r_i_docking_score>
-6.85537399248422

> <r_i_glide_ligand_efficiency>
-0.228512466416141

> <r_i_glide_ligand_efficiency_sa>
-0.710041362858925

> <r_i_glide_ligand_efficiency_ln>
-1.55761566637469

> <r_i_glide_gscore>
-6.85537399248422

> <r_i_glide_lipo>
-1.80932775414646

> <r_i_glide_hbond>
-0.608

> <r_i_glide_metal>
0

> <r_i_glide_rewards>
-1.30739677052178

> <r_i_glide_evdw>
-33.7894706726074

> <r_i_glide_ecoul>
-10.4456396102905

> <r_i_glide_erotb>
0.316530275269816

> <r_i_glide_esite>
-0.190860267911845

> <r_i_glide_emodel>
-58.2523575516193

> <r_i_glide_energy>
-44.2351102828979

> <r_i_glide_einternal>
7.97547769546509

> <i_i_glide_confnum>
1

> <i_i_glide_posenum>
113

> <r_i_glide_eff_state_penalty>
0

> <s_user_duplicate_titles>
CHEMBL267_lig3855

> <i_f3d_flags>
0

> <s_m_subgroup_title>
dock_pv

> <s_m_subgroupid>
dock_pv

> <b_m_subgroup_collapsed>
1

$$$$
CHEMBL267_lig2823 
                    3D
 Schrodinger Suite 2021-1.
 40 43  0  0  1  0            999 V2000
    6.2687    7.4320    7.6620 C   0  0  0  0  0  0
    5.2155    6.8620    8.3627 C   0  0  0  0  0  0
    3.8924    7.0793    7.9880 C   0  0  0  0  0  0
    6.0414    8.2414    6.5584 C   0  0  0  0  0  0
    4.7057    8.5028    6.1156 C   0  0  0  0  0  0
    3.6254    7.9107    6.8499 C   0  0  0  0  0  0
    2.3287    8.1192    6.4901 N   0  0  0  0  0  0
    2.0554    8.8721    5.4067 C   0  0  0  0  0  0
    3.0242    9.4833    4.6101 C   0  0  0  0  0  0
    4.3787    9.3164    4.9742 C   0  0  0  0  0  0
    2.8068    6.4266    8.7752 C   0  0  0  0  0  0
    2.5781    6.7799   10.1169 C   0  0  0  0  0  0
    1.4922    6.2383   10.8180 C   0  0  0  0  0  0
    2.0074    5.4620    8.1486 C   0  0  0  0  0  0
    0.9298    4.9056    8.8450 C   0  0  0  0  0  0
    0.6520    5.3245   10.1769 C   0  0  0  0  0  0
   -0.5365    4.6365   10.5050 C   0  0  0  0  0  0
   -0.8244    3.8618    9.4099 N   0  0  0  0  0  0
    0.0381    3.9749    8.3897 N   0  0  0  0  0  0
    5.3894    9.9198    4.2151 N   0  0  0  0  0  0
    2.5859   10.2988    3.4113 C   0  0  0  0  0  0
    1.5527    9.8341    2.7075 N   0  0  0  0  0  0
    3.1644   11.3301    3.0804 O   0  0  0  0  0  0
    3.3972    7.7322   10.6894 O   0  0  0  0  0  0
    3.8320    7.5161   12.0284 C   0  0  0  0  0  0
    7.1191    8.7600    5.9216 F   0  0  0  0  0  0
    7.2819    7.2384    7.9790 H   0  0  0  0  0  0
    5.4251    6.2266    9.2104 H   0  0  0  0  0  0
    1.0005    8.9847    5.1944 H   0  0  0  0  0  0
    1.2691    6.5506   11.8279 H   0  0  0  0  0  0
    2.2003    5.1719    7.1246 H   0  0  0  0  0  0
   -1.1845    4.6320   11.3695 H   0  0  0  0  0  0
   -1.6301    3.2536    9.3487 H   0  0  0  0  0  0
    6.3382    9.8803    4.5604 H   0  0  0  0  0  0
    5.1016   10.6270    3.5476 H   0  0  0  0  0  0
    1.2443   10.3501    1.8981 H   0  0  0  0  0  0
    1.1650    8.9201    2.8877 H   0  0  0  0  0  0
    4.4421    8.3666   12.3339 H   0  0  0  0  0  0
    3.0169    7.4329   12.7478 H   0  0  0  0  0  0
    4.4664    6.6368   12.1003 H   0  0  0  0  0  0
  1  2  2  0  0  0
  1  4  1  0  0  0
  1 27  1  0  0  0
  2  3  1  0  0  0
  2 28  1  0  0  0
  3  6  2  0  0  0
  3 11  1  0  0  0
  4  5  2  0  0  0
  4 26  1  0  0  0
  5  6  1  0  0  0
  5 10  1  0  0  0
  6  7  1  0  0  0
  7  8  2  0  0  0
  8  9  1  0  0  0
  8 29  1  0  0  0
  9 10  2  0  0  0
  9 21  1  0  0  0
 10 20  1  0  0  0
 11 14  2  0  0  0
 11 12  1  0  0  0
 12 24  1  0  0  0
 12 13  2  0  0  0
 13 30  1  0  0  0
 13 16  1  0  0  0
 14 15  1  0  0  0
 14 31  1  0  0  0
 15 19  2  0  0  0
 15 16  1  0  0  0
 16 17  2  0  0  0
 17 18  1  0  0  0
 17 32  1  0  0  0
 18 33  1  0  0  0
 18 19  1  0  0  0
 20 34  1  0  0  0
 20 35  1  0  0  0
 21 22  1  0  0  0
 21 23  2  0  0  0
 22 36  1  0  0  0
 22 37  1  0  0  0
 24 25  1  0  0  0
 25 38  1  0  0  0
 25 39  1  0  0  0
 25 40  1  0  0  0
M  END
> <s_m_entry_id>
32311

> <s_m_entry_name>
dock_pv.574

> <s_m_Source_Path>
/home/csk/Desktop/cluster/DUD-E-result/src

> <s_m_Source_File>
dock_pv.maegz

> <i_m_Source_File_Index>
574

> <chembl_id>
CHEMBL4475004

> <chembl_pref_name>
None

> <i_lp_mmshare_version>
53161

> <r_lp_tautomer_probability>
0.0196078431372549

> <s_lp_Force_Field>
OPLS_2005

> <r_lp_Energy>
48.559436

> <b_lp_Chiralities_Consistent>
1

> <s_lp_Variant>
CHEMBL267_lig2823 -2

> <s_i_glide_gridfile>
glide-grid_3el8

> <i_i_glide_lignum>
3201

> <i_i_glide_rotatable_bonds>
3

> <r_i_docking_score>
-6.85537240577714

> <r_i_glide_ligand_efficiency>
-0.263668169452967

> <r_i_glide_ligand_efficiency_sa>
-0.781115914520265

> <r_i_glide_ligand_efficiency_ln>
-1.60996171518518

> <r_i_glide_gscore>
-6.85537240577714

> <r_i_glide_lipo>
-3.09046306971368

> <r_i_glide_hbond>
0

> <r_i_glide_metal>
0

> <r_i_glide_rewards>
-1.46690773991409

> <r_i_glide_evdw>
-40.2893676757812

> <r_i_glide_ecoul>
-2.82418131828308

> <r_i_glide_erotb>
0.15450652863183

> <r_i_glide_esite>
-0.0144125432496759

> <r_i_glide_emodel>
-59.6971719872983

> <r_i_glide_energy>
-43.1135489940643

> <r_i_glide_einternal>
2.17466115951538

> <i_i_glide_confnum>
4

> <i_i_glide_posenum>
58

> <r_i_glide_eff_state_penalty>
0

> <s_user_duplicate_titles>
CHEMBL267_lig2823 

> <i_f3d_flags>
0

> <s_m_subgroup_title>
dock_pv

> <s_m_subgroupid>
dock_pv

> <b_m_subgroup_collapsed>
1

$$$$
CHEMBL267_lig3031
                    3D
 Schrodinger Suite 2021-1.
 45 48  0  0  1  0            999 V2000
    2.3148    7.5265    7.2119 N   0  0  0  0  0  0
    2.5409    8.1996    6.0556 C   0  0  0  0  0  0
    3.7375    8.6370    5.5887 N   0  0  0  0  0  0
    3.3879    7.2062    7.9828 C   0  0  0  0  0  0
    4.6818    7.5549    7.5626 C   0  0  0  0  0  0
    4.7733    8.2820    6.3556 C   0  0  0  0  0  0
    6.1272    8.4904    6.1390 N   0  0  0  0  0  0
    6.8659    7.9420    7.1282 N   0  0  0  0  0  0
    6.0361    7.3641    7.9590 C   0  0  0  0  0  0
    6.8170    9.1092    5.0065 C   0  0  0  0  0  0
    6.7098   10.6525    4.9971 C   0  0  2  0  0  0
    5.3200   11.1701    4.6318 C   0  0  0  0  0  0
    7.9435   11.3105    3.8866 Cl  0  0  0  0  0  0
    4.7958   10.9410    3.3535 C   0  0  0  0  0  0
    3.5022   11.3530    3.0449 C   0  0  0  0  0  0
    2.7328   11.9928    4.0133 C   0  0  0  0  0  0
    3.2519   12.2368    5.2819 C   0  0  0  0  0  0
    4.5498   11.8369    5.5883 C   0  0  0  0  0  0
    1.1612    8.4677    4.9899 S   0  0  0  0  0  0
   -0.2029    7.4494    5.6197 C   0  0  0  0  0  0
    1.4714   12.3817    3.7216 F   0  0  0  0  0  0
    3.1785    6.5064    9.1785 N   0  0  0  0  0  0
    1.4088    6.2160   10.8081 C   0  0  0  0  0  0
    1.9970    5.8760    9.5875 C   0  0  0  0  0  0
    1.4012    4.9041    8.7784 C   0  0  0  0  0  0
    0.2183    4.2861    9.1775 C   0  0  0  0  0  0
   -0.3725    4.6372   10.3888 C   0  0  0  0  0  0
    0.2182    5.6018   11.2044 C   0  0  0  0  0  0
   -0.3568    3.3517    8.3880 F   0  0  0  0  0  0
    6.4057    6.7890    8.7879 H   0  0  0  0  0  0
    6.4126    8.6769    4.0906 H   0  0  0  0  0  0
    7.8689    8.8172    5.0504 H   0  0  0  0  0  0
    6.9971   11.0278    5.9811 H   0  0  0  0  0  0
    5.3826   10.4317    2.6037 H   0  0  0  0  0  0
    3.0911   11.1708    2.0628 H   0  0  0  0  0  0
    2.6431   12.7297    6.0248 H   0  0  0  0  0  0
    4.9427   12.0193    6.5775 H   0  0  0  0  0  0
   -1.0124    7.4340    4.8943 H   0  0  0  0  0  0
    0.1235    6.4218    5.7838 H   0  0  0  0  0  0
   -0.5809    7.8477    6.5603 H   0  0  0  0  0  0
    3.9998    6.2840    9.7213 H   0  0  0  0  0  0
    1.8633    6.9624   11.4431 H   0  0  0  0  0  0
    1.8502    4.6339    7.8345 H   0  0  0  0  0  0
   -1.2985    4.1689   10.6888 H   0  0  0  0  0  0
   -0.2523    5.8742   12.1385 H   0  0  0  0  0  0
  1  2  2  0  0  0
  1  4  1  0  0  0
  2 19  1  0  0  0
  2  3  1  0  0  0
  3  6  2  0  0  0
  4 22  1  0  0  0
  4  5  2  0  0  0
  5  9  1  0  0  0
  5  6  1  0  0  0
  6  7  1  0  0  0
  7  8  1  0  0  0
  7 10  1  0  0  0
  8  9  2  0  0  0
  9 30  1  0  0  0
 10 11  1  0  0  0
 10 31  1  0  0  0
 10 32  1  0  0  0
 11 12  1  0  0  0
 11 13  1  0  0  0
 11 33  1  0  0  0
 12 14  2  0  0  0
 12 18  1  0  0  0
 14 15  1  0  0  0
 14 34  1  0  0  0
 15 16  2  0  0  0
 15 35  1  0  0  0
 16 17  1  0  0  0
 16 21  1  0  0  0
 17 18  2  0  0  0
 17 36  1  0  0  0
 18 37  1  0  0  0
 19 20  1  0  0  0
 20 38  1  0  0  0
 20 39  1  0  0  0
 20 40  1  0  0  0
 22 24  1  0  0  0
 22 41  1  0  0  0
 23 28  1  0  0  0
 23 24  2  0  0  0
 23 42  1  0  0  0
 24 25  1  0  0  0
 25 26  2  0  0  0
 25 43  1  0  0  0
 26 27  1  0  0  0
 26 29  1  0  0  0
 27 28  2  0  0  0
 27 44  1  0  0  0
 28 45  1  0  0  0
M  END
> <s_m_entry_id>
32312

> <s_m_entry_name>
dock_pv.575

> <s_m_Source_Path>
/home/csk/Desktop/cluster/DUD-E-result/src

> <s_m_Source_File>
dock_pv.maegz

> <i_m_Source_File_Index>
575

> <chembl_id>
CHEMBL516070

> <chembl_pref_name>
None

> <i_lp_mmshare_version>
53161

> <r_lp_tautomer_probability>
1

> <s_lp_Force_Field>
OPLS_2005

> <r_lp_Energy>
12.971579

> <b_lp_Chiralities_Consistent>
1

> <s_lp_Variant>
CHEMBL267_lig3031-1

> <s_i_glide_gridfile>
glide-grid_3el8

> <i_i_glide_lignum>
3454

> <i_i_glide_rotatable_bonds>
6

> <r_i_docking_score>
-6.84530265279782

> <r_i_glide_ligand_efficiency>
-0.236044919061994

> <r_i_glide_ligand_efficiency_sa>
-0.725204775637824

> <r_i_glide_ligand_efficiency_ln>
-1.56740072559248

> <r_i_glide_gscore>
-6.84530265279782

> <r_i_glide_lipo>
-3.46967682228976

> <r_i_glide_hbond>
0

> <r_i_glide_metal>
0

> <r_i_glide_rewards>
-1.52747824595989

> <r_i_glide_evdw>
-45.7467422485352

> <r_i_glide_ecoul>
-0.627153038978577

> <r_i_glide_erotb>
0.533262483725381

> <r_i_glide_esite>
0

> <r_i_glide_emodel>
-60.7519535207811

> <r_i_glide_energy>
-46.3738952875137

> <r_i_glide_einternal>
9.09327030181885

> <i_i_glide_confnum>
17

> <i_i_glide_posenum>
35

> <r_i_glide_eff_state_penalty>
0

> <s_user_duplicate_titles>
CHEMBL267_lig3031

> <i_f3d_flags>
0

> <s_m_subgroup_title>
dock_pv

> <s_m_subgroupid>
dock_pv

> <b_m_subgroup_collapsed>
1

$$$$
CHEMBL267_lig1756
                    3D
 Schrodinger Suite 2021-1.
 41 44  0  0  1  0            999 V2000
    0.6452    6.1675    7.8343 N   0  0  0  0  0  0
    1.5200    7.0668    7.2996 C   0  0  0  0  0  0
    2.5779    7.6200    7.9647 N   0  0  0  0  0  0
    0.7589    5.8244    9.1389 C   0  0  0  0  0  0
    1.8040    6.3734    9.8746 C   0  0  0  0  0  0
    2.7114    7.2594    9.2458 C   0  0  0  0  0  0
    3.6871    7.6640   10.1194 N   0  0  0  0  0  0
    3.3980    7.0379   11.2360 C   0  0  0  0  0  0
    2.2553    6.2769   11.1691 N   0  0  0  0  0  0
   -0.2020    4.9800    9.6925 N   0  0  0  0  0  0
   -0.5974    3.7379    9.1880 C   0  0  0  0  0  0
   -1.9522    3.4242    9.1880 C   0  0  0  0  0  0
   -2.3764    2.1616    8.7886 C   0  0  0  0  0  0
   -1.4537    1.1898    8.3880 C   0  0  0  0  0  0
   -0.0992    1.5202    8.3880 C   0  0  0  0  0  0
    0.3367    2.7870    8.7759 C   0  0  0  0  0  0
    1.3480    7.4061    5.9522 N   0  0  0  0  0  0
    1.8218    8.7036    5.4148 C   0  0  0  0  0  0
    1.8521    8.8186    3.8668 C   0  0  0  0  0  0
    0.5980    8.4023    3.2551 N   0  0  0  0  0  0
    0.3182    7.0377    3.6712 C   0  0  0  0  0  0
    0.1663    6.9394    5.1977 C   0  0  0  0  0  0
   -1.8891   -0.1835    8.0310 N   0  3  0  0  0  0
   -3.0001   -0.5630    8.3916 O   0  0  0  0  0  0
   -1.1049   -0.9055    7.4197 O   0  5  0  0  0  0
    1.8950    5.7255   11.9355 H   0  0  0  0  0  0
    3.9586    7.0825   12.1603 H   0  0  0  0  0  0
   -1.0213    5.5013    9.9835 H   0  0  0  0  0  0
   -2.6805    4.1507    9.5053 H   0  0  0  0  0  0
   -3.4318    1.9351    8.8175 H   0  0  0  0  0  0
    0.5980    0.7486    8.1266 H   0  0  0  0  0  0
    1.3925    3.0129    8.7981 H   0  0  0  0  0  0
    2.8245    8.9221    5.7830 H   0  0  0  0  0  0
    1.1526    9.4831    5.7822 H   0  0  0  0  0  0
    2.0526    9.8481    3.5683 H   0  0  0  0  0  0
    2.6724    8.2370    3.4485 H   0  0  0  0  0  0
    0.6489    8.4254    2.2381 H   0  0  0  0  0  0
   -0.6020    6.7139    3.1880 H   0  0  0  0  0  0
    1.0970    6.3633    3.3095 H   0  0  0  0  0  0
   -0.6954    7.5406    5.4929 H   0  0  0  0  0  0
   -0.0608    5.9006    5.4416 H   0  0  0  0  0  0
  1  2  2  0  0  0
  1  4  1  0  0  0
  2 17  1  0  0  0
  2  3  1  0  0  0
  3  6  2  0  0  0
  4 10  1  0  0  0
  4  5  2  0  0  0
  5  9  1  0  0  0
  5  6  1  0  0  0
  6  7  1  0  0  0
  7  8  2  0  0  0
  8  9  1  0  0  0
  8 27  1  0  0  0
  9 26  1  0  0  0
 10 11  1  0  0  0
 10 28  1  0  0  0
 11 12  2  0  0  0
 11 16  1  0  0  0
 12 13  1  0  0  0
 12 29  1  0  0  0
 13 14  2  0  0  0
 13 30  1  0  0  0
 14 15  1  0  0  0
 14 23  1  0  0  0
 15 16  2  0  0  0
 15 31  1  0  0  0
 16 32  1  0  0  0
 17 18  1  0  0  0
 17 22  1  0  0  0
 18 19  1  0  0  0
 18 33  1  0  0  0
 18 34  1  0  0  0
 19 20  1  0  0  0
 19 35  1  0  0  0
 19 36  1  0  0  0
 20 21  1  0  0  0
 20 37  1  0  0  0
 21 22  1  0  0  0
 21 38  1  0  0  0
 21 39  1  0  0  0
 22 40  1  0  0  0
 22 41  1  0  0  0
 23 24  2  0  0  0
 23 25  1  0  0  0
M  CHG  2  23   1  25  -1
M  END
> <s_m_entry_id>
32313

> <s_m_entry_name>
dock_pv.576

> <s_m_Source_Path>
/home/csk/Desktop/cluster/DUD-E-result/src

> <s_m_Source_File>
dock_pv.maegz

> <i_m_Source_File_Index>
576

> <chembl_id>
CHEMBL1172709

> <chembl_pref_name>
None

> <i_lp_mmshare_version>
53161

> <r_lp_tautomer_probability>
0.0419191988452545

> <s_lp_Force_Field>
OPLS_2005

> <r_lp_Energy>
33.906868

> <b_lp_Chiralities_Consistent>
1

> <s_lp_Variant>
CHEMBL267_lig1756-2

> <s_i_glide_gridfile>
glide-grid_3el8

> <i_i_glide_lignum>
1991

> <i_i_glide_rotatable_bonds>
4

> <r_i_docking_score>
-6.84435688195037

> <r_i_glide_ligand_efficiency>
-0.273774275278015

> <r_i_glide_ligand_efficiency_sa>
-0.800520836320362

> <r_i_glide_ligand_efficiency_ln>
-1.62231768984672

> <r_i_glide_gscore>
-6.84435688195037

> <r_i_glide_lipo>
-2.16644653554086

> <r_i_glide_hbond>
-0.397723753593286

> <r_i_glide_metal>
0

> <r_i_glide_rewards>
-1.76112277998048

> <r_i_glide_evdw>
-43.8586959838867

> <r_i_glide_ecoul>
-4.86387586593628

> <r_i_glide_erotb>
0.490440517729937

> <r_i_glide_esite>
-0.0869881514808947

> <r_i_glide_emodel>
-60.5063797654012

> <r_i_glide_energy>
-48.722571849823

> <r_i_glide_einternal>
13.6064157485962

> <i_i_glide_confnum>
13

> <i_i_glide_posenum>
400

> <r_i_glide_eff_state_penalty>
0

> <s_user_duplicate_titles>
CHEMBL267_lig1756

> <i_f3d_flags>
0

> <s_m_subgroup_title>
dock_pv

> <s_m_subgroupid>
dock_pv

> <b_m_subgroup_collapsed>
1

$$$$
CHEMBL267_lig3389
                    3D
 Schrodinger Suite 2021-1.
 46 49  0  0  1  0            999 V2000
    3.7780    9.0777    5.9873 S   0  0  0  0  0  0
    5.3145    9.8702    3.3976 O   0  0  0  0  0  0
    2.1996    7.0365   10.5945 N   0  0  0  0  0  0
    1.2724    6.1199   10.9178 N   0  0  0  0  0  0
    6.9749   11.2170    4.1552 N   0  0  0  0  0  0
   -0.6467    1.3363    8.3879 N   0  0  0  0  0  0
    1.2843    6.3791    8.6852 C   0  0  0  0  0  0
    2.2368    7.2678    9.2379 C   0  0  0  0  0  0
    0.7372    5.6724    9.8072 C   0  0  0  0  0  0
    2.8208    8.0559    7.0681 C   0  0  0  0  0  0
    2.9933    8.1411    8.4536 C   0  0  0  0  0  0
    1.0886    6.3699    7.2943 C   0  0  0  0  0  0
    5.5008    8.5917    6.1672 C   0  0  0  0  0  0
    1.8736    7.2046    6.5015 C   0  0  0  0  0  0
    6.5091    9.1708    5.3552 C   0  0  0  0  0  0
   -0.2035    4.5740    9.7875 C   0  0  0  0  0  0
    6.2000   10.1204    4.2162 C   0  0  0  0  0  0
    5.8743    7.6506    7.1409 C   0  0  0  0  0  0
    7.8504    8.8196    5.5880 C   0  0  0  0  0  0
   -0.2727    3.6444    8.8175 C   0  0  0  0  0  0
    7.2066    7.3061    7.3390 C   0  0  0  0  0  0
    8.1979    7.9034    6.5754 C   0  0  0  0  0  0
   -1.2006    2.5145    8.7796 C   0  0  0  0  0  0
   -2.5356    2.6156    9.1882 C   0  0  0  0  0  0
   -1.4220    0.2238    8.3857 C   0  0  0  0  0  0
   -3.3164    1.4565    9.1880 C   0  0  0  0  0  0
    6.8654   12.2675    3.1473 C   0  0  0  0  0  0
   -2.7571    0.2379    8.7880 C   0  0  0  0  0  0
    2.7583    7.4683   11.3161 H   0  0  0  0  0  0
    7.6743   11.3451    4.8698 H   0  0  0  0  0  0
    3.7147    8.8133    8.8897 H   0  0  0  0  0  0
    0.3454    5.7294    6.8422 H   0  0  0  0  0  0
    1.7442    7.1893    5.4282 H   0  0  0  0  0  0
   -0.8753    4.5317   10.6345 H   0  0  0  0  0  0
    5.1498    7.1388    7.7493 H   0  0  0  0  0  0
    8.6454    9.2384    4.9865 H   0  0  0  0  0  0
    0.4184    3.6987    7.9892 H   0  0  0  0  0  0
    7.4654    6.5635    8.0772 H   0  0  0  0  0  0
    9.2347    7.6421    6.7306 H   0  0  0  0  0  0
   -2.9554    3.5621    9.4981 H   0  0  0  0  0  0
   -0.9482   -0.6905    8.0601 H   0  0  0  0  0  0
   -4.3546    1.5057    9.4810 H   0  0  0  0  0  0
    7.7587   12.2780    2.5226 H   0  0  0  0  0  0
    6.0012   12.1441    2.4922 H   0  0  0  0  0  0
    6.7785   13.2396    3.6332 H   0  0  0  0  0  0
   -3.3528   -0.6621    8.7690 H   0  0  0  0  0  0
  1 10  1  0  0  0
  1 13  1  0  0  0
  2 17  2  0  0  0
  3  4  1  0  0  0
  3  8  1  0  0  0
  3 29  1  0  0  0
  4  9  2  0  0  0
  5 17  1  0  0  0
  5 27  1  0  0  0
  5 30  1  0  0  0
  6 23  1  0  0  0
  6 25  2  0  0  0
  7  8  1  0  0  0
  7  9  1  0  0  0
  7 12  2  0  0  0
  8 11  2  0  0  0
  9 16  1  0  0  0
 10 11  1  0  0  0
 10 14  2  0  0  0
 11 31  1  0  0  0
 12 14  1  0  0  0
 12 32  1  0  0  0
 13 15  1  0  0  0
 13 18  2  0  0  0
 14 33  1  0  0  0
 15 17  1  0  0  0
 15 19  2  0  0  0
 16 20  2  3  0  0
 16 34  1  0  0  0
 18 21  1  0  0  0
 18 35  1  0  0  0
 19 22  1  0  0  0
 19 36  1  0  0  0
 20 23  1  0  0  0
 20 37  1  0  0  0
 21 22  2  0  0  0
 21 38  1  0  0  0
 22 39  1  0  0  0
 23 24  2  0  0  0
 24 26  1  0  0  0
 24 40  1  0  0  0
 25 28  1  0  0  0
 25 41  1  0  0  0
 26 28  2  0  0  0
 26 42  1  0  0  0
 27 43  1  0  0  0
 27 44  1  0  0  0
 27 45  1  0  0  0
 28 46  1  0  0  0
M  END
> <s_m_entry_id>
32314

> <s_m_entry_name>
dock_pv.577

> <s_m_Source_Path>
/home/csk/Desktop/cluster/DUD-E-result/src

> <s_m_Source_File>
dock_pv.maegz

> <i_m_Source_File_Index>
577

> <chembl_id>
CHEMBL1988437

> <chembl_pref_name>
None

> <i_lp_mmshare_version>
53161

> <r_lp_tautomer_probability>
1

> <s_lp_Force_Field>
OPLS_2005

> <r_lp_Energy>
20.354649

> <b_lp_Chiralities_Consistent>
1

> <s_lp_Variant>
CHEMBL267_lig3389-1

> <s_i_glide_gridfile>
glide-grid_3el8

> <i_i_glide_lignum>
4031

> <i_i_glide_rotatable_bonds>
6

> <r_i_docking_score>
-6.84241309914481

> <r_i_glide_ligand_efficiency>
-0.244371896398029

> <r_i_glide_ligand_efficiency_sa>
-0.742057004814369

> <r_i_glide_ligand_efficiency_ln>
-1.57942984526095

> <r_i_glide_gscore>
-6.84241309914481

> <r_i_glide_lipo>
-4.00550886109234

> <r_i_glide_hbond>
0

> <r_i_glide_metal>
0

> <r_i_glide_rewards>
-1.18815993281355

> <r_i_glide_evdw>
-45.0507583618164

> <r_i_glide_ecoul>
-0.318530350923538

> <r_i_glide_erotb>
0.651573165490425

> <r_i_glide_esite>
0

> <r_i_glide_emodel>
-59.8450204889558

> <r_i_glide_energy>
-45.3692887127399

> <r_i_glide_einternal>
6.54646825790405

> <i_i_glide_confnum>
1

> <i_i_glide_posenum>
213

> <r_i_glide_eff_state_penalty>
0

> <s_user_duplicate_titles>
CHEMBL267_lig3389

> <i_f3d_flags>
0

> <s_m_subgroup_title>
dock_pv

> <s_m_subgroupid>
dock_pv

> <b_m_subgroup_collapsed>
1

$$$$
CHEMBL267_lig1174
                    3D
 Schrodinger Suite 2021-1.
 36 38  0  0  1  0            999 V2000
    3.3432    7.0802    8.5290 C   0  0  0  0  0  0
    3.0811    8.1160    7.6273 C   0  0  0  0  0  0
    4.0700    8.6315    6.7887 C   0  0  0  0  0  0
    4.6220    6.5242    8.5789 C   0  0  0  0  0  0
    5.6609    7.0393    7.7726 C   0  0  0  0  0  0
    5.3958    8.1205    6.8783 C   0  0  0  0  0  0
    6.4097    8.6488    6.1354 N   0  0  0  0  0  0
    7.6250    8.0875    6.3068 C   0  0  0  0  0  0
    7.9094    7.0415    7.1198 N   0  0  0  0  0  0
    6.9158    6.5099    7.8494 N   0  0  0  0  0  0
    8.6740    8.6370    5.5880 N   0  0  0  0  0  0
    2.2672    6.5763    9.4307 C   0  0  0  0  0  0
    2.3938    6.6705   10.8360 C   0  0  0  0  0  0
    1.3533    6.2372   11.6625 C   0  0  0  0  0  0
    0.2021    5.6818   11.1187 C   0  0  0  0  0  0
    0.0759    5.5636    9.7411 C   0  0  0  0  0  0
    1.0910    6.0094    8.8936 C   0  0  0  0  0  0
    3.6225    7.2815   11.5041 C   0  0  0  0  0  0
    0.8949    5.8259    7.3943 C   0  0  0  0  0  0
    3.7433    9.7494    5.8071 C   0  0  0  0  0  0
    2.0862    8.5323    7.5846 H   0  0  0  0  0  0
    4.8308    5.7060    9.2525 H   0  0  0  0  0  0
    8.4897    9.3979    4.9534 H   0  0  0  0  0  0
    9.5444    8.1164    5.5689 H   0  0  0  0  0  0
    1.4317    6.3241   12.7359 H   0  0  0  0  0  0
   -0.6011    5.3541   11.7640 H   0  0  0  0  0  0
   -0.8316    5.1364    9.3362 H   0  0  0  0  0  0
    4.4922    6.6371   11.3835 H   0  0  0  0  0  0
    3.8586    8.2474   11.0571 H   0  0  0  0  0  0
    3.4773    7.4379   12.5744 H   0  0  0  0  0  0
    1.8065    5.4428    6.9311 H   0  0  0  0  0  0
    0.1161    5.0936    7.1877 H   0  0  0  0  0  0
    0.6265    6.7648    6.9110 H   0  0  0  0  0  0
    4.3721   10.6207    5.9944 H   0  0  0  0  0  0
    3.9298    9.4180    4.7842 H   0  0  0  0  0  0
    2.7009   10.0637    5.8731 H   0  0  0  0  0  0
  1 12  1  0  0  0
  1  2  2  0  0  0
  1  4  1  0  0  0
  2  3  1  0  0  0
  2 21  1  0  0  0
  3  6  2  0  0  0
  3 20  1  0  0  0
  4  5  2  0  0  0
  4 22  1  0  0  0
  5 10  1  0  0  0
  5  6  1  0  0  0
  6  7  1  0  0  0
  7  8  2  0  0  0
  8 11  1  0  0  0
  8  9  1  0  0  0
  9 10  2  0  0  0
 11 23  1  0  0  0
 11 24  1  0  0  0
 12 13  2  0  0  0
 12 17  1  0  0  0
 13 14  1  0  0  0
 13 18  1  0  0  0
 14 15  2  0  0  0
 14 25  1  0  0  0
 15 16  1  0  0  0
 15 26  1  0  0  0
 16 17  2  0  0  0
 16 27  1  0  0  0
 17 19  1  0  0  0
 18 28  1  0  0  0
 18 29  1  0  0  0
 18 30  1  0  0  0
 19 31  1  0  0  0
 19 32  1  0  0  0
 19 33  1  0  0  0
 20 34  1  0  0  0
 20 35  1  0  0  0
 20 36  1  0  0  0
M  END
> <s_m_entry_id>
32315

> <s_m_entry_name>
dock_pv.578

> <s_m_Source_Path>
/home/csk/Desktop/cluster/DUD-E-result/src

> <s_m_Source_File>
dock_pv.maegz

> <i_m_Source_File_Index>
578

> <chembl_id>
CHEMBL218177

> <chembl_pref_name>
None

> <i_lp_mmshare_version>
53161

> <r_lp_tautomer_probability>
1

> <s_lp_Force_Field>
OPLS_2005

> <r_lp_Energy>
22.841416

> <b_lp_Chiralities_Consistent>
1

> <s_lp_Variant>
CHEMBL267_lig1174-1

> <s_i_glide_gridfile>
glide-grid_3el8

> <i_i_glide_lignum>
1321

> <i_i_glide_rotatable_bonds>
1

> <r_i_docking_score>
-6.84116159828435

> <r_i_glide_ligand_efficiency>
-0.342058079914218

> <r_i_glide_ligand_efficiency_sa>
-0.928488477090613

> <r_i_glide_ligand_efficiency_ln>
-1.71211711143988

> <r_i_glide_gscore>
-6.84116159828435

> <r_i_glide_lipo>
-2.3473234554084

> <r_i_glide_hbond>
-0.26834123699724

> <r_i_glide_metal>
0

> <r_i_glide_rewards>
-2.22268775811555

> <r_i_glide_evdw>
-33.7846870422363

> <r_i_glide_ecoul>
-3.78658318519592

> <r_i_glide_erotb>
0.254412682128043

> <r_i_glide_esite>
0

> <r_i_glide_emodel>
-52.6168363043405

> <r_i_glide_energy>
-37.5712702274323

> <r_i_glide_einternal>
0.0176900085061789

> <i_i_glide_confnum>
1

> <i_i_glide_posenum>
31

> <r_i_glide_eff_state_penalty>
0

> <s_user_duplicate_titles>
CHEMBL267_lig1174

> <i_f3d_flags>
0

> <s_m_subgroup_title>
dock_pv

> <s_m_subgroupid>
dock_pv

> <b_m_subgroup_collapsed>
1

$$$$
CHEMBL267_lig2312
                    3D
 Schrodinger Suite 2021-1.
 46 50  0  0  1  0            999 V2000
    8.0325    7.3470    7.3515 C   0  0  0  0  0  0
    7.0545    8.1578    6.5957 N   0  0  0  0  0  0
    7.5291    8.9686    5.5883 C   0  0  0  0  0  0
    8.7258    9.0367    5.2914 O   0  0  0  0  0  0
    6.5185    9.7794    4.8882 C   0  0  0  0  0  0
    5.2012    9.6602    5.1866 C   0  0  0  0  0  0
    4.7271    8.7520    6.2303 C   0  0  0  0  0  0
    3.3858    8.5818    6.5689 C   0  0  0  0  0  0
    3.0021    7.7581    7.5746 N   0  0  0  0  0  0
    3.9882    7.1064    8.2509 C   0  0  0  0  0  0
    3.6257    6.2555    9.2998 N   0  0  0  0  0  0
    2.3581    5.7101    9.5228 C   0  0  0  0  0  0
    1.5251    6.2371   10.5082 C   0  0  0  0  0  0
    0.2231    5.7697   10.7032 C   0  0  0  0  0  0
   -0.1912    4.7047    9.8963 C   0  0  0  0  0  0
   -1.4020    4.0552    9.7951 N   0  0  0  0  0  0
   -1.3319    3.0369    8.8781 C   0  0  0  0  0  0
   -0.0463    2.9860    8.3879 C   0  0  0  0  0  0
    0.6702    4.0937    8.9422 C   0  0  0  0  0  0
    1.9444    4.6371    8.7398 C   0  0  0  0  0  0
    5.3173    7.2100    7.9880 N   0  0  0  0  0  0
    5.6800    8.0267    6.9540 C   0  0  0  0  0  0
    7.1454   10.9489    3.6643 S   0  0  0  0  0  0
    5.7191   11.7508    2.9957 C   0  0  0  0  0  0
    4.8296   11.0382    2.1901 C   0  0  0  0  0  0
    3.7191   11.6842    1.6525 C   0  0  0  0  0  0
    3.5098   13.0354    1.9209 C   0  0  0  0  0  0
    2.4276   13.6604    1.4059 F   0  0  0  0  0  0
    4.4023   13.7481    2.7199 C   0  0  0  0  0  0
    5.5151   13.1055    3.2562 C   0  0  0  0  0  0
    7.7121    6.3052    7.3900 H   0  0  0  0  0  0
    9.0387    7.3551    6.9284 H   0  0  0  0  0  0
    8.1027    7.7167    8.3753 H   0  0  0  0  0  0
    4.4711   10.2765    4.6858 H   0  0  0  0  0  0
    2.6001    9.1092    6.0477 H   0  0  0  0  0  0
    4.3873    5.7740    9.7557 H   0  0  0  0  0  0
    1.8831    7.0580   11.1118 H   0  0  0  0  0  0
   -0.4354    6.2198   11.4335 H   0  0  0  0  0  0
   -2.2547    4.3050   10.2786 H   0  0  0  0  0  0
   -2.2019    2.4252    8.6719 H   0  0  0  0  0  0
    0.3160    2.2688    7.6675 H   0  0  0  0  0  0
    2.5979    4.2372    7.9809 H   0  0  0  0  0  0
    4.9982    9.9919    1.9875 H   0  0  0  0  0  0
    3.0240   11.1458    1.0255 H   0  0  0  0  0  0
    4.2347   14.7965    2.9153 H   0  0  0  0  0  0
    6.2123   13.6596    3.8687 H   0  0  0  0  0  0
  1  2  1  0  0  0
  1 31  1  0  0  0
  1 32  1  0  0  0
  1 33  1  0  0  0
  2  3  1  0  0  0
  2 22  1  0  0  0
  3  4  2  0  0  0
  3  5  1  0  0  0
  5  6  2  0  0  0
  5 23  1  0  0  0
  6  7  1  0  0  0
  6 34  1  0  0  0
  7  8  2  0  0  0
  7 22  1  0  0  0
  8  9  1  0  0  0
  8 35  1  0  0  0
  9 10  2  0  0  0
 10 11  1  0  0  0
 10 21  1  0  0  0
 11 12  1  0  0  0
 11 36  1  0  0  0
 12 13  2  0  0  0
 12 20  1  0  0  0
 13 14  1  0  0  0
 13 37  1  0  0  0
 14 15  2  0  0  0
 14 38  1  0  0  0
 15 16  1  0  0  0
 15 19  1  0  0  0
 16 17  1  0  0  0
 16 39  1  0  0  0
 17 18  2  0  0  0
 17 40  1  0  0  0
 18 19  1  0  0  0
 18 41  1  0  0  0
 19 20  2  0  0  0
 20 42  1  0  0  0
 21 22  2  0  0  0
 23 24  1  0  0  0
 24 25  2  0  0  0
 24 30  1  0  0  0
 25 26  1  0  0  0
 25 43  1  0  0  0
 26 27  2  0  0  0
 26 44  1  0  0  0
 27 28  1  0  0  0
 27 29  1  0  0  0
 29 30  2  0  0  0
 29 45  1  0  0  0
 30 46  1  0  0  0
M  END
> <s_m_entry_id>
32316

> <s_m_entry_name>
dock_pv.579

> <s_m_Source_Path>
/home/csk/Desktop/cluster/DUD-E-result/src

> <s_m_Source_File>
dock_pv.maegz

> <i_m_Source_File_Index>
579

> <chembl_id>
CHEMBL3702566

> <chembl_pref_name>
None

> <i_lp_mmshare_version>
53161

> <r_lp_tautomer_probability>
1

> <s_lp_Force_Field>
OPLS_2005

> <r_lp_Energy>
23.491535

> <b_lp_Chiralities_Consistent>
1

> <s_lp_Variant>
CHEMBL267_lig2312-1

> <s_i_glide_gridfile>
glide-grid_3el8

> <i_i_glide_lignum>
2613

> <i_i_glide_rotatable_bonds>
4

> <r_i_docking_score>
-6.83955720622081

> <r_i_glide_ligand_efficiency>
-0.22798524020736

> <r_i_glide_ligand_efficiency_sa>
-0.708403148446869

> <r_i_glide_ligand_efficiency_ln>
-1.55402192019795

> <r_i_glide_gscore>
-6.83955720622081

> <r_i_glide_lipo>
-3.07848088808886

> <r_i_glide_hbond>
-0.169658019482435

> <r_i_glide_metal>
0

> <r_i_glide_rewards>
-1.61830108579062

> <r_i_glide_evdw>
-46.2735404968262

> <r_i_glide_ecoul>
-0.754032015800476

> <r_i_glide_erotb>
0.453664614352487

> <r_i_glide_esite>
0

> <r_i_glide_emodel>
-60.4467877309581

> <r_i_glide_energy>
-47.0275725126266

> <r_i_glide_einternal>
10.6066236495972

> <i_i_glide_confnum>
4

> <i_i_glide_posenum>
164

> <r_i_glide_eff_state_penalty>
0

> <s_user_duplicate_titles>
CHEMBL267_lig2312

> <i_f3d_flags>
0

> <s_m_subgroup_title>
dock_pv

> <s_m_subgroupid>
dock_pv

> <b_m_subgroup_collapsed>
1

$$$$
CHEMBL267_lig124
                    3D
 Schrodinger Suite 2021-1.
 47 50  0  0  1  0            999 V2000
    2.1982    6.6370   12.3617 N   0  0  0  0  0  0
    3.3980    7.0873   11.9248 C   0  0  0  0  0  0
    3.7968    7.2293   10.6375 N   0  0  0  0  0  0
    1.3980    6.0468   11.4461 C   0  0  0  0  0  0
    1.7878    5.9245   10.1005 C   0  0  0  0  0  0
    2.9791    6.6279    9.7591 C   0  0  0  0  0  0
    3.0847    6.6217    8.3767 N   0  0  0  0  0  0
    2.1391    5.7279    7.9026 C   0  0  0  0  0  0
    1.3429    5.2293    8.9245 C   0  0  0  0  0  0
    0.3055    4.1590    8.8558 C   0  0  0  0  0  0
    0.6284    2.8659    8.4378 C   0  0  0  0  0  0
   -0.3348    1.8533    8.3880 C   0  0  0  0  0  0
   -1.6581    2.1602    8.7453 C   0  0  0  0  0  0
   -1.9858    3.4370    9.1880 C   0  0  0  0  0  0
   -1.0018    4.4193    9.2519 C   0  0  0  0  0  0
    3.9991    7.3587    7.5881 C   0  0  0  0  0  0
    3.5267    8.0831    6.4895 C   0  0  0  0  0  0
    4.4044    8.8665    5.7444 C   0  0  0  0  0  0
    5.7590    8.9360    6.0923 C   0  0  0  0  0  0
    6.2252    8.2064    7.1892 C   0  0  0  0  0  0
    5.3502    7.4273    7.9410 C   0  0  0  0  0  0
    0.1980    5.5404   11.9163 N   0  0  0  0  0  0
    0.0946    0.6032    7.9880 O   0  0  0  0  0  0
   -0.8555   -0.4459    7.8458 C   0  0  0  0  0  0
    6.7663    9.7810    5.3076 C   0  0  0  0  0  0
    6.2150   10.8113    4.2989 C   0  0  0  0  0  0
    5.4570   11.8093    4.9562 O   0  0  0  0  0  0
    4.0460    7.5150   12.6771 H   0  0  0  0  0  0
    2.1143    5.5025    6.8463 H   0  0  0  0  0  0
    1.6447    2.6370    8.1589 H   0  0  0  0  0  0
   -2.4411    1.4185    8.6983 H   0  0  0  0  0  0
   -3.0020    3.6732    9.4668 H   0  0  0  0  0  0
   -1.2734    5.4163    9.5599 H   0  0  0  0  0  0
    2.4813    8.0546    6.2162 H   0  0  0  0  0  0
    4.0147    9.4206    4.9045 H   0  0  0  0  0  0
    7.2683    8.2482    7.4675 H   0  0  0  0  0  0
    5.7280    6.8728    8.7880 H   0  0  0  0  0  0
   -0.4370    5.0895   11.2722 H   0  0  0  0  0  0
   -0.0432    5.6843   12.8844 H   0  0  0  0  0  0
   -0.3479   -1.3420    7.4884 H   0  0  0  0  0  0
   -1.3270   -0.6894    8.7986 H   0  0  0  0  0  0
   -1.6276   -0.1908    7.1177 H   0  0  0  0  0  0
    7.4261    9.0872    4.7880 H   0  0  0  0  0  0
    7.3980   10.3166    6.0144 H   0  0  0  0  0  0
    5.5883   10.3295    3.5475 H   0  0  0  0  0  0
    7.0364   11.2884    3.7627 H   0  0  0  0  0  0
    5.1868   12.4668    4.3095 H   0  0  0  0  0  0
  1  2  2  0  0  0
  1  4  1  0  0  0
  2  3  1  0  0  0
  2 28  1  0  0  0
  3  6  2  0  0  0
  4  5  2  0  0  0
  4 22  1  0  0  0
  5  9  1  0  0  0
  5  6  1  0  0  0
  6  7  1  0  0  0
  7  8  1  0  0  0
  7 16  1  0  0  0
  8  9  2  0  0  0
  8 29  1  0  0  0
  9 10  1  0  0  0
 10 15  1  0  0  0
 10 11  2  0  0  0
 11 12  1  0  0  0
 11 30  1  0  0  0
 12 23  1  0  0  0
 12 13  2  0  0  0
 13 14  1  0  0  0
 13 31  1  0  0  0
 14 15  2  0  0  0
 14 32  1  0  0  0
 15 33  1  0  0  0
 16 17  2  0  0  0
 16 21  1  0  0  0
 17 18  1  0  0  0
 17 34  1  0  0  0
 18 19  2  0  0  0
 18 35  1  0  0  0
 19 20  1  0  0  0
 19 25  1  0  0  0
 20 21  2  0  0  0
 20 36  1  0  0  0
 21 37  1  0  0  0
 22 38  1  0  0  0
 22 39  1  0  0  0
 23 24  1  0  0  0
 24 40  1  0  0  0
 24 41  1  0  0  0
 24 42  1  0  0  0
 25 26  1  0  0  0
 25 43  1  0  0  0
 25 44  1  0  0  0
 26 27  1  0  0  0
 26 45  1  0  0  0
 26 46  1  0  0  0
 27 47  1  0  0  0
M  END
> <s_m_entry_id>
32317

> <s_m_entry_name>
dock_pv.580

> <s_m_Source_Path>
/home/csk/Desktop/cluster/DUD-E-result/src

> <s_m_Source_File>
dock_pv.maegz

> <i_m_Source_File_Index>
580

> <chembl_id>
CHEMBL320417

> <chembl_pref_name>
None

> <i_lp_mmshare_version>
53161

> <r_lp_tautomer_probability>
1

> <s_lp_Force_Field>
OPLS_2005

> <r_lp_Energy>
20.614872

> <b_lp_Chiralities_Consistent>
1

> <s_lp_Variant>
CHEMBL267_lig124-1

> <s_i_glide_gridfile>
glide-grid_3el8

> <i_i_glide_lignum>
170

> <i_i_glide_rotatable_bonds>
6

> <r_i_docking_score>
-6.83908485894324

> <r_i_glide_ligand_efficiency>
-0.25329943922012

> <r_i_glide_ligand_efficiency_sa>
-0.759898316825526

> <r_i_glide_ligand_efficiency_ln>
-1.59202620403611

> <r_i_glide_gscore>
-6.83908485894324

> <r_i_glide_lipo>
-4.01231124347978

> <r_i_glide_hbond>
0

> <r_i_glide_metal>
0

> <r_i_glide_rewards>
-1.38040242656901

> <r_i_glide_evdw>
-37.4492340087891

> <r_i_glide_ecoul>
-1.09666633605957

> <r_i_glide_erotb>
0.590590461953941

> <r_i_glide_esite>
0

> <r_i_glide_emodel>
-44.5009733233809

> <r_i_glide_energy>
-38.5459003448486

> <r_i_glide_einternal>
7.04941082000732

> <i_i_glide_confnum>
62

> <i_i_glide_posenum>
367

> <r_i_glide_eff_state_penalty>
0

> <s_user_duplicate_titles>
CHEMBL267_lig124,170479

> <i_f3d_flags>
0

> <s_m_subgroup_title>
dock_pv

> <s_m_subgroupid>
dock_pv

> <b_m_subgroup_collapsed>
1

$$$$
CHEMBL267_lig2754
                    3D
 Schrodinger Suite 2021-1.
 44 47  0  0  1  0            999 V2000
    0.2877    8.0474    5.7287 N   0  0  0  0  0  0
    1.0030    8.6332    4.7393 C   0  0  0  0  0  0
    2.3407    8.8546    4.7096 N   0  0  0  0  0  0
    0.9708    7.6193    6.8155 C   0  0  0  0  0  0
    2.3729    7.7558    6.9066 C   0  0  0  0  0  0
    2.9766    8.3986    5.7984 C   0  0  0  0  0  0
    4.3356    8.4246    6.0559 N   0  0  0  0  0  0
    4.6174    7.8793    7.2571 N   0  0  0  0  0  0
    3.4921    7.4370    7.7698 C   0  0  0  0  0  0
    5.4197    8.8979    5.1970 C   0  0  0  0  0  0
    0.1980    7.0401    7.8077 N   0  0  0  0  0  0
    3.5656    6.7826    8.9779 O   0  0  0  0  0  0
    2.5004    6.0621    9.4528 C   0  0  0  0  0  0
    1.7985    6.5203   10.5695 C   0  0  0  0  0  0
    0.6668    5.8365   11.0185 C   0  0  0  0  0  0
    0.2476    4.6761   10.3643 C   0  0  0  0  0  0
    0.9760    4.1863    9.2773 C   0  0  0  0  0  0
    2.1034    4.8760    8.8273 C   0  0  0  0  0  0
    0.4682    2.7479    8.4700 Cl  0  0  0  0  0  0
    6.0914   10.2044    5.7068 C   0  0  2  0  0  0
    5.0845   11.3805    5.8072 C   0  0  0  0  0  0
    4.6402   11.8619    4.4146 C   0  0  0  0  0  0
    5.8382   12.1591    3.4896 C   0  0  0  0  0  0
    6.7756   11.0373    3.4278 N   0  0  2  0  0  0
    7.2432   10.6301    4.7551 C   0  0  0  0  0  0
    0.4422    8.9642    3.8757 H   0  0  0  0  0  0
    5.0296    9.0252    4.1861 H   0  0  0  0  0  0
    6.1600    8.0978    5.1328 H   0  0  0  0  0  0
    0.6658    6.6109    8.5941 H   0  0  0  0  0  0
   -0.7645    6.7945    7.5873 H   0  0  0  0  0  0
    2.1210    7.4215   11.0692 H   0  0  0  0  0  0
    0.1081    6.2054   11.8668 H   0  0  0  0  0  0
   -0.6346    4.1541   10.7064 H   0  0  0  0  0  0
    2.6490    4.5205    7.9662 H   0  0  0  0  0  0
    6.5162   10.0687    6.7031 H   0  0  0  0  0  0
    5.5457   12.2106    6.3442 H   0  0  0  0  0  0
    4.2038   11.0996    6.3859 H   0  0  0  0  0  0
    4.0423   12.7681    4.5216 H   0  0  0  0  0  0
    3.9729   11.1437    3.9351 H   0  0  0  0  0  0
    6.3665   13.0522    3.8296 H   0  0  0  0  0  0
    5.4829   12.3627    2.4787 H   0  0  0  0  0  0
    7.5627   11.3010    2.8501 H   0  0  0  0  0  0
    7.9419    9.8024    4.6356 H   0  0  0  0  0  0
    7.8319   11.4366    5.1879 H   0  0  0  0  0  0
  1  2  2  0  0  0
  1  4  1  0  0  0
  2  3  1  0  0  0
  2 26  1  0  0  0
  3  6  2  0  0  0
  4  5  2  0  0  0
  4 11  1  0  0  0
  5  6  1  0  0  0
  5  9  1  0  0  0
  6  7  1  0  0  0
  7  8  1  0  0  0
  7 10  1  0  0  0
  8  9  2  0  0  0
  9 12  1  0  0  0
 10 20  1  0  0  0
 10 27  1  0  0  0
 10 28  1  0  0  0
 11 29  1  0  0  0
 11 30  1  0  0  0
 12 13  1  0  0  0
 13 14  2  0  0  0
 13 18  1  0  0  0
 14 15  1  0  0  0
 14 31  1  0  0  0
 15 16  2  0  0  0
 15 32  1  0  0  0
 16 17  1  0  0  0
 16 33  1  0  0  0
 17 18  2  0  0  0
 17 19  1  0  0  0
 18 34  1  0  0  0
 20 21  1  0  0  0
 20 25  1  0  0  0
 20 35  1  0  0  0
 21 22  1  0  0  0
 21 36  1  0  0  0
 21 37  1  0  0  0
 22 23  1  0  0  0
 22 38  1  0  0  0
 22 39  1  0  0  0
 23 24  1  0  0  0
 23 40  1  0  0  0
 23 41  1  0  0  0
 24 25  1  0  0  0
 24 42  1  0  0  0
 25 43  1  0  0  0
 25 44  1  0  0  0
M  END
> <s_m_entry_id>
32318

> <s_m_entry_name>
dock_pv.581

> <s_m_Source_Path>
/home/csk/Desktop/cluster/DUD-E-result/src

> <s_m_Source_File>
dock_pv.maegz

> <i_m_Source_File_Index>
581

> <chembl_id>
CHEMBL4060191

> <chembl_pref_name>
None

> <i_lp_mmshare_version>
53161

> <r_lp_tautomer_probability>
1

> <s_lp_Force_Field>
OPLS_2005

> <r_lp_Energy>
20.654139

> <b_lp_Chiralities_Consistent>
1

> <s_lp_Variant>
CHEMBL267_lig2754-1

> <s_i_glide_gridfile>
glide-grid_3el8

> <i_i_glide_lignum>
3121

> <i_i_glide_rotatable_bonds>
4

> <r_i_docking_score>
-6.83448511888944

> <r_i_glide_ligand_efficiency>
-0.273379404755577

> <r_i_glide_ligand_efficiency_sa>
-0.799366227909696

> <r_i_glide_ligand_efficiency_ln>
-1.61997778616842

> <r_i_glide_gscore>
-6.83448511888944

> <r_i_glide_lipo>
-3.11472243819388

> <r_i_glide_hbond>
-0.32

> <r_i_glide_metal>
0

> <r_i_glide_rewards>
-1.55566646346949

> <r_i_glide_evdw>
-36.6792030334473

> <r_i_glide_ecoul>
-3.68297052383423

> <r_i_glide_erotb>
0.59524558033556

> <r_i_glide_esite>
-0.0529360673141358

> <r_i_glide_emodel>
-55.4546063113897

> <r_i_glide_energy>
-40.3621735572815

> <r_i_glide_einternal>
2.9842414855957

> <i_i_glide_confnum>
76

> <i_i_glide_posenum>
189

> <r_i_glide_eff_state_penalty>
0

> <s_user_duplicate_titles>
CHEMBL267_lig2754

> <i_f3d_flags>
0

> <s_m_subgroup_title>
dock_pv

> <s_m_subgroupid>
dock_pv

> <b_m_subgroup_collapsed>
1

$$$$
CHEMBL267_lig2770
                    3D
 Schrodinger Suite 2021-1.
 43 46  0  0  1  0            999 V2000
    6.0094    9.7112    4.1517 C   0  0  0  0  0  0
    0.8587    8.3465    5.7517 N   0  0  0  0  0  0
    1.7904    9.0118    5.0291 C   0  0  0  0  0  0
    3.1157    9.1222    5.2939 N   0  0  0  0  0  0
    1.2824    7.6947    6.8593 C   0  0  0  0  0  0
    2.6467    7.6987    7.2352 C   0  0  0  0  0  0
    3.5065    8.4644    6.3930 C   0  0  0  0  0  0
    4.7767    8.3947    6.9601 N   0  0  0  0  0  0
    4.7602    7.5924    8.0409 N   0  0  0  0  0  0
    3.5427    7.1582    8.2312 C   0  0  0  0  0  0
    6.0945    8.9730    6.6284 C   0  0  0  0  0  0
    0.2864    7.0494    7.5801 N   0  0  0  0  0  0
    3.3663    6.3048    9.2920 O   0  0  0  0  0  0
    2.1586    5.7390    9.5905 C   0  0  0  0  0  0
    1.4196    6.2366   10.6647 C   0  0  0  0  0  0
    0.2004    5.6543   11.0073 C   0  0  0  0  0  0
   -0.2727    4.5615   10.2841 C   0  0  0  0  0  0
    0.4776    4.0362    9.2331 C   0  0  0  0  0  0
    1.6925    4.6269    8.8834 C   0  0  0  0  0  0
   -0.0961    2.6547    8.3759 Cl  0  0  0  0  0  0
    6.1710   10.1582    5.6243 C   0  0  2  0  0  0
    5.4045   11.4422    5.9924 C   0  0  0  0  0  0
    5.5578   12.5165    4.9065 C   0  0  0  0  0  0
    5.1296   11.9687    3.6222 N   0  0  0  0  0  0
    5.4263   10.7405    3.1589 C   0  0  0  0  0  0
    5.2134   10.4711    1.9876 O   0  0  0  0  0  0
    5.4039    8.8095    4.0654 H   0  0  0  0  0  0
    6.9909    9.4393    3.7765 H   0  0  0  0  0  0
    1.4359    9.5182    4.1421 H   0  0  0  0  0  0
    6.7135    8.1516    6.2629 H   0  0  0  0  0  0
    6.5615    9.2864    7.5649 H   0  0  0  0  0  0
    0.5477    6.4794    8.3717 H   0  0  0  0  0  0
   -0.6463    6.9762    7.1858 H   0  0  0  0  0  0
    1.7985    7.0710   11.2350 H   0  0  0  0  0  0
   -0.3825    6.0427   11.8305 H   0  0  0  0  0  0
   -1.2198    4.1135   10.5494 H   0  0  0  0  0  0
    2.2660    4.2286    8.0619 H   0  0  0  0  0  0
    7.2166   10.4751    5.6635 H   0  0  0  0  0  0
    5.7790   11.8366    6.9361 H   0  0  0  0  0  0
    4.3457   11.2470    6.1548 H   0  0  0  0  0  0
    4.9722   13.4051    5.1439 H   0  0  0  0  0  0
    6.5964   12.8266    4.7866 H   0  0  0  0  0  0
    4.7174   12.5973    2.9483 H   0  0  0  0  0  0
  1 21  1  0  0  0
  1 25  1  0  0  0
  1 27  1  0  0  0
  1 28  1  0  0  0
  2  3  2  0  0  0
  2  5  1  0  0  0
  3  4  1  0  0  0
  3 29  1  0  0  0
  4  7  2  0  0  0
  5  6  2  0  0  0
  5 12  1  0  0  0
  6  7  1  0  0  0
  6 10  1  0  0  0
  7  8  1  0  0  0
  8  9  1  0  0  0
  8 11  1  0  0  0
  9 10  2  0  0  0
 10 13  1  0  0  0
 11 21  1  0  0  0
 11 30  1  0  0  0
 11 31  1  0  0  0
 12 32  1  0  0  0
 12 33  1  0  0  0
 13 14  1  0  0  0
 14 15  2  0  0  0
 14 19  1  0  0  0
 15 16  1  0  0  0
 15 34  1  0  0  0
 16 17  2  0  0  0
 16 35  1  0  0  0
 17 18  1  0  0  0
 17 36  1  0  0  0
 18 19  2  0  0  0
 18 20  1  0  0  0
 19 37  1  0  0  0
 21 22  1  0  0  0
 21 38  1  0  0  0
 22 23  1  0  0  0
 22 39  1  0  0  0
 22 40  1  0  0  0
 23 24  1  0  0  0
 23 41  1  0  0  0
 23 42  1  0  0  0
 24 25  1  0  0  0
 24 43  1  0  0  0
 25 26  2  0  0  0
M  END
> <s_m_entry_id>
32319

> <s_m_entry_name>
dock_pv.582

> <s_m_Source_Path>
/home/csk/Desktop/cluster/DUD-E-result/src

> <s_m_Source_File>
dock_pv.maegz

> <i_m_Source_File_Index>
582

> <chembl_id>
CHEMBL4080665

> <chembl_pref_name>
None

> <i_lp_mmshare_version>
53161

> <r_lp_tautomer_probability>
1

> <s_lp_Force_Field>
OPLS_2005

> <r_lp_Energy>
18.400766

> <b_lp_Chiralities_Consistent>
1

> <s_lp_Variant>
CHEMBL267_lig2770-1

> <s_i_glide_gridfile>
glide-grid_3el8

> <i_i_glide_lignum>
3140

> <i_i_glide_rotatable_bonds>
4

> <r_i_docking_score>
-6.83415602148487

> <r_i_glide_ligand_efficiency>
-0.262852154672495

> <r_i_glide_ligand_efficiency_sa>
-0.778698473943981

> <r_i_glide_ligand_efficiency_ln>
-1.60497911695078

> <r_i_glide_gscore>
-6.83415602148487

> <r_i_glide_lipo>
-3.10588802662617

> <r_i_glide_hbond>
-0.355421850137663

> <r_i_glide_metal>
0

> <r_i_glide_rewards>
-1.48796693053761

> <r_i_glide_evdw>
-38.4112892150879

> <r_i_glide_ecoul>
-3.23017930984497

> <r_i_glide_erotb>
0.555974442201986

> <r_i_glide_esite>
-0.0357622991542727

> <r_i_glide_emodel>
-55.6243577531811

> <r_i_glide_energy>
-41.6414685249329

> <r_i_glide_einternal>
6.81688261032104

> <i_i_glide_confnum>
15

> <i_i_glide_posenum>
70

> <r_i_glide_eff_state_penalty>
0

> <s_user_duplicate_titles>
CHEMBL267_lig2770

> <i_f3d_flags>
0

> <s_m_subgroup_title>
dock_pv

> <s_m_subgroupid>
dock_pv

> <b_m_subgroup_collapsed>
1

$$$$
CHEMBL267_lig34
                    3D
 Schrodinger Suite 2021-1.
 44 47  0  0  1  0            999 V2000
    2.0060    6.9376    9.4745 N   0  0  0  0  0  0
    2.8918    7.9536    9.3641 C   0  0  0  0  0  0
    2.9980    8.8383    8.3421 N   0  0  0  0  0  0
    1.1144    6.7723    8.4588 C   0  0  0  0  0  0
    0.4583    7.8039    6.0989 C   0  0  0  0  0  0
    1.1376    7.6256    7.3423 C   0  0  0  0  0  0
    2.1181    8.6370    7.3553 C   0  0  0  0  0  0
    2.0128    9.2915    6.1354 N   0  0  0  0  0  0
    0.9980    8.7772    5.4042 N   0  0  0  0  0  0
    2.8352   10.3729    5.5695 C   0  0  0  0  0  0
    3.9996    9.9307    4.6270 C   0  0  2  0  0  0
    3.3988    9.0370    3.2039 Cl  0  0  0  0  0  0
    5.1786    9.2089    5.2947 C   0  0  0  0  0  0
    4.9750    8.0727    6.0784 C   0  0  0  0  0  0
    6.0201    7.4965    6.7880 C   0  0  0  0  0  0
    7.3099    7.9699    6.6081 C   0  0  0  0  0  0
    7.5534    9.0370    5.7466 C   0  0  0  0  0  0
    6.4857    9.6794    5.1185 C   0  0  0  0  0  0
    0.1980    5.7198    8.5015 N   0  0  0  0  0  0
    0.0990    4.8379    9.6548 C   0  0  0  0  0  0
   -0.4472    3.5082    9.1880 C   0  0  0  0  0  0
   -1.8245    3.2852    9.1880 C   0  0  0  0  0  0
   -2.3135    2.0464    8.7880 C   0  0  0  0  0  0
   -1.4368    1.0404    8.3880 C   0  0  0  0  0  0
   -0.0658    1.2638    8.3880 C   0  0  0  0  0  0
    0.4344    2.5007    8.7880 C   0  0  0  0  0  0
   -1.9141   -0.1698    8.0202 F   0  0  0  0  0  0
    8.5980    7.1992    7.4494 Cl  0  0  0  0  0  0
    3.5919    8.0698   10.1794 H   0  0  0  0  0  0
   -0.3699    7.2314    5.7035 H   0  0  0  0  0  0
    3.2433   10.9623    6.3880 H   0  0  0  0  0  0
    2.1673   11.0429    5.0253 H   0  0  0  0  0  0
    4.3975   10.8550    4.2049 H   0  0  0  0  0  0
    4.0072    7.6095    6.1423 H   0  0  0  0  0  0
    5.8344    6.6454    7.4274 H   0  0  0  0  0  0
    8.5625    9.3885    5.5880 H   0  0  0  0  0  0
    6.6823   10.5349    4.4886 H   0  0  0  0  0  0
   -0.6220    5.7711    7.9001 H   0  0  0  0  0  0
    1.0650    4.6832   10.1384 H   0  0  0  0  0  0
   -0.5637    5.2809   10.4008 H   0  0  0  0  0  0
   -2.5096    4.0632    9.4969 H   0  0  0  0  0  0
   -3.3777    1.8592    8.7880 H   0  0  0  0  0  0
    0.5980    0.4650    8.0957 H   0  0  0  0  0  0
    1.5006    2.6706    8.7971 H   0  0  0  0  0  0
  1  2  2  0  0  0
  1  4  1  0  0  0
  2  3  1  0  0  0
  2 29  1  0  0  0
  3  7  2  0  0  0
  4  6  2  0  0  0
  4 19  1  0  0  0
  5  6  1  0  0  0
  5  9  2  0  0  0
  5 30  1  0  0  0
  6  7  1  0  0  0
  7  8  1  0  0  0
  8  9  1  0  0  0
  8 10  1  0  0  0
 10 11  1  0  0  0
 10 31  1  0  0  0
 10 32  1  0  0  0
 11 12  1  0  0  0
 11 13  1  0  0  0
 11 33  1  0  0  0
 13 14  2  0  0  0
 13 18  1  0  0  0
 14 15  1  0  0  0
 14 34  1  0  0  0
 15 16  2  0  0  0
 15 35  1  0  0  0
 16 17  1  0  0  0
 16 28  1  0  0  0
 17 18  2  0  0  0
 17 36  1  0  0  0
 18 37  1  0  0  0
 19 20  1  0  0  0
 19 38  1  0  0  0
 20 21  1  0  0  0
 20 39  1  0  0  0
 20 40  1  0  0  0
 21 22  2  0  0  0
 21 26  1  0  0  0
 22 23  1  0  0  0
 22 41  1  0  0  0
 23 24  2  0  0  0
 23 42  1  0  0  0
 24 25  1  0  0  0
 24 27  1  0  0  0
 25 26  2  0  0  0
 25 43  1  0  0  0
 26 44  1  0  0  0
M  END
> <s_m_entry_id>
32320

> <s_m_entry_name>
dock_pv.583

> <s_m_Source_Path>
/home/csk/Desktop/cluster/DUD-E-result/src

> <s_m_Source_File>
dock_pv.maegz

> <i_m_Source_File_Index>
583

> <chembl_id>
CHEMBL406658

> <chembl_pref_name>
None

> <i_lp_mmshare_version>
53161

> <r_lp_tautomer_probability>
1

> <s_lp_Force_Field>
OPLS_2005

> <r_lp_Energy>
10.402038

> <b_lp_Chiralities_Consistent>
1

> <s_lp_Variant>
CHEMBL267_lig34-1

> <s_i_glide_gridfile>
glide-grid_3el8

> <i_i_glide_lignum>
42

> <i_i_glide_rotatable_bonds>
6

> <r_i_docking_score>
-6.8331152680629

> <r_i_glide_ligand_efficiency>
-0.244039831002246

> <r_i_glide_ligand_efficiency_sa>
-0.741048658696713

> <r_i_glide_ligand_efficiency_ln>
-1.57728363285106

> <r_i_glide_gscore>
-6.8331152680629

> <r_i_glide_lipo>
-3.46659709353894

> <r_i_glide_hbond>
-0.32

> <r_i_glide_metal>
0

> <r_i_glide_rewards>
-1.25259468829829

> <r_i_glide_evdw>
-36.8616027832031

> <r_i_glide_ecoul>
-3.94652032852173

> <r_i_glide_erotb>
0.683989775910836

> <r_i_glide_esite>
-0.0428550736980883

> <r_i_glide_emodel>
-56.5184996330579

> <r_i_glide_energy>
-40.8081231117249

> <r_i_glide_einternal>
5.04428815841675

> <i_i_glide_confnum>
11

> <i_i_glide_posenum>
266

> <r_i_glide_eff_state_penalty>
0

> <s_user_duplicate_titles>
CHEMBL267_lig34

> <i_f3d_flags>
0

> <s_m_subgroup_title>
dock_pv

> <s_m_subgroupid>
dock_pv

> <b_m_subgroup_collapsed>
1

$$$$
CHEMBL267_lig3033
                    3D
 Schrodinger Suite 2021-1.
 47 49  0  0  1  0            999 V2000
   -0.9727    3.2102    9.0861 C   0  0  0  0  0  0
   -0.1544    2.0397    8.5060 C   0  0  0  0  0  0
    1.8234    6.5738    9.3191 N   0  0  0  0  0  0
    2.6061    7.6777    9.2706 C   0  0  0  0  0  0
    2.6175    8.6337    8.2998 N   0  0  0  0  0  0
    0.9853    6.3596    8.2765 C   0  0  0  0  0  0
    0.9135    7.2723    7.2151 C   0  0  0  0  0  0
    1.7636    8.3941    7.2946 C   0  0  0  0  0  0
    1.5635    9.0965    6.1095 N   0  0  0  0  0  0
    0.6092    8.5053    5.3562 N   0  0  0  0  0  0
    0.2060    7.4339    5.9876 C   0  0  0  0  0  0
    2.2345   10.2889    5.5699 C   0  0  0  0  0  0
    3.4004   10.0159    4.5748 C   0  0  1  0  0  0
    4.6871    9.4618    5.1974 C   0  0  0  0  0  0
    2.8665    9.0381    3.1821 Cl  0  0  0  0  0  0
    5.8987   10.1419    5.0224 C   0  0  0  0  0  0
    7.0690    9.6482    5.5974 C   0  0  0  0  0  0
    7.0213    8.5026    6.3920 C   0  0  0  0  0  0
    5.8213    7.8371    6.5824 C   0  0  0  0  0  0
    4.6751    8.2795    5.9403 C   0  0  0  0  0  0
    3.7965    7.8560   10.5564 S   0  0  0  0  0  0
    3.3383    6.7856   11.9434 C   0  0  0  0  0  0
   -0.1181    4.4434    9.4188 C   0  0  0  0  0  0
    8.4419    7.8597    7.1308 Cl  0  0  0  0  0  0
   -1.0064    0.7948    8.2240 C   0  0  0  0  0  0
    0.1980    5.2115    8.2256 N   0  0  0  0  0  0
   -1.7661    3.4829    8.3876 H   0  0  0  0  0  0
   -1.5018    2.9004    9.9836 H   0  0  0  0  0  0
    0.6447    1.7696    9.1978 H   0  0  0  0  0  0
    0.3424    2.3552    7.5891 H   0  0  0  0  0  0
   -0.5539    6.7913    5.5639 H   0  0  0  0  0  0
    1.4749   10.8979    5.0764 H   0  0  0  0  0  0
    2.6108   10.8918    6.3876 H   0  0  0  0  0  0
    3.6492   10.9838    4.1363 H   0  0  0  0  0  0
    5.9431   11.0455    4.4316 H   0  0  0  0  0  0
    8.0055   10.1607    5.4377 H   0  0  0  0  0  0
    5.7867    6.9425    7.1879 H   0  0  0  0  0  0
    3.7848    7.6808    6.0175 H   0  0  0  0  0  0
    4.1963    6.6285   12.5970 H   0  0  0  0  0  0
    2.5285    7.2030   12.5369 H   0  0  0  0  0  0
    2.9977    5.8329   11.5628 H   0  0  0  0  0  0
   -0.6332    5.0838   10.1374 H   0  0  0  0  0  0
    0.8051    4.1543    9.9246 H   0  0  0  0  0  0
   -0.3974   -0.0091    7.8091 H   0  0  0  0  0  0
   -1.8008    1.0120    7.5095 H   0  0  0  0  0  0
   -1.4736    0.4186    9.1345 H   0  0  0  0  0  0
   -0.5858    5.3205    7.5923 H   0  0  0  0  0  0
  1 23  1  0  0  0
  1  2  1  0  0  0
  1 27  1  0  0  0
  1 28  1  0  0  0
  2 25  1  0  0  0
  2 29  1  0  0  0
  2 30  1  0  0  0
  3  4  2  0  0  0
  3  6  1  0  0  0
  4  5  1  0  0  0
  4 21  1  0  0  0
  5  8  2  0  0  0
  6  7  2  0  0  0
  6 26  1  0  0  0
  7  8  1  0  0  0
  7 11  1  0  0  0
  8  9  1  0  0  0
  9 10  1  0  0  0
  9 12  1  0  0  0
 10 11  2  0  0  0
 11 31  1  0  0  0
 12 13  1  0  0  0
 12 32  1  0  0  0
 12 33  1  0  0  0
 13 14  1  0  0  0
 13 15  1  0  0  0
 13 34  1  0  0  0
 14 16  2  0  0  0
 14 20  1  0  0  0
 16 17  1  0  0  0
 16 35  1  0  0  0
 17 18  2  0  0  0
 17 36  1  0  0  0
 18 19  1  0  0  0
 18 24  1  0  0  0
 19 20  2  0  0  0
 19 37  1  0  0  0
 20 38  1  0  0  0
 21 22  1  0  0  0
 22 39  1  0  0  0
 22 40  1  0  0  0
 22 41  1  0  0  0
 23 26  1  0  0  0
 23 42  1  0  0  0
 23 43  1  0  0  0
 25 44  1  0  0  0
 25 45  1  0  0  0
 25 46  1  0  0  0
 26 47  1  0  0  0
M  END
> <s_m_entry_id>
32321

> <s_m_entry_name>
dock_pv.584

> <s_m_Source_Path>
/home/csk/Desktop/cluster/DUD-E-result/src

> <s_m_Source_File>
dock_pv.maegz

> <i_m_Source_File_Index>
584

> <chembl_id>
CHEMBL475337

> <chembl_pref_name>
None

> <i_lp_mmshare_version>
53161

> <r_lp_tautomer_probability>
1

> <s_lp_Force_Field>
OPLS_2005

> <r_lp_Energy>
4.354187

> <b_lp_Chiralities_Consistent>
1

> <s_lp_Variant>
CHEMBL267_lig3033-2

> <s_i_glide_gridfile>
glide-grid_3el8

> <i_i_glide_lignum>
3459

> <i_i_glide_rotatable_bonds>
8

> <r_i_docking_score>
-6.8327732037129

> <r_i_glide_ligand_efficiency>
-0.262798969373573

> <r_i_glide_ligand_efficiency_sa>
-0.778540912705198

> <r_i_glide_ligand_efficiency_ln>
-1.60465436673442

> <r_i_glide_gscore>
-6.8327732037129

> <r_i_glide_lipo>
-3.45840081016684

> <r_i_glide_hbond>
-0.32

> <r_i_glide_metal>
0

> <r_i_glide_rewards>
-1.11259282003643

> <r_i_glide_evdw>
-41.8340301513672

> <r_i_glide_ecoul>
-3.56133627891541

> <r_i_glide_erotb>
0.701887631626752

> <r_i_glide_esite>
-0.0177652557306992

> <r_i_glide_emodel>
-60.7520227733507

> <r_i_glide_energy>
-45.3953664302826

> <r_i_glide_einternal>
5.52717590332031

> <i_i_glide_confnum>
7

> <i_i_glide_posenum>
145

> <r_i_glide_eff_state_penalty>
0

> <s_user_duplicate_titles>
CHEMBL267_lig3033

> <i_f3d_flags>
0

> <s_m_subgroup_title>
dock_pv

> <s_m_subgroupid>
dock_pv

> <b_m_subgroup_collapsed>
1

$$$$
CHEMBL267_lig3191
                    3D
 Schrodinger Suite 2021-1.
 30 32  0  0  1  0            999 V2000
   -0.3397    2.7627    7.9880 O   0  0  0  0  0  0
    5.4813    7.0328    8.0818 N   0  0  0  0  0  0
    5.9944    8.5141    6.2311 N   0  0  0  0  0  0
    3.0850    6.7347    8.4847 C   0  0  0  0  0  0
    3.8098    8.1663    6.6837 C   0  0  0  0  0  0
    5.1381    7.8419    7.0769 C   0  0  0  0  0  0
    2.0138    6.1103    9.2951 C   0  0  0  0  0  0
    2.7638    7.5778    7.4132 C   0  0  0  0  0  0
    4.4359    6.5053    8.7740 C   0  0  0  0  0  0
    1.1652    5.1487    8.7352 C   0  0  0  0  0  0
    3.9130    9.0631    5.5705 C   0  0  0  0  0  0
    0.1062    4.5977    9.4725 C   0  0  0  0  0  0
    1.8216    6.4869   10.6271 C   0  0  0  0  0  0
    5.2634    9.2496    5.3275 C   0  0  0  0  0  0
   -0.0990    5.0342   10.7871 C   0  0  0  0  0  0
    0.7655    5.9578   11.3671 C   0  0  0  0  0  0
   -0.7326    3.5131    8.8794 C   0  0  0  0  0  0
   -2.1997    3.4369    9.2942 C   0  0  0  0  0  0
    7.0037    8.4907    6.2373 H   0  0  0  0  0  0
    1.7343    7.7820    7.1592 H   0  0  0  0  0  0
    4.7062    5.8472    9.5875 H   0  0  0  0  0  0
    1.3367    4.8383    7.7127 H   0  0  0  0  0  0
    3.1065    9.5137    5.0071 H   0  0  0  0  0  0
    2.4799    7.2125   11.0830 H   0  0  0  0  0  0
    5.7707    9.8454    4.5801 H   0  0  0  0  0  0
   -0.9100    4.6377   11.3822 H   0  0  0  0  0  0
    0.6146    6.2681   12.3903 H   0  0  0  0  0  0
   -2.6622    4.4173    9.1900 H   0  0  0  0  0  0
   -2.2933    3.1283   10.3349 H   0  0  0  0  0  0
   -2.7471    2.7365    8.6631 H   0  0  0  0  0  0
  1 17  2  0  0  0
  2  6  2  0  0  0
  2  9  1  0  0  0
  3  6  1  0  0  0
  3 14  1  0  0  0
  3 19  1  0  0  0
  4  7  1  0  0  0
  4  8  1  0  0  0
  4  9  2  0  0  0
  5  6  1  0  0  0
  5  8  2  0  0  0
  5 11  1  0  0  0
  7 10  2  0  0  0
  7 13  1  0  0  0
  8 20  1  0  0  0
  9 21  1  0  0  0
 10 12  1  0  0  0
 10 22  1  0  0  0
 11 14  2  0  0  0
 11 23  1  0  0  0
 12 15  2  0  0  0
 12 17  1  0  0  0
 13 16  2  0  0  0
 13 24  1  0  0  0
 14 25  1  0  0  0
 15 16  1  0  0  0
 15 26  1  0  0  0
 16 27  1  0  0  0
 17 18  1  0  0  0
 18 28  1  0  0  0
 18 29  1  0  0  0
 18 30  1  0  0  0
M  END
> <s_m_entry_id>
32322

> <s_m_entry_name>
dock_pv.585

> <s_m_Source_Path>
/home/csk/Desktop/cluster/DUD-E-result/src

> <s_m_Source_File>
dock_pv.maegz

> <i_m_Source_File_Index>
585

> <chembl_id>
CHEMBL2000568

> <chembl_pref_name>
None

> <i_lp_mmshare_version>
53161

> <r_lp_tautomer_probability>
0.999948432606831

> <s_lp_Force_Field>
OPLS_2005

> <r_lp_Energy>
16.517045

> <b_lp_Chiralities_Consistent>
1

> <s_lp_Variant>
CHEMBL267_lig3191-1

> <s_i_glide_gridfile>
glide-grid_3el8

> <i_i_glide_lignum>
3722

> <i_i_glide_rotatable_bonds>
2

> <r_i_docking_score>
-6.83107240853981

> <r_i_glide_ligand_efficiency>
-0.379504022696656

> <r_i_glide_ligand_efficiency_sa>
-0.994581900591683

> <r_i_glide_ligand_efficiency_ln>
-1.75589193877809

> <r_i_glide_gscore>
-6.83107240853981

> <r_i_glide_lipo>
-2.54630610104555

> <r_i_glide_hbond>
-0.21749713517738

> <r_i_glide_metal>
0

> <r_i_glide_rewards>
-2.53283920367203

> <r_i_glide_evdw>
-30.83837890625

> <r_i_glide_ecoul>
-2.00588154792786

> <r_i_glide_erotb>
0.308371208856827

> <r_i_glide_esite>
0

> <r_i_glide_emodel>
-44.0144013918208

> <r_i_glide_energy>
-32.8442604541779

> <r_i_glide_einternal>
4.29721689224243

> <i_i_glide_confnum>
1

> <i_i_glide_posenum>
3

> <r_i_glide_eff_state_penalty>
0

> <s_user_duplicate_titles>
CHEMBL267_lig3191

> <i_f3d_flags>
0

> <s_m_subgroup_title>
dock_pv

> <s_m_subgroupid>
dock_pv

> <b_m_subgroup_collapsed>
1

$$$$
CHEMBL267_lig3375
                    3D
 Schrodinger Suite 2021-1.
 27 29  0  0  1  0            999 V2000
    6.5980    9.6705    6.7879 Cl  0  0  0  0  0  0
    8.7925    7.3684    7.1877 Cl  0  0  0  0  0  0
    2.6384    5.7271    9.7185 N   0  0  0  0  0  0
    1.3317    5.5034    9.8190 N   0  0  0  0  0  0
    2.3592    8.1020    6.0457 N   0  0  0  0  0  0
    1.1010    8.2541    3.9859 N   0  0  0  0  0  0
    3.0202    6.3381    8.5504 C   0  0  0  0  0  0
    1.8217    6.5175    7.8345 C   0  0  0  0  0  0
    4.4529    6.6185    8.2532 C   0  0  0  0  0  0
    1.5453    7.0994    6.4742 C   0  0  0  0  0  0
    0.8531    5.9652    8.6921 C   0  0  0  0  0  0
    4.8524    7.8614    7.7716 C   0  0  0  0  0  0
    5.4124    5.6117    8.3880 C   0  0  0  0  0  0
    6.1762    8.1127    7.4110 C   0  0  0  0  0  0
    7.1262    7.0956    7.5406 C   0  0  0  0  0  0
    6.7294    5.8372    7.9880 C   0  0  0  0  0  0
    0.4923    6.6369    5.6723 C   0  0  0  0  0  0
    2.0950    8.6371    4.8258 C   0  0  0  0  0  0
    0.3077    7.2448    4.4275 C   0  0  0  0  0  0
    3.2829    5.4381   10.4461 H   0  0  0  0  0  0
   -0.2020    5.9021    8.4871 H   0  0  0  0  0  0
    4.1164    8.6370    7.6752 H   0  0  0  0  0  0
    5.1324    4.6370    8.7552 H   0  0  0  0  0  0
    7.4441    5.0370    8.0682 H   0  0  0  0  0  0
   -0.1561    5.8370    5.9878 H   0  0  0  0  0  0
    2.7425    9.4321    4.4870 H   0  0  0  0  0  0
   -0.4884    6.9321    3.7665 H   0  0  0  0  0  0
  1 14  1  0  0  0
  2 15  1  0  0  0
  3  4  1  0  0  0
  3 20  1  0  0  0
  3  7  1  0  0  0
  4 11  2  0  0  0
  5 10  1  0  0  0
  5 18  2  0  0  0
  6 18  1  0  0  0
  6 19  2  0  0  0
  7  9  1  0  0  0
  7  8  2  0  0  0
  8 11  1  0  0  0
  8 10  1  0  0  0
  9 12  1  0  0  0
  9 13  2  0  0  0
 10 17  2  0  0  0
 11 21  1  0  0  0
 12 14  2  0  0  0
 12 22  1  0  0  0
 13 16  1  0  0  0
 13 23  1  0  0  0
 14 15  1  0  0  0
 15 16  2  0  0  0
 16 24  1  0  0  0
 17 19  1  0  0  0
 17 25  1  0  0  0
 18 26  1  0  0  0
 19 27  1  0  0  0
M  END
> <s_m_entry_id>
32323

> <s_m_entry_name>
dock_pv.586

> <s_m_Source_Path>
/home/csk/Desktop/cluster/DUD-E-result/src

> <s_m_Source_File>
dock_pv.maegz

> <i_m_Source_File_Index>
586

> <chembl_id>
CHEMBL1984191

> <chembl_pref_name>
None

> <i_lp_mmshare_version>
53161

> <r_lp_tautomer_probability>
0.5

> <s_lp_Force_Field>
OPLS_2005

> <r_lp_Energy>
9.033962

> <b_lp_Chiralities_Consistent>
1

> <s_lp_Variant>
CHEMBL267_lig3375-2

> <s_i_glide_gridfile>
glide-grid_3el8

> <i_i_glide_lignum>
4015

> <i_i_glide_rotatable_bonds>
2

> <r_i_docking_score>
-6.82825024728258

> <r_i_glide_ligand_efficiency>
-0.359381591962241

> <r_i_glide_ligand_efficiency_sa>
-0.958974431571147

> <r_i_glide_ligand_efficiency_ln>
-1.73110809505426

> <r_i_glide_gscore>
-6.82825024728258

> <r_i_glide_lipo>
-2.98764438086491

> <r_i_glide_hbond>
-0.279043564272058

> <r_i_glide_metal>
0

> <r_i_glide_rewards>
-1.72792145595902

> <r_i_glide_evdw>
-31.6813659667969

> <r_i_glide_ecoul>
-4.53251075744629

> <r_i_glide_erotb>
0.430304065770198

> <r_i_glide_esite>
0

> <r_i_glide_emodel>
-49.8625859270176

> <r_i_glide_energy>
-36.2138767242432

> <r_i_glide_einternal>
1.9115868806839

> <i_i_glide_confnum>
2

> <i_i_glide_posenum>
208

> <r_i_glide_eff_state_penalty>
0

> <s_user_duplicate_titles>
CHEMBL267_lig3375,CHEMBL267_lig3375

> <i_f3d_flags>
0

> <s_m_subgroup_title>
dock_pv

> <s_m_subgroupid>
dock_pv

> <b_m_subgroup_collapsed>
1

$$$$
CHEMBL267_lig558
                    3D
 Schrodinger Suite 2021-1.
 44 46  0  0  1  0            999 V2000
    1.0109    6.3942    8.9806 C   0  0  0  0  0  0
    1.5437    7.1663    7.8979 C   0  0  0  0  0  0
   -0.1467    5.5761    8.8446 N   0  0  0  0  0  0
    2.7992    7.8265    8.0768 C   0  0  0  0  0  0
    1.6845    6.4997   10.2070 C   0  0  0  0  0  0
    0.8937    7.3139    6.6556 C   0  0  0  0  0  0
    3.4850    7.7828    9.2478 N   0  0  0  0  0  0
    3.3639    8.5659    7.0172 C   0  0  0  0  0  0
   -0.2020    4.1648    8.9370 C   0  0  0  0  0  0
    1.0407    6.0884   11.4276 C   0  0  0  0  0  0
    0.5087    5.7753   12.3880 N   0  0  0  0  0  0
    1.4756    8.0403    5.6056 C   0  0  0  0  0  0
    2.7065    8.6813    5.7878 C   0  0  0  0  0  0
   -1.4159    3.4453    8.8393 C   0  0  0  0  0  0
   -1.4185    2.0822    8.5554 C   0  0  0  0  0  0
    2.9127    7.1486   10.2910 C   0  0  0  0  0  0
    0.9741    3.4225    9.0721 C   0  0  0  0  0  0
   -0.2285    1.3738    8.5976 C   0  0  0  0  0  0
   -2.9474    4.1485    9.1880 Cl  0  0  0  0  0  0
    0.9320    2.0371    8.9784 C   0  0  0  0  0  0
    0.8839    8.1578    4.3628 O   0  0  0  0  0  0
    3.2087    9.4074    4.7185 O   0  0  0  0  0  0
   -0.2167   -0.3297    8.3225 Cl  0  0  0  0  0  0
   -0.2020    7.3070    4.0090 C   0  0  0  0  0  0
    4.4607   10.0881    4.8095 C   0  0  0  0  0  0
    5.6482    9.1280    4.6362 C   0  0  0  0  0  0
    0.1980    5.8370    3.9880 C   0  0  0  0  0  0
   -0.8687    5.9065    8.2097 H   0  0  0  0  0  0
   -0.0718    6.8476    6.5411 H   0  0  0  0  0  0
    4.3178    9.0370    7.1880 H   0  0  0  0  0  0
   -2.3523    1.5599    8.3950 H   0  0  0  0  0  0
    3.4490    7.2193   11.2288 H   0  0  0  0  0  0
    1.9250    3.9014    9.2500 H   0  0  0  0  0  0
    1.7980    1.4443    9.1880 H   0  0  0  0  0  0
   -1.0487    7.4370    4.6794 H   0  0  0  0  0  0
   -0.5414    7.6036    3.0167 H   0  0  0  0  0  0
    4.4851   10.8214    4.0030 H   0  0  0  0  0  0
    4.5396   10.6691    5.7296 H   0  0  0  0  0  0
    6.5946    9.6659    4.6930 H   0  0  0  0  0  0
    5.6633    8.3488    5.3975 H   0  0  0  0  0  0
    5.6051    8.6370    3.6641 H   0  0  0  0  0  0
   -0.6119    5.2268    3.5880 H   0  0  0  0  0  0
    1.0684    5.6894    3.3478 H   0  0  0  0  0  0
    0.4359    5.4370    4.9677 H   0  0  0  0  0  0
  1  2  1  0  0  0
  1  3  1  0  0  0
  1  5  2  0  0  0
  2  4  1  0  0  0
  2  6  2  0  0  0
  3  9  1  0  0  0
  3 28  1  0  0  0
  4  8  2  0  0  0
  4  7  1  0  0  0
  5 10  1  0  0  0
  5 16  1  0  0  0
  6 12  1  0  0  0
  6 29  1  0  0  0
  7 16  2  0  0  0
  8 13  1  0  0  0
  8 30  1  0  0  0
  9 14  1  0  0  0
  9 17  2  0  0  0
 10 11  3  0  0  0
 12 13  2  0  0  0
 12 21  1  0  0  0
 13 22  1  0  0  0
 14 15  2  0  0  0
 14 19  1  0  0  0
 15 18  1  0  0  0
 15 31  1  0  0  0
 16 32  1  0  0  0
 17 20  1  0  0  0
 17 33  1  0  0  0
 18 20  2  0  0  0
 18 23  1  0  0  0
 20 34  1  0  0  0
 21 24  1  0  0  0
 22 25  1  0  0  0
 24 27  1  0  0  0
 24 35  1  0  0  0
 24 36  1  0  0  0
 25 26  1  0  0  0
 25 37  1  0  0  0
 25 38  1  0  0  0
 26 39  1  0  0  0
 26 40  1  0  0  0
 26 41  1  0  0  0
 27 42  1  0  0  0
 27 43  1  0  0  0
 27 44  1  0  0  0
M  END
> <s_m_entry_id>
32324

> <s_m_entry_name>
dock_pv.587

> <s_m_Source_Path>
/home/csk/Desktop/cluster/DUD-E-result/src

> <s_m_Source_File>
dock_pv.maegz

> <i_m_Source_File_Index>
587

> <chembl_id>
CHEMBL168319

> <chembl_pref_name>
None

> <i_lp_mmshare_version>
53161

> <r_lp_tautomer_probability>
1

> <s_lp_Force_Field>
OPLS_2005

> <r_lp_Energy>
31.682031

> <b_lp_Chiralities_Consistent>
1

> <s_lp_Variant>
CHEMBL267_lig558-1

> <s_i_glide_gridfile>
glide-grid_3el8

> <i_i_glide_lignum>
661

> <i_i_glide_rotatable_bonds>
6

> <r_i_docking_score>
-6.82753734727028

> <r_i_glide_ligand_efficiency>
-0.252871753602603

> <r_i_glide_ligand_efficiency_sa>
-0.758615259974386

> <r_i_glide_ligand_efficiency_ln>
-1.58933813369425

> <r_i_glide_gscore>
-6.82753734727028

> <r_i_glide_lipo>
-3.8693205878124

> <r_i_glide_hbond>
-0.32

> <r_i_glide_metal>
0

> <r_i_glide_rewards>
-1.03392649360026

> <r_i_glide_evdw>
-28.9492263793945

> <r_i_glide_ecoul>
-3.93556094169617

> <r_i_glide_erotb>
0.4850257701915

> <r_i_glide_esite>
-0.0515205758249804

> <r_i_glide_emodel>
-30.3659891077169

> <r_i_glide_energy>
-32.8847873210907

> <r_i_glide_einternal>
5.76539182662964

> <i_i_glide_confnum>
11

> <i_i_glide_posenum>
44

> <r_i_glide_eff_state_penalty>
0

> <s_user_duplicate_titles>
CHEMBL267_lig558,280290

> <i_f3d_flags>
0

> <s_m_subgroup_title>
dock_pv

> <s_m_subgroupid>
dock_pv

> <b_m_subgroup_collapsed>
1

$$$$
CHEMBL267_lig691
                    3D
 Schrodinger Suite 2021-1.
 39 42  0  0  1  0            999 V2000
    3.1472    8.5798    5.8889 N   0  0  0  0  0  0
    2.6250    7.8438    6.9491 C   0  0  0  0  0  0
    4.5315    8.6583    6.0133 C   0  0  0  0  0  0
    3.7215    7.4367    7.7528 C   0  0  0  0  0  0
    4.8991    7.9000    7.1514 C   0  0  0  0  0  0
    1.3062    7.4822    7.2747 C   0  0  0  0  0  0
    5.4966    9.3098    5.2324 C   0  0  0  0  0  0
    6.2563    7.7395    7.4711 C   0  0  0  0  0  0
    3.4915    6.6826    8.9104 C   0  0  0  0  0  0
    6.8377    9.1494    5.5862 C   0  0  0  0  0  0
    1.1054    6.7301    8.4373 C   0  0  0  0  0  0
    2.1832    6.3469    9.2463 C   0  0  0  0  0  0
    7.2193    8.3351    6.6606 C   0  0  0  0  0  0
    2.3633    9.2234    4.8340 C   0  0  0  0  0  0
    7.7702    9.8365    4.8506 O   0  0  0  0  0  0
   -0.1761    6.3702    8.7881 O   0  0  0  0  0  0
    8.5409    8.0783    6.9414 O   0  0  0  0  0  0
    1.9834    5.6151   10.3879 O   0  0  0  0  0  0
    2.0343   10.6864    5.1096 C   0  0  0  0  0  0
    0.9981   11.0131    5.9880 C   0  0  0  0  0  0
    2.7539   11.7022    4.4745 C   0  0  0  0  0  0
    2.4359   13.0364    4.7140 C   0  0  0  0  0  0
    0.6766   12.3479    6.2253 C   0  0  0  0  0  0
    1.3981   13.3540    5.5873 C   0  0  0  0  0  0
    0.4685    7.7711    6.6585 H   0  0  0  0  0  0
    5.2252    9.9152    4.3814 H   0  0  0  0  0  0
    6.5567    7.1355    8.3141 H   0  0  0  0  0  0
    4.3142    6.3627    9.5324 H   0  0  0  0  0  0
    1.4398    8.6622    4.6853 H   0  0  0  0  0  0
    2.9066    9.1236    3.8925 H   0  0  0  0  0  0
    8.6557    9.8042    5.2208 H   0  0  0  0  0  0
   -0.8054    6.2369    8.0643 H   0  0  0  0  0  0
    9.1294    8.1346    6.1804 H   0  0  0  0  0  0
    2.8000    5.3382   10.8173 H   0  0  0  0  0  0
    0.4355   10.2351    6.4819 H   0  0  0  0  0  0
    3.5537   11.4630    3.7888 H   0  0  0  0  0  0
    2.9909   13.8200    4.2194 H   0  0  0  0  0  0
   -0.1259   12.6019    6.9031 H   0  0  0  0  0  0
    1.1530   14.3894    5.7722 H   0  0  0  0  0  0
  1  2  1  0  0  0
  1  3  1  0  0  0
  1 14  1  0  0  0
  2  4  2  0  0  0
  2  6  1  0  0  0
  3  5  2  0  0  0
  3  7  1  0  0  0
  4  9  1  0  0  0
  4  5  1  0  0  0
  5  8  1  0  0  0
  6 11  2  0  0  0
  6 25  1  0  0  0
  7 10  2  0  0  0
  7 26  1  0  0  0
  8 13  2  0  0  0
  8 27  1  0  0  0
  9 12  2  0  0  0
  9 28  1  0  0  0
 10 13  1  0  0  0
 10 15  1  0  0  0
 11 12  1  0  0  0
 11 16  1  0  0  0
 12 18  1  0  0  0
 13 17  1  0  0  0
 14 19  1  0  0  0
 14 29  1  0  0  0
 14 30  1  0  0  0
 15 31  1  0  0  0
 16 32  1  0  0  0
 17 33  1  0  0  0
 18 34  1  0  0  0
 19 20  1  0  0  0
 19 21  2  0  0  0
 20 23  2  0  0  0
 20 35  1  0  0  0
 21 22  1  0  0  0
 21 36  1  0  0  0
 22 24  2  0  0  0
 22 37  1  0  0  0
 23 24  1  0  0  0
 23 38  1  0  0  0
 24 39  1  0  0  0
M  END
> <s_m_entry_id>
32325

> <s_m_entry_name>
dock_pv.588

> <s_m_Source_Path>
/home/csk/Desktop/cluster/DUD-E-result/src

> <s_m_Source_File>
dock_pv.maegz

> <i_m_Source_File_Index>
588

> <chembl_id>
CHEMBL70750

> <chembl_pref_name>
None

> <i_lp_mmshare_version>
53161

> <r_lp_tautomer_probability>
1

> <s_lp_Force_Field>
OPLS_2005

> <r_lp_Energy>
17.479596

> <b_lp_Chiralities_Consistent>
1

> <s_lp_Variant>
CHEMBL267_lig691-1

> <s_i_glide_gridfile>
glide-grid_3el8

> <i_i_glide_lignum>
810

> <i_i_glide_rotatable_bonds>
6

> <r_i_docking_score>
-6.82514510693921

> <r_i_glide_ligand_efficiency>
-0.284381046122467

> <r_i_glide_ligand_efficiency_sa>
-0.820296882278416

> <r_i_glide_ligand_efficiency_ln>
-1.63357040959207

> <r_i_glide_gscore>
-6.82514510693921

> <r_i_glide_lipo>
-2.94271593272811

> <r_i_glide_hbond>
0

> <r_i_glide_metal>
0

> <r_i_glide_rewards>
-1.4108120897518

> <r_i_glide_evdw>
-31.0213451385498

> <r_i_glide_ecoul>
-8.54989719390869

> <r_i_glide_erotb>
0.361934751554487

> <r_i_glide_esite>
0

> <r_i_glide_emodel>
-53.2328799071894

> <r_i_glide_energy>
-39.5712423324585

> <r_i_glide_einternal>
1.36101138591766

> <i_i_glide_confnum>
2

> <i_i_glide_posenum>
326

> <r_i_glide_eff_state_penalty>
0

> <s_user_duplicate_titles>
CHEMBL267_lig691

> <i_f3d_flags>
0

> <s_m_subgroup_title>
dock_pv

> <s_m_subgroupid>
dock_pv

> <b_m_subgroup_collapsed>
1

$$$$
CHEMBL267_lig2043
                    3D
 Schrodinger Suite 2021-1.
 52 55  0  0  1  0            999 V2000
    3.1688    9.4007    5.0632 N   0  0  0  0  0  0
    1.8921    9.9091    5.5881 C   0  0  0  0  0  0
    0.8578    8.7622    5.5630 C   0  0  0  0  0  0
    0.5986    8.3425    4.1844 N   0  0  0  0  0  0
    1.8549    7.9410    3.5456 C   0  0  0  0  0  0
    2.9615    9.0380    3.6521 C   0  0  0  0  0  0
    0.9036    3.3543    8.5041 C   0  0  0  0  0  0
   -0.2681    3.4362    9.2411 C   0  0  0  0  0  0
   -0.6018    4.6024    9.9135 C   0  0  0  0  0  0
    0.2080    5.7254    9.7932 C   0  0  0  0  0  0
    1.3794    5.6720    9.0230 C   0  0  0  0  0  0
    1.7223    4.4717    8.3879 C   0  0  0  0  0  0
    2.1520    6.9276    8.7624 C   0  0  0  0  0  0
    3.6045    6.9027    8.3772 C   0  0  0  0  0  0
    1.5555    8.0076    8.7879 O   0  0  0  0  0  0
    4.4797    5.8909    8.7881 C   0  0  0  0  0  0
    5.8190    5.8827    8.3979 C   0  0  0  0  0  0
    4.0753    7.9619    7.5936 C   0  0  0  0  0  0
    5.3911    7.9243    7.1318 C   0  0  0  0  0  0
    6.2859    6.9253    7.5887 C   0  0  0  0  0  0
    7.5440    7.1286    7.1046 N   0  0  0  0  0  0
    7.4141    8.1508    6.3048 C   0  0  0  0  0  0
    6.1294    8.6729    6.2184 N   0  0  0  0  0  0
    8.4642    8.6364    5.5879 N   0  0  0  0  0  0
    5.7066    9.7089    5.2377 C   0  0  0  0  0  0
    4.2789   10.3187    5.3550 C   0  0  0  0  0  0
   -0.3169    7.2028    4.2004 C   0  0  0  0  0  0
    2.0000   10.2519    6.6157 H   0  0  0  0  0  0
    1.5395   10.7629    5.0059 H   0  0  0  0  0  0
   -0.0721    9.0983    6.0230 H   0  0  0  0  0  0
    1.2162    7.9195    6.1567 H   0  0  0  0  0  0
    1.6720    7.7156    2.4940 H   0  0  0  0  0  0
    2.1980    7.0167    4.0110 H   0  0  0  0  0  0
    2.6833    9.9168    3.0670 H   0  0  0  0  0  0
    3.8875    8.6569    3.2221 H   0  0  0  0  0  0
    1.1502    2.4377    7.9916 H   0  0  0  0  0  0
   -0.9191    2.5774    9.3087 H   0  0  0  0  0  0
   -1.5067    4.6370   10.5005 H   0  0  0  0  0  0
   -0.0967    6.6364   10.2889 H   0  0  0  0  0  0
    2.5883    4.4001    7.7457 H   0  0  0  0  0  0
    4.1251    5.0951    9.4276 H   0  0  0  0  0  0
    6.4849    5.1001    8.7327 H   0  0  0  0  0  0
    3.4160    8.7666    7.3444 H   0  0  0  0  0  0
    9.3125    8.0852    5.5155 H   0  0  0  0  0  0
    8.4197    9.4939    5.0609 H   0  0  0  0  0  0
    6.4281   10.5242    5.2999 H   0  0  0  0  0  0
    5.8341    9.2740    4.2463 H   0  0  0  0  0  0
    4.1750   10.7330    6.3590 H   0  0  0  0  0  0
    4.2001   11.1751    4.6826 H   0  0  0  0  0  0
   -1.2291    7.4359    4.7485 H   0  0  0  0  0  0
   -0.6022    6.9291    3.1877 H   0  0  0  0  0  0
    0.1257    6.3241    4.6748 H   0  0  0  0  0  0
  1  2  1  0  0  0
  1  6  1  0  0  0
  1 26  1  0  0  0
  2  3  1  0  0  0
  2 28  1  0  0  0
  2 29  1  0  0  0
  3  4  1  0  0  0
  3 30  1  0  0  0
  3 31  1  0  0  0
  4  5  1  0  0  0
  4 27  1  0  0  0
  5  6  1  0  0  0
  5 32  1  0  0  0
  5 33  1  0  0  0
  6 34  1  0  0  0
  6 35  1  0  0  0
  7  8  2  0  0  0
  7 12  1  0  0  0
  7 36  1  0  0  0
  8  9  1  0  0  0
  8 37  1  0  0  0
  9 10  2  0  0  0
  9 38  1  0  0  0
 10 11  1  0  0  0
 10 39  1  0  0  0
 11 12  2  0  0  0
 11 13  1  0  0  0
 12 40  1  0  0  0
 13 14  1  0  0  0
 13 15  2  0  0  0
 14 16  2  0  0  0
 14 18  1  0  0  0
 16 17  1  0  0  0
 16 41  1  0  0  0
 17 20  2  0  0  0
 17 42  1  0  0  0
 18 19  2  0  0  0
 18 43  1  0  0  0
 19 20  1  0  0  0
 19 23  1  0  0  0
 20 21  1  0  0  0
 21 22  2  0  0  0
 22 23  1  0  0  0
 22 24  1  0  0  0
 23 25  1  0  0  0
 24 44  1  0  0  0
 24 45  1  0  0  0
 25 26  1  0  0  0
 25 46  1  0  0  0
 25 47  1  0  0  0
 26 48  1  0  0  0
 26 49  1  0  0  0
 27 50  1  0  0  0
 27 51  1  0  0  0
 27 52  1  0  0  0
M  END
> <s_m_entry_id>
32326

> <s_m_entry_name>
dock_pv.589

> <s_m_Source_Path>
/home/csk/Desktop/cluster/DUD-E-result/src

> <s_m_Source_File>
dock_pv.maegz

> <i_m_Source_File_Index>
589

> <chembl_id>
CHEMBL2059361

> <chembl_pref_name>
None

> <i_lp_mmshare_version>
53161

> <r_lp_tautomer_probability>
1

> <s_lp_Force_Field>
OPLS_2005

> <r_lp_Energy>
48.716073

> <b_lp_Chiralities_Consistent>
1

> <s_lp_Variant>
CHEMBL267_lig2043-1

> <s_i_glide_gridfile>
glide-grid_3el8

> <i_i_glide_lignum>
2327

> <i_i_glide_rotatable_bonds>
5

> <r_i_docking_score>
-6.8229263036116

> <r_i_glide_ligand_efficiency>
-0.252700974207837

> <r_i_glide_ligand_efficiency_sa>
-0.75810292179065

> <r_i_glide_ligand_efficiency_ln>
-1.58826475874951

> <r_i_glide_gscore>
-6.8229263036116

> <r_i_glide_lipo>
-2.86436022919303

> <r_i_glide_hbond>
-0.315256827545439

> <r_i_glide_metal>
0

> <r_i_glide_rewards>
-1.91993143457185

> <r_i_glide_evdw>
-37.013053894043

> <r_i_glide_ecoul>
-3.99974250793457

> <r_i_glide_erotb>
0.72723625859105

> <r_i_glide_esite>
0

> <r_i_glide_emodel>
-53.2683794603744

> <r_i_glide_energy>
-41.0127964019775

> <r_i_glide_einternal>
7.55878734588623

> <i_i_glide_confnum>
96

> <i_i_glide_posenum>
334

> <r_i_glide_eff_state_penalty>
0

> <s_user_duplicate_titles>
CHEMBL267_lig2043

> <i_f3d_flags>
0

> <s_m_subgroup_title>
dock_pv

> <s_m_subgroupid>
dock_pv

> <b_m_subgroup_collapsed>
1

$$$$
CHEMBL267_lig3138
                    3D
 Schrodinger Suite 2021-1.
 42 46  0  0  1  0            999 V2000
    1.7971    6.3719    5.7778 O   0  0  0  0  0  0
    5.0777   12.2369    5.9880 O   0  0  0  0  0  0
    1.5629    9.8375    1.8903 N   0  0  0  0  0  0
    1.9478    8.4772    6.6514 N   0  0  0  0  0  0
    4.9683   13.0458    3.9019 N   0  0  0  0  0  0
    4.7192   13.2605    2.5582 N   0  0  0  0  0  0
    2.9136   10.8676    3.3531 C   0  0  0  0  0  0
    3.5256   11.1033    4.5867 C   0  0  0  0  0  0
    1.9650    9.8120    3.2071 C   0  0  0  0  0  0
    3.0514   11.5059    2.0951 C   0  0  0  0  0  0
    1.7516    6.6128    8.1851 C   0  0  1  0  0  0
    3.0613    6.2758    8.9081 C   0  0  1  0  0  0
    2.2210    9.2310    5.5007 C   0  0  0  0  0  0
    3.1381   10.2724    5.6496 C   0  0  0  0  0  0
    1.6067    8.9760    4.2687 C   0  0  0  0  0  0
    1.8331    7.1387    6.7403 C   0  0  0  0  0  0
    4.5751   12.1659    4.8658 C   0  0  0  0  0  0
    2.2069    5.1620    8.3752 C   0  0  0  0  0  0
    2.1979   10.8559    1.2228 C   0  0  0  0  0  0
    4.4780    6.5424    8.3968 C   0  0  0  0  0  0
    3.9243   12.6145    1.7974 C   0  0  0  0  0  0
    4.8667    7.8275    8.0145 C   0  0  0  0  0  0
    5.4171    5.5098    8.3956 C   0  0  0  0  0  0
    6.1714    8.0721    7.5893 C   0  0  0  0  0  0
    6.7266    5.7522    7.9881 C   0  0  0  0  0  0
    7.0979    7.0324    7.5813 C   0  0  0  0  0  0
    0.9289    9.1915    1.4288 H   0  0  0  0  0  0
    2.0517    8.9672    7.5254 H   0  0  0  0  0  0
    5.6514   13.7265    4.2040 H   0  0  0  0  0  0
    0.8917    6.9600    8.7571 H   0  0  0  0  0  0
    3.0081    6.3929    9.9922 H   0  0  0  0  0  0
    3.5807   10.4219    6.6237 H   0  0  0  0  0  0
    0.8888    8.1771    4.1453 H   0  0  0  0  0  0
    1.6671    4.5322    9.0827 H   0  0  0  0  0  0
    2.5779    4.5799    7.5291 H   0  0  0  0  0  0
    2.0094   11.0100    0.1678 H   0  0  0  0  0  0
    3.9102   12.9544    0.7642 H   0  0  0  0  0  0
    4.1573    8.6369    8.0542 H   0  0  0  0  0  0
    5.1360    4.5214    8.7266 H   0  0  0  0  0  0
    6.4631    9.0654    7.2791 H   0  0  0  0  0  0
    7.4449    4.9454    7.9889 H   0  0  0  0  0  0
    8.1117    7.2222    7.2599 H   0  0  0  0  0  0
  1 16  2  0  0  0
  2 17  2  0  0  0
  3  9  1  0  0  0
  3 19  1  0  0  0
  3 27  1  0  0  0
  4 13  1  0  0  0
  4 16  1  0  0  0
  4 28  1  0  0  0
  5  6  1  0  0  0
  5 17  1  0  0  0
  5 29  1  0  0  0
  6 21  2  0  0  0
  7  8  2  0  0  0
  7  9  1  0  0  0
  7 10  1  0  0  0
  8 14  1  0  0  0
  8 17  1  0  0  0
  9 15  2  0  0  0
 10 19  2  0  0  0
 10 21  1  0  0  0
 11 12  1  0  0  0
 11 16  1  0  0  0
 11 18  1  0  0  0
 11 30  1  0  0  0
 12 18  1  0  0  0
 12 20  1  0  0  0
 12 31  1  0  0  0
 13 14  2  0  0  0
 13 15  1  0  0  0
 14 32  1  0  0  0
 15 33  1  0  0  0
 18 34  1  0  0  0
 18 35  1  0  0  0
 19 36  1  0  0  0
 20 22  2  0  0  0
 20 23  1  0  0  0
 21 37  1  0  0  0
 22 24  1  0  0  0
 22 38  1  0  0  0
 23 25  2  0  0  0
 23 39  1  0  0  0
 24 26  2  0  0  0
 24 40  1  0  0  0
 25 26  1  0  0  0
 25 41  1  0  0  0
 26 42  1  0  0  0
M  END
> <s_m_entry_id>
32327

> <s_m_entry_name>
dock_pv.590

> <s_m_Source_Path>
/home/csk/Desktop/cluster/DUD-E-result/src

> <s_m_Source_File>
dock_pv.maegz

> <i_m_Source_File_Index>
590

> <chembl_id>
CHEMBL1969502

> <chembl_pref_name>
None

> <i_lp_mmshare_version>
53161

> <r_lp_tautomer_probability>
1

> <s_lp_Force_Field>
OPLS_2005

> <r_lp_Energy>
46.691957

> <b_lp_Chiralities_Consistent>
1

> <s_lp_Variant>
CHEMBL267_lig3138-4

> <s_i_glide_gridfile>
glide-grid_3el8

> <i_i_glide_lignum>
3642

> <i_i_glide_rotatable_bonds>
4

> <r_i_docking_score>
-6.82053961115113

> <r_i_glide_ligand_efficiency>
-0.262328446582736

> <r_i_glide_ligand_efficiency_sa>
-0.777146990788761

> <r_i_glide_ligand_efficiency_ln>
-1.60178134766298

> <r_i_glide_gscore>
-6.82053961115113

> <r_i_glide_lipo>
-2.5011814723143

> <r_i_glide_hbond>
-0.32

> <r_i_glide_metal>
0

> <r_i_glide_rewards>
-1.94504595229302

> <r_i_glide_evdw>
-35.8665771484375

> <r_i_glide_ecoul>
-5.77126884460449

> <r_i_glide_erotb>
0.640418036685048

> <r_i_glide_esite>
-0.0357110391163038

> <r_i_glide_emodel>
-53.476238996487

> <r_i_glide_energy>
-41.637845993042

> <r_i_glide_einternal>
8.17800331115723

> <i_i_glide_confnum>
14

> <i_i_glide_posenum>
379

> <r_i_glide_eff_state_penalty>
0

> <s_user_duplicate_titles>
CHEMBL267_lig3138

> <i_f3d_flags>
0

> <s_m_subgroup_title>
dock_pv

> <s_m_subgroupid>
dock_pv

> <b_m_subgroup_collapsed>
1

$$$$
CHEMBL267_lig1889
                    3D
 Schrodinger Suite 2021-1.
 35 37  0  0  1  0            999 V2000
    2.7086    9.5562    5.0019 N   0  0  0  0  0  0
    4.0313    9.7147    4.7477 C   0  0  0  0  0  0
    5.0758    9.1660    5.4205 N   0  0  0  0  0  0
    2.3730    8.7548    6.0417 C   0  0  0  0  0  0
    3.3601    8.1246    6.8269 C   0  0  0  0  0  0
    4.6978    8.3807    6.4390 C   0  0  0  0  0  0
    5.4929    7.6832    7.3362 N   0  0  0  0  0  0
    4.7366    7.0671    8.2678 N   0  0  0  0  0  0
    3.4735    7.2720    7.9806 C   0  0  0  0  0  0
    2.4103    6.6537    8.8202 C   0  0  0  0  0  0
    2.4752    6.7729   10.2157 C   0  0  0  0  0  0
    1.4682    6.2373   11.0186 C   0  0  0  0  0  0
    0.4141    5.5385   10.4284 C   0  0  0  0  0  0
    0.3570    5.3920    9.0475 C   0  0  0  0  0  0
    1.3379    5.9636    8.2419 C   0  0  0  0  0  0
    1.0144    8.6137    6.2947 N   0  0  0  0  0  0
    6.9457    7.6890    7.5270 C   0  0  0  0  0  0
    7.3178    8.9744    8.2718 C   0  0  0  0  0  0
    7.7161    7.5364    6.2011 C   0  0  0  0  0  0
   -0.6020    5.0372   11.1879 O   0  0  0  0  0  0
    1.4974    6.4381   12.3569 F   0  0  0  0  0  0
    1.2457    5.8372    6.8999 F   0  0  0  0  0  0
    4.2834   10.3525    3.9120 H   0  0  0  0  0  0
    3.2934    7.3049   10.6802 H   0  0  0  0  0  0
   -0.4542    4.8359    8.6046 H   0  0  0  0  0  0
    0.7208    7.8957    6.9394 H   0  0  0  0  0  0
    0.3667    9.0447    5.6520 H   0  0  0  0  0  0
    7.2016    6.8318    8.1533 H   0  0  0  0  0  0
    8.3916    9.0369    8.4484 H   0  0  0  0  0  0
    6.9984    9.8407    7.6919 H   0  0  0  0  0  0
    6.8217    9.0372    9.2388 H   0  0  0  0  0  0
    8.7850    7.4381    6.3888 H   0  0  0  0  0  0
    7.4010    6.6524    5.6493 H   0  0  0  0  0  0
    7.5906    8.3988    5.5468 H   0  0  0  0  0  0
   -1.4700    5.3129   10.8621 H   0  0  0  0  0  0
  1  2  2  0  0  0
  1  4  1  0  0  0
  2  3  1  0  0  0
  2 23  1  0  0  0
  3  6  2  0  0  0
  4  5  2  0  0  0
  4 16  1  0  0  0
  5  9  1  0  0  0
  5  6  1  0  0  0
  6  7  1  0  0  0
  7 17  1  0  0  0
  7  8  1  0  0  0
  8  9  2  0  0  0
  9 10  1  0  0  0
 10 11  2  0  0  0
 10 15  1  0  0  0
 11 12  1  0  0  0
 11 24  1  0  0  0
 12 13  2  0  0  0
 12 21  1  0  0  0
 13 14  1  0  0  0
 13 20  1  0  0  0
 14 15  2  0  0  0
 14 25  1  0  0  0
 15 22  1  0  0  0
 16 26  1  0  0  0
 16 27  1  0  0  0
 17 18  1  0  0  0
 17 19  1  0  0  0
 17 28  1  0  0  0
 18 29  1  0  0  0
 18 30  1  0  0  0
 18 31  1  0  0  0
 19 32  1  0  0  0
 19 33  1  0  0  0
 19 34  1  0  0  0
 20 35  1  0  0  0
M  END
> <s_m_entry_id>
32329

> <s_m_entry_name>
dock_pv.592

> <s_m_Source_Path>
/home/csk/Desktop/cluster/DUD-E-result/src

> <s_m_Source_File>
dock_pv.maegz

> <i_m_Source_File_Index>
592

> <chembl_id>
CHEMBL1242028

> <chembl_pref_name>
None

> <i_lp_mmshare_version>
53161

> <r_lp_tautomer_probability>
0.999999999997365

> <s_lp_Force_Field>
OPLS_2005

> <r_lp_Energy>
23.208515

> <b_lp_Chiralities_Consistent>
1

> <s_lp_Variant>
CHEMBL267_lig1889-1

> <s_i_glide_gridfile>
glide-grid_3el8

> <i_i_glide_lignum>
2161

> <i_i_glide_rotatable_bonds>
3

> <r_i_docking_score>
-6.81911558028547

> <r_i_glide_ligand_efficiency>
-0.309959799103885

> <r_i_glide_ligand_efficiency_sa>
-0.868519547116252

> <r_i_glide_ligand_efficiency_ln>
-1.66684058110609

> <r_i_glide_gscore>
-6.81911558028547

> <r_i_glide_lipo>
-2.14900374091642

> <r_i_glide_hbond>
-0.16

> <r_i_glide_metal>
0

> <r_i_glide_rewards>
-2.78805420451267

> <r_i_glide_evdw>
-31.9088230133057

> <r_i_glide_ecoul>
-2.16423320770264

> <r_i_glide_erotb>
0.198018496964295

> <r_i_glide_esite>
0

> <r_i_glide_emodel>
-44.38006543837

> <r_i_glide_energy>
-34.0730562210083

> <r_i_glide_einternal>
6.32316541671753

> <i_i_glide_confnum>
1

> <i_i_glide_posenum>
22

> <r_i_glide_eff_state_penalty>
0

> <s_user_duplicate_titles>
CHEMBL267_lig1889

> <i_f3d_flags>
0

> <s_m_subgroup_title>
dock_pv

> <s_m_subgroupid>
dock_pv

> <b_m_subgroup_collapsed>
1

$$$$
CHEMBL267_lig3361
                    3D
 Schrodinger Suite 2021-1.
 28 30  0  0  1  0            999 V2000
    8.0536    7.8174    6.5756 N   0  0  0  0  0  0
    6.7877    9.5352    5.4278 N   0  0  0  0  0  0
    7.7981    6.7805    7.3903 N   0  0  0  0  0  0
    2.0783   10.5694    5.3742 N   0  0  0  0  0  0
    5.8431    7.8301    6.9167 C   0  0  0  0  0  0
    4.5238    8.3249    6.7443 C   0  0  0  0  0  0
    6.8989    8.4863    6.2407 C   0  0  0  0  0  0
    6.5004    6.7379    7.5893 C   0  0  0  0  0  0
    4.3832    9.4310    5.8692 C   0  0  0  0  0  0
    3.3761    7.7025    7.4776 C   0  0  0  0  0  0
    5.5172    9.9782    5.2562 C   0  0  0  0  0  0
    3.0970   10.0657    5.5921 C   0  0  0  0  0  0
    2.2654    7.1956    6.7881 C   0  0  0  0  0  0
    3.3996    7.6184    8.8754 C   0  0  0  0  0  0
    5.9032    5.5932    8.3880 C   0  0  0  0  0  0
    1.2046    6.6145    7.4787 C   0  0  0  0  0  0
    2.3474    7.0257    9.5693 C   0  0  0  0  0  0
    1.2523    6.5279    8.8675 C   0  0  0  0  0  0
    8.9936    7.9973    6.2502 H   0  0  0  0  0  0
    5.4289   10.8298    4.5945 H   0  0  0  0  0  0
    2.2244    7.2468    5.7097 H   0  0  0  0  0  0
    4.2436    8.0053    9.4285 H   0  0  0  0  0  0
    4.9460    5.2649    7.9880 H   0  0  0  0  0  0
    6.5495    4.7142    8.3872 H   0  0  0  0  0  0
    5.7169    5.8457    9.4285 H   0  0  0  0  0  0
    0.3504    6.2278    6.9407 H   0  0  0  0  0  0
    2.3814    6.9515   10.6468 H   0  0  0  0  0  0
    0.4337    6.0680    9.4035 H   0  0  0  0  0  0
  1  3  1  0  0  0
  1  7  1  0  0  0
  1 19  1  0  0  0
  2  7  2  0  0  0
  2 11  1  0  0  0
  3  8  2  0  0  0
  4 12  3  0  0  0
  5  6  2  0  0  0
  5  7  1  0  0  0
  5  8  1  0  0  0
  6  9  1  0  0  0
  6 10  1  0  0  0
  8 15  1  0  0  0
  9 11  2  0  0  0
  9 12  1  0  0  0
 10 13  2  0  0  0
 10 14  1  0  0  0
 11 20  1  0  0  0
 13 16  1  0  0  0
 13 21  1  0  0  0
 14 17  2  0  0  0
 14 22  1  0  0  0
 15 23  1  0  0  0
 15 24  1  0  0  0
 15 25  1  0  0  0
 16 18  2  0  0  0
 16 26  1  0  0  0
 17 18  1  0  0  0
 17 27  1  0  0  0
 18 28  1  0  0  0
M  END
> <s_m_entry_id>
32330

> <s_m_entry_name>
dock_pv.593

> <s_m_Source_Path>
/home/csk/Desktop/cluster/DUD-E-result/src

> <s_m_Source_File>
dock_pv.maegz

> <i_m_Source_File_Index>
593

> <chembl_id>
CHEMBL1965495

> <chembl_pref_name>
None

> <i_lp_mmshare_version>
53161

> <r_lp_tautomer_probability>
1

> <s_lp_Force_Field>
OPLS_2005

> <r_lp_Energy>
11.787812

> <b_lp_Chiralities_Consistent>
1

> <s_lp_Variant>
CHEMBL267_lig3361-1

> <s_i_glide_gridfile>
glide-grid_3el8

> <i_i_glide_lignum>
3994

> <i_i_glide_rotatable_bonds>
1

> <r_i_docking_score>
-6.81743954593447

> <r_i_glide_ligand_efficiency>
-0.378746641440804

> <r_i_glide_ligand_efficiency_sa>
-0.992597000185185

> <r_i_glide_ligand_efficiency_ln>
-1.75238768174207

> <r_i_glide_gscore>
-6.81743954593447

> <r_i_glide_lipo>
-2.07979486028383

> <r_i_glide_hbond>
-0.159267657038355

> <r_i_glide_metal>
0

> <r_i_glide_rewards>
-2.99475050184801

> <r_i_glide_evdw>
-28.5161666870117

> <r_i_glide_ecoul>
-3.13807606697083

> <r_i_glide_erotb>
0.312893217631924

> <r_i_glide_esite>
0

> <r_i_glide_emodel>
-44.2338303673369

> <r_i_glide_energy>
-31.6542427539825

> <r_i_glide_einternal>
0.0757203921675682

> <i_i_glide_confnum>
2

> <i_i_glide_posenum>
203

> <r_i_glide_eff_state_penalty>
0

> <s_user_duplicate_titles>
CHEMBL267_lig3361

> <i_f3d_flags>
0

> <s_m_subgroup_title>
dock_pv

> <s_m_subgroupid>
dock_pv

> <b_m_subgroup_collapsed>
1

$$$$
CHEMBL267_lig3760
                    3D
 Schrodinger Suite 2021-1.
 33 35  0  0  1  0            999 V2000
    1.7651    9.0072    6.5015 Cl  0  0  0  0  0  0
    1.8519   11.6513    4.8186 Cl  0  0  0  0  0  0
   -1.4752    3.8370   10.3659 Cl  0  0  0  0  0  0
    7.1432    8.6744    6.2627 S   0  0  0  0  0  0
    8.1228    6.2402    7.5881 O   0  0  0  0  0  0
    3.7748    8.0390    9.7678 O   0  0  0  0  0  0
    3.8163    7.0612    7.7134 N   0  0  0  0  0  0
    6.1976    5.4760    8.3880 N   0  0  0  0  0  0
    4.5226    9.0151    6.3397 C   0  0  0  0  0  0
    4.8125    7.8378    7.1362 C   0  0  0  0  0  0
    5.7272    9.6006    5.8380 C   0  0  0  0  0  0
    6.1847    7.5174    7.1588 C   0  0  0  0  0  0
    3.2963    9.6480    5.9931 C   0  0  0  0  0  0
    3.3171   10.8277    5.2341 C   0  0  0  0  0  0
    5.7308   10.7757    5.0786 C   0  0  0  0  0  0
    6.9124    6.3873    7.7266 C   0  0  0  0  0  0
    4.5140   11.3778    4.7952 C   0  0  0  0  0  0
    3.3168    7.2337    8.9559 C   0  0  0  0  0  0
    2.1450    6.3399    9.3136 C   0  0  0  0  0  0
    1.7176    6.2375   10.6468 C   0  0  0  0  0  0
    1.4356    5.6354    8.3240 C   0  0  0  0  0  0
    0.5980    5.4742   10.9779 C   0  0  0  0  0  0
    0.3364    4.8559    8.6610 C   0  0  0  0  0  0
   -0.0863    4.7831    9.9812 C   0  0  0  0  0  0
    3.4141    6.3349    7.1393 H   0  0  0  0  0  0
    5.2176    5.6296    8.5639 H   0  0  0  0  0  0
    6.6712    4.6781    8.7939 H   0  0  0  0  0  0
    6.6548   11.2059    4.7151 H   0  0  0  0  0  0
    4.4956   12.2878    4.2106 H   0  0  0  0  0  0
    2.2399    6.7634   11.4349 H   0  0  0  0  0  0
    1.7014    5.6915    7.2791 H   0  0  0  0  0  0
    0.2658    5.4175   12.0031 H   0  0  0  0  0  0
   -0.2074    4.3285    7.8945 H   0  0  0  0  0  0
  1 13  1  0  0  0
  2 14  1  0  0  0
  3 24  1  0  0  0
  4 11  1  0  0  0
  4 12  1  0  0  0
  5 16  2  0  0  0
  6 18  2  0  0  0
  7 10  1  0  0  0
  7 18  1  0  0  0
  7 25  1  0  0  0
  8 16  1  0  0  0
  8 26  1  0  0  0
  8 27  1  0  0  0
  9 10  1  0  0  0
  9 11  1  0  0  0
  9 13  2  0  0  0
 10 12  2  0  0  0
 11 15  2  0  0  0
 12 16  1  0  0  0
 13 14  1  0  0  0
 14 17  2  0  0  0
 15 17  1  0  0  0
 15 28  1  0  0  0
 17 29  1  0  0  0
 18 19  1  0  0  0
 19 20  2  0  0  0
 19 21  1  0  0  0
 20 22  1  0  0  0
 20 30  1  0  0  0
 21 23  2  0  0  0
 21 31  1  0  0  0
 22 24  2  0  0  0
 22 32  1  0  0  0
 23 24  1  0  0  0
 23 33  1  0  0  0
M  END
> <s_m_entry_id>
32331

> <s_m_entry_name>
dock_pv.594

> <s_m_Source_Path>
/home/csk/Desktop/cluster/DUD-E-result/src

> <s_m_Source_File>
dock_pv.maegz

> <i_m_Source_File_Index>
594

> <chembl_id>
CHEMBL2003271

> <chembl_pref_name>
None

> <i_lp_mmshare_version>
53161

> <r_lp_tautomer_probability>
1

> <s_lp_Force_Field>
OPLS_2005

> <r_lp_Energy>
27.090165

> <b_lp_Chiralities_Consistent>
1

> <s_lp_Variant>
CHEMBL267_lig3760-1

> <s_i_glide_gridfile>
glide-grid_3el8

> <i_i_glide_lignum>
4594

> <i_i_glide_rotatable_bonds>
4

> <r_i_docking_score>
-6.81563328769272

> <r_i_glide_ligand_efficiency>
-0.28398472032053

> <r_i_glide_ligand_efficiency_sa>
-0.819153680844537

> <r_i_glide_ligand_efficiency_ln>
-1.63129379477744

> <r_i_glide_gscore>
-6.81563328769272

> <r_i_glide_lipo>
-2.90815288587908

> <r_i_glide_hbond>
-0.608

> <r_i_glide_metal>
0

> <r_i_glide_rewards>
-1.21451082987679

> <r_i_glide_evdw>
-33.9887046813965

> <r_i_glide_ecoul>
-5.02377223968506

> <r_i_glide_erotb>
0.368031498085728

> <r_i_glide_esite>
0

> <r_i_glide_emodel>
-55.3462950526135

> <r_i_glide_energy>
-39.0124769210815

> <r_i_glide_einternal>
0.532400488853455

> <i_i_glide_confnum>
2

> <i_i_glide_posenum>
376

> <r_i_glide_eff_state_penalty>
0

> <s_user_duplicate_titles>
CHEMBL267_lig3760

> <i_f3d_flags>
0

> <s_m_subgroup_title>
dock_pv

> <s_m_subgroupid>
dock_pv

> <b_m_subgroup_collapsed>
1

$$$$
CHEMBL267_lig1797
                    3D
 Schrodinger Suite 2021-1.
 47 50  0  0  1  0            999 V2000
   -0.9109    4.0301    9.1886 C   0  0  0  0  0  0
   -0.1422    2.9315    8.8087 C   0  0  0  0  0  0
    1.2342    3.0338    8.9005 C   0  0  0  0  0  0
    1.8644    4.2354    9.1911 C   0  0  0  0  0  0
    1.1111    5.3786    9.4273 C   0  0  0  0  0  0
   -0.2835    5.2522    9.4759 C   0  0  0  0  0  0
    1.8103    6.7031    9.7265 C   0  0  0  0  0  0
    2.6393    7.2183    8.6256 N   0  0  0  0  0  0
    4.0020    6.6637    8.4600 C   0  0  0  0  0  0
    5.0698    7.4382    7.6547 C   0  0  0  0  0  0
    4.8406    8.5242    6.7885 C   0  0  0  0  0  0
    5.8655    9.0587    6.0118 C   0  0  0  0  0  0
    7.1554    8.5551    6.1150 C   0  0  0  0  0  0
    7.4172    7.5267    7.0206 C   0  0  0  0  0  0
    6.3815    6.9656    7.7649 C   0  0  0  0  0  0
   -2.2702    3.8991    9.3026 O   0  0  0  0  0  0
   -0.7006    1.7515    8.3854 O   0  0  0  0  0  0
    8.6809    7.0426    7.1839 O   0  0  0  0  0  0
    8.1476    9.0881    5.3289 O   0  0  0  0  0  0
    1.9386    7.7589    7.5350 C   0  0  0  0  0  0
    2.0500    7.2121    6.2427 C   0  0  0  0  0  0
    0.8320    9.7407    6.6289 C   0  0  0  0  0  0
    1.2743    8.9900    7.7207 C   0  0  0  0  0  0
    1.0425    9.2157    5.3643 C   0  0  0  0  0  0
    1.5989    7.9792    5.1751 C   0  0  0  0  0  0
    1.7558    7.7654    3.8442 O   0  0  0  0  0  0
    1.1384    8.8458    3.2025 C   0  0  0  0  0  0
    0.9021    9.8325    4.1638 O   0  0  0  0  0  0
    1.7981    2.1368    8.7845 H   0  0  0  0  0  0
    2.9405    4.2613    9.2653 H   0  0  0  0  0  0
   -0.8889    6.1131    9.7244 H   0  0  0  0  0  0
    1.0451    7.4360    9.9505 H   0  0  0  0  0  0
    2.4156    6.5888   10.6278 H   0  0  0  0  0  0
    4.4081    6.4699    9.4573 H   0  0  0  0  0  0
    3.9038    5.6853    7.9863 H   0  0  0  0  0  0
    3.8740    8.9841    6.6856 H   0  0  0  0  0  0
    5.6557    9.8756    5.3316 H   0  0  0  0  0  0
    6.6018    6.1379    8.4228 H   0  0  0  0  0  0
   -2.6687    4.7424    9.5615 H   0  0  0  0  0  0
   -0.0716    1.0307    8.3123 H   0  0  0  0  0  0
    9.1864    7.0379    6.3640 H   0  0  0  0  0  0
    9.0303    8.9152    5.6563 H   0  0  0  0  0  0
    2.5877    6.2888    6.0925 H   0  0  0  0  0  0
    0.4145   10.7268    6.7675 H   0  0  0  0  0  0
    1.2234    9.4315    8.7007 H   0  0  0  0  0  0
    0.1815    8.5147    2.7894 H   0  0  0  0  0  0
    1.7717    9.2348    2.4016 H   0  0  0  0  0  0
  1 16  1  0  0  0
  1  6  1  0  0  0
  1  2  2  0  0  0
  2 17  1  0  0  0
  2  3  1  0  0  0
  3  4  2  0  0  0
  3 29  1  0  0  0
  4  5  1  0  0  0
  4 30  1  0  0  0
  5  7  1  0  0  0
  5  6  2  0  0  0
  6 31  1  0  0  0
  7  8  1  0  0  0
  7 32  1  0  0  0
  7 33  1  0  0  0
  8  9  1  0  0  0
  8 20  1  0  0  0
  9 10  1  0  0  0
  9 34  1  0  0  0
  9 35  1  0  0  0
 10 15  1  0  0  0
 10 11  2  0  0  0
 11 12  1  0  0  0
 11 36  1  0  0  0
 12 13  2  0  0  0
 12 37  1  0  0  0
 13 14  1  0  0  0
 13 19  1  0  0  0
 14 15  2  0  0  0
 14 18  1  0  0  0
 15 38  1  0  0  0
 16 39  1  0  0  0
 17 40  1  0  0  0
 18 41  1  0  0  0
 19 42  1  0  0  0
 20 21  2  0  0  0
 20 23  1  0  0  0
 21 25  1  0  0  0
 21 43  1  0  0  0
 22 24  1  0  0  0
 22 23  2  0  0  0
 22 44  1  0  0  0
 23 45  1  0  0  0
 24 25  2  0  0  0
 24 28  1  0  0  0
 25 26  1  0  0  0
 26 27  1  0  0  0
 27 28  1  0  0  0
 27 46  1  0  0  0
 27 47  1  0  0  0
M  END
> <s_m_entry_id>
32333

> <s_m_entry_name>
dock_pv.596

> <s_m_Source_Path>
/home/csk/Desktop/cluster/DUD-E-result/src

> <s_m_Source_File>
dock_pv.maegz

> <i_m_Source_File_Index>
596

> <chembl_id>
CHEMBL551264

> <chembl_pref_name>
None

> <i_lp_mmshare_version>
53161

> <r_lp_tautomer_probability>
0.999999999999552

> <s_lp_Force_Field>
OPLS_2005

> <r_lp_Energy>
27.367303

> <b_lp_Chiralities_Consistent>
1

> <s_lp_Variant>
CHEMBL267_lig1797-1

> <s_i_glide_gridfile>
glide-grid_3el8

> <i_i_glide_lignum>
2060

> <i_i_glide_rotatable_bonds>
9

> <r_i_docking_score>
-6.81234034882155

> <r_i_glide_ligand_efficiency>
-0.24329786960077

> <r_i_glide_ligand_efficiency_sa>
-0.738795626889934

> <r_i_glide_ligand_efficiency_ln>
-1.57248817151202

> <r_i_glide_gscore>
-6.81234034882155

> <r_i_glide_lipo>
-3.48113558900635

> <r_i_glide_hbond>
0

> <r_i_glide_metal>
0

> <r_i_glide_rewards>
-0.889318959016774

> <r_i_glide_evdw>
-33.9386940002441

> <r_i_glide_ecoul>
-9.17110633850098

> <r_i_glide_erotb>
0.667256582116109

> <r_i_glide_esite>
-0.036541732127189

> <r_i_glide_emodel>
-54.2107171750444

> <r_i_glide_energy>
-43.1098003387451

> <r_i_glide_einternal>
6.94079780578613

> <i_i_glide_confnum>
16

> <i_i_glide_posenum>
81

> <r_i_glide_eff_state_penalty>
0

> <s_user_duplicate_titles>
CHEMBL267_lig1797

> <i_f3d_flags>
0

> <s_m_subgroup_title>
dock_pv

> <s_m_subgroupid>
dock_pv

> <b_m_subgroup_collapsed>
1

$$$$
CHEMBL267_lig3030
                    3D
 Schrodinger Suite 2021-1.
 51 54  0  0  1  0            999 V2000
    5.0959   10.2715    3.5173 C   0  0  0  0  0  0
    6.3511   11.0364    3.1275 C   0  0  0  0  0  0
    4.9440    8.6367    6.4936 N   0  0  0  0  0  0
    5.1626    7.6255    7.3703 C   0  0  0  0  0  0
    4.2182    6.9122    8.0363 N   0  0  0  0  0  0
    3.6513    8.9533    6.1933 C   0  0  0  0  0  0
    2.5947    8.2511    6.7977 C   0  0  0  0  0  0
    2.9655    7.2505    7.7171 C   0  0  0  0  0  0
    1.7889    6.7425    8.2349 N   0  0  0  0  0  0
    0.7158    7.3659    7.6889 N   0  0  0  0  0  0
    1.1652    8.2292    6.8086 C   0  0  0  0  0  0
    1.6855    5.8514    9.3942 C   0  0  0  0  0  0
    0.2564    5.3863    9.8015 C   0  0  1  0  0  0
   -0.2652    4.0423    9.2490 C   0  0  0  0  0  0
    0.1964    5.4369   11.5856 Cl  0  0  0  0  0  0
   -1.6502    3.8370    9.2240 C   0  0  0  0  0  0
   -2.2022    2.6370    8.7881 C   0  0  0  0  0  0
   -1.3603    1.6106    8.3880 C   0  0  0  0  0  0
    0.0119    1.7950    8.3881 C   0  0  0  0  0  0
    0.5715    3.0018    8.8155 C   0  0  0  0  0  0
    6.8460    7.1291    7.5879 S   0  0  0  0  0  0
    6.7939    5.4379    8.2555 C   0  0  0  0  0  0
    4.4366   10.8506    4.7786 C   0  0  0  0  0  0
   -1.8598    0.4116    8.0168 F   0  0  0  0  0  0
    6.3795   11.7842    1.9486 C   0  0  0  0  0  0
    7.5368   12.4680    1.5877 C   0  0  0  0  0  0
    8.6616   12.4060    2.4080 C   0  0  0  0  0  0
    8.6388   11.6657    3.5880 C   0  0  0  0  0  0
    7.4806   10.9832    3.9507 C   0  0  0  0  0  0
    3.3711   10.0022    5.3041 N   0  0  0  0  0  0
    5.3810    9.2305    3.6849 H   0  0  0  0  0  0
    4.3805   10.2496    2.6935 H   0  0  0  0  0  0
    0.4847    8.8405    6.2317 H   0  0  0  0  0  0
    2.1119    6.4368   10.2112 H   0  0  0  0  0  0
    2.3840    5.0259    9.2682 H   0  0  0  0  0  0
   -0.4699    6.1511    9.5242 H   0  0  0  0  0  0
   -2.3065    4.6347    9.5416 H   0  0  0  0  0  0
   -3.2730    2.4920    8.7843 H   0  0  0  0  0  0
    0.5980    0.9521    8.0766 H   0  0  0  0  0  0
    1.6453    3.0898    8.8297 H   0  0  0  0  0  0
    7.7977    5.0401    8.3879 H   0  0  0  0  0  0
    6.2702    5.4260    9.2063 H   0  0  0  0  0  0
    6.2566    4.7691    7.5880 H   0  0  0  0  0  0
    4.0026   11.8290    4.5697 H   0  0  0  0  0  0
    5.1822   11.0082    5.5599 H   0  0  0  0  0  0
    5.5141   11.8369    1.3024 H   0  0  0  0  0  0
    7.5560   13.0392    0.6698 H   0  0  0  0  0  0
    9.5597   12.9355    2.1250 H   0  0  0  0  0  0
    9.5144   11.6174    4.2176 H   0  0  0  0  0  0
    7.4668   10.4048    4.8640 H   0  0  0  0  0  0
    2.4589   10.0377    4.8736 H   0  0  0  0  0  0
  1 23  1  0  0  0
  1  2  1  0  0  0
  1 31  1  0  0  0
  1 32  1  0  0  0
  2 25  2  0  0  0
  2 29  1  0  0  0
  3  6  1  0  0  0
  3  4  2  0  0  0
  4 21  1  0  0  0
  4  5  1  0  0  0
  5  8  2  0  0  0
  6  7  2  0  0  0
  6 30  1  0  0  0
  7  8  1  0  0  0
  7 11  1  0  0  0
  8  9  1  0  0  0
  9 10  1  0  0  0
  9 12  1  0  0  0
 10 11  2  0  0  0
 11 33  1  0  0  0
 12 13  1  0  0  0
 12 34  1  0  0  0
 12 35  1  0  0  0
 13 14  1  0  0  0
 13 15  1  0  0  0
 13 36  1  0  0  0
 14 16  2  0  0  0
 14 20  1  0  0  0
 16 17  1  0  0  0
 16 37  1  0  0  0
 17 18  2  0  0  0
 17 38  1  0  0  0
 18 19  1  0  0  0
 18 24  1  0  0  0
 19 20  2  0  0  0
 19 39  1  0  0  0
 20 40  1  0  0  0
 21 22  1  0  0  0
 22 41  1  0  0  0
 22 42  1  0  0  0
 22 43  1  0  0  0
 23 30  1  0  0  0
 23 44  1  0  0  0
 23 45  1  0  0  0
 25 26  1  0  0  0
 25 46  1  0  0  0
 26 27  2  0  0  0
 26 47  1  0  0  0
 27 28  1  0  0  0
 27 48  1  0  0  0
 28 29  2  0  0  0
 28 49  1  0  0  0
 29 50  1  0  0  0
 30 51  1  0  0  0
M  END
> <s_m_entry_id>
32334

> <s_m_entry_name>
dock_pv.597

> <s_m_Source_Path>
/home/csk/Desktop/cluster/DUD-E-result/src

> <s_m_Source_File>
dock_pv.maegz

> <i_m_Source_File_Index>
597

> <chembl_id>
CHEMBL473102

> <chembl_pref_name>
None

> <i_lp_mmshare_version>
53161

> <r_lp_tautomer_probability>
1

> <s_lp_Force_Field>
OPLS_2005

> <r_lp_Energy>
7.855274

> <b_lp_Chiralities_Consistent>
1

> <s_lp_Variant>
CHEMBL267_lig3030-2

> <s_i_glide_gridfile>
glide-grid_3el8

> <i_i_glide_lignum>
3453

> <i_i_glide_rotatable_bonds>
8

> <r_i_docking_score>
-6.8119627795007

> <r_i_glide_ligand_efficiency>
-0.227065425983357

> <r_i_glide_ligand_efficiency_sa>
-0.705545071793846

> <r_i_glide_ligand_efficiency_ln>
-1.54775216578178

> <r_i_glide_gscore>
-6.8119627795007

> <r_i_glide_lipo>
-3.47568805451375

> <r_i_glide_hbond>
0

> <r_i_glide_metal>
0

> <r_i_glide_rewards>
-1.15626642306611

> <r_i_glide_evdw>
-46.5581092834473

> <r_i_glide_ecoul>
-2.908442735672

> <r_i_glide_erotb>
0.613733857335645

> <r_i_glide_esite>
-0.0295702847333234

> <r_i_glide_emodel>
-62.4030889057894

> <r_i_glide_energy>
-49.4665520191193

> <r_i_glide_einternal>
13.8001556396484

> <i_i_glide_confnum>
4

> <i_i_glide_posenum>
275

> <r_i_glide_eff_state_penalty>
0

> <s_user_duplicate_titles>
CHEMBL267_lig3030

> <i_f3d_flags>
0

> <s_m_subgroup_title>
dock_pv

> <s_m_subgroupid>
dock_pv

> <b_m_subgroup_collapsed>
1

$$$$
CHEMBL267_lig2904
                    3D
 Schrodinger Suite 2021-1.
 44 46  0  0  1  0            999 V2000
    1.9103    6.6036    9.3892 N   0  0  0  0  0  0
    2.7938    7.6279    9.3769 C   0  0  0  0  0  0
    2.9986    8.5189    8.3785 N   0  0  0  0  0  0
    1.1453    6.4120    8.2862 C   0  0  0  0  0  0
    1.2841    7.2659    7.1753 C   0  0  0  0  0  0
    2.2366    8.2988    7.3059 C   0  0  0  0  0  0
    2.2042    9.0163    6.1246 N   0  0  0  0  0  0
    1.2768    8.5034    5.2824 N   0  0  0  0  0  0
    0.7332    7.4623    5.8719 C   0  0  0  0  0  0
    2.9261   10.2513    5.7862 C   0  0  0  0  0  0
    4.0416   10.1484    4.7103 C   0  0  1  0  0  0
    5.3716    9.5272    5.1552 C   0  0  0  0  0  0
    6.5657   10.1627    4.7936 C   0  0  0  0  0  0
    7.7914    9.6354    5.1880 C   0  0  0  0  0  0
    7.8293    8.4798    5.9636 C   0  0  0  0  0  0
    6.6515    7.8387    6.3321 C   0  0  0  0  0  0
    5.4264    8.3475    5.9070 C   0  0  0  0  0  0
    0.1983    5.3826    8.2854 N   0  0  0  0  0  0
   -0.1968    4.7368    9.5352 C   0  0  0  0  0  0
    3.4581    9.4371    3.1880 Cl  0  0  0  0  0  0
    3.7980    7.8370   10.7969 S   0  0  0  0  0  0
    3.1899    6.6956   12.0612 C   0  0  0  0  0  0
   -1.2906    3.6748    9.3479 C   0  0  0  0  0  0
   -0.8216    2.4266    8.5850 C   0  0  0  0  0  0
   -0.0389    6.8864    5.3807 H   0  0  0  0  0  0
    2.1810   10.9884    5.4813 H   0  0  0  0  0  0
    3.3902   10.6373    6.6930 H   0  0  0  0  0  0
    4.2640   11.1828    4.4431 H   0  0  0  0  0  0
    6.5505   11.0663    4.2010 H   0  0  0  0  0  0
    8.7095   10.1288    4.9033 H   0  0  0  0  0  0
    8.7816    8.0742    6.2748 H   0  0  0  0  0  0
    6.6872    6.9401    6.9297 H   0  0  0  0  0  0
    4.5320    7.8079    6.1650 H   0  0  0  0  0  0
   -0.5532    5.5054    7.6158 H   0  0  0  0  0  0
   -0.5336    5.4930   10.2466 H   0  0  0  0  0  0
    0.6917    4.2941    9.9881 H   0  0  0  0  0  0
    3.9279    6.5686   12.8539 H   0  0  0  0  0  0
    2.2537    7.0370   12.4996 H   0  0  0  0  0  0
    2.9963    5.7403   11.5874 H   0  0  0  0  0  0
   -2.1450    4.1131    8.8308 H   0  0  0  0  0  0
   -1.6704    3.3903   10.3287 H   0  0  0  0  0  0
   -1.6373    1.7124    8.4686 H   0  0  0  0  0  0
   -0.0109    1.9226    9.1114 H   0  0  0  0  0  0
   -0.4607    2.6821    7.5906 H   0  0  0  0  0  0
  1  2  1  0  0  0
  1  4  2  0  0  0
  2  3  2  0  0  0
  2 21  1  0  0  0
  3  6  1  0  0  0
  4  5  1  0  0  0
  4 18  1  0  0  0
  5  9  1  0  0  0
  5  6  2  0  0  0
  6  7  1  0  0  0
  7  8  1  0  0  0
  7 10  1  0  0  0
  8  9  2  0  0  0
  9 25  1  0  0  0
 10 11  1  0  0  0
 10 26  1  0  0  0
 10 27  1  0  0  0
 11 12  1  0  0  0
 11 20  1  0  0  0
 11 28  1  0  0  0
 12 13  2  0  0  0
 12 17  1  0  0  0
 13 14  1  0  0  0
 13 29  1  0  0  0
 14 15  2  0  0  0
 14 30  1  0  0  0
 15 16  1  0  0  0
 15 31  1  0  0  0
 16 17  2  0  0  0
 16 32  1  0  0  0
 17 33  1  0  0  0
 18 19  1  0  0  0
 18 34  1  0  0  0
 19 23  1  0  0  0
 19 35  1  0  0  0
 19 36  1  0  0  0
 21 22  1  0  0  0
 22 37  1  0  0  0
 22 38  1  0  0  0
 22 39  1  0  0  0
 23 24  1  0  0  0
 23 40  1  0  0  0
 23 41  1  0  0  0
 24 42  1  0  0  0
 24 43  1  0  0  0
 24 44  1  0  0  0
M  END
> <s_m_entry_id>
32335

> <s_m_entry_name>
dock_pv.598

> <s_m_Source_Path>
/home/csk/Desktop/cluster/DUD-E-result/src

> <s_m_Source_File>
dock_pv.maegz

> <i_m_Source_File_Index>
598

> <chembl_id>
CHEMBL312214

> <chembl_pref_name>
None

> <i_lp_mmshare_version>
53161

> <r_lp_tautomer_probability>
1

> <s_lp_Force_Field>
OPLS_2005

> <r_lp_Energy>
6.818308

> <b_lp_Chiralities_Consistent>
1

> <s_lp_Variant>
CHEMBL267_lig2904-2

> <s_i_glide_gridfile>
glide-grid_3el8

> <i_i_glide_lignum>
3286

> <i_i_glide_rotatable_bonds>
7

> <r_i_docking_score>
-6.80942754979449

> <r_i_glide_ligand_efficiency>
-0.283726147908104

> <r_i_glide_ligand_efficiency_sa>
-0.818407828943896

> <r_i_glide_ligand_efficiency_ln>
-1.62980847693564

> <r_i_glide_gscore>
-6.80942754979449

> <r_i_glide_lipo>
-3.22835364076139

> <r_i_glide_hbond>
-0.32

> <r_i_glide_metal>
0

> <r_i_glide_rewards>
-1.54804573428095

> <r_i_glide_evdw>
-37.2361297607422

> <r_i_glide_ecoul>
-3.76616525650024

> <r_i_glide_erotb>
0.732849404744117

> <r_i_glide_esite>
-0.0191463029841103

> <r_i_glide_emodel>
-54.5223279886436

> <r_i_glide_energy>
-41.0022950172424

> <r_i_glide_einternal>
4.76065063476562

> <i_i_glide_confnum>
4

> <i_i_glide_posenum>
139

> <r_i_glide_eff_state_penalty>
0

> <s_user_duplicate_titles>
CHEMBL267_lig2904,134939

> <i_f3d_flags>
0

> <s_m_subgroup_title>
dock_pv

> <s_m_subgroupid>
dock_pv

> <b_m_subgroup_collapsed>
1

$$$$
CHEMBL267_lig2194
                    3D
 Schrodinger Suite 2021-1.
 39 41  0  0  1  0            999 V2000
    2.8159    8.5167    7.2903 C   0  0  0  0  0  0
    1.8460    7.6372    7.7803 C   0  0  0  0  0  0
    2.2806    6.5039    8.4807 C   0  0  0  0  0  0
    3.5829    6.1487    8.6649 N   0  0  0  0  0  0
    4.1534    8.1286    7.3354 C   0  0  0  0  0  0
    4.4671    6.9484    8.0599 C   0  0  0  0  0  0
    5.8334    6.7813    7.9880 N   0  0  0  0  0  0
    6.3704    7.7805    7.2033 C   0  0  0  0  0  0
    5.3690    8.6369    6.7883 C   0  0  0  0  0  0
    7.7979    7.7616    6.9297 C   0  0  0  0  0  0
    0.4635    7.8205    7.5871 N   0  0  0  0  0  0
   -0.1720    8.4886    6.4343 C   0  0  0  0  0  0
    8.0842    8.6503    5.9543 O   0  0  0  0  0  0
    0.6998    8.9583    5.2567 C   0  0  0  0  0  0
    0.9981   10.3278    5.1804 C   0  0  0  0  0  0
    1.7585   10.8427    4.1344 C   0  0  0  0  0  0
    2.2159    9.9951    3.1327 C   0  0  0  0  0  0
    1.9158    8.6369    3.1841 C   0  0  0  0  0  0
    1.1612    8.0956    4.2366 C   0  0  0  0  0  0
    9.3977    8.8228    5.4481 C   0  0  0  0  0  0
    8.5980    7.0206    7.5005 O   0  0  0  0  0  0
    0.8720    6.5903    4.2451 C   0  0  0  0  0  0
    1.3980    5.9647    3.1886 F   0  0  0  0  0  0
    1.4052    6.0432    5.3328 F   0  0  0  0  0  0
   -0.4407    6.3619    4.2430 F   0  0  0  0  0  0
    2.5694    9.4474    6.8234 H   0  0  0  0  0  0
    1.5618    5.8170    8.9037 H   0  0  0  0  0  0
    6.3907    6.0398    8.3877 H   0  0  0  0  0  0
    5.5033    9.5074    6.1627 H   0  0  0  0  0  0
   -0.0643    6.9957    7.8490 H   0  0  0  0  0  0
   -0.9598    7.8371    6.0552 H   0  0  0  0  0  0
   -0.7119    9.3474    6.8312 H   0  0  0  0  0  0
    0.6419   11.0017    5.9464 H   0  0  0  0  0  0
    1.9836   11.8983    4.0943 H   0  0  0  0  0  0
    2.7958   10.3902    2.3114 H   0  0  0  0  0  0
    2.2747    8.0065    2.3832 H   0  0  0  0  0  0
    9.5549    9.8691    5.1872 H   0  0  0  0  0  0
    9.5135    8.2374    4.5368 H   0  0  0  0  0  0
   10.1746    8.5341    6.1558 H   0  0  0  0  0  0
  1  5  1  0  0  0
  1  2  2  0  0  0
  1 26  1  0  0  0
  2  3  1  0  0  0
  2 11  1  0  0  0
  3  4  2  0  0  0
  3 27  1  0  0  0
  4  6  1  0  0  0
  5  6  2  0  0  0
  5  9  1  0  0  0
  6  7  1  0  0  0
  7  8  1  0  0  0
  7 28  1  0  0  0
  8  9  2  0  0  0
  8 10  1  0  0  0
  9 29  1  0  0  0
 10 13  1  0  0  0
 10 21  2  0  0  0
 11 12  1  0  0  0
 11 30  1  0  0  0
 12 14  1  0  0  0
 12 31  1  0  0  0
 12 32  1  0  0  0
 13 20  1  0  0  0
 14 15  2  0  0  0
 14 19  1  0  0  0
 15 16  1  0  0  0
 15 33  1  0  0  0
 16 17  2  0  0  0
 16 34  1  0  0  0
 17 18  1  0  0  0
 17 35  1  0  0  0
 18 19  2  0  0  0
 18 36  1  0  0  0
 19 22  1  0  0  0
 20 37  1  0  0  0
 20 38  1  0  0  0
 20 39  1  0  0  0
 22 23  1  0  0  0
 22 24  1  0  0  0
 22 25  1  0  0  0
M  END
> <s_m_entry_id>
32337

> <s_m_entry_name>
dock_pv.600

> <s_m_Source_Path>
/home/csk/Desktop/cluster/DUD-E-result/src

> <s_m_Source_File>
dock_pv.maegz

> <i_m_Source_File_Index>
600

> <chembl_id>
CHEMBL3347453

> <chembl_pref_name>
None

> <i_lp_mmshare_version>
53161

> <r_lp_tautomer_probability>
1

> <s_lp_Force_Field>
OPLS_2005

> <r_lp_Energy>
13.244873

> <b_lp_Chiralities_Consistent>
1

> <s_lp_Variant>
CHEMBL267_lig2194-1

> <s_i_glide_gridfile>
glide-grid_3el8

> <i_i_glide_lignum>
2484

> <i_i_glide_rotatable_bonds>
6

> <r_i_docking_score>
-6.80824863879267

> <r_i_glide_ligand_efficiency>
-0.272329945551707

> <r_i_glide_ligand_efficiency_sa>
-0.79629759058534

> <r_i_glide_ligand_efficiency_ln>
-1.61375895414162

> <r_i_glide_gscore>
-6.80824863879267

> <r_i_glide_lipo>
-1.75419236644606

> <r_i_glide_hbond>
-0.32

> <r_i_glide_metal>
0

> <r_i_glide_rewards>
-2.92810403940418

> <r_i_glide_evdw>
-32.8942070007324

> <r_i_glide_ecoul>
-4.97049283981323

> <r_i_glide_erotb>
0.624417733590316

> <r_i_glide_esite>
-0.0400856905241384

> <r_i_glide_emodel>
-52.8551677741598

> <r_i_glide_energy>
-37.8646998405457

> <r_i_glide_einternal>
1.4765602350235

> <i_i_glide_confnum>
27

> <i_i_glide_posenum>
208

> <r_i_glide_eff_state_penalty>
0

> <s_user_duplicate_titles>
CHEMBL267_lig2194

> <i_f3d_flags>
0

> <s_m_subgroup_title>
dock_pv

> <s_m_subgroupid>
dock_pv

> <b_m_subgroup_collapsed>
1

$$$$
CHEMBL267_lig3841
                    3D
 Schrodinger Suite 2021-1.
 46 49  0  0  1  0            999 V2000
    5.7856    7.4880    7.3560 C   0  0  0  0  0  0
    5.1174    8.2513    6.4461 N   0  0  0  0  0  0
    3.7959    8.2959    6.6554 C   0  0  0  0  0  0
    3.1058    7.6278    7.6823 C   0  0  0  0  0  0
    3.8978    6.8423    8.5366 C   0  0  0  0  0  0
    5.2429    6.7907    8.3851 N   0  0  0  0  0  0
    1.6080    8.8378    6.5019 N   0  0  0  0  0  0
    2.8349    8.9934    5.9468 N   0  0  0  0  0  0
    1.7408    8.0071    7.5072 C   0  0  0  0  0  0
    3.3802    6.1056    9.5969 N   0  0  0  0  0  0
    3.0551    9.9089    4.8293 C   0  0  0  0  0  0
    1.8904    9.9384    3.8090 C   0  0  0  0  0  0
    2.1525   10.7414    2.5309 C   0  0  0  0  0  0
    1.2895   10.5665    1.4456 C   0  0  0  0  0  0
    1.5074   11.2421    0.2476 C   0  0  0  0  0  0
    2.5884   12.1125    0.1383 C   0  0  0  0  0  0
    3.4439   12.3161    1.2173 C   0  0  0  0  0  0
    3.2259   11.6341    2.4131 C   0  0  0  0  0  0
    7.5394    7.3604    7.1862 S   0  0  0  0  0  0
    7.9894    8.2538    5.6704 C   0  0  0  0  0  0
    2.0764    5.6510    9.7939 C   0  0  0  0  0  0
    1.4875    4.7489    8.9024 C   0  0  0  0  0  0
    0.2163    4.2383    9.1710 C   0  0  0  0  0  0
   -0.4686    4.6361   10.3135 C   0  0  0  0  0  0
    0.1154    5.5386   11.2011 C   0  0  0  0  0  0
    1.3864    6.0467   10.9402 C   0  0  0  0  0  0
   -0.3624    3.3336    8.3270 O   0  0  0  0  0  0
    0.8888    7.7002    8.0976 H   0  0  0  0  0  0
    4.0734    5.6477   10.1838 H   0  0  0  0  0  0
    3.9730    9.5955    4.3297 H   0  0  0  0  0  0
    3.2255   10.8965    5.2571 H   0  0  0  0  0  0
    0.9979   10.3549    4.2763 H   0  0  0  0  0  0
    1.6431    8.9165    3.5134 H   0  0  0  0  0  0
    0.4591    9.8777    1.5213 H   0  0  0  0  0  0
    0.8470   11.0815   -0.5934 H   0  0  0  0  0  0
    2.7722   12.6270   -0.7945 H   0  0  0  0  0  0
    4.2807   12.9933    1.1131 H   0  0  0  0  0  0
    3.9024   11.8002    3.2369 H   0  0  0  0  0  0
    9.0685    8.2388    5.5294 H   0  0  0  0  0  0
    7.5193    7.7830    4.8061 H   0  0  0  0  0  0
    7.6608    9.2921    5.7281 H   0  0  0  0  0  0
    2.0256    4.4253    8.0240 H   0  0  0  0  0  0
   -1.4561    4.2486   10.5186 H   0  0  0  0  0  0
   -0.4219    5.8381   12.0898 H   0  0  0  0  0  0
    1.8411    6.7321   11.6414 H   0  0  0  0  0  0
   -1.2381    3.0840    8.6360 H   0  0  0  0  0  0
  1  2  1  0  0  0
  1  6  2  0  0  0
  1 19  1  0  0  0
  2  3  2  0  0  0
  3  4  1  0  0  0
  3  8  1  0  0  0
  4  5  2  0  0  0
  4  9  1  0  0  0
  5  6  1  0  0  0
  5 10  1  0  0  0
  7  8  1  0  0  0
  7  9  2  0  0  0
  8 11  1  0  0  0
  9 28  1  0  0  0
 10 21  1  0  0  0
 10 29  1  0  0  0
 11 12  1  0  0  0
 11 30  1  0  0  0
 11 31  1  0  0  0
 12 13  1  0  0  0
 12 32  1  0  0  0
 12 33  1  0  0  0
 13 14  1  0  0  0
 13 18  2  0  0  0
 14 15  2  0  0  0
 14 34  1  0  0  0
 15 16  1  0  0  0
 15 35  1  0  0  0
 16 17  2  0  0  0
 16 36  1  0  0  0
 17 18  1  0  0  0
 17 37  1  0  0  0
 18 38  1  0  0  0
 19 20  1  0  0  0
 20 39  1  0  0  0
 20 40  1  0  0  0
 20 41  1  0  0  0
 21 22  1  0  0  0
 21 26  2  0  0  0
 22 23  2  0  0  0
 22 42  1  0  0  0
 23 24  1  0  0  0
 23 27  1  0  0  0
 24 25  2  0  0  0
 24 43  1  0  0  0
 25 26  1  0  0  0
 25 44  1  0  0  0
 26 45  1  0  0  0
 27 46  1  0  0  0
M  END
> <s_m_entry_id>
32338

> <s_m_entry_name>
dock_pv.601

> <s_m_Source_Path>
/home/csk/Desktop/cluster/DUD-E-result/src

> <s_m_Source_File>
dock_pv.maegz

> <i_m_Source_File_Index>
601

> <chembl_id>
CHEMBL3393984

> <chembl_pref_name>
None

> <i_lp_mmshare_version>
53161

> <r_lp_tautomer_probability>
1

> <s_lp_Force_Field>
OPLS_2005

> <r_lp_Energy>
12.827653

> <b_lp_Chiralities_Consistent>
1

> <s_lp_Variant>
CHEMBL267_lig3841-1

> <s_i_glide_gridfile>
glide-grid_3el8

> <i_i_glide_lignum>
4725

> <i_i_glide_rotatable_bonds>
7

> <r_i_docking_score>
-6.80582192710997

> <r_i_glide_ligand_efficiency>
-0.252067478781851

> <r_i_glide_ligand_efficiency_sa>
-0.756202435514779

> <r_i_glide_ligand_efficiency_ln>
-1.58428314188761

> <r_i_glide_gscore>
-6.80582192710997

> <r_i_glide_lipo>
-2.47443451469846

> <r_i_glide_hbond>
-0.480892434518507

> <r_i_glide_metal>
0

> <r_i_glide_rewards>
-1.61983550799879

> <r_i_glide_evdw>
-43.2348480224609

> <r_i_glide_ecoul>
-4.99081325531006

> <r_i_glide_erotb>
0.679704919525344

> <r_i_glide_esite>
0

> <r_i_glide_emodel>
-63.1691597045351

> <r_i_glide_energy>
-48.225661277771

> <r_i_glide_einternal>
10.2400341033936

> <i_i_glide_confnum>
6

> <i_i_glide_posenum>
237

> <r_i_glide_eff_state_penalty>
0

> <s_user_duplicate_titles>
CHEMBL267_lig3841

> <i_f3d_flags>
0

> <s_m_subgroup_title>
dock_pv

> <s_m_subgroupid>
dock_pv

> <b_m_subgroup_collapsed>
1

$$$$
CHEMBL267_lig2512
                    3D
 Schrodinger Suite 2021-1.
 43 45  0  0  1  0            999 V2000
    2.0522    7.2304    9.4700 O   0  0  0  0  0  0
    1.4031    6.1237    8.7616 S   0  0  0  0  0  0
    2.1985    5.2109    7.9350 O   0  0  0  0  0  0
    6.4754    8.2722    6.1381 N   0  0  0  0  0  0
    7.4523    9.0262    5.5853 C   0  0  0  0  0  0
    7.3247   10.2380    4.9911 N   0  0  0  0  0  0
    5.2052    8.7580    6.1014 C   0  0  0  0  0  0
    4.9114   10.0034    5.4863 C   0  0  0  0  0  0
    6.0643   10.6817    4.9728 C   0  0  0  0  0  0
    5.6575   11.8911    4.4693 N   0  0  0  0  0  0
    4.3023   12.0113    4.6277 C   0  0  0  0  0  0
    3.7673   10.8689    5.2126 C   0  0  0  0  0  0
    2.3254   10.6977    5.4485 C   0  0  0  0  0  0
    1.7119    9.3468    5.4040 C   0  0  0  0  0  0
    1.6055   11.6879    5.5882 O   0  0  0  0  0  0
    1.1773    8.7675    6.5663 C   0  0  0  0  0  0
    0.6271    7.4804    6.5191 C   0  0  0  0  0  0
    0.5071    6.8215    5.2942 C   0  0  0  0  0  0
    0.9982    7.4121    4.1321 C   0  0  0  0  0  0
    1.6114    8.6627    4.1832 C   0  0  0  0  0  0
    1.2033    9.4370    7.7451 F   0  0  0  0  0  0
    0.1980    6.8345    7.6826 N   0  0  0  0  0  0
    0.3354    5.1399    9.9769 C   0  0  0  0  0  0
    2.0982    9.1984    3.0381 F   0  0  0  0  0  0
    4.2152    7.8646    6.8143 C   0  0  0  0  0  0
   -0.3754    3.9375    9.3166 C   0  0  0  0  0  0
    0.5359    2.7264    9.0554 C   0  0  0  0  0  0
    8.4512    8.6135    5.6214 H   0  0  0  0  0  0
    6.2321   12.6022    4.0404 H   0  0  0  0  0  0
    3.8069   12.9066    4.2756 H   0  0  0  0  0  0
    0.0582    5.8401    5.2421 H   0  0  0  0  0  0
    0.9178    6.8956    3.1877 H   0  0  0  0  0  0
   -0.6444    6.2715    7.5728 H   0  0  0  0  0  0
   -0.3934    5.8369   10.3913 H   0  0  0  0  0  0
    0.9916    4.8239   10.7859 H   0  0  0  0  0  0
    3.6682    8.4390    7.5602 H   0  0  0  0  0  0
    3.5210    7.4368    6.0959 H   0  0  0  0  0  0
    4.6938    7.0369    7.3400 H   0  0  0  0  0  0
   -0.8618    4.2376    8.3884 H   0  0  0  0  0  0
   -1.1829    3.6150    9.9766 H   0  0  0  0  0  0
   -0.0480    1.8732    8.7085 H   0  0  0  0  0  0
    1.0561    2.4174    9.9628 H   0  0  0  0  0  0
    1.2879    2.9276    8.2945 H   0  0  0  0  0  0
  1  2  2  0  0  0
  2  3  2  0  0  0
  2 22  1  0  0  0
  2 23  1  0  0  0
  4  5  2  0  0  0
  4  7  1  0  0  0
  5  6  1  0  0  0
  5 28  1  0  0  0
  6  9  2  0  0  0
  7  8  2  0  0  0
  7 25  1  0  0  0
  8  9  1  0  0  0
  8 12  1  0  0  0
  9 10  1  0  0  0
 10 11  1  0  0  0
 10 29  1  0  0  0
 11 12  2  0  0  0
 11 30  1  0  0  0
 12 13  1  0  0  0
 13 14  1  0  0  0
 13 15  2  0  0  0
 14 16  2  0  0  0
 14 20  1  0  0  0
 16 17  1  0  0  0
 16 21  1  0  0  0
 17 18  2  0  0  0
 17 22  1  0  0  0
 18 19  1  0  0  0
 18 31  1  0  0  0
 19 20  2  0  0  0
 19 32  1  0  0  0
 20 24  1  0  0  0
 22 33  1  0  0  0
 23 26  1  0  0  0
 23 34  1  0  0  0
 23 35  1  0  0  0
 25 36  1  0  0  0
 25 37  1  0  0  0
 25 38  1  0  0  0
 26 27  1  0  0  0
 26 39  1  0  0  0
 26 40  1  0  0  0
 27 41  1  0  0  0
 27 42  1  0  0  0
 27 43  1  0  0  0
M  END
> <s_m_entry_id>
32339

> <s_m_entry_name>
dock_pv.602

> <s_m_Source_Path>
/home/csk/Desktop/cluster/DUD-E-result/src

> <s_m_Source_File>
dock_pv.maegz

> <i_m_Source_File_Index>
602

> <chembl_id>
CHEMBL3730594

> <chembl_pref_name>
None

> <i_lp_mmshare_version>
53161

> <r_lp_tautomer_probability>
1

> <s_lp_Force_Field>
OPLS_2005

> <r_lp_Energy>
9.038304

> <b_lp_Chiralities_Consistent>
1

> <s_lp_Variant>
CHEMBL267_lig2512-1

> <s_i_glide_gridfile>
glide-grid_3el8

> <i_i_glide_lignum>
2817

> <i_i_glide_rotatable_bonds>
6

> <r_i_docking_score>
-6.79996899146597

> <r_i_glide_ligand_efficiency>
-0.251850703387628

> <r_i_glide_ligand_efficiency_sa>
-0.755552109332826

> <r_i_glide_ligand_efficiency_ln>
-1.58292067496287

> <r_i_glide_gscore>
-6.79996899146597

> <r_i_glide_lipo>
-2.29707916045404

> <r_i_glide_hbond>
-0.32

> <r_i_glide_metal>
0

> <r_i_glide_rewards>
-1.615812991801

> <r_i_glide_evdw>
-41.1603813171387

> <r_i_glide_ecoul>
-7.24204444885254

> <r_i_glide_erotb>
0.628242281953059

> <r_i_glide_esite>
-0.0509933879791734

> <r_i_glide_emodel>
-63.6309018098171

> <r_i_glide_energy>
-48.4024257659912

> <r_i_glide_einternal>
10.1987495422363

> <i_i_glide_confnum>
21

> <i_i_glide_posenum>
256

> <r_i_glide_eff_state_penalty>
0

> <s_user_duplicate_titles>
CHEMBL267_lig2512

> <i_f3d_flags>
0

> <s_m_subgroup_title>
dock_pv

> <s_m_subgroupid>
dock_pv

> <b_m_subgroup_collapsed>
1

$$$$
CHEMBL267_lig1451
                    3D
 Schrodinger Suite 2021-1.
 56 59  0  0  1  0            999 V2000
    0.9854    6.6577    6.4474 C   0  0  0  0  0  0
    1.4562    7.4580    5.4055 C   0  0  0  0  0  0
    2.6014    8.2427    5.5829 C   0  0  0  0  0  0
    3.3297    8.1548    6.7705 C   0  0  0  0  0  0
    1.6430    6.6397    7.7095 C   0  0  0  0  0  0
    2.8573    7.3805    7.8475 C   0  0  0  0  0  0
    3.5589    7.4238    9.0100 N   0  0  0  0  0  0
    3.0067    6.8574   10.1035 C   0  0  0  0  0  0
    1.7774    6.2051   10.0915 C   0  0  0  0  0  0
    1.1274    5.9707    8.8658 C   0  0  0  0  0  0
   -0.1204    5.3233    8.8276 N   0  0  0  0  0  0
   -0.5142    3.9790    8.8926 C   0  0  0  0  0  0
    0.3175    2.9056    8.5391 C   0  0  0  0  0  0
   -2.4812    2.5418    9.0855 C   0  0  0  0  0  0
   -1.8631    3.7807    9.1889 C   0  0  0  0  0  0
    1.1221    5.9853   11.3694 C   0  0  0  0  0  0
    0.5979    5.8370   12.3836 N   0  0  0  0  0  0
    3.0216    9.0622    4.5585 O   0  0  0  0  0  0
    3.3583   10.4161    4.8827 C   0  0  0  0  0  0
    4.6404   10.8096    4.1309 C   0  0  0  0  0  0
   -1.7023    1.4710    8.6422 C   0  0  0  0  0  0
   -0.3120    1.6548    8.3917 C   0  0  0  0  0  0
    0.1041    0.3928    8.0104 N   0  0  0  0  0  0
   -1.0163   -0.4022    7.9878 C   0  0  0  0  0  0
   -2.0957    0.1847    8.4021 N   0  0  0  0  0  0
    0.6924    7.4963    4.0887 C   0  0  0  0  0  0
   -1.0024   -1.6728    7.5254 N   0  0  0  0  0  0
    4.4799   10.7914    2.5981 C   0  0  0  0  0  0
    3.5728   11.8348    2.1074 N   0  0  0  0  0  0
    4.2138   13.1498    2.1186 C   0  0  0  0  0  0
    3.1530   11.5363    0.7400 C   0  0  0  0  0  0
    0.0790    6.0840    6.3130 H   0  0  0  0  0  0
    4.2466    8.7118    6.8938 H   0  0  0  0  0  0
    3.5450    7.0205   11.0288 H   0  0  0  0  0  0
   -0.8103    5.8300    8.2786 H   0  0  0  0  0  0
    1.3620    3.0536    8.3105 H   0  0  0  0  0  0
   -3.5365    2.4195    9.2799 H   0  0  0  0  0  0
   -2.4676    4.6355    9.4635 H   0  0  0  0  0  0
    2.5282   11.0578    4.5847 H   0  0  0  0  0  0
    3.4977   10.5978    5.9498 H   0  0  0  0  0  0
    4.9817   11.7861    4.4724 H   0  0  0  0  0  0
    5.4305   10.1122    4.4094 H   0  0  0  0  0  0
    1.0181    0.0617    7.7522 H   0  0  0  0  0  0
   -0.2427    6.9345    4.1302 H   0  0  0  0  0  0
    0.4488    8.5267    3.8244 H   0  0  0  0  0  0
    1.3072    7.0941    3.2822 H   0  0  0  0  0  0
   -1.8575   -2.2075    7.5273 H   0  0  0  0  0  0
   -0.2617   -1.9996    6.9271 H   0  0  0  0  0  0
    5.4495   10.8376    2.0986 H   0  0  0  0  0  0
    4.0497    9.8222    2.3493 H   0  0  0  0  0  0
    3.5299   13.9118    1.7442 H   0  0  0  0  0  0
    4.4979   13.4508    3.1264 H   0  0  0  0  0  0
    5.1085   13.1686    1.4922 H   0  0  0  0  0  0
    2.4940   12.3144    0.3532 H   0  0  0  0  0  0
    4.0031   11.4487    0.0628 H   0  0  0  0  0  0
    2.5943   10.6014    0.7049 H   0  0  0  0  0  0
  1  2  2  0  0  0
  1  5  1  0  0  0
  1 32  1  0  0  0
  2 26  1  0  0  0
  2  3  1  0  0  0
  3  4  2  0  0  0
  3 18  1  0  0  0
  4  6  1  0  0  0
  4 33  1  0  0  0
  5 10  2  0  0  0
  5  6  1  0  0  0
  6  7  2  0  0  0
  7  8  1  0  0  0
  8  9  2  0  0  0
  8 34  1  0  0  0
  9 16  1  0  0  0
  9 10  1  0  0  0
 10 11  1  0  0  0
 11 12  1  0  0  0
 11 35  1  0  0  0
 12 15  1  0  0  0
 12 13  2  0  0  0
 13 22  1  0  0  0
 13 36  1  0  0  0
 14 21  1  0  0  0
 14 15  2  0  0  0
 14 37  1  0  0  0
 15 38  1  0  0  0
 16 17  3  0  0  0
 18 19  1  0  0  0
 19 20  1  0  0  0
 19 39  1  0  0  0
 19 40  1  0  0  0
 20 28  1  0  0  0
 20 41  1  0  0  0
 20 42  1  0  0  0
 21 22  2  0  0  0
 21 25  1  0  0  0
 22 23  1  0  0  0
 23 24  1  0  0  0
 23 43  1  0  0  0
 24 25  2  0  0  0
 24 27  1  0  0  0
 26 44  1  0  0  0
 26 45  1  0  0  0
 26 46  1  0  0  0
 27 47  1  0  0  0
 27 48  1  0  0  0
 28 29  1  0  0  0
 28 49  1  0  0  0
 28 50  1  0  0  0
 29 30  1  0  0  0
 29 31  1  0  0  0
 30 51  1  0  0  0
 30 52  1  0  0  0
 30 53  1  0  0  0
 31 54  1  0  0  0
 31 55  1  0  0  0
 31 56  1  0  0  0
M  END
> <s_m_entry_id>
32340

> <s_m_entry_name>
dock_pv.603

> <s_m_Source_Path>
/home/csk/Desktop/cluster/DUD-E-result/src

> <s_m_Source_File>
dock_pv.maegz

> <i_m_Source_File_Index>
603

> <chembl_id>
CHEMBL472036

> <chembl_pref_name>
None

> <i_lp_mmshare_version>
53161

> <r_lp_tautomer_probability>
1

> <s_lp_Force_Field>
OPLS_2005

> <r_lp_Energy>
30.166469

> <b_lp_Chiralities_Consistent>
1

> <s_lp_Variant>
CHEMBL267_lig1451-1

> <s_i_glide_gridfile>
glide-grid_3el8

> <i_i_glide_lignum>
1619

> <i_i_glide_rotatable_bonds>
7

> <r_i_docking_score>
-6.79962368569

> <r_i_glide_ligand_efficiency>
-0.219342699538387

> <r_i_glide_ligand_efficiency_sa>
-0.689038911784471

> <r_i_glide_ligand_efficiency_ln>
-1.53352352456316

> <r_i_glide_gscore>
-6.79962368569

> <r_i_glide_lipo>
-3.23142657803587

> <r_i_glide_hbond>
-0.305279577841754

> <r_i_glide_metal>
0

> <r_i_glide_rewards>
-1.40507211849011

> <r_i_glide_evdw>
-39.7611503601074

> <r_i_glide_ecoul>
-3.51421284675598

> <r_i_glide_erotb>
0.686332896217707

> <r_i_glide_esite>
-0.028988862521204

> <r_i_glide_emodel>
-52.8753527294472

> <r_i_glide_energy>
-43.2753632068634

> <r_i_glide_einternal>
7.1052827835083

> <i_i_glide_confnum>
6

> <i_i_glide_posenum>
33

> <r_i_glide_eff_state_penalty>
0

> <s_user_duplicate_titles>
CHEMBL267_lig1451,517077

> <i_f3d_flags>
0

> <s_m_subgroup_title>
dock_pv

> <s_m_subgroupid>
dock_pv

> <b_m_subgroup_collapsed>
1

$$$$
281927
                    3D
 Schrodinger Suite 2021-1.
 40 43  0  0  1  0            999 V2000
    1.0011    6.2354    9.5740 C   0  0  0  0  0  0
    0.7618    6.4955    8.2266 C   0  0  0  0  0  0
    1.7714    7.0404    7.4359 C   0  0  0  0  0  0
    3.0223    7.3253    7.9925 C   0  0  0  0  0  0
    3.2494    7.0674    9.3491 C   0  0  0  0  0  0
    2.2412    6.5217   10.1398 C   0  0  0  0  0  0
    4.1119    7.8789    7.1338 C   0  0  0  0  0  0
    3.9742    8.8426    6.1417 C   0  0  0  0  0  0
    5.1918    9.1776    5.5815 N   0  0  0  0  0  0
    6.1685    8.4528    6.2430 C   0  0  0  0  0  0
    5.5226    7.5700    7.1584 C   0  0  0  0  0  0
    6.3812    6.6350    7.7763 C   0  0  0  0  0  0
    7.7225    6.6654    7.5879 N   0  0  0  0  0  0
    8.1984    7.6199    6.7559 C   0  0  0  0  0  0
    7.4894    8.5161    6.0286 N   0  0  0  0  0  0
    5.8909    5.5583    8.5071 N   0  0  0  0  0  0
    5.4179   10.1064    4.4627 C   0  0  2  0  0  0
    5.0548   11.5676    4.7548 C   0  0  0  0  0  0
    4.6652   12.1751    3.3904 C   0  0  0  0  0  0
    4.6306   11.0361    2.3468 C   0  0  2  0  0  0
    4.6147    9.7588    3.1991 C   0  0  0  0  0  0
    5.8302   11.0375    1.5888 O   0  0  0  0  0  0
    0.2177    5.8079   10.1839 H   0  0  0  0  0  0
   -0.2014    6.2636    7.7966 H   0  0  0  0  0  0
    1.5846    7.2240    6.3876 H   0  0  0  0  0  0
    4.2049    7.2948    9.7985 H   0  0  0  0  0  0
    2.4235    6.3167   11.1854 H   0  0  0  0  0  0
    3.0790    9.3312    5.7853 H   0  0  0  0  0  0
    9.2705    7.6477    6.6222 H   0  0  0  0  0  0
    4.8951    5.4690    8.6522 H   0  0  0  0  0  0
    6.5436    4.8825    8.8835 H   0  0  0  0  0  0
    6.4768   10.0562    4.2005 H   0  0  0  0  0  0
    4.1973   11.6318    5.4266 H   0  0  0  0  0  0
    5.8828   12.1058    5.2182 H   0  0  0  0  0  0
    5.3313   12.9897    3.0974 H   0  0  0  0  0  0
    3.6682   12.6092    3.4815 H   0  0  0  0  0  0
    3.7679   11.1100    1.6822 H   0  0  0  0  0  0
    4.9984    8.8842    2.6723 H   0  0  0  0  0  0
    3.5757    9.5438    3.4539 H   0  0  0  0  0  0
    5.7788   11.7353    0.9219 H   0  0  0  0  0  0
  1  6  1  0  0  0
  1  2  2  0  0  0
  1 23  1  0  0  0
  2  3  1  0  0  0
  2 24  1  0  0  0
  3  4  2  0  0  0
  3 25  1  0  0  0
  4  5  1  0  0  0
  4  7  1  0  0  0
  5  6  2  0  0  0
  5 26  1  0  0  0
  6 27  1  0  0  0
  7 11  1  0  0  0
  7  8  2  0  0  0
  8  9  1  0  0  0
  8 28  1  0  0  0
  9 10  1  0  0  0
  9 17  1  0  0  0
 10 15  1  0  0  0
 10 11  2  0  0  0
 11 12  1  0  0  0
 12 13  2  0  0  0
 12 16  1  0  0  0
 13 14  1  0  0  0
 14 15  2  0  0  0
 14 29  1  0  0  0
 16 30  1  0  0  0
 16 31  1  0  0  0
 17 21  1  0  0  0
 17 18  1  0  0  0
 17 32  1  0  0  0
 18 19  1  0  0  0
 18 33  1  0  0  0
 18 34  1  0  0  0
 19 20  1  0  0  0
 19 35  1  0  0  0
 19 36  1  0  0  0
 20 21  1  0  0  0
 20 22  1  0  0  0
 20 37  1  0  0  0
 21 38  1  0  0  0
 21 39  1  0  0  0
 22 40  1  0  0  0
M  END
> <s_m_entry_id>
33884

> <s_m_entry_name>
ligand_docking-pose.18

> <s_m_Source_Path>
/home/csk/Desktop/cluster/DUD-E-result/src

> <s_m_Source_File>
ligand_docking-pose.sdf

> <i_m_Source_File_Index>
18

> <i_lp_mmshare_version>
53161

> <i_f3d_flags>
0

> <r_lp_tautomer_probability>
1

> <s_lp_Force_Field>
OPLS_2005

> <r_lp_Energy>
34.467268

> <b_lp_Chiralities_Consistent>
1

> <s_lp_Variant>
281927-3

> <s_i_glide_gridfile>
glide-grid_3el8

> <i_i_glide_lignum>
49

> <i_i_glide_rotatable_bonds>
3

> <r_i_docking_score>
-8.9299776054227

> <r_i_glide_ligand_efficiency>
-0.405908072973759

> <r_i_glide_ligand_efficiency_sa>
-1.13737038393112

> <r_i_glide_ligand_efficiency_ln>
-2.18281225561278

> <r_i_glide_gscore>
-8.9299776054227

> <r_i_glide_lipo>
-2.21449797680838

> <r_i_glide_hbond>
-0.58605996048191

> <r_i_glide_metal>
0

> <r_i_glide_rewards>
-3.46109069916934

> <r_i_glide_evdw>
-34.0972213745117

> <r_i_glide_ecoul>
-8.39306545257568

> <r_i_glide_erotb>
0.295491917648861

> <r_i_glide_esite>
0

> <r_i_glide_emodel>
-64.0038537275103

> <r_i_glide_energy>
-42.4902868270874

> <r_i_glide_einternal>
0.429239064455032

> <i_i_glide_confnum>
1

> <i_i_glide_posenum>
399

> <r_i_glide_eff_state_penalty>
0

> <s_user_duplicate_titles>
281927

> <s_m_subgroup_title>
dock_pv

> <s_m_subgroupid>
dock_pv1

> <b_m_subgroup_collapsed>
0

$$$$
281925
                    3D
 Schrodinger Suite 2021-1.
 44 47  0  0  1  0            999 V2000
   -0.5939    4.2250    9.1880 C   0  0  0  0  0  0
    0.2826    4.9011    8.2918 O   0  0  0  0  0  0
    1.2957    5.6868    8.8030 C   0  0  0  0  0  0
    1.5609    5.8436   10.1732 C   0  0  0  0  0  0
    2.6241    6.6370   10.6009 C   0  0  0  0  0  0
    3.4323    7.2828    9.6672 C   0  0  0  0  0  0
    3.1755    7.1498    8.3007 C   0  0  0  0  0  0
    2.1041    6.3564    7.8794 C   0  0  0  0  0  0
    4.0406    7.8595    7.3210 C   0  0  0  0  0  0
    3.6368    8.7743    6.3640 C   0  0  0  0  0  0
    4.7105    9.2623    5.6450 N   0  0  0  0  0  0
    5.8569    8.6372    6.1177 C   0  0  0  0  0  0
    5.4570    7.7009    7.1134 C   0  0  0  0  0  0
    6.4858    6.8651    7.5880 C   0  0  0  0  0  0
    7.7743    7.0218    7.2008 N   0  0  0  0  0  0
    8.0189    7.9982    6.2946 C   0  0  0  0  0  0
    7.1180    8.8173    5.6949 N   0  0  0  0  0  0
    6.1980    5.7674    8.3880 N   0  0  0  0  0  0
    4.6114   10.2097    4.5305 C   0  0  2  0  0  0
    5.1452    9.7879    3.1475 C   0  0  0  0  0  0
    5.4446   11.2741    2.9050 C   0  0  1  0  0  0
    5.5414   11.4399    4.4318 C   0  0  0  0  0  0
    6.6860   11.6275    2.0681 C   0  0  0  0  0  0
    6.5980   11.0370    0.7880 O   0  0  0  0  0  0
   -1.3580    3.6958    8.6186 H   0  0  0  0  0  0
   -0.0594    3.4882    9.7897 H   0  0  0  0  0  0
   -1.1043    4.9240    9.8508 H   0  0  0  0  0  0
    0.9594    5.3484   10.9200 H   0  0  0  0  0  0
    2.8307    6.7395   11.6565 H   0  0  0  0  0  0
    4.2549    7.8938   10.0083 H   0  0  0  0  0  0
    1.9025    6.2423    6.8244 H   0  0  0  0  0  0
    2.6421    9.1356    6.1451 H   0  0  0  0  0  0
    9.0482    8.1171    5.9880 H   0  0  0  0  0  0
    5.2429    5.6133    8.6805 H   0  0  0  0  0  0
    6.9433    5.1542    8.6881 H   0  0  0  0  0  0
    3.5584   10.5019    4.4853 H   0  0  0  0  0  0
    6.0335    9.1582    3.2245 H   0  0  0  0  0  0
    4.4213    9.3066    2.4907 H   0  0  0  0  0  0
    4.5899   11.8054    2.4776 H   0  0  0  0  0  0
    5.1506   12.3630    4.8614 H   0  0  0  0  0  0
    6.5331   11.2434    4.8433 H   0  0  0  0  0  0
    6.8271   12.7065    1.9943 H   0  0  0  0  0  0
    7.5794   11.2201    2.5435 H   0  0  0  0  0  0
    6.2210   11.6790    0.1564 H   0  0  0  0  0  0
  1  2  1  0  0  0
  1 25  1  0  0  0
  1 26  1  0  0  0
  1 27  1  0  0  0
  2  3  1  0  0  0
  3  8  1  0  0  0
  3  4  2  0  0  0
  4  5  1  0  0  0
  4 28  1  0  0  0
  5  6  2  0  0  0
  5 29  1  0  0  0
  6  7  1  0  0  0
  6 30  1  0  0  0
  7  8  2  0  0  0
  7  9  1  0  0  0
  8 31  1  0  0  0
  9 13  1  0  0  0
  9 10  2  0  0  0
 10 11  1  0  0  0
 10 32  1  0  0  0
 11 12  1  0  0  0
 11 19  1  0  0  0
 12 17  1  0  0  0
 12 13  2  0  0  0
 13 14  1  0  0  0
 14 15  2  0  0  0
 14 18  1  0  0  0
 15 16  1  0  0  0
 16 17  2  0  0  0
 16 33  1  0  0  0
 18 34  1  0  0  0
 18 35  1  0  0  0
 19 22  1  0  0  0
 19 20  1  0  0  0
 19 36  1  0  0  0
 20 21  1  0  0  0
 20 37  1  0  0  0
 20 38  1  0  0  0
 21 22  1  0  0  0
 21 23  1  0  0  0
 21 39  1  0  0  0
 22 40  1  0  0  0
 22 41  1  0  0  0
 23 24  1  0  0  0
 23 42  1  0  0  0
 23 43  1  0  0  0
 24 44  1  0  0  0
M  END
> <s_m_entry_id>
33888

> <s_m_entry_name>
ligand_docking-pose.22

> <s_m_Source_Path>
/home/csk/Desktop/cluster/DUD-E-result/src

> <s_m_Source_File>
ligand_docking-pose.sdf

> <i_m_Source_File_Index>
22

> <i_lp_mmshare_version>
53161

> <i_f3d_flags>
0

> <r_lp_tautomer_probability>
1

> <s_lp_Force_Field>
OPLS_2005

> <r_lp_Energy>
26.771251

> <b_lp_Chiralities_Consistent>
1

> <s_lp_Variant>
281925-1

> <s_i_glide_gridfile>
glide-grid_3el8

> <i_i_glide_lignum>
1276

> <i_i_glide_rotatable_bonds>
5

> <r_i_docking_score>
-8.84156377841411

> <r_i_glide_ligand_efficiency>
-0.368398490767254

> <r_i_glide_ligand_efficiency_sa>
-1.06264512889623

> <r_i_glide_ligand_efficiency_ln>
-2.11619192509968

> <r_i_glide_gscore>
-8.84156377841411

> <r_i_glide_lipo>
-2.52148651500362

> <r_i_glide_hbond>
-0.556714326089917

> <r_i_glide_metal>
0

> <r_i_glide_rewards>
-2.95980247370987

> <r_i_glide_evdw>
-34.46923828125

> <r_i_glide_ecoul>
-10.760199546814

> <r_i_glide_erotb>
0.533931382473899

> <r_i_glide_esite>
0

> <r_i_glide_emodel>
-65.775617071744

> <r_i_glide_energy>
-45.229437828064

> <r_i_glide_einternal>
3.89937424659729

> <i_i_glide_confnum>
2

> <i_i_glide_posenum>
287

> <r_i_glide_eff_state_penalty>
0

> <s_user_duplicate_titles>
281925

> <s_m_subgroup_title>
dock_pv

> <s_m_subgroupid>
dock_pv1

> <b_m_subgroup_collapsed>
0

$$$$
281926
                    3D
 Schrodinger Suite 2021-1.
 37 40  0  0  1  0            999 V2000
    1.0206    5.9870    9.4373 C   0  0  0  0  0  0
    0.8003    6.4048    8.1266 C   0  0  0  0  0  0
    1.8327    7.0061    7.4103 C   0  0  0  0  0  0
    3.0872    7.1886    8.0019 C   0  0  0  0  0  0
    3.2983    6.7638    9.3181 C   0  0  0  0  0  0
    2.2668    6.1633   10.0344 C   0  0  0  0  0  0
    4.1844    7.8379    7.2260 C   0  0  0  0  0  0
    4.0358    8.9300    6.3861 C   0  0  0  0  0  0
    5.2449    9.3710    5.8907 N   0  0  0  0  0  0
    6.2339    8.5569    6.4256 C   0  0  0  0  0  0
    5.6025    7.5552    7.2222 C   0  0  0  0  0  0
    6.4795    6.5837    7.7530 C   0  0  0  0  0  0
    7.8200    6.6605    7.5845 N   0  0  0  0  0  0
    8.2800    7.6983    6.8492 C   0  0  0  0  0  0
    7.5549    8.6582    6.2279 N   0  0  0  0  0  0
    6.0149    5.4389    8.3882 N   0  0  0  0  0  0
    5.4180   10.5725    5.0565 C   0  0  2  0  0  0
    4.3718   10.8627    3.9490 C   0  0  0  0  0  0
    5.3491   10.2333    2.9550 C   0  0  2  0  0  0
    6.4725   10.5865    3.9244 C   0  0  0  0  0  0
    5.4066   10.7201    1.6332 O   0  0  0  0  0  0
    0.2187    5.5165    9.9889 H   0  0  0  0  0  0
   -0.1673    6.2557    7.6684 H   0  0  0  0  0  0
    1.6559    7.3183    6.3903 H   0  0  0  0  0  0
    4.2531    6.9155    9.7996 H   0  0  0  0  0  0
    2.4346    5.8367   11.0517 H   0  0  0  0  0  0
    3.1340    9.4688    6.1345 H   0  0  0  0  0  0
    9.3529    7.7538    6.7209 H   0  0  0  0  0  0
    5.0209    5.3209    8.5212 H   0  0  0  0  0  0
    6.6785    4.7603    8.7408 H   0  0  0  0  0  0
    5.5385   11.3786    5.7821 H   0  0  0  0  0  0
    3.4040   10.3679    4.0401 H   0  0  0  0  0  0
    4.1981   11.9250    3.7598 H   0  0  0  0  0  0
    5.2044    9.1555    2.8397 H   0  0  0  0  0  0
    6.9110   11.5673    3.7300 H   0  0  0  0  0  0
    7.2846    9.8662    3.9926 H   0  0  0  0  0  0
    5.4622   11.6803    1.6435 H   0  0  0  0  0  0
  1  6  1  0  0  0
  1  2  2  0  0  0
  1 22  1  0  0  0
  2  3  1  0  0  0
  2 23  1  0  0  0
  3  4  2  0  0  0
  3 24  1  0  0  0
  4  5  1  0  0  0
  4  7  1  0  0  0
  5  6  2  0  0  0
  5 25  1  0  0  0
  6 26  1  0  0  0
  7 11  1  0  0  0
  7  8  2  0  0  0
  8  9  1  0  0  0
  8 27  1  0  0  0
  9 10  1  0  0  0
  9 17  1  0  0  0
 10 15  1  0  0  0
 10 11  2  0  0  0
 11 12  1  0  0  0
 12 13  2  0  0  0
 12 16  1  0  0  0
 13 14  1  0  0  0
 14 15  2  0  0  0
 14 28  1  0  0  0
 16 29  1  0  0  0
 16 30  1  0  0  0
 17 20  1  0  0  0
 17 18  1  0  0  0
 17 31  1  0  0  0
 18 19  1  0  0  0
 18 32  1  0  0  0
 18 33  1  0  0  0
 19 20  1  0  0  0
 19 21  1  0  0  0
 19 34  1  0  0  0
 20 35  1  0  0  0
 20 36  1  0  0  0
 21 37  1  0  0  0
M  END
> <s_m_entry_id>
33889

> <s_m_entry_name>
ligand_docking-pose.23

> <s_m_Source_Path>
/home/csk/Desktop/cluster/DUD-E-result/src

> <s_m_Source_File>
ligand_docking-pose.sdf

> <i_m_Source_File_Index>
23

> <i_lp_mmshare_version>
53161

> <i_f3d_flags>
0

> <r_lp_tautomer_probability>
1

> <s_lp_Force_Field>
OPLS_2005

> <r_lp_Energy>
21.351851

> <b_lp_Chiralities_Consistent>
1

> <s_lp_Variant>
281926-2

> <s_i_glide_gridfile>
glide-grid_3el8

> <i_i_glide_lignum>
44

> <i_i_glide_rotatable_bonds>
3

> <r_i_docking_score>
-8.7961349752029

> <r_i_glide_ligand_efficiency>
-0.418863570247757

> <r_i_glide_ligand_efficiency_sa>
-1.15561282938909

> <r_i_glide_ligand_efficiency_ln>
-2.1748265983546

> <r_i_glide_gscore>
-8.7961349752029

> <r_i_glide_lipo>
-2.13354346039079

> <r_i_glide_hbond>
-0.674982227307716

> <r_i_glide_metal>
0

> <r_i_glide_rewards>
-3.52944568327293

> <r_i_glide_evdw>
-31.6095180511475

> <r_i_glide_ecoul>
-7.99605560302734

> <r_i_glide_erotb>
0.321720638780007

> <r_i_glide_esite>
0

> <r_i_glide_emodel>
-59.2642922718033

> <r_i_glide_energy>
-39.6055736541748

> <r_i_glide_einternal>
0.708404839038849

> <i_i_glide_confnum>
21

> <i_i_glide_posenum>
270

> <r_i_glide_eff_state_penalty>
0

> <s_user_duplicate_titles>
281926

> <s_m_subgroup_title>
dock_pv

> <s_m_subgroupid>
dock_pv1

> <b_m_subgroup_collapsed>
0

$$$$
458490
                    3D
 Schrodinger Suite 2021-1.
 44 46  0  0  1  0            999 V2000
   -0.0192    4.9423   10.6708 C   0  0  0  0  0  0
    1.0371    5.6233    9.8188 C   0  0  0  0  0  0
    2.0688    6.3439   10.4235 C   0  0  0  0  0  0
    3.0084    7.0047    9.6365 C   0  0  0  0  0  0
    2.9186    6.9445    8.2436 C   0  0  0  0  0  0
    1.9022    6.2004    7.6402 C   0  0  0  0  0  0
    0.9569    5.5489    8.4277 C   0  0  0  0  0  0
    3.8974    7.7030    7.4121 C   0  0  0  0  0  0
    5.3097    7.4379    7.3539 C   0  0  0  0  0  0
    6.2166    6.5038    7.9034 C   0  0  0  0  0  0
    7.5351    6.5365    7.5880 N   0  0  0  0  0  0
    7.9454    7.5191    6.7526 C   0  0  0  0  0  0
    7.1851    8.4704    6.1575 N   0  0  0  0  0  0
    5.8820    8.3907    6.4646 C   0  0  0  0  0  0
    4.8751    9.2210    5.9901 N   0  0  0  0  0  0
    3.6616    8.7733    6.5319 C   0  0  0  0  0  0
    2.3876    9.4361    6.1687 C   0  0  0  0  0  0
    2.2312   10.0886    5.1353 O   0  0  0  0  0  0
    1.2023    9.2926    7.1341 C   0  0  0  0  0  0
    0.3702   10.3320    7.0427 F   0  0  0  0  0  0
    5.1420   10.4081    5.1514 C   0  0  0  0  0  0
    5.2688   10.0694    3.6505 C   0  0  0  0  0  0
    5.5429   11.3258    2.7992 C   0  0  0  0  0  0
    5.7980   10.9927    1.4509 O   0  0  0  0  0  0
    5.7979    5.4476    8.7087 N   0  0  0  0  0  0
   -1.0011    5.0355   10.2046 H   0  0  0  0  0  0
   -0.0996    5.4020   11.6567 H   0  0  0  0  0  0
    0.1993    3.8805   10.7855 H   0  0  0  0  0  0
    2.1399    6.3996   11.5005 H   0  0  0  0  0  0
    3.7974    7.5709   10.1105 H   0  0  0  0  0  0
    1.8317    6.1446    6.5631 H   0  0  0  0  0  0
    0.1553    4.9963    7.9581 H   0  0  0  0  0  0
    8.9984    7.5366    6.5121 H   0  0  0  0  0  0
    0.6308    8.3943    6.9050 H   0  0  0  0  0  0
    1.5439    9.2507    8.1681 H   0  0  0  0  0  0
    4.3890   11.1750    5.3297 H   0  0  0  0  0  0
    6.0685   10.8658    5.5037 H   0  0  0  0  0  0
    6.0752    9.3479    3.5079 H   0  0  0  0  0  0
    4.3540    9.5888    3.2989 H   0  0  0  0  0  0
    4.7066   12.0232    2.8696 H   0  0  0  0  0  0
    6.3988   11.8735    3.1964 H   0  0  0  0  0  0
    5.7976   11.7957    0.9130 H   0  0  0  0  0  0
    4.8262    5.3791    8.9788 H   0  0  0  0  0  0
    6.4886    4.7857    9.0415 H   0  0  0  0  0  0
  1  2  1  0  0  0
  1 26  1  0  0  0
  1 27  1  0  0  0
  1 28  1  0  0  0
  2  7  1  0  0  0
  2  3  2  0  0  0
  3  4  1  0  0  0
  3 29  1  0  0  0
  4  5  2  0  0  0
  4 30  1  0  0  0
  5  6  1  0  0  0
  5  8  1  0  0  0
  6  7  2  0  0  0
  6 31  1  0  0  0
  7 32  1  0  0  0
  8 16  2  0  0  0
  8  9  1  0  0  0
  9 14  2  0  0  0
  9 10  1  0  0  0
 10 11  2  0  0  0
 10 25  1  0  0  0
 11 12  1  0  0  0
 12 13  2  0  0  0
 12 33  1  0  0  0
 13 14  1  0  0  0
 14 15  1  0  0  0
 15 16  1  0  0  0
 15 21  1  0  0  0
 16 17  1  0  0  0
 17 18  2  0  0  0
 17 19  1  0  0  0
 19 20  1  0  0  0
 19 34  1  0  0  0
 19 35  1  0  0  0
 21 22  1  0  0  0
 21 36  1  0  0  0
 21 37  1  0  0  0
 22 23  1  0  0  0
 22 38  1  0  0  0
 22 39  1  0  0  0
 23 24  1  0  0  0
 23 40  1  0  0  0
 23 41  1  0  0  0
 24 42  1  0  0  0
 25 43  1  0  0  0
 25 44  1  0  0  0
M  END
> <s_m_entry_id>
33890

> <s_m_entry_name>
ligand_docking-pose.24

> <s_m_Source_Path>
/home/csk/Desktop/cluster/DUD-E-result/src

> <s_m_Source_File>
ligand_docking-pose.sdf

> <i_m_Source_File_Index>
24

> <i_lp_mmshare_version>
53161

> <i_f3d_flags>
0

> <r_lp_tautomer_probability>
0.99990000499975

> <s_lp_Force_Field>
OPLS_2005

> <r_lp_Energy>
20.177809

> <b_lp_Chiralities_Consistent>
1

> <s_lp_Variant>
458490-1

> <s_i_glide_gridfile>
glide-grid_3el8

> <i_i_glide_lignum>
272

> <i_i_glide_rotatable_bonds>
7

> <r_i_docking_score>
-8.78725067102524

> <r_i_glide_ligand_efficiency>
-0.351490026841009

> <r_i_glide_ligand_efficiency_sa>
-1.02776307218528

> <r_i_glide_ligand_efficiency_ln>
-2.08284174168595

> <r_i_glide_gscore>
-8.78725067102524

> <r_i_glide_lipo>
-2.40606180684935

> <r_i_glide_hbond>
-0.672118692827773

> <r_i_glide_metal>
0

> <r_i_glide_rewards>
-3.20008473773028

> <r_i_glide_evdw>
-36.2713165283203

> <r_i_glide_ecoul>
-8.39819240570068

> <r_i_glide_erotb>
0.56618514136648

> <r_i_glide_esite>
-0.00187588771319347

> <r_i_glide_emodel>
-68.9755575178207

> <r_i_glide_energy>
-44.669508934021

> <r_i_glide_einternal>
3.09541988372803

> <i_i_glide_confnum>
80

> <i_i_glide_posenum>
15

> <r_i_glide_eff_state_penalty>
0

> <s_user_duplicate_titles>
458490

> <s_m_subgroup_title>
dock_pv

> <s_m_subgroupid>
dock_pv1

> <b_m_subgroup_collapsed>
0

$$$$
376584
                    3D
 Schrodinger Suite 2021-1.
 53 57  0  0  1  0            999 V2000
    1.3237    5.0386    7.8451 C   0  0  0  0  0  0
    1.3809    5.5551    9.2747 C   0  0  0  0  0  0
    0.2449    5.4140   10.0788 C   0  0  0  0  0  0
    0.2624    5.8371   11.4040 C   0  0  0  0  0  0
    1.3979    6.4562   11.9206 C   0  0  0  0  0  0
    2.5287    6.6365   11.1272 C   0  0  0  0  0  0
    2.5456    6.1428    9.8094 C   0  0  0  0  0  0
    3.7573    6.1588    9.0993 N   0  0  0  0  0  0
    4.1852    7.0484    8.1322 C   0  0  0  0  0  0
    3.3734    7.7571    7.4447 N   0  0  0  0  0  0
    3.8981    8.7264    6.5726 C   0  0  0  0  0  0
    3.0158    9.6408    5.9980 C   0  0  0  0  0  0
    3.5200   10.6806    5.2134 C   0  0  0  0  0  0
    4.9014   10.7619    4.9634 C   0  0  0  0  0  0
    5.7544    9.8122    5.4382 N   0  0  0  0  0  0
    5.2616    8.8309    6.2325 C   0  0  0  0  0  0
    6.1393    7.8711    6.7823 N   0  0  0  0  0  0
    5.7189    7.2199    8.0215 C   0  0  2  0  0  0
    6.6542    6.0096    7.9888 C   0  0  0  0  0  0
    7.7892    6.4108    7.1882 N   0  0  0  0  0  0
    7.4234    7.4382    6.5351 C   0  0  0  0  0  0
    5.4864   11.8697    4.3450 N   0  0  0  0  0  0
    6.8325   11.8436    3.7311 C   0  0  0  0  0  0
    6.7827   11.6787    2.1935 C   0  0  0  0  0  0
    5.9676   12.7286    1.5880 N   0  0  2  0  0  0
    4.6175   12.7427    2.1410 C   0  0  2  0  0  0
    4.7212   12.9392    3.6752 C   0  0  0  0  0  0
    3.7284   11.5582    1.7156 C   0  0  0  0  0  0
    3.9031    7.4230   11.8339 Cl  0  0  0  0  0  0
    4.1633   13.6425    1.7227 H   0  0  0  0  0  0
    2.0759    4.2641    7.6884 H   0  0  0  0  0  0
    0.3410    4.6381    7.5894 H   0  0  0  0  0  0
    1.5341    5.8415    7.1399 H   0  0  0  0  0  0
   -0.6579    4.9650    9.6855 H   0  0  0  0  0  0
   -0.6183    5.7178   12.0197 H   0  0  0  0  0  0
    1.3980    6.7993   12.9446 H   0  0  0  0  0  0
    4.4916    5.7319    9.6476 H   0  0  0  0  0  0
    1.9578    9.5815    6.2077 H   0  0  0  0  0  0
    2.8299   11.4153    4.8335 H   0  0  0  0  0  0
    6.0468    7.9121    8.7895 H   0  0  0  0  0  0
    6.9865    5.6951    8.9690 H   0  0  0  0  0  0
    6.1941    5.1096    7.5879 H   0  0  0  0  0  0
    8.0417    7.9659    5.8133 H   0  0  0  0  0  0
    7.3530   12.7687    3.9872 H   0  0  0  0  0  0
    7.4464   11.0421    4.1424 H   0  0  0  0  0  0
    7.7858   11.7311    1.7687 H   0  0  0  0  0  0
    6.3971   10.6961    1.9204 H   0  0  0  0  0  0
    5.9201   12.6373    0.5703 H   0  0  0  0  0  0
    3.7411   13.1304    4.1080 H   0  0  0  0  0  0
    5.2527   13.8746    3.8650 H   0  0  0  0  0  0
    2.7038   11.6996    2.0577 H   0  0  0  0  0  0
    3.7033   11.4563    0.6295 H   0  0  0  0  0  0
    4.0806   10.6123    2.1277 H   0  0  0  0  0  0
  1  2  1  0  0  0
  1 31  1  0  0  0
  1 32  1  0  0  0
  1 33  1  0  0  0
  2  7  1  0  0  0
  2  3  2  0  0  0
  3  4  1  0  0  0
  3 34  1  0  0  0
  4  5  2  0  0  0
  4 35  1  0  0  0
  5  6  1  0  0  0
  5 36  1  0  0  0
  6  7  2  0  0  0
  6 29  1  0  0  0
  7  8  1  0  0  0
  8  9  1  0  0  0
  8 37  1  0  0  0
  9 18  1  0  0  0
  9 10  2  0  0  0
 10 11  1  0  0  0
 11 16  2  0  0  0
 11 12  1  0  0  0
 12 13  2  0  0  0
 12 38  1  0  0  0
 13 14  1  0  0  0
 13 39  1  0  0  0
 14 15  2  0  0  0
 14 22  1  0  0  0
 15 16  1  0  0  0
 16 17  1  0  0  0
 17 21  1  0  0  0
 17 18  1  0  0  0
 18 19  1  0  0  0
 18 40  1  0  0  0
 19 20  1  0  0  0
 19 41  1  0  0  0
 19 42  1  0  0  0
 20 21  2  0  0  0
 21 43  1  0  0  0
 22 27  1  0  0  0
 22 23  1  0  0  0
 23 24  1  0  0  0
 23 44  1  0  0  0
 23 45  1  0  0  0
 24 25  1  0  0  0
 24 46  1  0  0  0
 24 47  1  0  0  0
 25 26  1  0  0  0
 25 48  1  0  0  0
 26 30  1  0  0  0
 26 27  1  0  0  0
 26 28  1  0  0  0
 27 49  1  0  0  0
 27 50  1  0  0  0
 28 51  1  0  0  0
 28 52  1  0  0  0
 28 53  1  0  0  0
M  END
> <s_m_entry_id>
33900

> <s_m_entry_name>
ligand_docking-pose.34

> <s_m_Source_Path>
/home/csk/Desktop/cluster/DUD-E-result/src

> <s_m_Source_File>
ligand_docking-pose.sdf

> <i_m_Source_File_Index>
34

> <i_lp_mmshare_version>
53161

> <i_f3d_flags>
0

> <r_lp_tautomer_probability>
0.999601159137504

> <s_lp_Force_Field>
OPLS_2005

> <r_lp_Energy>
51.869989

> <b_lp_Chiralities_Consistent>
1

> <s_lp_Variant>
376584-2

> <s_i_glide_gridfile>
glide-grid_3el8

> <i_i_glide_lignum>
437

> <i_i_glide_rotatable_bonds>
3

> <r_i_docking_score>
-8.57477837293492

> <r_i_glide_ligand_efficiency>
-0.295682012859825

> <r_i_glide_ligand_efficiency_sa>
-0.90842882214225

> <r_i_glide_ligand_efficiency_ln>
-1.96340680978359

> <r_i_glide_gscore>
-8.57477837293492

> <r_i_glide_lipo>
-2.9381746364567

> <r_i_glide_hbond>
-0.557226182891038

> <r_i_glide_metal>
0

> <r_i_glide_rewards>
-2.5561352642703

> <r_i_glide_evdw>
-40.435375213623

> <r_i_glide_ecoul>
-5.68741130828857

> <r_i_glide_erotb>
0.351638167607562

> <r_i_glide_esite>
0

> <r_i_glide_emodel>
-65.5131341598521

> <r_i_glide_energy>
-46.1227865219116

> <r_i_glide_einternal>
5.10132837295532

> <i_i_glide_confnum>
1

> <i_i_glide_posenum>
216

> <r_i_glide_eff_state_penalty>
0

> <s_user_duplicate_titles>
376584

> <s_m_subgroup_title>
dock_pv

> <s_m_subgroupid>
dock_pv1

> <b_m_subgroup_collapsed>
0

$$$$
88664
                    3D
 Schrodinger Suite 2021-1.
 35 37  0  0  1  0            999 V2000
    3.6011    7.2839   11.6729 C   0  0  0  0  0  0
    2.3578    6.6368   11.0686 C   0  0  0  0  0  0
    1.3392    6.2373   11.9360 C   0  0  0  0  0  0
    0.1973    5.6210   11.4456 C   0  0  0  0  0  0
    0.0638    5.3875   10.0830 C   0  0  0  0  0  0
    1.0648    5.7822    9.1946 C   0  0  0  0  0  0
    2.2224    6.4276    9.6777 C   0  0  0  0  0  0
    3.3018    6.8680    8.7458 C   0  0  0  0  0  0
    4.5291    6.2100    8.7875 C   0  0  0  0  0  0
    5.5902    6.6720    7.9899 C   0  0  0  0  0  0
    6.8854    6.1249    7.9867 C   0  0  0  0  0  0
    7.8918    6.6373    7.2449 N   0  0  0  0  0  0
    7.5784    7.7168    6.4941 C   0  0  0  0  0  0
    6.3750    8.3246    6.3910 N   0  0  0  0  0  0
    5.3727    7.7937    7.1428 C   0  0  0  0  0  0
    4.1568    8.3876    7.0458 N   0  0  0  0  0  0
    3.1628    7.9369    7.8450 C   0  0  0  0  0  0
    1.9692    8.6369    7.7383 N   0  0  0  0  0  0
    8.5979    8.2499    5.7368 N   0  0  0  0  0  0
    0.8821    5.4457    7.7208 C   0  0  0  0  0  0
    3.8159    8.2346   11.1844 H   0  0  0  0  0  0
    3.4935    7.4696   12.7425 H   0  0  0  0  0  0
    4.4677    6.6376   11.5398 H   0  0  0  0  0  0
    1.4286    6.4062   12.9992 H   0  0  0  0  0  0
   -0.5950    5.3314   12.1204 H   0  0  0  0  0  0
   -0.8332    4.9036    9.7206 H   0  0  0  0  0  0
    4.6843    5.3786    9.4570 H   0  0  0  0  0  0
    7.1144    5.2668    8.6028 H   0  0  0  0  0  0
    1.1707    8.2882    8.2421 H   0  0  0  0  0  0
    1.8959    9.3383    7.0178 H   0  0  0  0  0  0
    9.4021    7.6492    5.5646 H   0  0  0  0  0  0
    8.3451    8.9848    5.0979 H   0  0  0  0  0  0
    0.5334    6.3110    7.1587 H   0  0  0  0  0  0
    1.8206    5.1023    7.2831 H   0  0  0  0  0  0
    0.1631    4.6364    7.5884 H   0  0  0  0  0  0
  1  2  1  0  0  0
  1 21  1  0  0  0
  1 22  1  0  0  0
  1 23  1  0  0  0
  2  7  1  0  0  0
  2  3  2  0  0  0
  3  4  1  0  0  0
  3 24  1  0  0  0
  4  5  2  0  0  0
  4 25  1  0  0  0
  5  6  1  0  0  0
  5 26  1  0  0  0
  6  7  2  0  0  0
  6 20  1  0  0  0
  7  8  1  0  0  0
  8 17  1  0  0  0
  8  9  2  0  0  0
  9 10  1  0  0  0
  9 27  1  0  0  0
 10 15  2  0  0  0
 10 11  1  0  0  0
 11 12  2  0  0  0
 11 28  1  0  0  0
 12 13  1  0  0  0
 13 14  2  0  0  0
 13 19  1  0  0  0
 14 15  1  0  0  0
 15 16  1  0  0  0
 16 17  2  0  0  0
 17 18  1  0  0  0
 18 29  1  0  0  0
 18 30  1  0  0  0
 19 31  1  0  0  0
 19 32  1  0  0  0
 20 33  1  0  0  0
 20 34  1  0  0  0
 20 35  1  0  0  0
M  END
> <s_m_entry_id>
33901

> <s_m_entry_name>
ligand_docking-pose.35

> <s_m_Source_Path>
/home/csk/Desktop/cluster/DUD-E-result/src

> <s_m_Source_File>
ligand_docking-pose.sdf

> <i_m_Source_File_Index>
35

> <i_lp_mmshare_version>
53161

> <i_f3d_flags>
0

> <r_lp_tautomer_probability>
1

> <s_lp_Force_Field>
OPLS_2005

> <r_lp_Energy>
13.011397

> <b_lp_Chiralities_Consistent>
1

> <s_lp_Variant>
88664-1

> <s_i_glide_gridfile>
glide-grid_3el8

> <i_i_glide_lignum>
293

> <i_i_glide_rotatable_bonds>
1

> <r_i_docking_score>
-8.5701789940539

> <r_i_glide_ligand_efficiency>
-0.428508949702695

> <r_i_glide_ligand_efficiency_sa>
-1.16315224078008

> <r_i_glide_ligand_efficiency_ln>
-2.14483313879065

> <r_i_glide_gscore>
-8.5701789940539

> <r_i_glide_lipo>
-2.22686710581116

> <r_i_glide_hbond>
-0.578536256568571

> <r_i_glide_metal>
0

> <r_i_glide_rewards>
-3.34332011711071

> <r_i_glide_evdw>
-31.7507915496826

> <r_i_glide_ecoul>
-6.73907804489136

> <r_i_glide_erotb>
0.176945769654378

> <r_i_glide_esite>
0

> <r_i_glide_emodel>
-56.9612720418931

> <r_i_glide_energy>
-38.489869594574

> <r_i_glide_einternal>
0.00352235161699355

> <i_i_glide_confnum>
1

> <i_i_glide_posenum>
389

> <r_i_glide_eff_state_penalty>
0

> <s_user_duplicate_titles>
88664

> <s_m_subgroup_title>
dock_pv

> <s_m_subgroupid>
dock_pv1

> <b_m_subgroup_collapsed>
0

$$$$
226974
                    3D
 Schrodinger Suite 2021-1.
 38 40  0  0  1  0            999 V2000
    0.1757    5.5937   11.5153 C   0  0  0  0  0  0
    0.0569    5.3406   10.1534 C   0  0  0  0  0  0
    1.0574    5.7495    9.2756 C   0  0  0  0  0  0
    2.1976    6.4163    9.7624 C   0  0  0  0  0  0
    2.3246    6.6370   11.1460 C   0  0  0  0  0  0
    1.3058    6.2370   12.0073 C   0  0  0  0  0  0
    3.7274    7.4070   11.8260 Cl  0  0  0  0  0  0
    3.2449    6.9001    8.8395 C   0  0  0  0  0  0
    4.4321    6.2583    8.8175 C   0  0  0  0  0  0
    5.5269    6.7345    7.9880 C   0  0  0  0  0  0
    6.8045    6.1747    7.9857 C   0  0  0  0  0  0
    7.7974    6.6681    7.1995 N   0  0  0  0  0  0
    7.4766    7.7411    6.4332 C   0  0  0  0  0  0
    6.2733    8.3592    6.3755 N   0  0  0  0  0  0
    5.2842    7.8369    7.1549 C   0  0  0  0  0  0
    3.9870    8.4444    7.1620 N   0  0  0  0  0  0
    2.9678    8.0848    8.0155 C   0  0  0  0  0  0
    1.8906    8.6849    8.0968 O   0  0  0  0  0  0
    3.7407    9.5823    6.2370 C   0  0  0  0  0  0
    3.4216    9.1669    4.7828 C   0  0  0  0  0  0
    2.1397    8.3326    4.5898 C   0  0  0  0  0  0
    1.0046    9.0509    5.0289 O   0  0  0  0  0  0
    8.4646    8.2370    5.6062 N   0  0  0  0  0  0
    0.8374    5.4371    7.5880 Cl  0  0  0  0  0  0
   -0.6210    5.3058   12.1856 H   0  0  0  0  0  0
   -0.8312    4.8516    9.7765 H   0  0  0  0  0  0
    1.3944    6.4271   13.0669 H   0  0  0  0  0  0
    4.5828    5.4059    9.4629 H   0  0  0  0  0  0
    7.0430    5.3213    8.6053 H   0  0  0  0  0  0
    2.9196   10.2033    6.5983 H   0  0  0  0  0  0
    4.6063   10.2461    6.2358 H   0  0  0  0  0  0
    3.3323   10.0690    4.1761 H   0  0  0  0  0  0
    4.2775    8.6370    4.3660 H   0  0  0  0  0  0
    2.0132    8.0360    3.5475 H   0  0  0  0  0  0
    2.1883    7.4210    5.1867 H   0  0  0  0  0  0
    0.2329    8.4826    4.9568 H   0  0  0  0  0  0
    8.2465    9.0070    4.9959 H   0  0  0  0  0  0
    9.3053    7.6749    5.4906 H   0  0  0  0  0  0
  1  6  1  0  0  0
  1  2  2  0  0  0
  1 25  1  0  0  0
  2  3  1  0  0  0
  2 26  1  0  0  0
  3  4  2  0  0  0
  3 24  1  0  0  0
  4  5  1  0  0  0
  4  8  1  0  0  0
  5  6  2  0  0  0
  5  7  1  0  0  0
  6 27  1  0  0  0
  8 17  1  0  0  0
  8  9  2  0  0  0
  9 10  1  0  0  0
  9 28  1  0  0  0
 10 15  2  0  0  0
 10 11  1  0  0  0
 11 12  2  0  0  0
 11 29  1  0  0  0
 12 13  1  0  0  0
 13 14  2  0  0  0
 13 23  1  0  0  0
 14 15  1  0  0  0
 15 16  1  0  0  0
 16 17  1  0  0  0
 16 19  1  0  0  0
 17 18  2  0  0  0
 19 20  1  0  0  0
 19 30  1  0  0  0
 19 31  1  0  0  0
 20 21  1  0  0  0
 20 32  1  0  0  0
 20 33  1  0  0  0
 21 22  1  0  0  0
 21 34  1  0  0  0
 21 35  1  0  0  0
 22 36  1  0  0  0
 23 37  1  0  0  0
 23 38  1  0  0  0
M  END
> <s_m_entry_id>
33905

> <s_m_entry_name>
ligand_docking-pose.39

> <s_m_Source_Path>
/home/csk/Desktop/cluster/DUD-E-result/src

> <s_m_Source_File>
ligand_docking-pose.sdf

> <i_m_Source_File_Index>
39

> <i_lp_mmshare_version>
53161

> <i_f3d_flags>
0

> <r_lp_tautomer_probability>
1

> <s_lp_Force_Field>
OPLS_2005

> <r_lp_Energy>
24.995448

> <b_lp_Chiralities_Consistent>
1

> <s_lp_Variant>
226974-1

> <s_i_glide_gridfile>
glide-grid_3el8

> <i_i_glide_lignum>
98

> <i_i_glide_rotatable_bonds>
5

> <r_i_docking_score>
-8.48979541248254

> <r_i_glide_ligand_efficiency>
-0.353741475520106

> <r_i_glide_ligand_efficiency_sa>
-1.02036698105664

> <r_i_glide_ligand_efficiency_ln>
-2.03199761353374

> <r_i_glide_gscore>
-8.48979541248254

> <r_i_glide_lipo>
-2.63737542568428

> <r_i_glide_hbond>
-0.511918111799463

> <r_i_glide_metal>
0

> <r_i_glide_rewards>
-2.87660661149391

> <r_i_glide_evdw>
-36.4504585266113

> <r_i_glide_ecoul>
-6.9675612449646

> <r_i_glide_erotb>
0.403761849570359

> <r_i_glide_esite>
0

> <r_i_glide_emodel>
-64.8647069943845

> <r_i_glide_energy>
-43.4180197715759

> <r_i_glide_einternal>
1.32785129547119

> <i_i_glide_confnum>
1

> <i_i_glide_posenum>
363

> <r_i_glide_eff_state_penalty>
0

> <s_user_duplicate_titles>
226974

> <s_m_subgroup_title>
dock_pv

> <s_m_subgroupid>
dock_pv1

> <b_m_subgroup_collapsed>
0

$$$$
226926
                    3D
 Schrodinger Suite 2021-1.
 45 47  0  0  1  0            999 V2000
    1.2959    6.9794    3.3860 C   0  0  0  0  0  0
    1.1624    7.4043    4.7792 N   0  0  0  0  0  0
   -0.1681    6.9993    5.2335 C   0  0  0  0  0  0
    1.3169    8.8574    4.8903 C   0  0  0  0  0  0
    2.7973    9.3228    4.8804 C   0  0  0  0  0  0
    3.4206    9.5762    6.2748 C   0  0  0  0  0  0
    3.7010    8.3978    7.1460 N   0  0  0  0  0  0
    5.0235    7.8374    7.1277 C   0  0  0  0  0  0
    5.3272    6.7686    7.9871 C   0  0  0  0  0  0
    4.2697    6.2635    8.8440 C   0  0  0  0  0  0
    3.0585    6.8560    8.8753 C   0  0  0  0  0  0
    2.7185    8.0170    8.0361 C   0  0  0  0  0  0
    1.6344    8.6016    8.1543 O   0  0  0  0  0  0
    2.0689    6.3599    9.8551 C   0  0  0  0  0  0
    2.2327    6.6369   11.2245 C   0  0  0  0  0  0
    1.2541    6.2379   12.1336 C   0  0  0  0  0  0
    0.1294    5.5459   11.7009 C   0  0  0  0  0  0
   -0.0100    5.2103   10.3618 C   0  0  0  0  0  0
    0.9545    5.6084    9.4435 C   0  0  0  0  0  0
    0.7339    5.1431    7.8015 Cl  0  0  0  0  0  0
    3.6507    7.4366   11.8325 Cl  0  0  0  0  0  0
    6.6296    6.2710    7.9879 C   0  0  0  0  0  0
    7.5959    6.7997    7.1928 N   0  0  0  0  0  0
    7.2217    7.8363    6.4028 C   0  0  0  0  0  0
    5.9840    8.3843    6.3264 N   0  0  0  0  0  0
    8.1984    8.3765    5.5883 N   0  0  0  0  0  0
    1.3309    5.8916    3.3172 H   0  0  0  0  0  0
    2.1979    7.3663    2.9196 H   0  0  0  0  0  0
    0.4556    7.3313    2.7860 H   0  0  0  0  0  0
   -0.2764    5.9147    5.1869 H   0  0  0  0  0  0
   -0.3321    7.2974    6.2700 H   0  0  0  0  0  0
   -0.9645    7.4371    4.6295 H   0  0  0  0  0  0
    0.7503    9.3640    4.1055 H   0  0  0  0  0  0
    0.8614    9.1885    5.8246 H   0  0  0  0  0  0
    3.4515    8.6369    4.3505 H   0  0  0  0  0  0
    2.8393   10.2574    4.3209 H   0  0  0  0  0  0
    4.3259   10.1696    6.1456 H   0  0  0  0  0  0
    2.7406   10.2485    6.7880 H   0  0  0  0  0  0
    4.4704    5.4362    9.5099 H   0  0  0  0  0  0
    1.3691    6.4726   13.1822 H   0  0  0  0  0  0
   -0.6470    5.2691   12.3970 H   0  0  0  0  0  0
   -0.8821    4.6611   10.0340 H   0  0  0  0  0  0
    6.9154    5.4438    8.6240 H   0  0  0  0  0  0
    9.1028    7.9207    5.5568 H   0  0  0  0  0  0
    7.9570    9.1410    4.9790 H   0  0  0  0  0  0
  1  2  1  0  0  0
  1 27  1  0  0  0
  1 28  1  0  0  0
  1 29  1  0  0  0
  2  3  1  0  0  0
  2  4  1  0  0  0
  3 30  1  0  0  0
  3 31  1  0  0  0
  3 32  1  0  0  0
  4  5  1  0  0  0
  4 33  1  0  0  0
  4 34  1  0  0  0
  5  6  1  0  0  0
  5 35  1  0  0  0
  5 36  1  0  0  0
  6  7  1  0  0  0
  6 37  1  0  0  0
  6 38  1  0  0  0
  7 12  1  0  0  0
  7  8  1  0  0  0
  8 25  2  0  0  0
  8  9  1  0  0  0
  9 10  1  0  0  0
  9 22  2  0  0  0
 10 11  2  0  0  0
 10 39  1  0  0  0
 11 12  1  0  0  0
 11 14  1  0  0  0
 12 13  2  0  0  0
 14 19  1  0  0  0
 14 15  2  0  0  0
 15 16  1  0  0  0
 15 21  1  0  0  0
 16 17  2  0  0  0
 16 40  1  0  0  0
 17 18  1  0  0  0
 17 41  1  0  0  0
 18 19  2  0  0  0
 18 42  1  0  0  0
 19 20  1  0  0  0
 22 23  1  0  0  0
 22 43  1  0  0  0
 23 24  2  0  0  0
 24 25  1  0  0  0
 24 26  1  0  0  0
 26 44  1  0  0  0
 26 45  1  0  0  0
M  END
> <s_m_entry_id>
33907

> <s_m_entry_name>
ligand_docking-pose.41

> <s_m_Source_Path>
/home/csk/Desktop/cluster/DUD-E-result/src

> <s_m_Source_File>
ligand_docking-pose.sdf

> <i_m_Source_File_Index>
41

> <i_lp_mmshare_version>
53161

> <i_f3d_flags>
0

> <r_lp_tautomer_probability>
1

> <s_lp_Force_Field>
OPLS_2005

> <r_lp_Energy>
24.480528

> <b_lp_Chiralities_Consistent>
1

> <s_lp_Variant>
226926-1

> <s_i_glide_gridfile>
glide-grid_3el8

> <i_i_glide_lignum>
1134

> <i_i_glide_rotatable_bonds>
5

> <r_i_docking_score>
-8.43986595971229

> <r_i_glide_ligand_efficiency>
-0.324610229219704

> <r_i_glide_ligand_efficiency_sa>
-0.961656526783797

> <r_i_glide_ligand_efficiency_ln>
-1.98207482717944

> <r_i_glide_gscore>
-8.43986595971229

> <r_i_glide_lipo>
-3.12089443830028

> <r_i_glide_hbond>
-0.337941213137671

> <r_i_glide_metal>
0

> <r_i_glide_rewards>
-2.4423431265373

> <r_i_glide_evdw>
-41.6337928771973

> <r_i_glide_ecoul>
-5.4148645401001

> <r_i_glide_erotb>
0.355232143137837

> <r_i_glide_esite>
0

> <r_i_glide_emodel>
-69.375165869549

> <r_i_glide_energy>
-47.0486574172974

> <r_i_glide_einternal>
4.17777633666992

> <i_i_glide_confnum>
9

> <i_i_glide_posenum>
158

> <r_i_glide_eff_state_penalty>
0

> <s_user_duplicate_titles>
226926

> <s_m_subgroup_title>
dock_pv

> <s_m_subgroupid>
dock_pv1

> <b_m_subgroup_collapsed>
0

$$$$
227460
                    3D
 Schrodinger Suite 2021-1.
 34 36  0  0  1  0            999 V2000
    3.5085    9.1824    4.7841 C   0  0  0  0  0  0
    3.7980    9.6365    6.2230 C   0  0  0  0  0  0
    3.9937    8.5025    7.1596 N   0  0  0  0  0  0
    5.2717    7.8611    7.1810 C   0  0  0  0  0  0
    5.4523    6.7297    7.9880 C   0  0  0  0  0  0
    4.3093    6.2631    8.7716 C   0  0  0  0  0  0
    3.1347    6.9358    8.7635 C   0  0  0  0  0  0
    2.9372    8.1622    7.9735 C   0  0  0  0  0  0
    1.8864    8.8111    8.0374 O   0  0  0  0  0  0
    1.9971    6.4068    9.5594 C   0  0  0  0  0  0
    0.8590    5.8714    8.9213 C   0  0  0  0  0  0
   -0.2020    5.3740    9.6762 C   0  0  0  0  0  0
   -0.1577    5.4161   11.0654 C   0  0  0  0  0  0
    0.9536    5.9489   11.7074 C   0  0  0  0  0  0
    2.0320    6.4317   10.9680 C   0  0  0  0  0  0
    3.3980    7.0370   11.8445 Cl  0  0  0  0  0  0
    0.7103    5.8370    7.1948 Cl  0  0  0  0  0  0
    6.7131    6.1297    7.9880 C   0  0  0  0  0  0
    7.7509    6.6338    7.2693 N   0  0  0  0  0  0
    7.4890    7.7411    6.5371 C   0  0  0  0  0  0
    6.3032    8.3888    6.4596 N   0  0  0  0  0  0
    8.5235    8.2370    5.7682 N   0  0  0  0  0  0
    3.3297   10.0430    4.1395 H   0  0  0  0  0  0
    4.3531    8.6370    4.3628 H   0  0  0  0  0  0
    2.6227    8.5475    4.7358 H   0  0  0  0  0  0
    2.9937   10.2973    6.5468 H   0  0  0  0  0  0
    4.6857   10.2705    6.2227 H   0  0  0  0  0  0
    4.3992    5.3633    9.3637 H   0  0  0  0  0  0
   -1.0819    4.9793    9.1880 H   0  0  0  0  0  0
   -0.9956    5.0474   11.6398 H   0  0  0  0  0  0
    0.9823    5.9803   12.7869 H   0  0  0  0  0  0
    6.9137    5.2478    8.5810 H   0  0  0  0  0  0
    8.3387    9.0294    5.1759 H   0  0  0  0  0  0
    9.3356    7.6409    5.6229 H   0  0  0  0  0  0
  1  2  1  0  0  0
  1 23  1  0  0  0
  1 24  1  0  0  0
  1 25  1  0  0  0
  2  3  1  0  0  0
  2 26  1  0  0  0
  2 27  1  0  0  0
  3  8  1  0  0  0
  3  4  1  0  0  0
  4 21  2  0  0  0
  4  5  1  0  0  0
  5  6  1  0  0  0
  5 18  2  0  0  0
  6  7  2  0  0  0
  6 28  1  0  0  0
  7  8  1  0  0  0
  7 10  1  0  0  0
  8  9  2  0  0  0
 10 15  1  0  0  0
 10 11  2  0  0  0
 11 12  1  0  0  0
 11 17  1  0  0  0
 12 13  2  0  0  0
 12 29  1  0  0  0
 13 14  1  0  0  0
 13 30  1  0  0  0
 14 15  2  0  0  0
 14 31  1  0  0  0
 15 16  1  0  0  0
 18 19  1  0  0  0
 18 32  1  0  0  0
 19 20  2  0  0  0
 20 21  1  0  0  0
 20 22  1  0  0  0
 22 33  1  0  0  0
 22 34  1  0  0  0
M  END
> <s_m_entry_id>
33912

> <s_m_entry_name>
ligand_docking-pose.46

> <s_m_Source_Path>
/home/csk/Desktop/cluster/DUD-E-result/src

> <s_m_Source_File>
ligand_docking-pose.sdf

> <i_m_Source_File_Index>
46

> <i_lp_mmshare_version>
53161

> <i_f3d_flags>
0

> <r_lp_tautomer_probability>
1

> <s_lp_Force_Field>
OPLS_2005

> <r_lp_Energy>
21.756783

> <b_lp_Chiralities_Consistent>
1

> <s_lp_Variant>
227460-1

> <s_i_glide_gridfile>
glide-grid_3el8

> <i_i_glide_lignum>
658

> <i_i_glide_rotatable_bonds>
2

> <r_i_docking_score>
-8.36458695561418

> <r_i_glide_ligand_efficiency>
-0.380208497982463

> <r_i_glide_ligand_efficiency_sa>
-1.06535916409858

> <r_i_glide_ligand_efficiency_ln>
-2.04461015767454

> <r_i_glide_gscore>
-8.36458695561418

> <r_i_glide_lipo>
-2.18655251154411

> <r_i_glide_hbond>
-0.506504615762524

> <r_i_glide_metal>
0

> <r_i_glide_rewards>
-3.09610343359221

> <r_i_glide_evdw>
-33.9031295776367

> <r_i_glide_ecoul>
-6.65227270126343

> <r_i_glide_erotb>
0.117570989356013

> <r_i_glide_esite>
0

> <r_i_glide_emodel>
-59.9632036816538

> <r_i_glide_energy>
-40.5554022789001

> <r_i_glide_einternal>
1.63358998298645

> <i_i_glide_confnum>
2

> <i_i_glide_posenum>
78

> <r_i_glide_eff_state_penalty>
0

> <s_user_duplicate_titles>
227460

> <s_m_subgroup_title>
dock_pv

> <s_m_subgroupid>
dock_pv1

> <b_m_subgroup_collapsed>
0

$$$$
281899
                    3D
 Schrodinger Suite 2021-1.
 51 54  0  0  1  0            999 V2000
    1.5339   10.1028    2.5896 C   0  0  0  0  0  0
    0.9980   10.2502    3.8992 O   0  0  0  0  0  0
    1.0022    9.1687    4.7579 C   0  0  0  0  0  0
    0.5979    9.4161    6.0702 C   0  0  0  0  0  0
    0.7007    8.4286    7.0442 C   0  0  0  0  0  0
    1.2841    7.2055    6.7150 C   0  0  0  0  0  0
    1.5662    6.9025    5.3813 C   0  0  0  0  0  0
    1.4170    7.8786    4.4010 C   0  0  0  0  0  0
    1.7785    6.2768    7.8173 C   0  0  0  0  0  0
    3.0240    6.7752    8.6345 C   0  0  2  0  0  0
    2.6716    7.6522    9.8583 C   0  0  0  0  0  0
    3.7980    7.8368   10.6983 O   0  0  0  0  0  0
    4.0672    7.4373    7.8063 N   0  0  0  0  0  0
    3.9419    8.5998    7.0697 C   0  0  0  0  0  0
    5.0644    8.8982    6.3251 C   0  0  0  0  0  0
    6.0439    7.9430    6.7791 C   0  0  0  0  0  0
    5.3867    7.0446    7.6845 C   0  0  0  0  0  0
    5.9518    5.9901    8.2876 N   0  0  0  0  0  0
    7.2611    5.8429    7.9799 C   0  0  0  0  0  0
    8.0229    6.6370    7.1881 N   0  0  0  0  0  0
    7.4081    7.6716    6.5718 C   0  0  0  0  0  0
    8.1978    8.4348    5.7233 N   0  0  0  0  0  0
    5.1460    9.9964    5.3070 C   0  0  0  0  0  0
    4.5937   11.2500    5.6040 C   0  0  0  0  0  0
    4.6083   12.2841    4.6711 C   0  0  0  0  0  0
    5.1593   12.0720    3.4118 C   0  0  0  0  0  0
    5.6991   10.8292    3.0914 C   0  0  0  0  0  0
    5.7086    9.7979    4.0384 C   0  0  0  0  0  0
    6.1983   10.6371    1.8330 O   0  0  0  0  0  0
    1.5449   11.0737    2.0947 H   0  0  0  0  0  0
    0.9183    9.4363    1.9881 H   0  0  0  0  0  0
    2.5604    9.7323    2.6092 H   0  0  0  0  0  0
    0.2499   10.4010    6.3427 H   0  0  0  0  0  0
    0.4749    8.6703    8.0698 H   0  0  0  0  0  0
    1.9920    5.9469    5.1117 H   0  0  0  0  0  0
    1.7022    7.6406    3.3873 H   0  0  0  0  0  0
    0.9465    6.0507    8.4858 H   0  0  0  0  0  0
    2.0254    5.3135    7.3677 H   0  0  0  0  0  0
    3.4599    5.8638    9.0492 H   0  0  0  0  0  0
    2.2906    8.6270    9.5540 H   0  0  0  0  0  0
    1.8939    7.1715   10.4532 H   0  0  0  0  0  0
    4.0614    6.9830   11.0609 H   0  0  0  0  0  0
    3.0207    9.1476    7.0838 H   0  0  0  0  0  0
    7.7543    4.9764    8.3880 H   0  0  0  0  0  0
    7.8013    9.2295    5.2445 H   0  0  0  0  0  0
    9.1569    8.1411    5.5861 H   0  0  0  0  0  0
    4.1428   11.4350    6.5663 H   0  0  0  0  0  0
    4.1821   13.2453    4.9172 H   0  0  0  0  0  0
    5.1533   12.8722    2.6857 H   0  0  0  0  0  0
    6.1110    8.8321    3.7714 H   0  0  0  0  0  0
    6.1269   11.4326    1.2933 H   0  0  0  0  0  0
  1  2  1  0  0  0
  1 30  1  0  0  0
  1 31  1  0  0  0
  1 32  1  0  0  0
  2  3  1  0  0  0
  3  8  1  0  0  0
  3  4  2  0  0  0
  4  5  1  0  0  0
  4 33  1  0  0  0
  5  6  2  0  0  0
  5 34  1  0  0  0
  6  7  1  0  0  0
  6  9  1  0  0  0
  7  8  2  0  0  0
  7 35  1  0  0  0
  8 36  1  0  0  0
  9 10  1  0  0  0
  9 37  1  0  0  0
  9 38  1  0  0  0
 10 11  1  0  0  0
 10 13  1  0  0  0
 10 39  1  0  0  0
 11 12  1  0  0  0
 11 40  1  0  0  0
 11 41  1  0  0  0
 12 42  1  0  0  0
 13 17  1  0  0  0
 13 14  1  0  0  0
 14 15  2  0  0  0
 14 43  1  0  0  0
 15 16  1  0  0  0
 15 23  1  0  0  0
 16 21  2  0  0  0
 16 17  1  0  0  0
 17 18  2  0  0  0
 18 19  1  0  0  0
 19 20  2  0  0  0
 19 44  1  0  0  0
 20 21  1  0  0  0
 21 22  1  0  0  0
 22 45  1  0  0  0
 22 46  1  0  0  0
 23 28  1  0  0  0
 23 24  2  0  0  0
 24 25  1  0  0  0
 24 47  1  0  0  0
 25 26  2  0  0  0
 25 48  1  0  0  0
 26 27  1  0  0  0
 26 49  1  0  0  0
 27 28  2  0  0  0
 27 29  1  0  0  0
 28 50  1  0  0  0
 29 51  1  0  0  0
M  END
> <s_m_entry_id>
33913

> <s_m_entry_name>
ligand_docking-pose.47

> <s_m_Source_Path>
/home/csk/Desktop/cluster/DUD-E-result/src

> <s_m_Source_File>
ligand_docking-pose.sdf

> <i_m_Source_File_Index>
47

> <i_lp_mmshare_version>
53161

> <i_f3d_flags>
0

> <r_lp_tautomer_probability>
0.999999999997365

> <s_lp_Force_Field>
OPLS_2005

> <r_lp_Energy>
21.738379

> <b_lp_Chiralities_Consistent>
1

> <s_lp_Variant>
281899-1

> <s_i_glide_gridfile>
glide-grid_3el8

> <i_i_glide_lignum>
1312

> <i_i_glide_rotatable_bonds>
8

> <r_i_docking_score>
-8.35931456511059

> <r_i_glide_ligand_efficiency>
-0.288252226383124

> <r_i_glide_ligand_efficiency_sa>
-0.885602164164249

> <r_i_glide_ligand_efficiency_ln>
-1.91407106148256

> <r_i_glide_gscore>
-8.35931456511059

> <r_i_glide_lipo>
-2.88830518210963

> <r_i_glide_hbond>
-0.714022617826412

> <r_i_glide_metal>
0

> <r_i_glide_rewards>
-2.31258205547009

> <r_i_glide_evdw>
-36.8732604980469

> <r_i_glide_ecoul>
-6.99041318893433

> <r_i_glide_erotb>
0.447820293538036

> <r_i_glide_esite>
0

> <r_i_glide_emodel>
-61.2312714519907

> <r_i_glide_energy>
-43.8636736869812

> <r_i_glide_einternal>
11.5126981735229

> <i_i_glide_confnum>
6

> <i_i_glide_posenum>
163

> <r_i_glide_eff_state_penalty>
0

> <s_user_duplicate_titles>
281899

> <s_m_subgroup_title>
dock_pv

> <s_m_subgroupid>
dock_pv1

> <b_m_subgroup_collapsed>
0

$$$$
227019
                    3D
 Schrodinger Suite 2021-1.
 37 39  0  0  1  0            999 V2000
    1.1317    7.6048    3.9369 C   0  0  0  0  0  0
    1.8520    8.1228    5.0477 O   0  0  0  0  0  0
    2.8341    9.0370    4.8669 C   0  0  0  0  0  0
    3.1819    9.5053    3.7824 O   0  0  0  0  0  0
    3.5062    9.5200    6.1670 C   0  0  0  0  0  0
    3.7817    8.4119    7.1275 N   0  0  0  0  0  0
    5.0944    7.8369    7.1351 C   0  0  0  0  0  0
    5.3587    6.7550    7.9880 C   0  0  0  0  0  0
    4.2785    6.2793    8.8385 C   0  0  0  0  0  0
    3.0837    6.9073    8.8632 C   0  0  0  0  0  0
    2.7874    8.0764    8.0232 C   0  0  0  0  0  0
    1.7166    8.6887    8.1131 O   0  0  0  0  0  0
    2.0494    6.4210    9.8012 C   0  0  0  0  0  0
    0.9041    5.7492    9.3320 C   0  0  0  0  0  0
   -0.0784    5.3312   10.2268 C   0  0  0  0  0  0
    0.0591    5.5859   11.5876 C   0  0  0  0  0  0
    1.1926    6.2370   12.0615 C   0  0  0  0  0  0
    2.1980    6.6370   11.1839 C   0  0  0  0  0  0
    3.6206    7.3831   11.8458 Cl  0  0  0  0  0  0
    0.6583    5.4371    7.6465 Cl  0  0  0  0  0  0
    6.6442    6.2146    7.9880 C   0  0  0  0  0  0
    7.6296    6.7138    7.1994 N   0  0  0  0  0  0
    7.2894    7.7665    6.4165 C   0  0  0  0  0  0
    6.0739    8.3605    6.3440 N   0  0  0  0  0  0
    8.2730    8.2622    5.5880 N   0  0  0  0  0  0
    0.3914    6.8820    4.2807 H   0  0  0  0  0  0
    0.6068    8.3985    3.4029 H   0  0  0  0  0  0
    1.7975    7.0999    3.2353 H   0  0  0  0  0  0
    2.8278   10.2491    6.6057 H   0  0  0  0  0  0
    4.4026   10.0891    5.9216 H   0  0  0  0  0  0
    4.4453    5.4368    9.4945 H   0  0  0  0  0  0
   -0.9689    4.8372    9.8633 H   0  0  0  0  0  0
   -0.7259    5.2946   12.2703 H   0  0  0  0  0  0
    1.2994    6.4254   13.1197 H   0  0  0  0  0  0
    6.9034    5.3795    8.6246 H   0  0  0  0  0  0
    8.0453    9.0199    4.9655 H   0  0  0  0  0  0
    9.1415    7.7403    5.5149 H   0  0  0  0  0  0
  1  2  1  0  0  0
  1 26  1  0  0  0
  1 27  1  0  0  0
  1 28  1  0  0  0
  2  3  1  0  0  0
  3  4  2  0  0  0
  3  5  1  0  0  0
  5  6  1  0  0  0
  5 29  1  0  0  0
  5 30  1  0  0  0
  6 11  1  0  0  0
  6  7  1  0  0  0
  7 24  2  0  0  0
  7  8  1  0  0  0
  8  9  1  0  0  0
  8 21  2  0  0  0
  9 10  2  0  0  0
  9 31  1  0  0  0
 10 11  1  0  0  0
 10 13  1  0  0  0
 11 12  2  0  0  0
 13 18  1  0  0  0
 13 14  2  0  0  0
 14 15  1  0  0  0
 14 20  1  0  0  0
 15 16  2  0  0  0
 15 32  1  0  0  0
 16 17  1  0  0  0
 16 33  1  0  0  0
 17 18  2  0  0  0
 17 34  1  0  0  0
 18 19  1  0  0  0
 21 22  1  0  0  0
 21 35  1  0  0  0
 22 23  2  0  0  0
 23 24  1  0  0  0
 23 25  1  0  0  0
 25 36  1  0  0  0
 25 37  1  0  0  0
M  END
> <s_m_entry_id>
33919

> <s_m_entry_name>
ligand_docking-pose.53

> <s_m_Source_Path>
/home/csk/Desktop/cluster/DUD-E-result/src

> <s_m_Source_File>
ligand_docking-pose.sdf

> <i_m_Source_File_Index>
53

> <i_lp_mmshare_version>
53161

> <i_f3d_flags>
0

> <r_lp_tautomer_probability>
1

> <s_lp_Force_Field>
OPLS_2005

> <r_lp_Energy>
17.360735

> <b_lp_Chiralities_Consistent>
1

> <s_lp_Variant>
227019-1

> <s_i_glide_gridfile>
glide-grid_3el8

> <i_i_glide_lignum>
1443

> <i_i_glide_rotatable_bonds>
4

> <r_i_docking_score>
-8.28449298240481

> <r_i_glide_ligand_efficiency>
-0.331379719296193

> <r_i_glide_ligand_efficiency_sa>
-0.968960176266413

> <r_i_glide_ligand_efficiency_ln>
-1.96367310305077

> <r_i_glide_gscore>
-8.28449298240481

> <r_i_glide_lipo>
-2.51251375369139

> <r_i_glide_hbond>
-0.403104625394922

> <r_i_glide_metal>
0

> <r_i_glide_rewards>
-2.80392991642292

> <r_i_glide_evdw>
-39.3077964782715

> <r_i_glide_ecoul>
-5.88465595245361

> <r_i_glide_erotb>
0.283143529886037

> <r_i_glide_esite>
0

> <r_i_glide_emodel>
-65.9218283904685

> <r_i_glide_energy>
-45.1924524307251

> <r_i_glide_einternal>
2.61446022987366

> <i_i_glide_confnum>
1

> <i_i_glide_posenum>
385

> <r_i_glide_eff_state_penalty>
0

> <s_user_duplicate_titles>
227019

> <s_m_subgroup_title>
dock_pv

> <s_m_subgroupid>
dock_pv1

> <b_m_subgroup_collapsed>
0

$$$$
227398
                    3D
 Schrodinger Suite 2021-1.
 37 39  0  0  1  0            999 V2000
    2.1722    8.4425    4.5812 C   0  0  0  0  0  0
    3.4895    9.2166    4.7581 C   0  0  0  0  0  0
    3.7784    9.6458    6.2101 C   0  0  0  0  0  0
    3.9711    8.5111    7.1496 N   0  0  0  0  0  0
    5.2498    7.8675    7.1680 C   0  0  0  0  0  0
    5.4384    6.7469    7.9882 C   0  0  0  0  0  0
    4.3038    6.2896    8.7868 C   0  0  0  0  0  0
    3.1259    6.9566    8.7730 C   0  0  0  0  0  0
    2.9238    8.1808    7.9812 C   0  0  0  0  0  0
    1.8770    8.8350    8.0565 O   0  0  0  0  0  0
    1.9905    6.4207    9.5664 C   0  0  0  0  0  0
    2.0270    6.4397   10.9741 C   0  0  0  0  0  0
    0.9483    5.9519   11.7106 C   0  0  0  0  0  0
   -0.1618    5.4164   11.0664 C   0  0  0  0  0  0
   -0.2018    5.3738    9.6768 C   0  0  0  0  0  0
    0.8568    5.8791    8.9245 C   0  0  0  0  0  0
    0.7155    5.8368    7.1981 Cl  0  0  0  0  0  0
    3.3970    7.0370   11.8530 Cl  0  0  0  0  0  0
    6.6995    6.1462    7.9880 C   0  0  0  0  0  0
    7.7297    6.6369    7.2479 N   0  0  0  0  0  0
    7.4624    7.7395    6.5083 C   0  0  0  0  0  0
    6.2758    8.3861    6.4338 N   0  0  0  0  0  0
    8.4903    8.2374    5.7324 N   0  0  0  0  0  0
    1.9824    8.2301    3.5284 H   0  0  0  0  0  0
    2.1966    7.4884    5.1070 H   0  0  0  0  0  0
    1.3237    9.0117    4.9639 H   0  0  0  0  0  0
    3.4414   10.1147    4.1393 H   0  0  0  0  0  0
    4.3273    8.6378    4.3664 H   0  0  0  0  0  0
    2.9609   10.2862    6.5395 H   0  0  0  0  0  0
    4.6589   10.2896    6.2268 H   0  0  0  0  0  0
    4.3991    5.3973    9.3882 H   0  0  0  0  0  0
    0.9766    5.9807   12.7882 H   0  0  0  0  0  0
   -1.0000    5.0410   11.6387 H   0  0  0  0  0  0
   -1.0780    4.9721    9.1885 H   0  0  0  0  0  0
    6.9031    5.2718    8.5907 H   0  0  0  0  0  0
    8.2987    9.0271    5.1391 H   0  0  0  0  0  0
    9.3058    7.6460    5.5883 H   0  0  0  0  0  0
  1  2  1  0  0  0
  1 24  1  0  0  0
  1 25  1  0  0  0
  1 26  1  0  0  0
  2  3  1  0  0  0
  2 27  1  0  0  0
  2 28  1  0  0  0
  3  4  1  0  0  0
  3 29  1  0  0  0
  3 30  1  0  0  0
  4  9  1  0  0  0
  4  5  1  0  0  0
  5 22  2  0  0  0
  5  6  1  0  0  0
  6  7  1  0  0  0
  6 19  2  0  0  0
  7  8  2  0  0  0
  7 31  1  0  0  0
  8  9  1  0  0  0
  8 11  1  0  0  0
  9 10  2  0  0  0
 11 16  1  0  0  0
 11 12  2  0  0  0
 12 13  1  0  0  0
 12 18  1  0  0  0
 13 14  2  0  0  0
 13 32  1  0  0  0
 14 15  1  0  0  0
 14 33  1  0  0  0
 15 16  2  0  0  0
 15 34  1  0  0  0
 16 17  1  0  0  0
 19 20  1  0  0  0
 19 35  1  0  0  0
 20 21  2  0  0  0
 21 22  1  0  0  0
 21 23  1  0  0  0
 23 36  1  0  0  0
 23 37  1  0  0  0
M  END
> <s_m_entry_id>
33922

> <s_m_entry_name>
ligand_docking-pose.56

> <s_m_Source_Path>
/home/csk/Desktop/cluster/DUD-E-result/src

> <s_m_Source_File>
ligand_docking-pose.sdf

> <i_m_Source_File_Index>
56

> <i_lp_mmshare_version>
53161

> <i_f3d_flags>
0

> <r_lp_tautomer_probability>
1

> <s_lp_Force_Field>
OPLS_2005

> <r_lp_Energy>
21.29494

> <b_lp_Chiralities_Consistent>
1

> <s_lp_Variant>
227398-1

> <s_i_glide_gridfile>
glide-grid_3el8

> <i_i_glide_lignum>
588

> <i_i_glide_rotatable_bonds>
3

> <r_i_docking_score>
-8.27668787114771

> <r_i_glide_ligand_efficiency>
-0.359855994397727

> <r_i_glide_ligand_efficiency_sa>
-1.02338257889974

> <r_i_glide_ligand_efficiency_ln>
-2.00137817609984

> <r_i_glide_gscore>
-8.27668787114771

> <r_i_glide_lipo>
-2.2743633275555

> <r_i_glide_hbond>
-0.492283719848297

> <r_i_glide_metal>
0

> <r_i_glide_rewards>
-2.98774180640819

> <r_i_glide_evdw>
-34.9796295166016

> <r_i_glide_ecoul>
-6.61311626434326

> <r_i_glide_erotb>
0.218649898145837

> <r_i_glide_esite>
0

> <r_i_glide_emodel>
-61.3542780249997

> <r_i_glide_energy>
-41.5927457809448

> <r_i_glide_einternal>
1.67154777050018

> <i_i_glide_confnum>
1

> <i_i_glide_posenum>
7

> <r_i_glide_eff_state_penalty>
0

> <s_user_duplicate_titles>
227398

> <s_m_subgroup_title>
dock_pv

> <s_m_subgroupid>
dock_pv1

> <b_m_subgroup_collapsed>
0

$$$$
282315
                    3D
 Schrodinger Suite 2021-1.
 52 55  0  0  1  0            999 V2000
   -0.7550    4.0549    9.1880 C   0  0  0  0  0  0
    0.1964    4.7233    8.3645 O   0  0  0  0  0  0
    1.1143    5.5713    8.9484 C   0  0  0  0  0  0
    1.2146    5.8026   10.3303 C   0  0  0  0  0  0
    2.2096    6.6378   10.8352 C   0  0  0  0  0  0
    3.1047    7.2621    9.9690 C   0  0  0  0  0  0
    3.0036    7.0589    8.5911 C   0  0  0  0  0  0
    2.0046    6.2219    8.0898 C   0  0  0  0  0  0
    3.9655    7.7334    7.6857 C   0  0  0  0  0  0
    3.7023    8.7287    6.7628 C   0  0  0  0  0  0
    4.8659    9.1609    6.1517 N   0  0  0  0  0  0
    5.9006    8.3523    6.5888 C   0  0  0  0  0  0
    5.3573    7.4210    7.5188 C   0  0  0  0  0  0
    6.2584    6.4487    7.9879 C   0  0  0  0  0  0
    7.5574    6.4429    7.5885 N   0  0  0  0  0  0
    7.9508    7.4333    6.7504 C   0  0  0  0  0  0
    7.1832    8.4052    6.2006 N   0  0  0  0  0  0
    5.8219    5.3996    8.7882 N   0  0  0  0  0  0
    4.9752   10.2446    5.1731 C   0  0  2  0  0  0
    4.0053   11.4451    5.1915 C   0  0  0  0  0  0
    4.1236   11.4603    3.6578 C   0  0  1  0  0  0
    4.5007    9.9704    3.7412 C   0  0  0  0  0  0
    2.8563   11.8791    2.8799 C   0  0  0  0  0  0
    2.6094   10.9933    1.7448 N   0  0  1  0  0  0
    1.2428   10.4683    1.6823 C   0  0  0  0  0  0
    0.8560    9.4969    2.8286 C   0  0  0  0  0  0
    1.5976    8.2924    2.7886 O   0  0  0  0  0  0
   -1.3900    3.4191    8.5712 H   0  0  0  0  0  0
   -0.2668    3.4175    9.9260 H   0  0  0  0  0  0
   -1.4032    4.7646    9.7010 H   0  0  0  0  0  0
    0.5419    5.3243   11.0267 H   0  0  0  0  0  0
    2.2944    6.7937   11.8998 H   0  0  0  0  0  0
    3.8785    7.9033   10.3674 H   0  0  0  0  0  0
    1.9312    6.0541    7.0258 H   0  0  0  0  0  0
    2.7630    9.2055    6.5276 H   0  0  0  0  0  0
    8.9935    7.4338    6.4614 H   0  0  0  0  0  0
    4.8664    5.3882    9.1173 H   0  0  0  0  0  0
    6.4934    4.7024    9.0885 H   0  0  0  0  0  0
    6.0162   10.5778    5.2100 H   0  0  0  0  0  0
    4.3564   12.3265    5.7286 H   0  0  0  0  0  0
    3.0138   11.1711    5.5554 H   0  0  0  0  0  0
    4.9568   12.0696    3.2996 H   0  0  0  0  0  0
    3.6543    9.2871    3.7425 H   0  0  0  0  0  0
    5.2597    9.6041    3.0503 H   0  0  0  0  0  0
    2.9727   12.8934    2.4939 H   0  0  0  0  0  0
    1.9972   11.9205    3.5517 H   0  0  0  0  0  0
    2.8468   11.4593    0.8761 H   0  0  0  0  0  0
    1.0711    9.9844    0.7202 H   0  0  0  0  0  0
    0.5576   11.3168    1.6899 H   0  0  0  0  0  0
   -0.2001    9.2447    2.7505 H   0  0  0  0  0  0
    0.9914    9.9544    3.8095 H   0  0  0  0  0  0
    1.3988    7.8660    1.9406 H   0  0  0  0  0  0
  1  2  1  0  0  0
  1 28  1  0  0  0
  1 29  1  0  0  0
  1 30  1  0  0  0
  2  3  1  0  0  0
  3  8  1  0  0  0
  3  4  2  0  0  0
  4  5  1  0  0  0
  4 31  1  0  0  0
  5  6  2  0  0  0
  5 32  1  0  0  0
  6  7  1  0  0  0
  6 33  1  0  0  0
  7  8  2  0  0  0
  7  9  1  0  0  0
  8 34  1  0  0  0
  9 13  1  0  0  0
  9 10  2  0  0  0
 10 11  1  0  0  0
 10 35  1  0  0  0
 11 12  1  0  0  0
 11 19  1  0  0  0
 12 17  1  0  0  0
 12 13  2  0  0  0
 13 14  1  0  0  0
 14 15  2  0  0  0
 14 18  1  0  0  0
 15 16  1  0  0  0
 16 17  2  0  0  0
 16 36  1  0  0  0
 18 37  1  0  0  0
 18 38  1  0  0  0
 19 22  1  0  0  0
 19 20  1  0  0  0
 19 39  1  0  0  0
 20 21  1  0  0  0
 20 40  1  0  0  0
 20 41  1  0  0  0
 21 22  1  0  0  0
 21 23  1  0  0  0
 21 42  1  0  0  0
 22 43  1  0  0  0
 22 44  1  0  0  0
 23 24  1  0  0  0
 23 45  1  0  0  0
 23 46  1  0  0  0
 24 25  1  0  0  0
 24 47  1  0  0  0
 25 26  1  0  0  0
 25 48  1  0  0  0
 25 49  1  0  0  0
 26 27  1  0  0  0
 26 50  1  0  0  0
 26 51  1  0  0  0
 27 52  1  0  0  0
M  END
> <s_m_entry_id>
33925

> <s_m_entry_name>
ligand_docking-pose.59

> <s_m_Source_Path>
/home/csk/Desktop/cluster/DUD-E-result/src

> <s_m_Source_File>
ligand_docking-pose.sdf

> <i_m_Source_File_Index>
59

> <i_lp_mmshare_version>
53161

> <i_f3d_flags>
0

> <r_lp_tautomer_probability>
1

> <s_lp_Force_Field>
OPLS_2005

> <r_lp_Energy>
34.168758

> <b_lp_Chiralities_Consistent>
1

> <s_lp_Variant>
282315-1

> <s_i_glide_gridfile>
glide-grid_3el8

> <i_i_glide_lignum>
1274

> <i_i_glide_rotatable_bonds>
8

> <r_i_docking_score>
-8.24219086369106

> <r_i_glide_ligand_efficiency>
-0.305266328284854

> <r_i_glide_ligand_efficiency_sa>
-0.915798983848454

> <r_i_glide_ligand_efficiency_ln>
-1.91864614993105

> <r_i_glide_gscore>
-8.24219086369106

> <r_i_glide_lipo>
-2.63412939450511

> <r_i_glide_hbond>
-0.745345583458586

> <r_i_glide_metal>
0

> <r_i_glide_rewards>
-2.46355666280268

> <r_i_glide_evdw>
-37.131175994873

> <r_i_glide_ecoul>
-9.32296657562256

> <r_i_glide_erotb>
0.855844563162356

> <r_i_glide_esite>
0

> <r_i_glide_emodel>
-66.9625808420616

> <r_i_glide_energy>
-46.4541425704956

> <r_i_glide_einternal>
7.17891550064087

> <i_i_glide_confnum>
7

> <i_i_glide_posenum>
236

> <r_i_glide_eff_state_penalty>
0

> <s_user_duplicate_titles>
282315

> <s_m_subgroup_title>
dock_pv

> <s_m_subgroupid>
dock_pv1

> <b_m_subgroup_collapsed>
0

$$$$
113182
                    3D
 Schrodinger Suite 2021-1.
 28 30  0  0  1  0            999 V2000
    3.3748    6.2423    8.9041 C   0  0  0  0  0  0
    2.1497    5.7505    9.3304 C   0  0  0  0  0  0
    0.9679    6.1455    8.7225 C   0  0  0  0  0  0
    0.9892    7.0833    7.6829 C   0  0  0  0  0  0
    2.2377    7.6475    7.2368 C   0  0  0  0  0  0
    3.4553    7.1851    7.8390 C   0  0  0  0  0  0
    4.7084    7.6429    7.3332 C   0  0  0  0  0  0
    5.9738    7.1511    7.7777 C   0  0  0  0  0  0
    7.1573    7.5587    7.1621 C   0  0  0  0  0  0
    7.1279    8.4899    6.1218 C   0  0  0  0  0  0
    5.9170    9.0252    5.6983 C   0  0  0  0  0  0
    4.7003    8.5969    6.2764 C   0  0  0  0  0  0
    3.5524    9.0938    5.7636 N   0  0  0  0  0  0
    2.3613    8.6337    6.2008 C   0  0  0  0  0  0
    1.2067    9.1120    5.6449 O   0  0  0  0  0  0
    8.2742    8.8781    5.4731 O   0  0  0  0  0  0
    8.3435    7.0148    7.5880 O   0  0  0  0  0  0
   -0.2019    7.4372    7.0905 O   0  0  0  0  0  0
   -0.2009    5.5863    9.1882 O   0  0  0  0  0  0
    4.2573    5.8778    9.4057 H   0  0  0  0  0  0
    2.1194    5.0341   10.1397 H   0  0  0  0  0  0
    6.0422    6.4142    8.5614 H   0  0  0  0  0  0
    5.8935    9.7406    4.8890 H   0  0  0  0  0  0
    0.4540    8.6303    6.0095 H   0  0  0  0  0  0
    9.0089    8.2670    5.5617 H   0  0  0  0  0  0
    9.1181    7.4370    7.2099 H   0  0  0  0  0  0
   -0.8971    6.7684    7.1877 H   0  0  0  0  0  0
   -1.0230    5.7958    8.7287 H   0  0  0  0  0  0
  1  6  1  0  0  0
  1  2  2  0  0  0
  1 20  1  0  0  0
  2  3  1  0  0  0
  2 21  1  0  0  0
  3  4  2  0  0  0
  3 19  1  0  0  0
  4  5  1  0  0  0
  4 18  1  0  0  0
  5 14  2  0  0  0
  5  6  1  0  0  0
  6  7  2  0  0  0
  7 12  1  0  0  0
  7  8  1  0  0  0
  8  9  2  0  0  0
  8 22  1  0  0  0
  9 10  1  0  0  0
  9 17  1  0  0  0
 10 11  2  0  0  0
 10 16  1  0  0  0
 11 12  1  0  0  0
 11 23  1  0  0  0
 12 13  2  0  0  0
 13 14  1  0  0  0
 14 15  1  0  0  0
 15 24  1  0  0  0
 16 25  1  0  0  0
 17 26  1  0  0  0
 18 27  1  0  0  0
 19 28  1  0  0  0
M  END
> <s_m_entry_id>
33939

> <s_m_entry_name>
ligand_docking-pose.73

> <s_m_Source_Path>
/home/csk/Desktop/cluster/DUD-E-result/src

> <s_m_Source_File>
ligand_docking-pose.sdf

> <i_m_Source_File_Index>
73

> <i_lp_mmshare_version>
53161

> <i_f3d_flags>
0

> <r_lp_tautomer_probability>
1

> <s_lp_Force_Field>
OPLS_2005

> <r_lp_Energy>
18.454804

> <b_lp_Chiralities_Consistent>
1

> <s_lp_Variant>
113182-1

> <s_i_glide_gridfile>
glide-grid_3el8

> <i_i_glide_lignum>
25

> <i_i_glide_rotatable_bonds>
5

> <r_i_docking_score>
-7.98450645879072

> <r_i_glide_ligand_efficiency>
-0.420237182041617

> <r_i_glide_ligand_efficiency_sa>
-1.12136158831352

> <r_i_glide_ligand_efficiency_ln>
-2.02424387877793

> <r_i_glide_gscore>
-7.98450645879072

> <r_i_glide_lipo>
-2.44386532680301

> <r_i_glide_hbond>
0

> <r_i_glide_metal>
0

> <r_i_glide_rewards>
-2.1902272850181

> <r_i_glide_evdw>
-27.3329467773438

> <r_i_glide_ecoul>
-13.2251100540161

> <r_i_glide_erotb>
0

> <r_i_glide_esite>
0

> <r_i_glide_emodel>
-58.2024046923409

> <r_i_glide_energy>
-40.5580568313599

> <r_i_glide_einternal>
1.57908058166504

> <i_i_glide_confnum>
1

> <i_i_glide_posenum>
261

> <r_i_glide_eff_state_penalty>
0

> <s_user_duplicate_titles>
113182

> <s_m_subgroup_title>
dock_pv

> <s_m_subgroupid>
dock_pv1

> <b_m_subgroup_collapsed>
0

$$$$
170827
                    3D
 Schrodinger Suite 2021-1.
 67 70  0  0  1  0            999 V2000
   -2.5444    1.5034    8.9501 C   0  0  0  0  0  0
   -1.4878    2.5540    8.5769 C   0  0  2  0  0  0
   -0.0043    2.0712    8.4699 C   0  0  0  0  0  0
    0.9940    3.2360    8.4475 C   0  0  0  0  0  0
    0.7177    4.4693    8.9236 C   0  0  0  0  0  0
   -0.6020    4.7125    9.4809 C   0  0  0  0  0  0
   -1.6187    3.8371    9.3794 C   0  0  0  0  0  0
    1.7815    5.4831    9.0022 C   0  0  0  0  0  0
    2.1843    6.1781   10.1903 C   0  0  0  0  0  0
    1.8208    6.3016   11.5428 C   0  0  0  0  0  0
    2.6585    6.8859   12.4338 N   0  0  0  0  0  0
    3.7980    7.4369   11.9505 C   0  0  0  0  0  0
    4.1626    7.5410   10.6518 N   0  0  0  0  0  0
    3.3634    6.8593    9.8241 C   0  0  0  0  0  0
    3.5255    6.6683    8.4677 N   0  0  0  0  0  0
    2.5681    5.8258    7.9924 N   0  0  0  0  0  0
    4.6148    7.1045    7.6803 C   0  0  0  0  0  0
    5.8559    6.6708    7.9880 C   0  0  0  0  0  0
    7.1254    7.1338    7.2820 C   0  0  0  0  0  0
    6.8604    7.8369    5.9189 C   0  0  0  0  0  0
    5.4497    8.4384    5.7845 C   0  0  0  0  0  0
    4.4333    8.0646    6.6006 C   0  0  0  0  0  0
    5.2682    9.3433    4.6713 C   0  0  0  0  0  0
    5.6797    9.0452    3.5520 O   0  0  0  0  0  0
    4.6857   10.5242    4.9574 N   0  0  0  0  0  0
    4.4080   11.6163    4.0101 C   0  0  0  0  0  0
    5.5089   11.8965    2.9535 C   0  0  0  0  0  0
    5.4045   13.2220    2.1781 C   0  0  0  0  0  0
    3.7976   13.5063    1.3208 P   0  0  2  0  0  0
    2.7465   14.1726    2.1362 O   0  0  0  0  0  0
    3.2998   11.9829    0.4321 C   0  0  0  0  0  0
    1.9810   12.0920   -0.8840 P   0  0  0  0  0  0
    0.5606   12.3630   -0.4467 O   0  0  0  0  0  0
    2.5980   13.2066   -2.0121 O   0  0  0  0  0  0
    2.1918   10.6343   -1.7188 O   0  0  0  0  0  0
    4.3165   14.4007    0.0710 O   0  0  0  0  0  0
    0.6117    5.8369   12.0411 N   0  0  0  0  0  0
   -3.5516    1.8882    8.7880 H   0  0  0  0  0  0
   -2.4354    0.5983    8.3527 H   0  0  0  0  0  0
   -2.5185    1.2206    9.9880 H   0  0  0  0  0  0
   -1.7821    2.8623    7.5880 H   0  0  0  0  0  0
    0.1331    1.4555    7.5880 H   0  0  0  0  0  0
    0.2585    1.4206    9.3015 H   0  0  0  0  0  0
    1.9832    3.0460    8.0687 H   0  0  0  0  0  0
   -0.8100    5.6596    9.9511 H   0  0  0  0  0  0
   -2.5790    4.1171    9.7882 H   0  0  0  0  0  0
    4.4381    7.9144   12.6763 H   0  0  0  0  0  0
    5.9658    5.9759    8.8096 H   0  0  0  0  0  0
    7.7946    6.2866    7.1312 H   0  0  0  0  0  0
    7.6474    7.8151    7.9554 H   0  0  0  0  0  0
    6.9943    7.1024    5.1225 H   0  0  0  0  0  0
    7.6321    8.5880    5.7376 H   0  0  0  0  0  0
    3.4418    8.4689    6.4451 H   0  0  0  0  0  0
    4.4002   10.6796    5.9117 H   0  0  0  0  0  0
    4.2644   12.5200    4.6046 H   0  0  0  0  0  0
    3.4434   11.4528    3.5273 H   0  0  0  0  0  0
    5.5114   11.0930    2.2166 H   0  0  0  0  0  0
    6.4862   11.8585    3.4375 H   0  0  0  0  0  0
    6.1954   13.2481    1.4275 H   0  0  0  0  0  0
    5.5975   14.0666    2.8402 H   0  0  0  0  0  0
    2.9676   11.2671    1.1851 H   0  0  0  0  0  0
    4.1833   11.5022    0.0115 H   0  0  0  0  0  0
    3.5234   13.1408   -2.3549 H   0  0  0  0  0  0
    2.9924   10.0668   -1.6120 H   0  0  0  0  0  0
    4.9274   13.9198   -0.5363 H   0  0  0  0  0  0
   -0.0290    5.3539   11.4277 H   0  0  0  0  0  0
    0.4119    5.9643   13.0213 H   0  0  0  0  0  0
  1  2  1  0  0  0
  1 38  1  0  0  0
  1 39  1  0  0  0
  1 40  1  0  0  0
  2  7  1  0  0  0
  2  3  1  0  0  0
  2 41  1  0  0  0
  3  4  1  0  0  0
  3 42  1  0  0  0
  3 43  1  0  0  0
  4  5  2  0  0  0
  4 44  1  0  0  0
  5  6  1  0  0  0
  5  8  1  0  0  0
  6  7  2  0  0  0
  6 45  1  0  0  0
  7 46  1  0  0  0
  8 16  2  0  0  0
  8  9  1  0  0  0
  9 14  2  0  0  0
  9 10  1  0  0  0
 10 11  2  0  0  0
 10 37  1  0  0  0
 11 12  1  0  0  0
 12 13  2  0  0  0
 12 47  1  0  0  0
 13 14  1  0  0  0
 14 15  1  0  0  0
 15 16  1  0  0  0
 15 17  1  0  0  0
 17 22  1  0  0  0
 17 18  2  0  0  0
 18 19  1  0  0  0
 18 48  1  0  0  0
 19 20  1  0  0  0
 19 49  1  0  0  0
 19 50  1  0  0  0
 20 21  1  0  0  0
 20 51  1  0  0  0
 20 52  1  0  0  0
 21 22  2  0  0  0
 21 23  1  0  0  0
 22 53  1  0  0  0
 23 24  2  0  0  0
 23 25  1  0  0  0
 25 26  1  0  0  0
 25 54  1  0  0  0
 26 27  1  0  0  0
 26 55  1  0  0  0
 26 56  1  0  0  0
 27 28  1  0  0  0
 27 57  1  0  0  0
 27 58  1  0  0  0
 28 29  1  0  0  0
 28 59  1  0  0  0
 28 60  1  0  0  0
 29 30  2  0  0  0
 29 31  1  0  0  0
 29 36  1  0  0  0
 31 32  1  0  0  0
 31 61  1  0  0  0
 31 62  1  0  0  0
 32 33  2  0  0  0
 32 34  1  0  0  0
 32 35  1  0  0  0
 34 63  1  0  0  0
 35 64  1  0  0  0
 36 65  1  0  0  0
 37 66  1  0  0  0
 37 67  1  0  0  0
M  END
> <s_m_entry_id>
33944

> <s_m_entry_name>
ligand_docking-pose.78

> <s_m_Source_Path>
/home/csk/Desktop/cluster/DUD-E-result/src

> <s_m_Source_File>
ligand_docking-pose.sdf

> <i_m_Source_File_Index>
78

> <i_lp_mmshare_version>
53161

> <i_f3d_flags>
0

> <r_lp_tautomer_probability>
1

> <s_lp_Force_Field>
OPLS_2005

> <r_lp_Energy>
21.980889

> <b_lp_Chiralities_Consistent>
1

> <s_lp_Variant>
170827-3

> <s_i_glide_gridfile>
glide-grid_3el8

> <i_i_glide_lignum>
277

> <i_i_glide_rotatable_bonds>
13

> <r_i_docking_score>
-7.96064586331454

> <r_i_glide_ligand_efficiency>
-0.215152590900393

> <r_i_glide_ligand_efficiency_sa>
-0.716936163973599

> <r_i_glide_ligand_efficiency_ln>
-1.72647746373549

> <r_i_glide_gscore>
-7.96064586331454

> <r_i_glide_lipo>
-3.12349186784397

> <r_i_glide_hbond>
0

> <r_i_glide_metal>
0

> <r_i_glide_rewards>
-0.925882025728892

> <r_i_glide_evdw>
-34.6920852661133

> <r_i_glide_ecoul>
-18.6169681549072

> <r_i_glide_erotb>
0.68885152896491

> <r_i_glide_esite>
-0.0729740121648423

> <r_i_glide_emodel>
-71.4948578919288

> <r_i_glide_energy>
-53.3090534210205

> <r_i_glide_einternal>
16.0352382659912

> <i_i_glide_confnum>
3

> <i_i_glide_posenum>
122

> <r_i_glide_eff_state_penalty>
0

> <s_user_duplicate_titles>
170827

> <s_m_subgroup_title>
dock_pv

> <s_m_subgroupid>
dock_pv1

> <b_m_subgroup_collapsed>
0

$$$$
282346
                    3D
 Schrodinger Suite 2021-1.
 51 54  0  0  1  0            999 V2000
   -0.7634    3.7350    8.7229 C   0  0  0  0  0  0
    0.1969    4.4926    7.9910 O   0  0  0  0  0  0
    1.0484    5.3284    8.6830 C   0  0  0  0  0  0
    1.0790    5.4643   10.0814 C   0  0  0  0  0  0
    2.0107    6.3062   10.6899 C   0  0  0  0  0  0
    2.9164    7.0250    9.9106 C   0  0  0  0  0  0
    2.8810    6.9114    8.5191 C   0  0  0  0  0  0
    1.9440    6.0717    7.9158 C   0  0  0  0  0  0
    3.8266    7.6665    7.6685 C   0  0  0  0  0  0
    3.5166    8.6700    6.7735 C   0  0  0  0  0  0
    4.6410    9.1146    6.1039 N   0  0  0  0  0  0
    5.7177    8.3573    6.5411 C   0  0  0  0  0  0
    5.2306    7.4266    7.5039 C   0  0  0  0  0  0
    6.1791    6.5059    7.9879 C   0  0  0  0  0  0
    7.4757    6.5551    7.5881 N   0  0  0  0  0  0
    7.8097    7.5259    6.7012 C   0  0  0  0  0  0
    6.9912    8.4478    6.1314 N   0  0  0  0  0  0
    5.7982    5.4371    8.7880 N   0  0  0  0  0  0
    4.6848   10.1975    5.1090 C   0  0  2  0  0  0
    3.5566   11.2492    5.0683 C   0  0  0  0  0  0
    2.8775   10.3575    4.0036 C   0  0  2  0  0  0
    4.3061    9.8973    3.6385 C   0  0  0  0  0  0
    2.1513   11.1479    2.9017 C   0  0  0  0  0  0
    1.8540   12.3325    3.0726 O   0  0  0  0  0  0
    1.7960   10.4532    1.8092 N   0  0  0  0  0  0
    1.1066   11.0260    0.6490 C   0  0  0  0  0  0
    2.0428   11.4929   -0.4883 C   0  0  0  0  0  0
    2.9980   12.4412   -0.0434 O   0  0  0  0  0  0
   -1.3608    3.1411    8.0318 H   0  0  0  0  0  0
   -0.2850    3.0456    9.4185 H   0  0  0  0  0  0
   -1.4474    4.3808    9.2746 H   0  0  0  0  0  0
    0.3970    4.9145   10.7123 H   0  0  0  0  0  0
    2.0376    6.3931   11.7672 H   0  0  0  0  0  0
    3.6432    7.6668   10.3863 H   0  0  0  0  0  0
    1.9227    5.9735    6.8400 H   0  0  0  0  0  0
    2.5553    9.1203    6.5780 H   0  0  0  0  0  0
    8.8439    7.5528    6.3900 H   0  0  0  0  0  0
    4.8412    5.3713    9.1069 H   0  0  0  0  0  0
    6.5025    4.7681    9.0779 H   0  0  0  0  0  0
    5.6760   10.6372    5.2347 H   0  0  0  0  0  0
    3.9156   12.2131    4.6954 H   0  0  0  0  0  0
    3.0048   11.4353    5.9884 H   0  0  0  0  0  0
    2.2342    9.5786    4.4149 H   0  0  0  0  0  0
    4.4280    8.8668    3.3027 H   0  0  0  0  0  0
    4.8264   10.5532    2.9336 H   0  0  0  0  0  0
    1.9721    9.4597    1.7859 H   0  0  0  0  0  0
    0.4348   11.8381    0.9346 H   0  0  0  0  0  0
    0.4506   10.2443    0.2630 H   0  0  0  0  0  0
    1.4770   11.9002   -1.3268 H   0  0  0  0  0  0
    2.5977   10.6371   -0.8595 H   0  0  0  0  0  0
    3.7134   12.5135   -0.6915 H   0  0  0  0  0  0
  1  2  1  0  0  0
  1 29  1  0  0  0
  1 30  1  0  0  0
  1 31  1  0  0  0
  2  3  1  0  0  0
  3  8  1  0  0  0
  3  4  2  0  0  0
  4  5  1  0  0  0
  4 32  1  0  0  0
  5  6  2  0  0  0
  5 33  1  0  0  0
  6  7  1  0  0  0
  6 34  1  0  0  0
  7  8  2  0  0  0
  7  9  1  0  0  0
  8 35  1  0  0  0
  9 13  1  0  0  0
  9 10  2  0  0  0
 10 11  1  0  0  0
 10 36  1  0  0  0
 11 12  1  0  0  0
 11 19  1  0  0  0
 12 17  1  0  0  0
 12 13  2  0  0  0
 13 14  1  0  0  0
 14 15  2  0  0  0
 14 18  1  0  0  0
 15 16  1  0  0  0
 16 17  2  0  0  0
 16 37  1  0  0  0
 18 38  1  0  0  0
 18 39  1  0  0  0
 19 22  1  0  0  0
 19 20  1  0  0  0
 19 40  1  0  0  0
 20 21  1  0  0  0
 20 41  1  0  0  0
 20 42  1  0  0  0
 21 22  1  0  0  0
 21 23  1  0  0  0
 21 43  1  0  0  0
 22 44  1  0  0  0
 22 45  1  0  0  0
 23 24  2  0  0  0
 23 25  1  0  0  0
 25 26  1  0  0  0
 25 46  1  0  0  0
 26 27  1  0  0  0
 26 47  1  0  0  0
 26 48  1  0  0  0
 27 28  1  0  0  0
 27 49  1  0  0  0
 27 50  1  0  0  0
 28 51  1  0  0  0
M  END
> <s_m_entry_id>
33951

> <s_m_entry_name>
ligand_docking-pose.85

> <s_m_Source_Path>
/home/csk/Desktop/cluster/DUD-E-result/src

> <s_m_Source_File>
ligand_docking-pose.sdf

> <i_m_Source_File_Index>
85

> <i_lp_mmshare_version>
53161

> <i_f3d_flags>
0

> <r_lp_tautomer_probability>
1

> <s_lp_Force_Field>
OPLS_2005

> <r_lp_Energy>
27.602669

> <b_lp_Chiralities_Consistent>
1

> <s_lp_Variant>
282346-2

> <s_i_glide_gridfile>
glide-grid_3el8

> <i_i_glide_lignum>
1279

> <i_i_glide_rotatable_bonds>
8

> <r_i_docking_score>
-7.87978583769626

> <r_i_glide_ligand_efficiency>
-0.281420922774866

> <r_i_glide_ligand_efficiency_sa>
-0.854559669604042

> <r_i_glide_ligand_efficiency_ln>
-1.81888593190574

> <r_i_glide_gscore>
-7.87978583769626

> <r_i_glide_lipo>
-2.54856401752117

> <r_i_glide_hbond>
-0.42175183936729

> <r_i_glide_metal>
0

> <r_i_glide_rewards>
-2.62580759341621

> <r_i_glide_evdw>
-38.6187858581543

> <r_i_glide_ecoul>
-7.68829441070557

> <r_i_glide_erotb>
0.800521067121958

> <r_i_glide_esite>
0

> <r_i_glide_emodel>
-66.1204808664089

> <r_i_glide_energy>
-46.3070802688599

> <r_i_glide_einternal>
6.82575654983521

> <i_i_glide_confnum>
53

> <i_i_glide_posenum>
379

> <r_i_glide_eff_state_penalty>
0

> <s_user_duplicate_titles>
282346

> <s_m_subgroup_title>
dock_pv

> <s_m_subgroupid>
dock_pv1

> <b_m_subgroup_collapsed>
0

$$$$
364877
                    3D
 Schrodinger Suite 2021-1.
 32 35  0  0  1  0            999 V2000
    6.5349   11.2476    4.3411 C   0  0  0  0  0  0
    7.8999   11.0373    4.1472 C   0  0  0  0  0  0
    8.5336    9.9763    4.7880 C   0  0  0  0  0  0
    7.7739    9.1247    5.5879 C   0  0  0  0  0  0
    6.4179    9.2983    5.7943 C   0  0  0  0  0  0
    5.7991   10.3923    5.1659 C   0  0  0  0  0  0
    5.9859    8.1994    6.7026 C   0  0  0  0  0  0
    4.7938    7.7781    7.2453 C   0  0  0  0  0  0
    3.4335    8.2875    6.9883 C   0  0  0  0  0  0
    3.1202    9.2743    6.2427 N   0  0  0  0  0  0
    1.7509    9.4797    6.0183 O   0  0  0  0  0  0
    2.5228    7.3918    7.7644 C   0  0  0  0  0  0
    1.1285    7.3131    7.9455 C   0  0  0  0  0  0
    0.5712    6.3030    8.7334 C   0  0  0  0  0  0
    1.3904    5.3609    9.3502 C   0  0  0  0  0  0
    2.7707    5.4370    9.1853 C   0  0  0  0  0  0
    3.3114    6.4573    8.4049 C   0  0  0  0  0  0
    4.6254    6.7257    8.1182 N   0  0  0  0  0  0
    7.2180    7.4370    6.9537 C   0  0  0  0  0  0
    7.3868    6.4118    7.6140 O   0  0  0  0  0  0
    8.1980    8.0293    6.2730 N   0  0  0  0  0  0
    6.0461   12.0817    3.8583 H   0  0  0  0  0  0
    8.4662   11.7044    3.5139 H   0  0  0  0  0  0
    9.5930    9.8183    4.6463 H   0  0  0  0  0  0
    4.7624   10.6404    5.2823 H   0  0  0  0  0  0
    1.3700    8.6645    6.3486 H   0  0  0  0  0  0
    0.4359    8.0033    7.4923 H   0  0  0  0  0  0
   -0.5016    6.2370    8.8567 H   0  0  0  0  0  0
    0.9565    4.5743    9.9513 H   0  0  0  0  0  0
    3.3980    4.6980    9.6560 H   0  0  0  0  0  0
    5.4628    6.2166    8.3782 H   0  0  0  0  0  0
    9.1304    7.6449    6.2089 H   0  0  0  0  0  0
  1  6  1  0  0  0
  1  2  2  0  0  0
  1 22  1  0  0  0
  2  3  1  0  0  0
  2 23  1  0  0  0
  3  4  2  0  0  0
  3 24  1  0  0  0
  4 21  1  0  0  0
  4  5  1  0  0  0
  5  6  2  0  0  0
  5  7  1  0  0  0
  6 25  1  0  0  0
  7  8  2  0  0  0
  7 19  1  0  0  0
  8 18  1  0  0  0
  8  9  1  0  0  0
  9 10  2  0  0  0
  9 12  1  0  0  0
 10 11  1  0  0  0
 11 26  1  0  0  0
 12 17  2  0  0  0
 12 13  1  0  0  0
 13 14  2  0  0  0
 13 27  1  0  0  0
 14 15  1  0  0  0
 14 28  1  0  0  0
 15 16  2  0  0  0
 15 29  1  0  0  0
 16 17  1  0  0  0
 16 30  1  0  0  0
 17 18  1  0  0  0
 18 31  1  0  0  0
 19 20  2  0  0  0
 19 21  1  0  0  0
 21 32  1  0  0  0
M  END
> <s_m_entry_id>
33953

> <s_m_entry_name>
ligand_docking-pose.87

> <s_m_Source_Path>
/home/csk/Desktop/cluster/DUD-E-result/src

> <s_m_Source_File>
ligand_docking-pose.sdf

> <i_m_Source_File_Index>
87

> <i_lp_mmshare_version>
53161

> <i_f3d_flags>
0

> <r_lp_tautomer_probability>
1

> <s_lp_Force_Field>
OPLS_2005

> <r_lp_Energy>
74.466968

> <b_lp_Chiralities_Consistent>
1

> <s_lp_Variant>
364877-1

> <s_i_glide_gridfile>
glide-grid_3el8

> <i_i_glide_lignum>
15

> <i_i_glide_rotatable_bonds>
1

> <r_i_docking_score>
-7.86365723032673

> <r_i_glide_ligand_efficiency>
-0.374459868110797

> <r_i_glide_ligand_efficiency_sa>
-1.03310638216692

> <r_i_glide_ligand_efficiency_ln>
-1.94427336018267

> <r_i_glide_gscore>
-7.86365723032673

> <r_i_glide_lipo>
-2.29799285902194

> <r_i_glide_hbond>
-0.268249488287378

> <r_i_glide_metal>
0

> <r_i_glide_rewards>
-3.11312000313817

> <r_i_glide_evdw>
-31.7571620941162

> <r_i_glide_ecoul>
-5.06918811798096

> <r_i_glide_erotb>
0.163941442523712

> <r_i_glide_esite>
0

> <r_i_glide_emodel>
-54.0195071352357

> <r_i_glide_energy>
-36.8263502120972

> <r_i_glide_einternal>
0.161579966545105

> <i_i_glide_confnum>
2

> <i_i_glide_posenum>
161

> <r_i_glide_eff_state_penalty>
0

> <s_user_duplicate_titles>
364877

> <s_m_subgroup_title>
dock_pv

> <s_m_subgroupid>
dock_pv1

> <b_m_subgroup_collapsed>
0

$$$$
282482
                    3D
 Schrodinger Suite 2021-1.
 46 49  0  0  1  0            999 V2000
    0.0309    6.6057    4.5005 C   0  0  0  0  0  0
   -0.2006    7.5754    5.4695 C   0  0  0  0  0  0
    0.5864    8.7247    5.4911 C   0  0  0  0  0  0
    1.6082    8.9045    4.5527 C   0  0  0  0  0  0
    1.7966    7.9489    3.5562 C   0  0  0  0  0  0
    1.0299    6.7880    3.5506 C   0  0  0  0  0  0
    2.5340   10.1218    4.6304 C   0  0  0  0  0  0
    4.0375    9.8143    4.9550 C   0  0  1  0  0  0
    4.9155   11.0901    4.9953 C   0  0  0  0  0  0
    4.5031   12.0085    5.9879 O   0  0  0  0  0  0
    4.2426    8.9669    6.1536 N   0  0  0  0  0  0
    3.3146    8.7079    7.1402 C   0  0  0  0  0  0
    3.7285    7.7329    8.0135 C   0  0  0  0  0  0
    5.0778    7.4367    7.6171 C   0  0  0  0  0  0
    5.3983    8.2782    6.5082 C   0  0  0  0  0  0
    6.5939    8.3233    5.8986 N   0  0  0  0  0  0
    7.5187    7.4938    6.4512 C   0  0  0  0  0  0
    7.3326    6.5936    7.4495 N   0  0  0  0  0  0
    6.0878    6.5310    7.9870 C   0  0  0  0  0  0
    5.7987    5.4369    8.7880 N   0  0  0  0  0  0
    2.9033    7.1686    9.1119 C   0  0  0  0  0  0
    1.6096    6.7146    8.8358 C   0  0  0  0  0  0
    0.8073    6.2279    9.8642 C   0  0  0  0  0  0
    1.3009    6.2043   11.1668 C   0  0  0  0  0  0
    2.5953    6.6372   11.4447 C   0  0  0  0  0  0
    3.3987    7.1168   10.4148 C   0  0  0  0  0  0
   -0.5747    5.7113    4.4797 H   0  0  0  0  0  0
   -0.9897    7.4394    6.1939 H   0  0  0  0  0  0
    0.3936    9.4735    6.2446 H   0  0  0  0  0  0
    2.5643    8.0819    2.8076 H   0  0  0  0  0  0
    1.2160    6.0381    2.7970 H   0  0  0  0  0  0
    2.4744   10.6298    3.6667 H   0  0  0  0  0  0
    2.1365   10.8401    5.3493 H   0  0  0  0  0  0
    4.4100    9.2104    4.1254 H   0  0  0  0  0  0
    5.9654   10.8434    5.1566 H   0  0  0  0  0  0
    4.8791   11.5911    4.0268 H   0  0  0  0  0  0
    5.0554   12.7925    5.9273 H   0  0  0  0  0  0
    2.3791    9.2358    7.1445 H   0  0  0  0  0  0
    8.5049    7.5160    6.0076 H   0  0  0  0  0  0
    4.8868    5.3672    9.2212 H   0  0  0  0  0  0
    6.5336    4.7725    8.9990 H   0  0  0  0  0  0
    1.2268    6.7384    7.8259 H   0  0  0  0  0  0
   -0.1939    5.8761    9.6569 H   0  0  0  0  0  0
    0.6757    5.8363   11.9675 H   0  0  0  0  0  0
    2.9727    6.6225   12.4571 H   0  0  0  0  0  0
    4.3925    7.4731   10.6358 H   0  0  0  0  0  0
  1  6  1  0  0  0
  1  2  2  0  0  0
  1 27  1  0  0  0
  2  3  1  0  0  0
  2 28  1  0  0  0
  3  4  2  0  0  0
  3 29  1  0  0  0
  4  5  1  0  0  0
  4  7  1  0  0  0
  5  6  2  0  0  0
  5 30  1  0  0  0
  6 31  1  0  0  0
  7  8  1  0  0  0
  7 32  1  0  0  0
  7 33  1  0  0  0
  8  9  1  0  0  0
  8 11  1  0  0  0
  8 34  1  0  0  0
  9 10  1  0  0  0
  9 35  1  0  0  0
  9 36  1  0  0  0
 10 37  1  0  0  0
 11 15  1  0  0  0
 11 12  1  0  0  0
 12 13  2  0  0  0
 12 38  1  0  0  0
 13 14  1  0  0  0
 13 21  1  0  0  0
 14 19  2  0  0  0
 14 15  1  0  0  0
 15 16  2  0  0  0
 16 17  1  0  0  0
 17 18  2  0  0  0
 17 39  1  0  0  0
 18 19  1  0  0  0
 19 20  1  0  0  0
 20 40  1  0  0  0
 20 41  1  0  0  0
 21 26  1  0  0  0
 21 22  2  0  0  0
 22 23  1  0  0  0
 22 42  1  0  0  0
 23 24  2  0  0  0
 23 43  1  0  0  0
 24 25  1  0  0  0
 24 44  1  0  0  0
 25 26  2  0  0  0
 25 45  1  0  0  0
 26 46  1  0  0  0
M  END
> <s_m_entry_id>
33960

> <s_m_entry_name>
ligand_docking-pose.94

> <s_m_Source_Path>
/home/csk/Desktop/cluster/DUD-E-result/src

> <s_m_Source_File>
ligand_docking-pose.sdf

> <i_m_Source_File_Index>
94

> <i_lp_mmshare_version>
53161

> <i_f3d_flags>
0

> <r_lp_tautomer_probability>
1

> <s_lp_Force_Field>
OPLS_2005

> <r_lp_Energy>
17.398313

> <b_lp_Chiralities_Consistent>
1

> <s_lp_Variant>
282482-2

> <s_i_glide_gridfile>
glide-grid_3el8

> <i_i_glide_lignum>
82

> <i_i_glide_rotatable_bonds>
6

> <r_i_docking_score>
-7.70175862001954

> <r_i_glide_ligand_efficiency>
-0.296221485385367

> <r_i_glide_ligand_efficiency_sa>
-0.877554984878888

> <r_i_glide_ligand_efficiency_ln>
-1.80873274038032

> <r_i_glide_gscore>
-7.70175862001954

> <r_i_glide_lipo>
-2.81041306753001

> <r_i_glide_hbond>
-0.325056164653244

> <r_i_glide_metal>
0

> <r_i_glide_rewards>
-2.80069493805985

> <r_i_glide_evdw>
-38.374885559082

> <r_i_glide_ecoul>
-4.31463384628296

> <r_i_glide_erotb>
0.800344905120099

> <r_i_glide_esite>
0

> <r_i_glide_emodel>
-59.2745164423264

> <r_i_glide_energy>
-42.689519405365

> <r_i_glide_einternal>
6.01999616622925

> <i_i_glide_confnum>
71

> <i_i_glide_posenum>
115

> <r_i_glide_eff_state_penalty>
0

> <s_user_duplicate_titles>
282482

> <s_m_subgroup_title>
dock_pv

> <s_m_subgroupid>
dock_pv1

> <b_m_subgroup_collapsed>
0

$$$$
170995
                    3D
 Schrodinger Suite 2021-1.
 50 53  0  0  1  0            999 V2000
   10.0399    9.7620    4.5955 C   0  0  0  0  0  0
    9.8261   10.8742    3.8518 N   0  0  0  0  0  0
    8.5524   11.3264    3.7750 C   0  0  0  0  0  0
    7.4951   10.6554    4.4272 C   0  0  0  0  0  0
    6.0781   10.7698    4.6078 C   0  0  0  0  0  0
    5.6626    9.8597    5.4509 N   0  0  0  0  0  0
    6.7020    9.0813    5.8284 N   0  0  0  0  0  0
    7.8630    9.5192    5.1881 C   0  0  0  0  0  0
    9.1158    9.0372    5.2784 N   0  0  0  0  0  0
    6.4751    8.0099    6.7373 C   0  0  0  0  0  0
    7.3963    7.0355    6.8939 C   0  0  0  0  0  0
    7.1811    5.8189    7.7833 C   0  0  0  0  0  0
    5.7725    5.6892    8.4620 C   0  0  0  0  0  0
    4.8868    6.9240    8.3367 C   0  0  0  0  0  0
    5.2294    7.9366    7.5148 C   0  0  0  0  0  0
    3.3424    7.0351    9.3075 P   0  0  1  0  0  0
    2.6101    8.3101    9.0758 O   0  0  0  0  0  0
    2.4195    5.4772    9.0445 C   0  0  0  0  0  0
    1.0520    5.4578    9.7128 C   0  0  0  0  0  0
    0.8530    5.8299   10.8657 O   0  0  0  0  0  0
    0.0914    4.9757    8.8831 O   0  0  0  0  0  0
    3.8571    6.8399   10.8360 O   0  0  0  0  0  0
    5.1453   11.6902    3.9703 C   0  0  0  0  0  0
    5.3102   12.0341    2.6773 C   0  0  0  0  0  0
    4.4062   13.0050    1.9277 C   0  0  1  0  0  0
    3.4041   13.7940    2.8417 C   0  0  0  0  0  0
    3.2245   13.1931    4.2323 C   0  0  0  0  0  0
    4.0355   12.2447    4.7286 C   0  0  0  0  0  0
    5.2156   13.8896    1.1870 O   0  0  0  0  0  0
    8.3618   12.5017    3.0587 N   0  0  0  0  0  0
   11.0586    9.4032    4.6497 H   0  0  0  0  0  0
    8.3133    7.0442    6.3278 H   0  0  0  0  0  0
    7.9720    5.8212    8.5159 H   0  0  0  0  0  0
    7.3604    4.9280    7.1896 H   0  0  0  0  0  0
    5.8903    5.4366    9.5135 H   0  0  0  0  0  0
    5.2392    4.8459    8.0238 H   0  0  0  0  0  0
    4.5331    8.7575    7.4422 H   0  0  0  0  0  0
    2.9979    4.6370    9.4247 H   0  0  0  0  0  0
    2.3066    5.3295    7.9706 H   0  0  0  0  0  0
   -0.7711    5.0274    9.3021 H   0  0  0  0  0  0
    4.1964    5.9484   11.0802 H   0  0  0  0  0  0
    6.0990   11.5593    2.1123 H   0  0  0  0  0  0
    3.8381   12.4250    1.1953 H   0  0  0  0  0  0
    2.4381   13.8532    2.3419 H   0  0  0  0  0  0
    3.7362   14.8248    2.9757 H   0  0  0  0  0  0
    2.4221   13.5548    4.8603 H   0  0  0  0  0  0
    3.8504   11.8768    5.7262 H   0  0  0  0  0  0
    5.3977   13.4847    0.3214 H   0  0  0  0  0  0
    7.4371   12.9102    2.9983 H   0  0  0  0  0  0
    9.1628   12.9437    2.6334 H   0  0  0  0  0  0
  1  9  1  0  0  0
  1  2  2  0  0  0
  1 31  1  0  0  0
  2  3  1  0  0  0
  3  4  2  0  0  0
  3 30  1  0  0  0
  4  8  1  0  0  0
  4  5  1  0  0  0
  5  6  2  0  0  0
  5 23  1  0  0  0
  6  7  1  0  0  0
  7  8  1  0  0  0
  7 10  1  0  0  0
  8  9  2  0  0  0
 10 15  1  0  0  0
 10 11  2  0  0  0
 11 12  1  0  0  0
 11 32  1  0  0  0
 12 13  1  0  0  0
 12 33  1  0  0  0
 12 34  1  0  0  0
 13 14  1  0  0  0
 13 35  1  0  0  0
 13 36  1  0  0  0
 14 15  2  0  0  0
 14 16  1  0  0  0
 15 37  1  0  0  0
 16 17  2  0  0  0
 16 18  1  0  0  0
 16 22  1  0  0  0
 18 19  1  0  0  0
 18 38  1  0  0  0
 18 39  1  0  0  0
 19 20  2  0  0  0
 19 21  1  0  0  0
 21 40  1  0  0  0
 22 41  1  0  0  0
 23 28  1  0  0  0
 23 24  2  0  0  0
 24 25  1  0  0  0
 24 42  1  0  0  0
 25 26  1  0  0  0
 25 29  1  0  0  0
 25 43  1  0  0  0
 26 27  1  0  0  0
 26 44  1  0  0  0
 26 45  1  0  0  0
 27 28  2  0  0  0
 27 46  1  0  0  0
 28 47  1  0  0  0
 29 48  1  0  0  0
 30 49  1  0  0  0
 30 50  1  0  0  0
M  END
> <s_m_entry_id>
33962

> <s_m_entry_name>
ligand_docking-pose.96

> <s_m_Source_Path>
/home/csk/Desktop/cluster/DUD-E-result/src

> <s_m_Source_File>
ligand_docking-pose.sdf

> <i_m_Source_File_Index>
96

> <i_lp_mmshare_version>
53161

> <i_f3d_flags>
0

> <r_lp_tautomer_probability>
1

> <s_lp_Force_Field>
OPLS_2005

> <r_lp_Energy>
24.550439

> <b_lp_Chiralities_Consistent>
1

> <s_lp_Variant>
170995-1

> <s_i_glide_gridfile>
glide-grid_3el8

> <i_i_glide_lignum>
214

> <i_i_glide_rotatable_bonds>
8

> <r_i_docking_score>
-7.65329630615613

> <r_i_glide_ligand_efficiency>
-0.255109876871871

> <r_i_glide_ligand_efficiency_sa>
-0.79268570110747

> <r_i_glide_ligand_efficiency_ln>
-1.73891231010089

> <r_i_glide_gscore>
-7.65329630615613

> <r_i_glide_lipo>
-2.26222252663829

> <r_i_glide_hbond>
-0.152

> <r_i_glide_metal>
0

> <r_i_glide_rewards>
-1.97977605031226

> <r_i_glide_evdw>
-41.7673683166504

> <r_i_glide_ecoul>
-11.3992223739624

> <r_i_glide_erotb>
0.538954042721305

> <r_i_glide_esite>
0

> <r_i_glide_emodel>
-74.2931577420423

> <r_i_glide_energy>
-53.1665906906128

> <r_i_glide_einternal>
4.81326484680176

> <i_i_glide_confnum>
125

> <i_i_glide_posenum>
376

> <r_i_glide_eff_state_penalty>
0

> <s_user_duplicate_titles>
170995

> <s_m_subgroup_title>
dock_pv

> <s_m_subgroupid>
dock_pv1

> <b_m_subgroup_collapsed>
0

$$$$
430646
                    3D
 Schrodinger Suite 2021-1.
 43 46  0  0  1  0            999 V2000
    2.4893    5.6182    8.2817 C   0  0  0  0  0  0
    2.7164    7.1178    8.5850 C   0  0  0  0  0  0
    1.3891    7.8666    8.2837 C   0  0  0  0  0  0
    3.0764    7.3202   10.0752 C   0  0  0  0  0  0
    3.8452    7.6190    7.7496 N   0  0  0  0  0  0
    5.1560    7.1637    7.6853 C   0  0  0  0  0  0
    5.8178    7.9721    6.7284 C   0  0  0  0  0  0
    4.7992    8.8565    6.2301 C   0  0  0  0  0  0
    3.6716    8.6363    6.8692 N   0  0  0  0  0  0
    4.8930    9.9200    5.1741 C   0  0  0  0  0  0
    5.9819   10.7936    5.2454 C   0  0  0  0  0  0
    6.1678   11.8021    4.3086 C   0  0  0  0  0  0
    5.2648   11.9785    3.2681 C   0  0  0  0  0  0
    4.1406   11.1299    3.1464 C   0  0  0  0  0  0
    3.9421   10.0804    4.1036 C   0  0  0  0  0  0
    2.8070    9.2345    3.9281 C   0  0  0  0  0  0
    1.9170    9.4287    2.8738 C   0  0  0  0  0  0
    2.1172   10.4562    1.9627 C   0  0  0  0  0  0
    3.2132   11.3028    2.0863 C   0  0  0  0  0  0
    7.1780    7.6653    6.5172 C   0  0  0  0  0  0
    7.7790    6.6378    7.1682 N   0  0  0  0  0  0
    6.9976    5.8993    7.9881 C   0  0  0  0  0  0
    5.7087    6.1334    8.3424 N   0  0  0  0  0  0
    7.9589    8.3384    5.5905 N   0  0  0  0  0  0
    3.3542    5.0099    8.5396 H   0  0  0  0  0  0
    1.6505    5.2191    8.8526 H   0  0  0  0  0  0
    2.2707    5.4517    7.2266 H   0  0  0  0  0  0
    1.4617    8.9298    8.5174 H   0  0  0  0  0  0
    1.1056    7.7784    7.2331 H   0  0  0  0  0  0
    0.5691    7.4530    8.8717 H   0  0  0  0  0  0
    3.2651    8.3709   10.3020 H   0  0  0  0  0  0
    2.2705    6.9854   10.7298 H   0  0  0  0  0  0
    3.9676    6.7605   10.3633 H   0  0  0  0  0  0
    6.6929   10.7062    6.0565 H   0  0  0  0  0  0
    7.0162   12.4644    4.3884 H   0  0  0  0  0  0
    5.4170   12.7688    2.5454 H   0  0  0  0  0  0
    2.6248    8.4162    4.6073 H   0  0  0  0  0  0
    1.0682    8.7685    2.7579 H   0  0  0  0  0  0
    1.4215   10.5869    1.1453 H   0  0  0  0  0  0
    3.3702   12.0941    1.3656 H   0  0  0  0  0  0
    7.4603    5.0390    8.4512 H   0  0  0  0  0  0
    7.5445    9.0679    5.0297 H   0  0  0  0  0  0
    8.9050    8.0115    5.4418 H   0  0  0  0  0  0
  1  2  1  0  0  0
  1 25  1  0  0  0
  1 26  1  0  0  0
  1 27  1  0  0  0
  2  3  1  0  0  0
  2  4  1  0  0  0
  2  5  1  0  0  0
  3 28  1  0  0  0
  3 29  1  0  0  0
  3 30  1  0  0  0
  4 31  1  0  0  0
  4 32  1  0  0  0
  4 33  1  0  0  0
  5  9  1  0  0  0
  5  6  1  0  0  0
  6 23  2  0  0  0
  6  7  1  0  0  0
  7  8  1  0  0  0
  7 20  2  0  0  0
  8  9  2  0  0  0
  8 10  1  0  0  0
 10 15  1  0  0  0
 10 11  2  0  0  0
 11 12  1  0  0  0
 11 34  1  0  0  0
 12 13  2  0  0  0
 12 35  1  0  0  0
 13 14  1  0  0  0
 13 36  1  0  0  0
 14 19  2  0  0  0
 14 15  1  0  0  0
 15 16  2  0  0  0
 16 17  1  0  0  0
 16 37  1  0  0  0
 17 18  2  0  0  0
 17 38  1  0  0  0
 18 19  1  0  0  0
 18 39  1  0  0  0
 19 40  1  0  0  0
 20 21  1  0  0  0
 20 24  1  0  0  0
 21 22  2  0  0  0
 22 23  1  0  0  0
 22 41  1  0  0  0
 24 42  1  0  0  0
 24 43  1  0  0  0
M  END
> <s_m_entry_id>
33977

> <s_m_entry_name>
ligand_docking-pose.111

> <s_m_Source_Path>
/home/csk/Desktop/cluster/DUD-E-result/src

> <s_m_Source_File>
ligand_docking-pose.sdf

> <i_m_Source_File_Index>
111

> <i_lp_mmshare_version>
53161

> <i_f3d_flags>
0

> <r_lp_tautomer_probability>
1

> <s_lp_Force_Field>
OPLS_2005

> <r_lp_Energy>
42.969651

> <b_lp_Chiralities_Consistent>
1

> <s_lp_Variant>
430646-1

> <s_i_glide_gridfile>
glide-grid_3el8

> <i_i_glide_lignum>
537

> <i_i_glide_rotatable_bonds>
2

> <r_i_docking_score>
-7.43139885904257

> <r_i_glide_ligand_efficiency>
-0.309641619126774

> <r_i_glide_ligand_efficiency_sa>
-0.893160983323588

> <r_i_glide_ligand_efficiency_ln>
-1.77867475164237

> <r_i_glide_gscore>
-7.43139885904257

> <r_i_glide_lipo>
-2.01353506069043

> <r_i_glide_hbond>
-0.402080415460823

> <r_i_glide_metal>
0

> <r_i_glide_rewards>
-2.93424503815514

> <r_i_glide_evdw>
-32.8790397644043

> <r_i_glide_ecoul>
-3.78030681610107

> <r_i_glide_erotb>
0.129459665899199

> <r_i_glide_esite>
0

> <r_i_glide_emodel>
-51.1494761920185

> <r_i_glide_energy>
-36.6593465805054

> <r_i_glide_einternal>
3.26898193359375

> <i_i_glide_confnum>
1

> <i_i_glide_posenum>
103

> <r_i_glide_eff_state_penalty>
0

> <s_user_duplicate_titles>
430646

> <s_m_subgroup_title>
dock_pv

> <s_m_subgroupid>
dock_pv1

> <b_m_subgroup_collapsed>
0

$$$$
283211
                    3D
 Schrodinger Suite 2021-1.
 58 61  0  0  1  0            999 V2000
    0.7798   13.3669    0.6501 C   0  0  0  0  0  0
    2.2594   13.0658    0.3159 C   0  0  0  0  0  0
    2.3654   12.1359   -0.9172 C   0  0  0  0  0  0
    2.9977   14.3852    0.0200 C   0  0  0  0  0  0
    2.9398   12.5319    1.4653 O   0  0  0  0  0  0
    2.6679   11.3336    2.0530 C   0  0  0  0  0  0
    1.8185   10.5420    1.6427 O   0  0  0  0  0  0
    3.4897   11.1056    3.1651 N   0  0  0  0  0  0
    3.5591    9.7732    3.7685 C   0  0  0  0  0  0
    4.7624    9.8547    4.7152 C   0  0  1  0  0  0
    4.8644   11.3234    5.0848 C   0  0  0  0  0  0
    4.4049   12.0717    3.8210 C   0  0  2  0  0  0
    3.8564   13.4869    4.1401 C   0  0  0  0  0  0
    2.5976   13.4363    4.7874 O   0  0  0  0  0  0
    4.6880    8.9564    5.8738 N   0  0  0  0  0  0
    3.5598    8.6455    6.6058 C   0  0  0  0  0  0
    3.8294    7.7145    7.5956 C   0  0  0  0  0  0
    5.2372    7.4176    7.4547 C   0  0  0  0  0  0
    5.7518    8.2684    6.4312 C   0  0  0  0  0  0
    7.0313    8.3248    6.0337 N   0  0  0  0  0  0
    7.8337    7.4373    6.6698 C   0  0  0  0  0  0
    7.4749    6.5122    7.5880 N   0  0  0  0  0  0
    6.1760    6.4996    7.9793 C   0  0  0  0  0  0
    5.7979    5.4370    8.7880 N   0  0  0  0  0  0
    2.8296    7.1471    8.5482 C   0  0  0  0  0  0
    1.5502    6.8120    8.0891 C   0  0  0  0  0  0
    0.6089    6.2726    8.9636 C   0  0  0  0  0  0
    0.9460    6.0695   10.2989 C   0  0  0  0  0  0
    2.2170    6.3961   10.7633 C   0  0  0  0  0  0
    3.1612    6.9289    9.8883 C   0  0  0  0  0  0
    0.0177    5.5600   11.1654 O   0  0  0  0  0  0
    5.6428    9.5466    4.1463 H   0  0  0  0  0  0
    5.2680   12.1871    3.1627 H   0  0  0  0  0  0
    0.2842   13.8796   -0.1748 H   0  0  0  0  0  0
    0.6949   14.0017    1.5326 H   0  0  0  0  0  0
    0.2144   12.4570    0.8514 H   0  0  0  0  0  0
    3.3980   11.8365   -1.0919 H   0  0  0  0  0  0
    1.7821   11.2224   -0.8049 H   0  0  0  0  0  0
    2.0178   12.6319   -1.8235 H   0  0  0  0  0  0
    4.0520   14.2093   -0.2009 H   0  0  0  0  0  0
    2.5682   14.9023   -0.8384 H   0  0  0  0  0  0
    2.9575   15.0672    0.8702 H   0  0  0  0  0  0
    2.6239    9.5579    4.2836 H   0  0  0  0  0  0
    3.6942    8.9862    3.0247 H   0  0  0  0  0  0
    4.1769   11.5460    5.9041 H   0  0  0  0  0  0
    5.8593   11.6280    5.4131 H   0  0  0  0  0  0
    4.5607   14.0113    4.7867 H   0  0  0  0  0  0
    3.7586   14.0891    3.2373 H   0  0  0  0  0  0
    1.9569   13.0693    4.1727 H   0  0  0  0  0  0
    2.6191    9.1166    6.3625 H   0  0  0  0  0  0
    8.8770    7.4449    6.3882 H   0  0  0  0  0  0
    4.8356    5.3536    9.0857 H   0  0  0  0  0  0
    6.5039    4.7726    9.0834 H   0  0  0  0  0  0
    1.2852    6.9596    7.0522 H   0  0  0  0  0  0
   -0.3753    6.0106    8.6036 H   0  0  0  0  0  0
    2.4737    6.2369   11.8001 H   0  0  0  0  0  0
    4.1436    7.1830   10.2590 H   0  0  0  0  0  0
   -0.8675    5.5102   10.7883 H   0  0  0  0  0  0
  1  2  1  0  0  0
  1 34  1  0  0  0
  1 35  1  0  0  0
  1 36  1  0  0  0
  2  3  1  0  0  0
  2  4  1  0  0  0
  2  5  1  0  0  0
  3 37  1  0  0  0
  3 38  1  0  0  0
  3 39  1  0  0  0
  4 40  1  0  0  0
  4 41  1  0  0  0
  4 42  1  0  0  0
  5  6  1  0  0  0
  6  7  2  0  0  0
  6  8  1  0  0  0
  8 12  1  0  0  0
  8  9  1  0  0  0
  9 10  1  0  0  0
  9 43  1  0  0  0
  9 44  1  0  0  0
 10 32  1  0  0  0
 10 11  1  0  0  0
 10 15  1  0  0  0
 11 12  1  0  0  0
 11 45  1  0  0  0
 11 46  1  0  0  0
 12 33  1  0  0  0
 12 13  1  0  0  0
 13 14  1  0  0  0
 13 47  1  0  0  0
 13 48  1  0  0  0
 14 49  1  0  0  0
 15 19  1  0  0  0
 15 16  1  0  0  0
 16 17  2  0  0  0
 16 50  1  0  0  0
 17 18  1  0  0  0
 17 25  1  0  0  0
 18 23  2  0  0  0
 18 19  1  0  0  0
 19 20  2  0  0  0
 20 21  1  0  0  0
 21 22  2  0  0  0
 21 51  1  0  0  0
 22 23  1  0  0  0
 23 24  1  0  0  0
 24 52  1  0  0  0
 24 53  1  0  0  0
 25 30  1  0  0  0
 25 26  2  0  0  0
 26 27  1  0  0  0
 26 54  1  0  0  0
 27 28  2  0  0  0
 27 55  1  0  0  0
 28 29  1  0  0  0
 28 31  1  0  0  0
 29 30  2  0  0  0
 29 56  1  0  0  0
 30 57  1  0  0  0
 31 58  1  0  0  0
M  END
> <s_m_entry_id>
33978

> <s_m_entry_name>
ligand_docking-pose.112

> <s_m_Source_Path>
/home/csk/Desktop/cluster/DUD-E-result/src

> <s_m_Source_File>
ligand_docking-pose.sdf

> <i_m_Source_File_Index>
112

> <i_lp_mmshare_version>
53161

> <i_f3d_flags>
0

> <r_lp_tautomer_probability>
0.999999999997365

> <s_lp_Force_Field>
OPLS_2005

> <r_lp_Energy>
39.553113

> <b_lp_Chiralities_Consistent>
1

> <s_lp_Variant>
283211-1

> <s_i_glide_gridfile>
glide-grid_3el8

> <i_i_glide_lignum>
580

> <i_i_glide_rotatable_bonds>
8

> <r_i_docking_score>
-7.39743358119257

> <r_i_glide_ligand_efficiency>
-0.238626889715889

> <r_i_glide_ligand_efficiency_sa>
-0.74961789363577

> <r_i_glide_ligand_efficiency_ln>
-1.66834797667205

> <r_i_glide_gscore>
-7.39743358119257

> <r_i_glide_lipo>
-2.10853551392817

> <r_i_glide_hbond>
-0.43669347043943

> <r_i_glide_metal>
0

> <r_i_glide_rewards>
-2.40753380785596

> <r_i_glide_evdw>
-40.4882278442383

> <r_i_glide_ecoul>
-6.4543776512146

> <r_i_glide_erotb>
0.547897250925095

> <r_i_glide_esite>
0

> <r_i_glide_emodel>
-65.150794682903

> <r_i_glide_energy>
-46.9426054954529

> <r_i_glide_einternal>
3.19310903549194

> <i_i_glide_confnum>
6

> <i_i_glide_posenum>
399

> <r_i_glide_eff_state_penalty>
0

> <s_user_duplicate_titles>
283211

> <s_m_subgroup_title>
dock_pv

> <s_m_subgroupid>
dock_pv1

> <b_m_subgroup_collapsed>
0

$$$$
112468
                    3D
 Schrodinger Suite 2021-1.
 26 28  0  0  1  0            999 V2000
    4.9416    9.0382    5.9353 C   0  0  0  0  0  0
    6.2661    9.2203    5.5421 C   0  0  0  0  0  0
    7.2956    8.4500    6.0784 C   0  0  0  0  0  0
    7.0477    7.4894    7.0696 C   0  0  0  0  0  0
    5.7152    7.3181    7.4816 C   0  0  0  0  0  0
    4.6516    8.0639    6.9032 C   0  0  0  0  0  0
    3.4438    7.5900    7.4531 C   0  0  0  0  0  0
    2.0950    7.9002    7.2197 C   0  0  0  0  0  0
    1.1076    7.1784    7.8914 C   0  0  0  0  0  0
    1.4474    6.2031    8.8376 C   0  0  0  0  0  0
    2.7807    5.8910    9.1112 C   0  0  0  0  0  0
    3.7658    6.5783    8.3911 C   0  0  0  0  0  0
    5.1399    6.4494    8.3934 N   0  0  0  0  0  0
    0.4753    5.5264    9.5331 O   0  0  0  0  0  0
   -0.2020    7.4420    7.5795 O   0  0  0  0  0  0
    8.0472    6.7000    7.5879 O   0  0  0  0  0  0
    8.5641    8.6367    5.5896 O   0  0  0  0  0  0
    5.6380    5.7852    8.9676 H   0  0  0  0  0  0
    4.1535    9.6213    5.4816 H   0  0  0  0  0  0
    6.4947    9.9539    4.7828 H   0  0  0  0  0  0
    1.8183    8.6504    6.4935 H   0  0  0  0  0  0
    3.0280    5.1301    9.8387 H   0  0  0  0  0  0
   -0.4214    5.8365    9.3789 H   0  0  0  0  0  0
   -0.7909    6.6722    7.5873 H   0  0  0  0  0  0
    7.7121    6.0784    8.2366 H   0  0  0  0  0  0
    9.1687    7.9397    5.8676 H   0  0  0  0  0  0
  1  6  1  0  0  0
  1  2  2  0  0  0
  1 19  1  0  0  0
  2  3  1  0  0  0
  2 20  1  0  0  0
  3  4  2  0  0  0
  3 17  1  0  0  0
  4  5  1  0  0  0
  4 16  1  0  0  0
  5 13  1  0  0  0
  5  6  2  0  0  0
  6  7  1  0  0  0
  7 12  2  0  0  0
  7  8  1  0  0  0
  8  9  2  0  0  0
  8 21  1  0  0  0
  9 10  1  0  0  0
  9 15  1  0  0  0
 10 11  2  0  0  0
 10 14  1  0  0  0
 11 12  1  0  0  0
 11 22  1  0  0  0
 12 13  1  0  0  0
 13 18  1  0  0  0
 14 23  1  0  0  0
 15 24  1  0  0  0
 16 25  1  0  0  0
 17 26  1  0  0  0
M  END
> <s_m_entry_id>
33984

> <s_m_entry_name>
ligand_docking-pose.118

> <s_m_Source_Path>
/home/csk/Desktop/cluster/DUD-E-result/src

> <s_m_Source_File>
ligand_docking-pose.sdf

> <i_m_Source_File_Index>
118

> <i_lp_mmshare_version>
53161

> <i_f3d_flags>
0

> <r_lp_tautomer_probability>
1

> <s_lp_Force_Field>
OPLS_2005

> <r_lp_Energy>
10.462908

> <b_lp_Chiralities_Consistent>
1

> <s_lp_Variant>
112468-1

> <s_i_glide_gridfile>
glide-grid_3el8

> <i_i_glide_lignum>
26

> <i_i_glide_rotatable_bonds>
4

> <r_i_docking_score>
-7.32913984231047

> <r_i_glide_ligand_efficiency>
-0.431125873077087

> <r_i_glide_ligand_efficiency_sa>
-1.10854601965266

> <r_i_glide_ligand_efficiency_ln>
-1.91200937293904

> <r_i_glide_gscore>
-7.32913984231047

> <r_i_glide_lipo>
-2.25421881484188

> <r_i_glide_hbond>
0

> <r_i_glide_metal>
0

> <r_i_glide_rewards>
-2.33269890909091

> <r_i_glide_evdw>
-24.8865337371826

> <r_i_glide_ecoul>
-9.98596954345703

> <r_i_glide_erotb>
0

> <r_i_glide_esite>
0

> <r_i_glide_emodel>
-49.5396664387841

> <r_i_glide_energy>
-34.8725032806396

> <r_i_glide_einternal>
2.07957530021667

> <i_i_glide_confnum>
1

> <i_i_glide_posenum>
372

> <r_i_glide_eff_state_penalty>
0

> <s_user_duplicate_titles>
112468

> <s_m_subgroup_title>
dock_pv

> <s_m_subgroupid>
dock_pv1

> <b_m_subgroup_collapsed>
0

$$$$
376592
                    3D
 Schrodinger Suite 2021-1.
 39 42  0  0  1  0            999 V2000
    2.1714    8.8915    7.5155 C   0  0  0  0  0  0
    3.5983    8.6369    7.0372 C   0  0  0  0  0  0
    4.0112    9.2399    5.8446 C   0  0  0  0  0  0
    5.3034    9.0494    5.3641 C   0  0  0  0  0  0
    6.1898    8.2370    6.0631 C   0  0  0  0  0  0
    5.7960    7.6204    7.2509 C   0  0  0  0  0  0
    4.5051    7.8370    7.7710 C   0  0  0  0  0  0
    4.0981    7.2215    8.9749 N   0  0  0  0  0  0
    3.1067    6.2371    9.0510 C   0  0  0  0  0  0
    2.2403    6.1283   10.1542 C   0  0  0  0  0  0
    2.1082    6.6452   11.4603 C   0  0  0  0  0  0
    0.9985    6.2370   12.0288 N   0  0  0  0  0  0
    0.4080    5.4367   11.1741 C   0  0  0  0  0  0
    1.1406    5.2540   10.0188 N   0  0  0  0  0  0
    1.0033    4.4180    8.9275 C   0  0  0  0  0  0
    2.0327    4.4809    7.9880 C   0  0  0  0  0  0
    2.9969    5.4100    7.9938 N   0  0  0  0  0  0
   -0.1532    3.4649    8.8391 C   0  0  0  0  0  0
   -1.4558    3.8370    9.1944 C   0  0  0  0  0  0
   -2.4979    2.9107    9.1879 C   0  0  0  0  0  0
   -2.2458    1.5967    8.7998 C   0  0  0  0  0  0
   -0.9798    1.2191    8.3880 C   0  0  0  0  0  0
    0.0421    2.1581    8.3880 C   0  0  0  0  0  0
   -3.2176    0.6605    8.8954 F   0  0  0  0  0  0
    6.9184    6.5304    7.9880 Cl  0  0  0  0  0  0
    1.5578    8.0033    7.3617 H   0  0  0  0  0  0
    2.1601    9.1247    8.5806 H   0  0  0  0  0  0
    1.7071    9.7321    6.9984 H   0  0  0  0  0  0
    3.3283    9.8599    5.2815 H   0  0  0  0  0  0
    5.6110    9.5168    4.4400 H   0  0  0  0  0  0
    7.1810    8.0646    5.6685 H   0  0  0  0  0  0
    4.1951    7.7831    9.8056 H   0  0  0  0  0  0
    2.7869    7.3071   11.9769 H   0  0  0  0  0  0
   -0.5059    4.9014   11.3749 H   0  0  0  0  0  0
    2.1970    3.7726    7.1880 H   0  0  0  0  0  0
   -1.6735    4.8533    9.4808 H   0  0  0  0  0  0
   -3.4918    3.2018    9.4907 H   0  0  0  0  0  0
   -0.7903    0.2009    8.0829 H   0  0  0  0  0  0
    0.9980    1.8370    8.0587 H   0  0  0  0  0  0
  1  2  1  0  0  0
  1 26  1  0  0  0
  1 27  1  0  0  0
  1 28  1  0  0  0
  2  7  1  0  0  0
  2  3  2  0  0  0
  3  4  1  0  0  0
  3 29  1  0  0  0
  4  5  2  0  0  0
  4 30  1  0  0  0
  5  6  1  0  0  0
  5 31  1  0  0  0
  6  7  2  0  0  0
  6 25  1  0  0  0
  7  8  1  0  0  0
  8  9  1  0  0  0
  8 32  1  0  0  0
  9 17  2  0  0  0
  9 10  1  0  0  0
 10 14  1  0  0  0
 10 11  2  0  0  0
 11 12  1  0  0  0
 11 33  1  0  0  0
 12 13  2  0  0  0
 13 14  1  0  0  0
 13 34  1  0  0  0
 14 15  1  0  0  0
 15 16  2  0  0  0
 15 18  1  0  0  0
 16 17  1  0  0  0
 16 35  1  0  0  0
 18 23  1  0  0  0
 18 19  2  0  0  0
 19 20  1  0  0  0
 19 36  1  0  0  0
 20 21  2  0  0  0
 20 37  1  0  0  0
 21 22  1  0  0  0
 21 24  1  0  0  0
 22 23  2  0  0  0
 22 38  1  0  0  0
 23 39  1  0  0  0
M  END
> <s_m_entry_id>
34020

> <s_m_entry_name>
ligand_docking-pose.154

> <s_m_Source_Path>
/home/csk/Desktop/cluster/DUD-E-result/src

> <s_m_Source_File>
ligand_docking-pose.sdf

> <i_m_Source_File_Index>
154

> <i_lp_mmshare_version>
53161

> <i_f3d_flags>
0

> <r_lp_tautomer_probability>
1

> <s_lp_Force_Field>
OPLS_2005

> <r_lp_Energy>
37.312513

> <b_lp_Chiralities_Consistent>
1

> <s_lp_Variant>
376592-1

> <s_i_glide_gridfile>
glide-grid_3el8

> <i_i_glide_lignum>
398

> <i_i_glide_rotatable_bonds>
3

> <r_i_docking_score>
-6.91892826198921

> <r_i_glide_ligand_efficiency>
-0.276757130479568

> <r_i_glide_ligand_efficiency_sa>
-0.809242757830866

> <r_i_glide_ligand_efficiency_ln>
-1.63999334163986

> <r_i_glide_gscore>
-6.91892826198921

> <r_i_glide_lipo>
-3.85558809436441

> <r_i_glide_hbond>
0

> <r_i_glide_metal>
0

> <r_i_glide_rewards>
-1.68656907743129

> <r_i_glide_evdw>
-33.6819000244141

> <r_i_glide_ecoul>
-0.477745234966278

> <r_i_glide_erotb>
0.460117838132018

> <r_i_glide_esite>
-0.0811321418598786

> <r_i_glide_emodel>
-40.8468790202336

> <r_i_glide_energy>
-34.1596452593803

> <r_i_glide_einternal>
4.86803388595581

> <i_i_glide_confnum>
14

> <i_i_glide_posenum>
199

> <r_i_glide_eff_state_penalty>
0

> <s_user_duplicate_titles>
376592

> <s_m_subgroup_title>
dock_pv

> <s_m_subgroupid>
dock_pv1

> <b_m_subgroup_collapsed>
0

$$$$
402623
                    3D
 Schrodinger Suite 2021-1.
 45 48  0  0  1  0            999 V2000
   -0.2162    7.4367    5.8800 C   0  0  0  0  0  0
    1.1213    8.4343    5.1671 S   0  0  0  0  0  0
    2.5501    8.1726    6.1691 C   0  0  0  0  0  0
    2.3772    7.5112    7.3417 N   0  0  0  0  0  0
    3.4867    7.1967    8.0625 C   0  0  0  0  0  0
    4.7569    7.5308    7.5831 C   0  0  0  0  0  0
    6.1240    7.3503    7.9387 C   0  0  0  0  0  0
    6.9166    7.8869    7.0468 N   0  0  0  0  0  0
    6.1319    8.4367    6.0920 N   0  0  0  0  0  0
    4.7912    8.2386    6.3655 C   0  0  0  0  0  0
    3.7252    8.6029    5.6425 N   0  0  0  0  0  0
    6.7584    9.0419    4.9234 C   0  0  0  0  0  0
    6.1897   10.4405    4.5573 C   0  0  2  0  0  0
    7.0989   11.2210    3.6140 C   0  0  0  0  0  0
    6.5797   11.7531    2.4309 C   0  0  0  0  0  0
    7.3996   12.4940    1.5865 C   0  0  0  0  0  0
    8.7380   12.6942    1.9139 C   0  0  0  0  0  0
    9.2644   12.1691    3.0907 C   0  0  0  0  0  0
    8.4438   11.4369    3.9431 C   0  0  0  0  0  0
    5.7979   11.4370    5.9878 Cl  0  0  0  0  0  0
    3.3513    6.5218    9.2789 N   0  0  0  0  0  0
    2.1837    5.9673    9.8033 C   0  0  0  0  0  0
    1.7675    6.3297   11.0842 C   0  0  0  0  0  0
    0.5650    5.8369   11.5877 C   0  0  0  0  0  0
   -0.2019    4.9618   10.8193 C   0  0  0  0  0  0
    0.2390    4.5570    9.5628 C   0  0  0  0  0  0
    1.4281    5.0652    9.0498 C   0  0  0  0  0  0
   -0.6803    3.4259    8.6474 Cl  0  0  0  0  0  0
   -1.0799    7.4368    5.2174 H   0  0  0  0  0  0
    0.1053    6.4036    6.0140 H   0  0  0  0  0  0
   -0.5193    7.8346    6.8474 H   0  0  0  0  0  0
    6.5208    6.8182    8.7878 H   0  0  0  0  0  0
    6.5979    8.3536    4.0934 H   0  0  0  0  0  0
    7.8340    9.0803    5.1021 H   0  0  0  0  0  0
    5.2274   10.2848    4.0662 H   0  0  0  0  0  0
    5.5418   11.6106    2.1658 H   0  0  0  0  0  0
    6.9982   12.9118    0.6741 H   0  0  0  0  0  0
    9.3698   13.2682    1.2518 H   0  0  0  0  0  0
   10.3010   12.3359    3.3456 H   0  0  0  0  0  0
    8.8571   11.0547    4.8648 H   0  0  0  0  0  0
    4.1993    6.3216    9.7877 H   0  0  0  0  0  0
    2.3556    7.0150   11.6773 H   0  0  0  0  0  0
    0.2215    6.1415   12.5655 H   0  0  0  0  0  0
   -1.1401    4.5881   11.2019 H   0  0  0  0  0  0
    1.7592    4.7684    8.0655 H   0  0  0  0  0  0
  1  2  1  0  0  0
  1 29  1  0  0  0
  1 30  1  0  0  0
  1 31  1  0  0  0
  2  3  1  0  0  0
  3 11  1  0  0  0
  3  4  2  0  0  0
  4  5  1  0  0  0
  5  6  2  0  0  0
  5 21  1  0  0  0
  6 10  1  0  0  0
  6  7  1  0  0  0
  7  8  2  0  0  0
  7 32  1  0  0  0
  8  9  1  0  0  0
  9 10  1  0  0  0
  9 12  1  0  0  0
 10 11  2  0  0  0
 12 13  1  0  0  0
 12 33  1  0  0  0
 12 34  1  0  0  0
 13 14  1  0  0  0
 13 20  1  0  0  0
 13 35  1  0  0  0
 14 19  1  0  0  0
 14 15  2  0  0  0
 15 16  1  0  0  0
 15 36  1  0  0  0
 16 17  2  0  0  0
 16 37  1  0  0  0
 17 18  1  0  0  0
 17 38  1  0  0  0
 18 19  2  0  0  0
 18 39  1  0  0  0
 19 40  1  0  0  0
 21 22  1  0  0  0
 21 41  1  0  0  0
 22 27  1  0  0  0
 22 23  2  0  0  0
 23 24  1  0  0  0
 23 42  1  0  0  0
 24 25  2  0  0  0
 24 43  1  0  0  0
 25 26  1  0  0  0
 25 44  1  0  0  0
 26 27  2  0  0  0
 26 28  1  0  0  0
 27 45  1  0  0  0
M  END
> <s_m_entry_id>
34022

> <s_m_entry_name>
ligand_docking-pose.156

> <s_m_Source_Path>
/home/csk/Desktop/cluster/DUD-E-result/src

> <s_m_Source_File>
ligand_docking-pose.sdf

> <i_m_Source_File_Index>
156

> <i_lp_mmshare_version>
53161

> <i_f3d_flags>
0

> <r_lp_tautomer_probability>
1

> <s_lp_Force_Field>
OPLS_2005

> <r_lp_Energy>
12.613436

> <b_lp_Chiralities_Consistent>
1

> <s_lp_Variant>
402623-2

> <s_i_glide_gridfile>
glide-grid_3el8

> <i_i_glide_lignum>
1457

> <i_i_glide_rotatable_bonds>
6

> <r_i_docking_score>
-6.89698824367189

> <r_i_glide_ligand_efficiency>
-0.246321008702567

> <r_i_glide_ligand_efficiency_sa>
-0.747975657736703

> <r_i_glide_ligand_efficiency_ln>
-1.59202739101367

> <r_i_glide_gscore>
-6.89698824367189

> <r_i_glide_lipo>
-3.53394271942197

> <r_i_glide_hbond>
0

> <r_i_glide_metal>
0

> <r_i_glide_rewards>
-1.3038197731258

> <r_i_glide_evdw>
-45.8072090148926

> <r_i_glide_ecoul>
-2.03720927238464

> <r_i_glide_erotb>
0.536716090478208

> <r_i_glide_esite>
0

> <r_i_glide_emodel>
-62.3675535183311

> <r_i_glide_energy>
-47.8444182872772

> <r_i_glide_einternal>
9.6674919128418

> <i_i_glide_confnum>
16

> <i_i_glide_posenum>
195

> <r_i_glide_eff_state_penalty>
0

> <s_user_duplicate_titles>
402623

> <s_m_subgroup_title>
dock_pv

> <s_m_subgroupid>
dock_pv1

> <b_m_subgroup_collapsed>
0

$$$$
580428
                    3D
 Schrodinger Suite 2021-1.
 59 63  0  0  1  0            999 V2000
    1.2423   11.8975    5.9874 C   0  0  0  0  0  0
    2.4567   12.6351    5.9007 O   0  0  0  0  0  0
    3.2993   12.1998    4.9090 C   0  0  0  0  0  0
    4.3394   11.3283    5.2390 C   0  0  0  0  0  0
    5.1717   10.7957    4.2479 C   0  0  0  0  0  0
    4.9902   11.2100    2.9169 C   0  0  0  0  0  0
    3.9845   12.1204    2.5931 C   0  0  0  0  0  0
    3.1376   12.6164    3.5823 C   0  0  0  0  0  0
    1.9029   13.7456    3.1469 Cl  0  0  0  0  0  0
    6.0067   10.6375    1.6395 Cl  0  0  0  0  0  0
    6.1970    9.8808    4.5482 N   0  0  0  0  0  0
    6.4585    8.9466    5.5802 C   0  0  0  0  0  0
    5.4503    8.2839    6.3802 C   0  0  0  0  0  0
    4.0394    8.3849    6.1909 C   0  0  0  0  0  0
    3.1458    7.8380    7.1125 C   0  0  0  0  0  0
    3.5998    7.1421    8.2336 C   0  0  0  0  0  0
    4.9678    6.8965    8.3594 C   0  0  0  0  0  0
    5.8971    7.4433    7.4479 C   0  0  0  0  0  0
    7.2047    7.1453    7.6452 N   0  0  0  0  0  0
    8.1231    7.7278    6.8559 C   0  0  0  0  0  0
    7.8126    8.6368    5.8538 C   0  0  0  0  0  0
    8.9505    9.2685    5.1879 C   0  0  0  0  0  0
    9.8502    9.7761    4.6671 N   0  0  0  0  0  0
    2.6841    6.7266    9.3290 C   0  0  0  0  0  0
    3.0188    7.0284   10.6556 C   0  0  0  0  0  0
    2.1639    6.6369   11.6785 C   0  0  0  0  0  0
    0.9916    5.9591   11.3635 C   0  0  0  0  0  0
    0.7073    5.6856   10.0227 C   0  0  0  0  0  0
    1.5285    6.0734    9.0025 N   0  0  0  0  0  0
   -0.6021    4.9713    9.6936 C   0  0  0  0  0  0
   -0.5389    3.7490    8.8755 N   0  0  0  0  0  0
   -1.8791    3.1329    8.9287 C   0  0  0  0  0  0
   -1.9378    1.7507    8.2592 C   0  0  0  0  0  0
   -0.9631    0.8801    8.7880 O   0  0  0  0  0  0
    0.3435    1.4027    8.6412 C   0  0  0  0  0  0
    0.5316    2.8112    9.2587 C   0  0  0  0  0  0
    0.6816   12.2228    6.8629 H   0  0  0  0  0  0
    1.4225   10.8261    6.0878 H   0  0  0  0  0  0
    0.6068   12.0611    5.1170 H   0  0  0  0  0  0
    4.4765   11.0516    6.2729 H   0  0  0  0  0  0
    3.8623   12.4408    1.5672 H   0  0  0  0  0  0
    7.0049   10.0348    3.9619 H   0  0  0  0  0  0
    3.6404    8.9065    5.3366 H   0  0  0  0  0  0
    2.0856    7.9950    6.9742 H   0  0  0  0  0  0
    5.3383    6.3049    9.1857 H   0  0  0  0  0  0
    9.1506    7.4661    7.0759 H   0  0  0  0  0  0
    3.9323    7.5523   10.8969 H   0  0  0  0  0  0
    2.4109    6.8544   12.7078 H   0  0  0  0  0  0
    0.3184    5.6550   12.1523 H   0  0  0  0  0  0
   -1.0944    4.7420   10.6411 H   0  0  0  0  0  0
   -1.2492    5.6871    9.1880 H   0  0  0  0  0  0
   -2.1885    3.0064    9.9683 H   0  0  0  0  0  0
   -2.6173    3.8023    8.4851 H   0  0  0  0  0  0
   -1.8020    1.8382    7.1874 H   0  0  0  0  0  0
   -2.9158    1.2982    8.4158 H   0  0  0  0  0  0
    0.5974    1.4145    7.5879 H   0  0  0  0  0  0
    0.9979    0.6895    9.1275 H   0  0  0  0  0  0
    1.4966    3.2318    8.9751 H   0  0  0  0  0  0
    0.5876    2.7099   10.3416 H   0  0  0  0  0  0
  1  2  1  0  0  0
  1 37  1  0  0  0
  1 38  1  0  0  0
  1 39  1  0  0  0
  2  3  1  0  0  0
  3  8  1  0  0  0
  3  4  2  0  0  0
  4  5  1  0  0  0
  4 40  1  0  0  0
  5  6  2  0  0  0
  5 11  1  0  0  0
  6  7  1  0  0  0
  6 10  1  0  0  0
  7  8  2  0  0  0
  7 41  1  0  0  0
  8  9  1  0  0  0
 11 12  1  0  0  0
 11 42  1  0  0  0
 12 21  1  0  0  0
 12 13  2  0  0  0
 13 18  1  0  0  0
 13 14  1  0  0  0
 14 15  2  0  0  0
 14 43  1  0  0  0
 15 16  1  0  0  0
 15 44  1  0  0  0
 16 17  2  0  0  0
 16 24  1  0  0  0
 17 18  1  0  0  0
 17 45  1  0  0  0
 18 19  2  0  0  0
 19 20  1  0  0  0
 20 21  2  0  0  0
 20 46  1  0  0  0
 21 22  1  0  0  0
 22 23  3  0  0  0
 24 29  1  0  0  0
 24 25  2  0  0  0
 25 26  1  0  0  0
 25 47  1  0  0  0
 26 27  2  0  0  0
 26 48  1  0  0  0
 27 28  1  0  0  0
 27 49  1  0  0  0
 28 29  2  0  0  0
 28 30  1  0  0  0
 30 31  1  0  0  0
 30 50  1  0  0  0
 30 51  1  0  0  0
 31 36  1  0  0  0
 31 32  1  0  0  0
 32 33  1  0  0  0
 32 52  1  0  0  0
 32 53  1  0  0  0
 33 34  1  0  0  0
 33 54  1  0  0  0
 33 55  1  0  0  0
 34 35  1  0  0  0
 35 36  1  0  0  0
 35 56  1  0  0  0
 35 57  1  0  0  0
 36 58  1  0  0  0
 36 59  1  0  0  0
M  END
> <s_m_entry_id>
34027

> <s_m_entry_name>
ligand_docking-pose.161

> <s_m_Source_Path>
/home/csk/Desktop/cluster/DUD-E-result/src

> <s_m_Source_File>
ligand_docking-pose.sdf

> <i_m_Source_File_Index>
161

> <i_lp_mmshare_version>
53161

> <i_f3d_flags>
0

> <r_lp_tautomer_probability>
1

> <s_lp_Force_Field>
OPLS_2005

> <r_lp_Energy>
44.174833

> <b_lp_Chiralities_Consistent>
1

> <s_lp_Variant>
580428-1

> <s_i_glide_gridfile>
glide-grid_3el8

> <i_i_glide_lignum>
1324

> <i_i_glide_rotatable_bonds>
6

> <r_i_docking_score>
-6.81579071561154

> <r_i_glide_ligand_efficiency>
-0.189327519878098

> <r_i_glide_ligand_efficiency_sa>
-0.625145696104392

> <r_i_glide_ligand_efficiency_ln>
-1.48702139276146

> <r_i_glide_gscore>
-6.81579071561154

> <r_i_glide_lipo>
-4.15127169518005

> <r_i_glide_hbond>
0

> <r_i_glide_metal>
0

> <r_i_glide_rewards>
-0.14704717453447

> <r_i_glide_evdw>
-49.7950325012207

> <r_i_glide_ecoul>
-2.71422529220581

> <r_i_glide_erotb>
0.379413572994888

> <r_i_glide_esite>
0

> <r_i_glide_emodel>
-60.6546587539901

> <r_i_glide_energy>
-52.5092577934265

> <r_i_glide_einternal>
20.2881259918213

> <i_i_glide_confnum>
13

> <i_i_glide_posenum>
3

> <r_i_glide_eff_state_penalty>
0

> <s_user_duplicate_titles>
580428

> <s_m_subgroup_title>
dock_pv

> <s_m_subgroupid>
dock_pv1

> <b_m_subgroup_collapsed>
0

$$$$
650280
                    3D
 Schrodinger Suite 2021-1.
 45 48  0  0  1  0            999 V2000
   -2.3008   -1.6772    6.9233 C   0  0  0  0  0  0
   -1.3381   -0.7377    7.6349 C   0  0  0  0  0  0
   -0.2379   -1.1539    7.9880 O   0  0  0  0  0  0
   -1.8020    0.5105    7.8237 N   0  0  0  0  0  0
   -1.1808    1.6314    8.3910 C   0  0  0  0  0  0
    0.1979    1.7426    8.6007 C   0  0  0  0  0  0
    0.7317    2.9060    9.1470 C   0  0  0  0  0  0
   -0.1157    3.9473    9.5168 C   0  0  0  0  0  0
   -1.4893    3.8348    9.3325 C   0  0  0  0  0  0
   -2.0211    2.6800    8.7712 C   0  0  0  0  0  0
    0.4229    5.0848   10.1176 N   0  0  0  0  0  0
    1.1871    6.0532    9.4664 C   0  0  0  0  0  0
    2.2079    6.7194   10.1528 C   0  0  0  0  0  0
    2.9388    7.6549    9.3980 C   0  0  0  0  0  0
    3.8965    8.1107   10.2617 N   0  0  0  0  0  0
    3.7180    7.4369   11.4471 C   0  0  0  0  0  0
    2.6799    6.6370   11.4392 N   0  0  0  0  0  0
    2.7238    7.9827    8.1242 N   0  0  0  0  0  0
    1.6878    7.3001    7.5489 C   0  0  0  0  0  0
    0.9451    6.3312    8.1579 N   0  0  0  0  0  0
    1.4308    7.5527    6.1959 N   0  0  0  0  0  0
    1.8320    8.8394    5.5841 C   0  0  0  0  0  0
    1.7984    8.8546    4.0423 C   0  0  0  0  0  0
    0.5309    8.4234    3.5826 O   0  0  0  0  0  0
    0.2459    7.0980    3.9990 C   0  0  0  0  0  0
    0.2078    7.0374    5.5391 C   0  0  0  0  0  0
    4.6337    8.7758   10.0895 H   0  0  0  0  0  0
   -2.5632   -1.2803    5.9427 H   0  0  0  0  0  0
   -3.2139   -1.8019    7.5051 H   0  0  0  0  0  0
   -1.8443   -2.6552    6.7881 H   0  0  0  0  0  0
   -2.7328    0.7072    7.4569 H   0  0  0  0  0  0
    0.8576    0.9216    8.3880 H   0  0  0  0  0  0
    1.7960    2.9825    9.3132 H   0  0  0  0  0  0
   -2.1534    4.6369    9.6054 H   0  0  0  0  0  0
   -3.0897    2.6120    8.6242 H   0  0  0  0  0  0
    0.6695    4.9705   11.0890 H   0  0  0  0  0  0
    4.3751    7.6172   12.2869 H   0  0  0  0  0  0
    1.1998    9.6345    5.9816 H   0  0  0  0  0  0
    2.8530    9.0825    5.8793 H   0  0  0  0  0  0
    2.5933    8.2371    3.6219 H   0  0  0  0  0  0
    1.9721    9.8671    3.6773 H   0  0  0  0  0  0
    0.9773    6.3959    3.5935 H   0  0  0  0  0  0
   -0.7222    6.8059    3.5918 H   0  0  0  0  0  0
    0.0602    5.9921    5.8139 H   0  0  0  0  0  0
   -0.6614    7.5776    5.9177 H   0  0  0  0  0  0
  1  2  1  0  0  0
  1 28  1  0  0  0
  1 29  1  0  0  0
  1 30  1  0  0  0
  2  3  2  0  0  0
  2  4  1  0  0  0
  4  5  1  0  0  0
  4 31  1  0  0  0
  5 10  1  0  0  0
  5  6  2  0  0  0
  6  7  1  0  0  0
  6 32  1  0  0  0
  7  8  2  0  0  0
  7 33  1  0  0  0
  8  9  1  0  0  0
  8 11  1  0  0  0
  9 10  2  0  0  0
  9 34  1  0  0  0
 10 35  1  0  0  0
 11 12  1  0  0  0
 11 36  1  0  0  0
 12 20  1  0  0  0
 12 13  2  0  0  0
 13 17  1  0  0  0
 13 14  1  0  0  0
 14 15  1  0  0  0
 14 18  2  0  0  0
 15 27  1  0  0  0
 15 16  1  0  0  0
 16 17  2  0  0  0
 16 37  1  0  0  0
 18 19  1  0  0  0
 19 20  2  0  0  0
 19 21  1  0  0  0
 21 26  1  0  0  0
 21 22  1  0  0  0
 22 23  1  0  0  0
 22 38  1  0  0  0
 22 39  1  0  0  0
 23 24  1  0  0  0
 23 40  1  0  0  0
 23 41  1  0  0  0
 24 25  1  0  0  0
 25 26  1  0  0  0
 25 42  1  0  0  0
 25 43  1  0  0  0
 26 44  1  0  0  0
 26 45  1  0  0  0
M  END
> <s_m_entry_id>
34029

> <s_m_entry_name>
ligand_docking-pose.163

> <s_m_Source_Path>
/home/csk/Desktop/cluster/DUD-E-result/src

> <s_m_Source_File>
ligand_docking-pose.sdf

> <i_m_Source_File_Index>
163

> <i_lp_mmshare_version>
53161

> <i_f3d_flags>
0

> <r_lp_tautomer_probability>
0.95558173703543

> <s_lp_Force_Field>
OPLS_2005

> <r_lp_Energy>
30.46155

> <b_lp_Chiralities_Consistent>
1

> <s_lp_Variant>
650280-1

> <s_i_glide_gridfile>
glide-grid_3el8

> <i_i_glide_lignum>
770

> <i_i_glide_rotatable_bonds>
5

> <r_i_docking_score>
-6.79982465583579

> <r_i_glide_ligand_efficiency>
-0.261531717532146

> <r_i_glide_ligand_efficiency_sa>
-0.774786684111366

> <r_i_glide_ligand_efficiency_ln>
-1.59691650837849

> <r_i_glide_gscore>
-6.79982465583579

> <r_i_glide_lipo>
-2.51088854419365

> <r_i_glide_hbond>
-0.16

> <r_i_glide_metal>
0

> <r_i_glide_rewards>
-2.36451891568676

> <r_i_glide_evdw>
-46.0801544189453

> <r_i_glide_ecoul>
-0.284091651439667

> <r_i_glide_erotb>
0.611681180664211

> <r_i_glide_esite>
-0.0294769079563781

> <r_i_glide_emodel>
-61.3715342118728

> <r_i_glide_energy>
-46.364246070385

> <r_i_glide_einternal>
9.34274291992188

> <i_i_glide_confnum>
7

> <i_i_glide_posenum>
32

> <r_i_glide_eff_state_penalty>
0

> <s_user_duplicate_titles>
650280

> <s_m_subgroup_title>
dock_pv

> <s_m_subgroupid>
dock_pv1

> <b_m_subgroup_collapsed>
0

$$$$
