CHEMBL4439_lig796
                    3D
 Schrodinger Suite 2021-1.
 45 48  0  0  1  0            999 V2000
   17.6757   68.4356    3.9540 C   0  0  0  0  0  0
   16.6347   68.4569    3.0146 C   0  0  0  0  0  0
   16.8631   68.8662    1.7052 C   0  0  0  0  0  0
   18.0691   69.2570    1.2328 N   0  0  0  0  0  0
   17.4689   68.0583    5.2891 N   0  0  0  0  0  0
   16.4496   67.3431    5.9316 C   0  0  0  0  0  0
   16.2654   67.4872    7.3166 C   0  0  0  0  0  0
   15.2335   66.7665    7.9177 C   0  0  0  0  0  0
   14.4210   65.9251    7.2320 N   0  0  0  0  0  0
   14.6281   65.7488    5.8974 C   0  0  0  0  0  0
   15.6347   66.4498    5.2296 C   0  0  0  0  0  0
   13.6961   64.8216    5.1803 C   0  0  0  0  0  0
   12.3626   64.6988    5.6084 C   0  0  0  0  0  0
   11.4660   63.8777    4.9314 C   0  0  0  0  0  0
   11.8669   63.2051    3.7878 C   0  0  0  0  0  0
   13.1895   63.2573    3.3749 C   0  0  0  0  0  0
   14.1013   64.0570    4.0624 C   0  0  0  0  0  0
   15.3836   64.0571    3.6321 F   0  0  0  0  0  0
   18.9180   68.8915    3.4759 C   0  0  0  0  0  0
   19.0670   69.2817    2.1178 C   0  0  0  0  0  0
   20.4334   69.6570    1.9810 C   0  0  0  0  0  0
   21.0734   69.5165    3.1105 N   0  0  0  0  0  0
   20.1842   69.0744    4.0323 N   0  0  0  0  0  0
   20.6692   68.7516    5.3797 C   0  0  0  0  0  0
   21.5554   69.8310    6.0151 C   0  0  0  0  0  0
   22.8702   69.6570    6.0563 N   0  0  0  0  0  0
   21.0523   70.8570    6.4321 O   0  0  0  0  0  0
    9.8667   63.6570    5.5156 Cl  0  0  0  0  0  0
   17.1326   68.4097    8.1676 C   0  0  0  0  0  0
   15.6248   68.2001    3.2888 H   0  0  0  0  0  0
   16.0424   68.9027    1.0054 H   0  0  0  0  0  0
   18.1564   68.4300    5.9245 H   0  0  0  0  0  0
   15.0477   66.8568    8.9774 H   0  0  0  0  0  0
   15.7885   66.2880    4.1769 H   0  0  0  0  0  0
   12.0092   65.2425    6.4736 H   0  0  0  0  0  0
   11.1544   62.6182    3.2319 H   0  0  0  0  0  0
   13.4918   62.7160    2.4936 H   0  0  0  0  0  0
   20.9406   70.0206    1.0996 H   0  0  0  0  0  0
   21.1627   67.7837    5.3404 H   0  0  0  0  0  0
   19.8239   68.6192    6.0472 H   0  0  0  0  0  0
   23.4670   70.3975    6.4085 H   0  0  0  0  0  0
   23.2691   68.7751    5.7327 H   0  0  0  0  0  0
   16.7437   68.5274    9.1802 H   0  0  0  0  0  0
   18.1519   68.0260    8.2258 H   0  0  0  0  0  0
   17.1818   69.4045    7.7244 H   0  0  0  0  0  0
  1 19  2  0  0  0
  1  2  1  0  0  0
  1  5  1  0  0  0
  2  3  2  0  0  0
  2 30  1  0  0  0
  3  4  1  0  0  0
  3 31  1  0  0  0
  4 20  2  0  0  0
  5  6  1  0  0  0
  5 32  1  0  0  0
  6  7  2  0  0  0
  6 11  1  0  0  0
  7  8  1  0  0  0
  7 29  1  0  0  0
  8  9  2  0  0  0
  8 33  1  0  0  0
  9 10  1  0  0  0
 10 11  2  0  0  0
 10 12  1  0  0  0
 11 34  1  0  0  0
 12 13  2  0  0  0
 12 17  1  0  0  0
 13 14  1  0  0  0
 13 35  1  0  0  0
 14 15  2  0  0  0
 14 28  1  0  0  0
 15 16  1  0  0  0
 15 36  1  0  0  0
 16 17  2  0  0  0
 16 37  1  0  0  0
 17 18  1  0  0  0
 19 20  1  0  0  0
 19 23  1  0  0  0
 20 21  1  0  0  0
 21 22  2  0  0  0
 21 38  1  0  0  0
 22 23  1  0  0  0
 23 24  1  0  0  0
 24 25  1  0  0  0
 24 39  1  0  0  0
 24 40  1  0  0  0
 25 26  1  0  0  0
 25 27  2  0  0  0
 26 41  1  0  0  0
 26 42  1  0  0  0
 29 43  1  0  0  0
 29 44  1  0  0  0
 29 45  1  0  0  0
M  END
> <s_m_entry_id>
34259

> <s_m_entry_name>
dock_pv.2

> <s_m_Source_Path>
/home/csk/Desktop/cluster/DUD-E-result/tgfr1

> <s_m_Source_File>
dock_pv.maegz

> <i_m_Source_File_Index>
2

> <chembl_id>
CHEMBL4072325

> <chembl_pref_name>
None

> <i_lp_mmshare_version>
53161

> <r_lp_tautomer_probability>
0.999999106000799

> <s_lp_Force_Field>
OPLS_2005

> <r_lp_Energy>
25.312383

> <b_lp_Chiralities_Consistent>
1

> <s_lp_Variant>
CHEMBL4439_lig796-1

> <s_i_glide_gridfile>
glide-grid_3hmm

> <i_i_glide_lignum>
1111

> <i_i_glide_rotatable_bonds>
5

> <r_i_docking_score>
-11.7751666049386

> <r_i_glide_ligand_efficiency>
-0.406040227756505

> <r_i_glide_ligand_efficiency_sa>
-1.24748422224141

> <r_i_glide_ligand_efficiency_ln>
-2.69621456006911

> <r_i_glide_gscore>
-11.7751666049386

> <r_i_glide_lipo>
-4.59719746938074

> <r_i_glide_hbond>
-0.87162126967234

> <r_i_glide_metal>
0

> <r_i_glide_rewards>
-2.46947924865072

> <r_i_glide_evdw>
-49.0590438842773

> <r_i_glide_ecoul>
-12.3392086029053

> <r_i_glide_erotb>
0.466964867414809

> <r_i_glide_esite>
0

> <r_i_glide_emodel>
-98.1528205867271

> <r_i_glide_energy>
-61.3982524871826

> <r_i_glide_einternal>
9.69900703430176

> <i_i_glide_confnum>
4

> <i_i_glide_posenum>
193

> <r_i_glide_eff_state_penalty>
0

> <s_user_duplicate_titles>
CHEMBL4439_lig796

> <i_f3d_flags>
0

> <s_m_subgroup_title>
dock_pv

> <s_m_subgroupid>
dock_pv

> <b_m_subgroup_collapsed>
1

$$$$
CHEMBL4439_lig808
                    3D
 Schrodinger Suite 2021-1.
 48 51  0  0  1  0            999 V2000
   17.7576   68.4532    3.9737 C   0  0  0  0  0  0
   16.6781   68.4565    3.0748 C   0  0  0  0  0  0
   16.8452   68.8570    1.7540 C   0  0  0  0  0  0
   18.0261   69.2570    1.2320 N   0  0  0  0  0  0
   17.5849   68.0725    5.3169 N   0  0  0  0  0  0
   16.5476   67.3754    5.9630 C   0  0  0  0  0  0
   16.3068   67.5762    7.3327 C   0  0  0  0  0  0
   15.2340   66.8991    7.9173 C   0  0  0  0  0  0
   14.4280   66.0506    7.2317 N   0  0  0  0  0  0
   14.6883   65.8121    5.9149 C   0  0  0  0  0  0
   15.7471   66.4587    5.2694 C   0  0  0  0  0  0
   13.7557   64.8841    5.1890 C   0  0  0  0  0  0
   12.4016   64.8082    5.5638 C   0  0  0  0  0  0
   11.5033   63.9831    4.8833 C   0  0  0  0  0  0
   11.9443   63.2300    3.8013 C   0  0  0  0  0  0
   13.2812   63.2570    3.4301 C   0  0  0  0  0  0
   14.1784   64.0791    4.1076 C   0  0  0  0  0  0
   15.4671   64.0571    3.7011 F   0  0  0  0  0  0
   18.9774   68.9233    3.4385 C   0  0  0  0  0  0
   19.0641   69.2906    2.0675 C   0  0  0  0  0  0
   20.4178   69.6570    1.8473 C   0  0  0  0  0  0
   21.1042   69.5892    2.9535 N   0  0  0  0  0  0
   20.2693   69.1418    3.9249 N   0  0  0  0  0  0
   10.0580   63.8970    5.3222 C   0  0  0  0  0  0
   17.1594   68.5118    8.1839 C   0  0  0  0  0  0
   20.8407   68.8492    5.2398 C   0  0  0  0  0  0
   21.6406   69.9975    5.8633 C   0  0  0  0  0  0
   22.9521   70.0570    5.6563 N   0  0  0  0  0  0
   21.0670   70.8570    6.5093 O   0  0  0  0  0  0
   15.6809   68.2000    3.3926 H   0  0  0  0  0  0
   15.9999   68.8639    1.0795 H   0  0  0  0  0  0
   18.2729   68.4572    5.9448 H   0  0  0  0  0  0
   14.9984   67.0402    8.9619 H   0  0  0  0  0  0
   15.9438   66.2556    4.2308 H   0  0  0  0  0  0
   12.0322   65.4024    6.3881 H   0  0  0  0  0  0
   11.2581   62.6025    3.2516 H   0  0  0  0  0  0
   13.6183   62.6588    2.5966 H   0  0  0  0  0  0
   20.8670   70.0038    0.9280 H   0  0  0  0  0  0
    9.5722   64.8578    5.1705 H   0  0  0  0  0  0
    9.4965   63.1356    4.7820 H   0  0  0  0  0  0
   10.0057   63.6569    6.3848 H   0  0  0  0  0  0
   16.8769   68.4884    9.2377 H   0  0  0  0  0  0
   18.2110   68.2297    8.1173 H   0  0  0  0  0  0
   17.0747   69.5391    7.8292 H   0  0  0  0  0  0
   21.4669   67.9696    5.1340 H   0  0  0  0  0  0
   20.0488   68.5745    5.9309 H   0  0  0  0  0  0
   23.4799   70.8433    6.0316 H   0  0  0  0  0  0
   23.4413   69.2920    5.2139 H   0  0  0  0  0  0
  1 19  1  0  0  0
  1  2  2  0  0  0
  1  5  1  0  0  0
  2  3  1  0  0  0
  2 30  1  0  0  0
  3  4  2  0  0  0
  3 31  1  0  0  0
  4 20  1  0  0  0
  5  6  1  0  0  0
  5 32  1  0  0  0
  6  7  2  0  0  0
  6 11  1  0  0  0
  7  8  1  0  0  0
  7 25  1  0  0  0
  8  9  2  0  0  0
  8 33  1  0  0  0
  9 10  1  0  0  0
 10 11  2  0  0  0
 10 12  1  0  0  0
 11 34  1  0  0  0
 12 13  2  0  0  0
 12 17  1  0  0  0
 13 14  1  0  0  0
 13 35  1  0  0  0
 14 15  2  0  0  0
 14 24  1  0  0  0
 15 16  1  0  0  0
 15 36  1  0  0  0
 16 17  2  0  0  0
 16 37  1  0  0  0
 17 18  1  0  0  0
 19 20  2  0  0  0
 19 23  1  0  0  0
 20 21  1  0  0  0
 21 22  2  0  0  0
 21 38  1  0  0  0
 22 23  1  0  0  0
 23 26  1  0  0  0
 24 39  1  0  0  0
 24 40  1  0  0  0
 24 41  1  0  0  0
 25 42  1  0  0  0
 25 43  1  0  0  0
 25 44  1  0  0  0
 26 27  1  0  0  0
 26 45  1  0  0  0
 26 46  1  0  0  0
 27 28  1  0  0  0
 27 29  2  0  0  0
 28 47  1  0  0  0
 28 48  1  0  0  0
M  END
> <s_m_entry_id>
34260

> <s_m_entry_name>
dock_pv.3

> <s_m_Source_Path>
/home/csk/Desktop/cluster/DUD-E-result/tgfr1

> <s_m_Source_File>
dock_pv.maegz

> <i_m_Source_File_Index>
3

> <chembl_id>
CHEMBL4075003

> <chembl_pref_name>
None

> <i_lp_mmshare_version>
53161

> <r_lp_tautomer_probability>
0.999999106000799

> <s_lp_Force_Field>
OPLS_2005

> <r_lp_Energy>
26.846735

> <b_lp_Chiralities_Consistent>
1

> <s_lp_Variant>
CHEMBL4439_lig808-1

> <s_i_glide_gridfile>
glide-grid_3hmm

> <i_i_glide_lignum>
1124

> <i_i_glide_rotatable_bonds>
5

> <r_i_docking_score>
-11.6215007489666

> <r_i_glide_ligand_efficiency>
-0.40074140513678

> <r_i_glide_ligand_efficiency_sa>
-1.23120456036877

> <r_i_glide_ligand_efficiency_ln>
-2.66102897568141

> <r_i_glide_gscore>
-11.6215007489666

> <r_i_glide_lipo>
-4.74513002696316

> <r_i_glide_hbond>
-0.828336223619076

> <r_i_glide_metal>
0

> <r_i_glide_rewards>
-2.47157678884932

> <r_i_glide_evdw>
-48.572437286377

> <r_i_glide_ecoul>
-11.0645408630371

> <r_i_glide_erotb>
0.511845284239353

> <r_i_glide_esite>
0

> <r_i_glide_emodel>
-95.3421974383236

> <r_i_glide_energy>
-59.6369781494141

> <r_i_glide_einternal>
9.36141395568848

> <i_i_glide_confnum>
9

> <i_i_glide_posenum>
350

> <r_i_glide_eff_state_penalty>
0

> <s_user_duplicate_titles>
CHEMBL4439_lig808

> <i_f3d_flags>
0

> <s_m_subgroup_title>
dock_pv

> <s_m_subgroupid>
dock_pv

> <b_m_subgroup_collapsed>
1

$$$$
CHEMBL4439_lig789
                    3D
 Schrodinger Suite 2021-1.
 42 45  0  0  1  0            999 V2000
   17.6904   68.4534    3.9659 C   0  0  0  0  0  0
   16.6477   68.4570    3.0261 C   0  0  0  0  0  0
   16.8639   68.8570    1.7115 C   0  0  0  0  0  0
   18.0630   69.2570    1.2320 N   0  0  0  0  0  0
   17.4686   68.0786    5.3036 N   0  0  0  0  0  0
   16.4182   67.3822    5.9220 C   0  0  0  0  0  0
   16.2049   67.5725    7.2876 C   0  0  0  0  0  0
   15.1474   66.9031    7.9017 C   0  0  0  0  0  0
   14.3241   66.0570    7.2320 N   0  0  0  0  0  0
   14.5502   65.8355    5.9057 C   0  0  0  0  0  0
   15.5914   66.4878    5.2335 C   0  0  0  0  0  0
   13.6075   64.9071    5.2012 C   0  0  0  0  0  0
   12.2500   64.8574    5.5677 C   0  0  0  0  0  0
   11.3467   64.0469    4.8826 C   0  0  0  0  0  0
   11.7858   63.2570    3.8282 C   0  0  0  0  0  0
   13.1285   63.2570    3.4691 C   0  0  0  0  0  0
   14.0307   64.0816    4.1381 C   0  0  0  0  0  0
   15.3228   64.0570    3.7394 F   0  0  0  0  0  0
   18.9301   68.9207    3.4768 C   0  0  0  0  0  0
   19.0670   69.2897    2.1088 C   0  0  0  0  0  0
   20.4283   69.6570    1.9425 C   0  0  0  0  0  0
   21.0770   69.5640    3.0700 N   0  0  0  0  0  0
   20.2011   69.1432    4.0164 N   0  0  0  0  0  0
   20.7084   68.8875    5.3693 C   0  0  0  0  0  0
   21.5741   70.0085    5.9654 C   0  0  0  0  0  0
   22.8690   70.0570    5.6673 N   0  0  0  0  0  0
   21.0670   70.8570    6.6794 O   0  0  0  0  0  0
   10.0430   64.0273    5.2320 F   0  0  0  0  0  0
   15.6388   68.2037    3.3067 H   0  0  0  0  0  0
   16.0432   68.8655    1.0075 H   0  0  0  0  0  0
   18.1394   68.4658    5.9480 H   0  0  0  0  0  0
   16.8285   68.2449    7.8587 H   0  0  0  0  0  0
   14.9446   67.0494    8.9523 H   0  0  0  0  0  0
   15.7603   66.2921    4.1884 H   0  0  0  0  0  0
   11.8749   65.4729    6.3731 H   0  0  0  0  0  0
   11.0834   62.6422    3.2856 H   0  0  0  0  0  0
   13.4670   62.6403    2.6490 H   0  0  0  0  0  0
   20.9140   70.0027    1.0415 H   0  0  0  0  0  0
   21.2579   67.9498    5.3542 H   0  0  0  0  0  0
   19.8691   68.7287    6.0406 H   0  0  0  0  0  0
   23.4392   70.8187    6.0320 H   0  0  0  0  0  0
   23.3099   69.2987    5.1665 H   0  0  0  0  0  0
  1 19  2  0  0  0
  1  2  1  0  0  0
  1  5  1  0  0  0
  2  3  2  0  0  0
  2 29  1  0  0  0
  3  4  1  0  0  0
  3 30  1  0  0  0
  4 20  2  0  0  0
  5  6  1  0  0  0
  5 31  1  0  0  0
  6  7  2  0  0  0
  6 11  1  0  0  0
  7  8  1  0  0  0
  7 32  1  0  0  0
  8  9  2  0  0  0
  8 33  1  0  0  0
  9 10  1  0  0  0
 10 11  2  0  0  0
 10 12  1  0  0  0
 11 34  1  0  0  0
 12 13  2  0  0  0
 12 17  1  0  0  0
 13 14  1  0  0  0
 13 35  1  0  0  0
 14 15  2  0  0  0
 14 28  1  0  0  0
 15 16  1  0  0  0
 15 36  1  0  0  0
 16 17  2  0  0  0
 16 37  1  0  0  0
 17 18  1  0  0  0
 19 20  1  0  0  0
 19 23  1  0  0  0
 20 21  1  0  0  0
 21 22  2  0  0  0
 21 38  1  0  0  0
 22 23  1  0  0  0
 23 24  1  0  0  0
 24 25  1  0  0  0
 24 39  1  0  0  0
 24 40  1  0  0  0
 25 26  1  0  0  0
 25 27  2  0  0  0
 26 41  1  0  0  0
 26 42  1  0  0  0
M  END
> <s_m_entry_id>
34261

> <s_m_entry_name>
dock_pv.4

> <s_m_Source_Path>
/home/csk/Desktop/cluster/DUD-E-result/tgfr1

> <s_m_Source_File>
dock_pv.maegz

> <i_m_Source_File_Index>
4

> <chembl_id>
CHEMBL4089166

> <chembl_pref_name>
None

> <i_lp_mmshare_version>
53161

> <r_lp_tautomer_probability>
0.999999106000799

> <s_lp_Force_Field>
OPLS_2005

> <r_lp_Energy>
26.311079

> <b_lp_Chiralities_Consistent>
1

> <s_lp_Variant>
CHEMBL4439_lig789-1

> <s_i_glide_gridfile>
glide-grid_3hmm

> <i_i_glide_lignum>
1103

> <i_i_glide_rotatable_bonds>
5

> <r_i_docking_score>
-11.586501461168

> <r_i_glide_ligand_efficiency>
-0.413803623613144

> <r_i_glide_ligand_efficiency_sa>
-1.25655151859017

> <r_i_glide_ligand_efficiency_ln>
-2.67450473170286

> <r_i_glide_gscore>
-11.586501461168

> <r_i_glide_lipo>
-4.22683711986913

> <r_i_glide_hbond>
-0.818328681128163

> <r_i_glide_metal>
0

> <r_i_glide_rewards>
-3.12171916035427

> <r_i_glide_evdw>
-47.4093551635742

> <r_i_glide_ecoul>
-10.5702781677246

> <r_i_glide_erotb>
0.53639298352093

> <r_i_glide_esite>
0

> <r_i_glide_emodel>
-96.9089627717932

> <r_i_glide_energy>
-57.9796333312988

> <r_i_glide_einternal>
4.69586944580078

> <i_i_glide_confnum>
7

> <i_i_glide_posenum>
73

> <r_i_glide_eff_state_penalty>
0

> <s_user_duplicate_titles>
CHEMBL4439_lig789

> <i_f3d_flags>
0

> <s_m_subgroup_title>
dock_pv

> <s_m_subgroupid>
dock_pv

> <b_m_subgroup_collapsed>
1

$$$$
CHEMBL4439_lig98
                    3D
 Schrodinger Suite 2021-1.
 51 55  0  0  1  0            999 V2000
   16.0081   67.2853    6.5651 C   0  0  0  0  0  0
   14.9590   66.4670    7.0726 C   0  0  0  0  0  0
   14.9348   66.4570    8.3932 N   0  0  0  0  0  0
   13.9360   65.6661    6.3358 C   0  0  0  0  0  0
   12.5969   65.6570    6.7394 C   0  0  0  0  0  0
   11.6929   64.8678    6.0302 C   0  0  0  0  0  0
   12.1211   64.1391    4.9224 C   0  0  0  0  0  0
   13.4677   64.2136    4.5677 C   0  0  0  0  0  0
   14.3757   64.9445    5.2676 N   0  0  0  0  0  0
   16.3475   67.6568    5.1506 C   0  0  0  0  0  0
   15.6651   68.0574    2.8321 C   0  0  0  0  0  0
   15.3800   67.6569    4.1370 C   0  0  0  0  0  0
   17.6577   68.0570    4.8726 C   0  0  0  0  0  0
   16.6676   67.7078    7.7210 C   0  0  0  0  0  0
   15.9803   67.1820    8.7705 N   0  0  0  0  0  0
   16.4586   67.6001   10.0702 C   0  0  0  0  0  0
   17.8715   68.0736    9.7204 C   0  0  0  0  0  0
   17.8171   68.5311    8.2580 C   0  0  0  0  0  0
   13.9994   63.4816    3.3552 C   0  0  0  0  0  0
   16.9595   68.5073    2.5553 C   0  0  0  0  0  0
   17.9380   68.5109    3.5826 C   0  0  0  0  0  0
   19.0671   69.0270    2.9781 N   0  0  0  0  0  0
   18.7104   69.2576    1.6648 C   0  0  0  0  0  0
   17.4673   68.9789    1.3770 N   0  0  0  0  0  0
   20.4116   69.1918    3.5372 C   0  0  0  0  0  0
   20.4471   69.9619    4.8759 C   0  0  0  0  0  0
   21.8812   70.3250    5.2825 C   0  0  0  0  0  0
   21.8670   71.2570    6.3374 O   0  0  0  0  0  0
   12.2613   66.2280    7.5928 H   0  0  0  0  0  0
   10.6670   64.8238    6.3411 H   0  0  0  0  0  0
   11.4240   63.5428    4.3517 H   0  0  0  0  0  0
   14.9017   68.0567    2.0671 H   0  0  0  0  0  0
   14.3651   67.3704    4.3616 H   0  0  0  0  0  0
   18.4143   68.0249    5.6335 H   0  0  0  0  0  0
   16.4503   66.7811   10.7903 H   0  0  0  0  0  0
   15.8484   68.4206   10.4469 H   0  0  0  0  0  0
   18.5687   67.2383    9.8178 H   0  0  0  0  0  0
   18.2258   68.8570   10.3903 H   0  0  0  0  0  0
   18.7719   68.3326    7.7726 H   0  0  0  0  0  0
   17.6256   69.6019    8.1725 H   0  0  0  0  0  0
   13.2677   62.7851    2.9439 H   0  0  0  0  0  0
   14.2672   64.1917    2.5728 H   0  0  0  0  0  0
   14.8879   62.9181    3.6290 H   0  0  0  0  0  0
   19.4425   69.6509    0.9722 H   0  0  0  0  0  0
   21.0178   69.7155    2.7953 H   0  0  0  0  0  0
   20.8619   68.2051    3.6531 H   0  0  0  0  0  0
   20.0293   69.3617    5.6796 H   0  0  0  0  0  0
   19.8276   70.8570    4.8320 H   0  0  0  0  0  0
   22.4211   70.7650    4.4429 H   0  0  0  0  0  0
   22.4544   69.4351    5.5440 H   0  0  0  0  0  0
   22.7834   71.5915    6.4320 H   0  0  0  0  0  0
  1 10  1  0  0  0
  1 14  2  0  0  0
  1  2  1  0  0  0
  2  3  2  0  0  0
  2  4  1  0  0  0
  3 15  1  0  0  0
  4  9  1  0  0  0
  4  5  2  0  0  0
  5  6  1  0  0  0
  5 29  1  0  0  0
  6  7  2  0  0  0
  6 30  1  0  0  0
  7  8  1  0  0  0
  7 31  1  0  0  0
  8  9  2  0  0  0
  8 19  1  0  0  0
 10 13  2  0  0  0
 10 12  1  0  0  0
 11 20  1  0  0  0
 11 12  2  0  0  0
 11 32  1  0  0  0
 12 33  1  0  0  0
 13 21  1  0  0  0
 13 34  1  0  0  0
 14 15  1  0  0  0
 14 18  1  0  0  0
 15 16  1  0  0  0
 16 17  1  0  0  0
 16 35  1  0  0  0
 16 36  1  0  0  0
 17 18  1  0  0  0
 17 37  1  0  0  0
 17 38  1  0  0  0
 18 39  1  0  0  0
 18 40  1  0  0  0
 19 41  1  0  0  0
 19 42  1  0  0  0
 19 43  1  0  0  0
 20 21  2  0  0  0
 20 24  1  0  0  0
 21 22  1  0  0  0
 22 23  1  0  0  0
 22 25  1  0  0  0
 23 24  2  0  0  0
 23 44  1  0  0  0
 25 26  1  0  0  0
 25 45  1  0  0  0
 25 46  1  0  0  0
 26 27  1  0  0  0
 26 47  1  0  0  0
 26 48  1  0  0  0
 27 28  1  0  0  0
 27 49  1  0  0  0
 27 50  1  0  0  0
 28 51  1  0  0  0
M  END
> <s_m_entry_id>
34262

> <s_m_entry_name>
dock_pv.5

> <s_m_Source_Path>
/home/csk/Desktop/cluster/DUD-E-result/tgfr1

> <s_m_Source_File>
dock_pv.maegz

> <i_m_Source_File_Index>
5

> <chembl_id>
CHEMBL204063

> <chembl_pref_name>
None

> <i_lp_mmshare_version>
53161

> <r_lp_tautomer_probability>
1

> <s_lp_Force_Field>
OPLS_2005

> <r_lp_Energy>
40.061931

> <b_lp_Chiralities_Consistent>
1

> <s_lp_Variant>
CHEMBL4439_lig98-1

> <s_i_glide_gridfile>
glide-grid_3hmm

> <i_i_glide_lignum>
137

> <i_i_glide_rotatable_bonds>
6

> <r_i_docking_score>
-11.5531192394839

> <r_i_glide_ligand_efficiency>
-0.41261140141014

> <r_i_glide_ligand_efficiency_sa>
-1.25293122980052

> <r_i_glide_ligand_efficiency_ln>
-2.66679913479355

> <r_i_glide_gscore>
-11.5531192394839

> <r_i_glide_lipo>
-4.32149262004176

> <r_i_glide_hbond>
-0.833769509415777

> <r_i_glide_metal>
0

> <r_i_glide_rewards>
-2.86548122590081

> <r_i_glide_evdw>
-47.6503486633301

> <r_i_glide_ecoul>
-12.2845993041992

> <r_i_glide_erotb>
0.692831444670804

> <r_i_glide_esite>
0

> <r_i_glide_emodel>
-98.3530187870203

> <r_i_glide_energy>
-59.9349479675293

> <r_i_glide_einternal>
7.93635511398315

> <i_i_glide_confnum>
189

> <i_i_glide_posenum>
234

> <r_i_glide_eff_state_penalty>
0

> <s_user_duplicate_titles>
CHEMBL4439_lig98,341189

> <i_f3d_flags>
0

> <s_m_subgroup_title>
dock_pv

> <s_m_subgroupid>
dock_pv

> <b_m_subgroup_collapsed>
1

$$$$
CHEMBL4439_lig97
                    3D
 Schrodinger Suite 2021-1.
 48 52  0  0  1  0            999 V2000
   12.0910   64.0910    4.8320 C   0  0  0  0  0  0
   14.7791   66.4570    8.3513 N   0  0  0  0  0  0
   15.9113   67.2916    6.5647 C   0  0  0  0  0  0
   14.8519   66.4660    7.0317 C   0  0  0  0  0  0
   13.9022   65.6368    6.2272 C   0  0  0  0  0  0
   14.3528   64.8569    5.1549 C   0  0  0  0  0  0
   13.4327   64.0787    4.4489 C   0  0  0  0  0  0
   11.7149   64.8918    5.9116 C   0  0  0  0  0  0
   12.5952   65.6570    6.6085 N   0  0  0  0  0  0
   16.5293   67.7194    7.7391 C   0  0  0  0  0  0
   15.8102   67.1886    8.7645 N   0  0  0  0  0  0
   16.2505   67.6089   10.0782 C   0  0  0  0  0  0
   17.6741   68.0790    9.7712 C   0  0  0  0  0  0
   17.6592   68.5458    8.3111 C   0  0  0  0  0  0
   16.2925   67.6570    5.1625 C   0  0  0  0  0  0
   19.0670   68.9932    3.0453 N   0  0  0  0  0  0
   18.7332   69.2570    1.7323 C   0  0  0  0  0  0
   17.4942   68.9872    1.4187 N   0  0  0  0  0  0
   16.9616   68.5062    2.5828 C   0  0  0  0  0  0
   15.6613   68.0570    2.8320 C   0  0  0  0  0  0
   15.3473   67.6570    4.1287 C   0  0  0  0  0  0
   17.6090   68.0570    4.9156 C   0  0  0  0  0  0
   17.9188   68.5005    3.6292 C   0  0  0  0  0  0
   20.4022   69.1166    3.6320 C   0  0  0  0  0  0
   20.4326   69.9452    4.9340 C   0  0  0  0  0  0
   21.8694   70.2820    5.3518 C   0  0  0  0  0  0
   21.8670   71.2570    6.3651 O   0  0  0  0  0  0
   11.3607   63.5017    4.2970 H   0  0  0  0  0  0
   15.3961   64.8507    4.8739 H   0  0  0  0  0  0
   13.7547   63.4767    3.6112 H   0  0  0  0  0  0
   10.6848   64.9320    6.2324 H   0  0  0  0  0  0
   16.2161   66.7930   10.8011 H   0  0  0  0  0  0
   15.6326   68.4345   10.4320 H   0  0  0  0  0  0
   18.3660   67.2409    9.8821 H   0  0  0  0  0  0
   18.0121   68.8570   10.4558 H   0  0  0  0  0  0
   18.6279   68.3546    7.8504 H   0  0  0  0  0  0
   17.4648   69.6161    8.2265 H   0  0  0  0  0  0
   19.4803   69.6510    1.0565 H   0  0  0  0  0  0
   14.9137   68.0597    2.0514 H   0  0  0  0  0  0
   14.3254   67.3783    4.3307 H   0  0  0  0  0  0
   18.3500   68.0283    5.6930 H   0  0  0  0  0  0
   21.0532   69.5756    2.8852 H   0  0  0  0  0  0
   20.7986   68.1156    3.8114 H   0  0  0  0  0  0
   19.9726   69.3973    5.7528 H   0  0  0  0  0  0
   19.8461   70.8570    4.8320 H   0  0  0  0  0  0
   22.4335   70.6766    4.5059 H   0  0  0  0  0  0
   22.4127   69.3873    5.6580 H   0  0  0  0  0  0
   22.7843   71.5958    6.4320 H   0  0  0  0  0  0
  1  7  2  0  0  0
  1  8  1  0  0  0
  1 28  1  0  0  0
  2  4  2  0  0  0
  2 11  1  0  0  0
  3 15  1  0  0  0
  3  4  1  0  0  0
  3 10  2  0  0  0
  4  5  1  0  0  0
  5  9  1  0  0  0
  5  6  2  0  0  0
  6  7  1  0  0  0
  6 29  1  0  0  0
  7 30  1  0  0  0
  8  9  2  0  0  0
  8 31  1  0  0  0
 10 14  1  0  0  0
 10 11  1  0  0  0
 11 12  1  0  0  0
 12 13  1  0  0  0
 12 32  1  0  0  0
 12 33  1  0  0  0
 13 14  1  0  0  0
 13 34  1  0  0  0
 13 35  1  0  0  0
 14 36  1  0  0  0
 14 37  1  0  0  0
 15 21  1  0  0  0
 15 22  2  0  0  0
 16 17  1  0  0  0
 16 23  1  0  0  0
 16 24  1  0  0  0
 17 18  2  0  0  0
 17 38  1  0  0  0
 18 19  1  0  0  0
 19 23  2  0  0  0
 19 20  1  0  0  0
 20 21  2  0  0  0
 20 39  1  0  0  0
 21 40  1  0  0  0
 22 23  1  0  0  0
 22 41  1  0  0  0
 24 25  1  0  0  0
 24 42  1  0  0  0
 24 43  1  0  0  0
 25 26  1  0  0  0
 25 44  1  0  0  0
 25 45  1  0  0  0
 26 27  1  0  0  0
 26 46  1  0  0  0
 26 47  1  0  0  0
 27 48  1  0  0  0
M  END
> <s_m_entry_id>
34263

> <s_m_entry_name>
dock_pv.6

> <s_m_Source_Path>
/home/csk/Desktop/cluster/DUD-E-result/tgfr1

> <s_m_Source_File>
dock_pv.maegz

> <i_m_Source_File_Index>
6

> <chembl_id>
CHEMBL203619

> <chembl_pref_name>
None

> <i_lp_mmshare_version>
53161

> <r_lp_tautomer_probability>
1

> <s_lp_Force_Field>
OPLS_2005

> <r_lp_Energy>
40.651208

> <b_lp_Chiralities_Consistent>
1

> <s_lp_Variant>
CHEMBL4439_lig97-1

> <s_i_glide_gridfile>
glide-grid_3hmm

> <i_i_glide_lignum>
136

> <i_i_glide_rotatable_bonds>
6

> <r_i_docking_score>
-11.384479790022

> <r_i_glide_ligand_efficiency>
-0.421647399630446

> <r_i_glide_ligand_efficiency_sa>
-1.26494219750166

> <r_i_glide_ligand_efficiency_ln>
-2.65011920729919

> <r_i_glide_gscore>
-11.384479790022

> <r_i_glide_lipo>
-4.22957505777857

> <r_i_glide_hbond>
-0.83886210968632

> <r_i_glide_metal>
0

> <r_i_glide_rewards>
-2.89262021483979

> <r_i_glide_evdw>
-45.5961990356445

> <r_i_glide_ecoul>
-12.5697326660156

> <r_i_glide_erotb>
0.741847443967214

> <r_i_glide_esite>
0

> <r_i_glide_emodel>
-94.4440710232482

> <r_i_glide_energy>
-58.1659317016602

> <r_i_glide_einternal>
5.03193378448486

> <i_i_glide_confnum>
192

> <i_i_glide_posenum>
133

> <r_i_glide_eff_state_penalty>
0

> <s_user_duplicate_titles>
CHEMBL4439_lig97,341105

> <i_f3d_flags>
0

> <s_m_subgroup_title>
dock_pv

> <s_m_subgroupid>
dock_pv

> <b_m_subgroup_collapsed>
1

$$$$
CHEMBL4439_lig793
                    3D
 Schrodinger Suite 2021-1.
 48 51  0  0  1  0            999 V2000
   17.5788   68.4202    3.9905 C   0  0  0  0  0  0
   16.5825   68.4570    3.0049 C   0  0  0  0  0  0
   16.8790   68.8698    1.7090 C   0  0  0  0  0  0
   18.1097   69.2570    1.2974 N   0  0  0  0  0  0
   17.3179   68.0570    5.3206 N   0  0  0  0  0  0
   16.2589   67.3858    5.9483 C   0  0  0  0  0  0
   16.0641   67.5384    7.3316 C   0  0  0  0  0  0
   14.9970   66.8608    7.9210 C   0  0  0  0  0  0
   14.1547   66.0561    7.2320 N   0  0  0  0  0  0
   14.3798   65.8565    5.9063 C   0  0  0  0  0  0
   15.4180   66.5188    5.2422 C   0  0  0  0  0  0
   13.4535   64.9158    5.2030 C   0  0  0  0  0  0
   12.0928   64.8570    5.5543 C   0  0  0  0  0  0
   11.2052   64.0391    4.8582 C   0  0  0  0  0  0
   11.6642   63.2570    3.8056 C   0  0  0  0  0  0
   13.0143   63.2570    3.4735 C   0  0  0  0  0  0
   13.9014   64.0819    4.1588 C   0  0  0  0  0  0
   15.2021   64.0570    3.7885 F   0  0  0  0  0  0
   18.8486   68.8498    3.5671 C   0  0  0  0  0  0
   19.0670   69.2641    2.2273 C   0  0  0  0  0  0
   20.4360   69.6570    2.1710 C   0  0  0  0  0  0
   21.0210   69.4741    3.3275 N   0  0  0  0  0  0
   20.0931   68.9746    4.1760 N   0  0  0  0  0  0
   20.4903   68.6697    5.5511 C   0  0  0  0  0  0
    9.8974   64.0094    5.1922 F   0  0  0  0  0  0
   16.9521   68.4251    8.1988 C   0  0  0  0  0  0
   20.5045   69.9162    6.4651 C   0  0  1  0  0  0
   20.8331   69.5667    7.9235 C   0  0  0  0  0  0
   21.4670   70.8570    6.0320 O   0  0  0  0  0  0
   15.5578   68.2132    3.2320 H   0  0  0  0  0  0
   16.0938   68.9201    0.9704 H   0  0  0  0  0  0
   18.0149   68.3907    5.9668 H   0  0  0  0  0  0
   14.8120   66.9398    8.9785 H   0  0  0  0  0  0
   15.5813   66.3374    4.1937 H   0  0  0  0  0  0
   11.7036   65.4723    6.3532 H   0  0  0  0  0  0
   10.9658   62.6702    3.2320 H   0  0  0  0  0  0
   13.3723   62.6558    2.6526 H   0  0  0  0  0  0
   20.9795   70.0540    1.3257 H   0  0  0  0  0  0
   21.4670   68.1980    5.5269 H   0  0  0  0  0  0
   19.8248   67.9037    5.9439 H   0  0  0  0  0  0
   16.4608   68.7018    9.1329 H   0  0  0  0  0  0
   17.8869   67.9140    8.4290 H   0  0  0  0  0  0
   17.1917   69.3586    7.6897 H   0  0  0  0  0  0
   19.5262   70.3999    6.4300 H   0  0  0  0  0  0
   20.0939   68.8845    8.3419 H   0  0  0  0  0  0
   20.8476   70.4569    8.5545 H   0  0  0  0  0  0
   21.8083   69.0852    8.0100 H   0  0  0  0  0  0
   22.3496   70.4756    6.0957 H   0  0  0  0  0  0
  1 19  2  0  0  0
  1  2  1  0  0  0
  1  5  1  0  0  0
  2  3  2  0  0  0
  2 30  1  0  0  0
  3  4  1  0  0  0
  3 31  1  0  0  0
  4 20  2  0  0  0
  5  6  1  0  0  0
  5 32  1  0  0  0
  6  7  2  0  0  0
  6 11  1  0  0  0
  7  8  1  0  0  0
  7 26  1  0  0  0
  8  9  2  0  0  0
  8 33  1  0  0  0
  9 10  1  0  0  0
 10 11  2  0  0  0
 10 12  1  0  0  0
 11 34  1  0  0  0
 12 13  2  0  0  0
 12 17  1  0  0  0
 13 14  1  0  0  0
 13 35  1  0  0  0
 14 15  2  0  0  0
 14 25  1  0  0  0
 15 16  1  0  0  0
 15 36  1  0  0  0
 16 17  2  0  0  0
 16 37  1  0  0  0
 17 18  1  0  0  0
 19 20  1  0  0  0
 19 23  1  0  0  0
 20 21  1  0  0  0
 21 22  2  0  0  0
 21 38  1  0  0  0
 22 23  1  0  0  0
 23 24  1  0  0  0
 24 27  1  0  0  0
 24 39  1  0  0  0
 24 40  1  0  0  0
 26 41  1  0  0  0
 26 42  1  0  0  0
 26 43  1  0  0  0
 27 28  1  0  0  0
 27 29  1  0  0  0
 27 44  1  0  0  0
 28 45  1  0  0  0
 28 46  1  0  0  0
 28 47  1  0  0  0
 29 48  1  0  0  0
M  END
> <s_m_entry_id>
34264

> <s_m_entry_name>
dock_pv.7

> <s_m_Source_Path>
/home/csk/Desktop/cluster/DUD-E-result/tgfr1

> <s_m_Source_File>
dock_pv.maegz

> <i_m_Source_File_Index>
7

> <chembl_id>
CHEMBL4085333

> <chembl_pref_name>
None

> <i_lp_mmshare_version>
53161

> <r_lp_tautomer_probability>
0.999999106000799

> <s_lp_Force_Field>
OPLS_2005

> <r_lp_Energy>
26.221041

> <b_lp_Chiralities_Consistent>
1

> <s_lp_Variant>
CHEMBL4439_lig793-2

> <s_i_glide_gridfile>
glide-grid_3hmm

> <i_i_glide_lignum>
1108

> <i_i_glide_rotatable_bonds>
6

> <r_i_docking_score>
-11.3077157646314

> <r_i_glide_ligand_efficiency>
-0.389921233263153

> <r_i_glide_ligand_efficiency_sa>
-1.19796156430193

> <r_i_glide_ligand_efficiency_ln>
-2.58918017116932

> <r_i_glide_gscore>
-11.3077157646314

> <r_i_glide_lipo>
-4.66857897042751

> <r_i_glide_hbond>
-0.527715401395158

> <r_i_glide_metal>
0

> <r_i_glide_rewards>
-3.03935568127569

> <r_i_glide_evdw>
-51.2858505249023

> <r_i_glide_ecoul>
-7.55424928665161

> <r_i_glide_erotb>
0.625364207709802

> <r_i_glide_esite>
0

> <r_i_glide_emodel>
-94.6973836178213

> <r_i_glide_energy>
-58.840099811554

> <r_i_glide_einternal>
5.4981255531311

> <i_i_glide_confnum>
85

> <i_i_glide_posenum>
216

> <r_i_glide_eff_state_penalty>
0

> <s_user_duplicate_titles>
CHEMBL4439_lig793

> <i_f3d_flags>
0

> <s_m_subgroup_title>
dock_pv

> <s_m_subgroupid>
dock_pv

> <b_m_subgroup_collapsed>
1

$$$$
CHEMBL4439_lig36 
                    3D
 Schrodinger Suite 2021-1.
 44 47  0  0  1  0            999 V2000
   16.1367   66.6816    5.7290 C   0  0  0  0  0  0
   15.0699   66.2409    6.5126 C   0  0  0  0  0  0
   14.9454   66.6407    7.8077 N   0  0  0  0  0  0
   17.0381   67.6343    6.2192 C   0  0  0  0  0  0
   16.8899   68.0715    7.5547 C   0  0  0  0  0  0
   15.8421   67.5285    8.3053 C   0  0  0  0  0  0
   18.0209   68.1166    5.3218 N   0  0  0  0  0  0
   13.9810   65.3944    5.9247 C   0  0  0  0  0  0
   14.2480   64.5476    4.8319 C   0  0  0  0  0  0
   13.2382   63.7998    4.2281 C   0  0  0  0  0  0
   11.9458   63.8412    4.7275 C   0  0  0  0  0  0
   11.6636   64.6670    5.8054 C   0  0  0  0  0  0
   12.6516   65.4574    6.3857 C   0  0  0  0  0  0
   12.2876   66.2969    7.3828 F   0  0  0  0  0  0
   19.3640   68.1724    5.5536 C   0  0  0  0  0  0
   19.8919   68.7911    4.4579 N   0  0  0  0  0  0
   17.7603   68.4855    4.0046 C   0  0  0  0  0  0
   18.9405   68.9175    3.4732 C   0  0  0  0  0  0
   18.9968   69.3218    2.1361 C   0  0  0  0  0  0
   17.8999   69.2810    1.3335 N   0  0  0  0  0  0
   16.7283   68.8616    1.8798 C   0  0  0  0  0  0
   16.6080   68.4570    3.2101 C   0  0  0  0  0  0
   19.9741   67.7522    6.5403 O   0  0  0  0  0  0
   21.3268   69.0538    4.2855 C   0  0  0  0  0  0
   13.5694   62.8570    2.8320 Cl  0  0  0  0  0  0
   17.7785   69.1226    8.2093 C   0  0  0  0  0  0
   21.8825   70.0570    5.3105 C   0  0  0  0  0  0
   23.1998   70.0570    5.4592 N   0  0  0  0  0  0
   21.1680   70.8428    5.9308 O   0  0  0  0  0  0
   16.2357   66.3322    4.7140 H   0  0  0  0  0  0
   15.6890   67.8283    9.3314 H   0  0  0  0  0  0
   15.2422   64.4650    4.4204 H   0  0  0  0  0  0
   11.1628   63.2577    4.2651 H   0  0  0  0  0  0
   10.6670   64.7075    6.1852 H   0  0  0  0  0  0
   19.9104   69.6570    1.6673 H   0  0  0  0  0  0
   15.8670   68.8579    1.2318 H   0  0  0  0  0  0
   15.6468   68.1292    3.5753 H   0  0  0  0  0  0
   21.8670   68.1132    4.3154 H   0  0  0  0  0  0
   21.5040   69.4744    3.2970 H   0  0  0  0  0  0
   17.2374   69.6574    8.9895 H   0  0  0  0  0  0
   18.6546   68.6580    8.6618 H   0  0  0  0  0  0
   18.1163   69.8759    7.4985 H   0  0  0  0  0  0
   23.6363   70.7776    6.0320 H   0  0  0  0  0  0
   23.7624   69.3135    5.0736 H   0  0  0  0  0  0
  1  2  2  0  0  0
  1  4  1  0  0  0
  1 30  1  0  0  0
  2  3  1  0  0  0
  2  8  1  0  0  0
  3  6  2  0  0  0
  4  5  2  0  0  0
  4  7  1  0  0  0
  5  6  1  0  0  0
  5 26  1  0  0  0
  6 31  1  0  0  0
  7 15  1  0  0  0
  7 17  1  0  0  0
  8  9  2  0  0  0
  8 13  1  0  0  0
  9 10  1  0  0  0
  9 32  1  0  0  0
 10 11  2  0  0  0
 10 25  1  0  0  0
 11 12  1  0  0  0
 11 33  1  0  0  0
 12 13  2  0  0  0
 12 34  1  0  0  0
 13 14  1  0  0  0
 15 16  1  0  0  0
 15 23  2  0  0  0
 16 18  1  0  0  0
 16 24  1  0  0  0
 17 18  2  0  0  0
 17 22  1  0  0  0
 18 19  1  0  0  0
 19 20  2  0  0  0
 19 35  1  0  0  0
 20 21  1  0  0  0
 21 22  2  0  0  0
 21 36  1  0  0  0
 22 37  1  0  0  0
 24 27  1  0  0  0
 24 38  1  0  0  0
 24 39  1  0  0  0
 26 40  1  0  0  0
 26 41  1  0  0  0
 26 42  1  0  0  0
 27 28  1  0  0  0
 27 29  2  0  0  0
 28 43  1  0  0  0
 28 44  1  0  0  0
M  END
> <s_m_entry_id>
34265

> <s_m_entry_name>
dock_pv.8

> <s_m_Source_Path>
/home/csk/Desktop/cluster/DUD-E-result/tgfr1

> <s_m_Source_File>
dock_pv.maegz

> <i_m_Source_File_Index>
8

> <chembl_id>
CHEMBL4564126

> <chembl_pref_name>
None

> <i_lp_mmshare_version>
53161

> <r_lp_tautomer_probability>
1

> <s_lp_Force_Field>
OPLS_2005

> <r_lp_Energy>
52.434716

> <b_lp_Chiralities_Consistent>
1

> <s_lp_Variant>
CHEMBL4439_lig36 -1

> <s_i_glide_gridfile>
glide-grid_3hmm

> <i_i_glide_lignum>
46

> <i_i_glide_rotatable_bonds>
4

> <r_i_docking_score>
-11.1681995495782

> <r_i_glide_ligand_efficiency>
-0.385110329295801

> <r_i_glide_ligand_efficiency_sa>
-1.18318094311287

> <r_i_glide_ligand_efficiency_ln>
-2.55723449574809

> <r_i_glide_gscore>
-11.1681995495782

> <r_i_glide_lipo>
-4.02431882917063

> <r_i_glide_hbond>
-0.715264095264215

> <r_i_glide_metal>
0

> <r_i_glide_rewards>
-2.52873149834614

> <r_i_glide_evdw>
-51.9026374816895

> <r_i_glide_ecoul>
-10.8998174667358

> <r_i_glide_erotb>
0.34871393893625

> <r_i_glide_esite>
-0.0184945716386342

> <r_i_glide_emodel>
-98.1153091669432

> <r_i_glide_energy>
-62.8024549484253

> <r_i_glide_einternal>
5.90232038497925

> <i_i_glide_confnum>
2

> <i_i_glide_posenum>
318

> <r_i_glide_eff_state_penalty>
0

> <s_user_duplicate_titles>
CHEMBL4439_lig36 

> <i_f3d_flags>
0

> <s_m_subgroup_title>
dock_pv

> <s_m_subgroupid>
dock_pv

> <b_m_subgroup_collapsed>
1

$$$$
CHEMBL4439_lig806
                    3D
 Schrodinger Suite 2021-1.
 51 54  0  0  1  0            999 V2000
   17.6692   68.4287    4.0501 C   0  0  0  0  0  0
   16.6308   68.4570    3.1063 C   0  0  0  0  0  0
   16.8656   68.8570    1.7936 C   0  0  0  0  0  0
   18.0729   69.2570    1.3297 N   0  0  0  0  0  0
   17.4587   68.0570    5.3888 N   0  0  0  0  0  0
   16.3965   67.3846    6.0125 C   0  0  0  0  0  0
   16.1207   67.5930    7.3749 C   0  0  0  0  0  0
   15.0339   66.9168    7.9324 C   0  0  0  0  0  0
   14.2545   66.0570    7.2320 N   0  0  0  0  0  0
   14.5503   65.8159    5.9253 C   0  0  0  0  0  0
   15.6141   66.4705    5.3000 C   0  0  0  0  0  0
   13.6516   64.8724    5.1861 C   0  0  0  0  0  0
   12.2924   64.7754    5.5340 C   0  0  0  0  0  0
   11.4235   63.9410    4.8310 C   0  0  0  0  0  0
   11.8991   63.2046    3.7524 C   0  0  0  0  0  0
   13.2422   63.2570    3.4073 C   0  0  0  0  0  0
   14.1147   64.0758    4.1167 C   0  0  0  0  0  0
   15.4184   64.0570    3.7569 F   0  0  0  0  0  0
   18.9150   68.8664    3.5702 C   0  0  0  0  0  0
   19.0689   69.2711    2.2179 C   0  0  0  0  0  0
   20.4340   69.6570    2.0949 C   0  0  0  0  0  0
   21.0669   69.5155    3.2320 N   0  0  0  0  0  0
   20.1845   69.0100    4.1224 N   0  0  0  0  0  0
    9.9704   63.8338    5.2320 C   0  0  0  0  0  0
   16.9248   68.5511    8.2480 C   0  0  0  0  0  0
   20.6511   68.7101    5.4753 C   0  0  0  0  0  0
   20.5065   69.8957    6.4448 C   0  0  2  0  0  0
   21.4670   70.8750    6.1133 O   0  0  0  0  0  0
   20.7576   69.4907    7.9046 C   0  0  0  0  0  0
   15.6182   68.2094    3.3808 H   0  0  0  0  0  0
   16.0522   68.8774    1.0815 H   0  0  0  0  0  0
   18.1615   68.3989    6.0248 H   0  0  0  0  0  0
   14.7673   67.0636    8.9678 H   0  0  0  0  0  0
   15.8355   66.2672    4.2662 H   0  0  0  0  0  0
   11.8961   65.3623    6.3511 H   0  0  0  0  0  0
   11.2329   62.5682    3.1895 H   0  0  0  0  0  0
   13.6062   62.6669    2.5793 H   0  0  0  0  0  0
   20.9333   70.0458    1.2195 H   0  0  0  0  0  0
    9.8834   63.6570    6.3049 H   0  0  0  0  0  0
    9.4670   64.7657    4.9808 H   0  0  0  0  0  0
    9.4670   63.0095    4.7294 H   0  0  0  0  0  0
   16.3074   68.9713    9.0433 H   0  0  0  0  0  0
   17.7693   68.0335    8.7026 H   0  0  0  0  0  0
   17.3009   69.4008    7.6788 H   0  0  0  0  0  0
   21.7049   68.4570    5.4214 H   0  0  0  0  0  0
   20.1279   67.8220    5.8293 H   0  0  0  0  0  0
   19.5093   70.3326    6.3612 H   0  0  0  0  0  0
   22.3548   70.5128    6.2105 H   0  0  0  0  0  0
   20.0394   68.7401    8.2330 H   0  0  0  0  0  0
   20.6675   70.3450    8.5772 H   0  0  0  0  0  0
   21.7543   69.0679    8.0392 H   0  0  0  0  0  0
  1 19  1  0  0  0
  1  2  2  0  0  0
  1  5  1  0  0  0
  2  3  1  0  0  0
  2 30  1  0  0  0
  3  4  2  0  0  0
  3 31  1  0  0  0
  4 20  1  0  0  0
  5  6  1  0  0  0
  5 32  1  0  0  0
  6  7  2  0  0  0
  6 11  1  0  0  0
  7  8  1  0  0  0
  7 25  1  0  0  0
  8  9  2  0  0  0
  8 33  1  0  0  0
  9 10  1  0  0  0
 10 11  2  0  0  0
 10 12  1  0  0  0
 11 34  1  0  0  0
 12 13  2  0  0  0
 12 17  1  0  0  0
 13 14  1  0  0  0
 13 35  1  0  0  0
 14 15  2  0  0  0
 14 24  1  0  0  0
 15 16  1  0  0  0
 15 36  1  0  0  0
 16 17  2  0  0  0
 16 37  1  0  0  0
 17 18  1  0  0  0
 19 20  2  0  0  0
 19 23  1  0  0  0
 20 21  1  0  0  0
 21 22  2  0  0  0
 21 38  1  0  0  0
 22 23  1  0  0  0
 23 26  1  0  0  0
 24 39  1  0  0  0
 24 40  1  0  0  0
 24 41  1  0  0  0
 25 42  1  0  0  0
 25 43  1  0  0  0
 25 44  1  0  0  0
 26 27  1  0  0  0
 26 45  1  0  0  0
 26 46  1  0  0  0
 27 28  1  0  0  0
 27 29  1  0  0  0
 27 47  1  0  0  0
 28 48  1  0  0  0
 29 49  1  0  0  0
 29 50  1  0  0  0
 29 51  1  0  0  0
M  END
> <s_m_entry_id>
34266

> <s_m_entry_name>
dock_pv.9

> <s_m_Source_Path>
/home/csk/Desktop/cluster/DUD-E-result/tgfr1

> <s_m_Source_File>
dock_pv.maegz

> <i_m_Source_File_Index>
9

> <chembl_id>
CHEMBL4066402

> <chembl_pref_name>
None

> <i_lp_mmshare_version>
53161

> <r_lp_tautomer_probability>
0.999999106000799

> <s_lp_Force_Field>
OPLS_2005

> <r_lp_Energy>
25.348904

> <b_lp_Chiralities_Consistent>
1

> <s_lp_Variant>
CHEMBL4439_lig806-1

> <s_i_glide_gridfile>
glide-grid_3hmm

> <i_i_glide_lignum>
1122

> <i_i_glide_rotatable_bonds>
6

> <r_i_docking_score>
-10.9871408321389

> <r_i_glide_ligand_efficiency>
-0.378866925246167

> <r_i_glide_ligand_efficiency_sa>
-1.16399922782315

> <r_i_glide_ligand_efficiency_ln>
-2.51577664070741

> <r_i_glide_gscore>
-10.9871408321389

> <r_i_glide_lipo>
-5.05950220477393

> <r_i_glide_hbond>
-0.513693884896892

> <r_i_glide_metal>
0

> <r_i_glide_rewards>
-2.38049228096452

> <r_i_glide_evdw>
-50.9048042297363

> <r_i_glide_ecoul>
-7.50002861022949

> <r_i_glide_erotb>
0.636792041517734

> <r_i_glide_esite>
0

> <r_i_glide_emodel>
-94.7683216394546

> <r_i_glide_energy>
-58.4048328399658

> <r_i_glide_einternal>
1.25095081329346

> <i_i_glide_confnum>
35

> <i_i_glide_posenum>
46

> <r_i_glide_eff_state_penalty>
0

> <s_user_duplicate_titles>
CHEMBL4439_lig806

> <i_f3d_flags>
0

> <s_m_subgroup_title>
dock_pv

> <s_m_subgroupid>
dock_pv

> <b_m_subgroup_collapsed>
1

$$$$
CHEMBL4439_lig866
                    3D
 Schrodinger Suite 2021-1.
 50 53  0  0  1  0            999 V2000
   18.8166   67.2114   10.3464 C   0  0  0  0  0  0
   17.5434   67.4060    9.4964 C   0  0  0  0  0  0
   16.5786   68.3620   10.2364 C   0  0  0  0  0  0
   15.8214   67.7931    3.5892 C   0  0  0  0  0  0
   16.2147   68.4570    2.4324 C   0  0  0  0  0  0
   17.4996   68.9821    2.3389 C   0  0  0  0  0  0
   18.4061   68.8334    3.3817 C   0  0  0  0  0  0
   18.0133   68.1626    4.5342 C   0  0  0  0  0  0
   16.7135   67.6577    4.6549 C   0  0  0  0  0  0
   16.2880   66.9931    5.9198 C   0  0  0  0  0  0
   15.2262   65.6561    7.3847 N   0  0  0  0  0  0
   15.2904   65.9935    6.1174 C   0  0  0  0  0  0
   16.1981   66.2906    7.9995 N   0  0  0  0  0  0
   16.8360   67.1792    7.2007 C   0  0  0  0  0  0
   17.8993   67.8675    8.0433 C   0  0  1  0  0  0
   16.8033   66.0770    9.2895 C   0  0  0  0  0  0
   14.3904   65.2090    5.1773 C   0  0  0  0  0  0
   13.0119   65.0005    5.4187 C   0  0  0  0  0  0
   12.2701   64.0696    4.6618 C   0  0  0  0  0  0
   12.9049   63.3787    3.6323 C   0  0  0  0  0  0
   14.2285   63.6572    3.3200 C   0  0  0  0  0  0
   14.9665   64.5606    4.0814 C   0  0  0  0  0  0
   17.9944   69.3940    7.8415 C   0  0  0  0  0  0
   12.3597   65.8017    6.4367 C   0  0  0  0  0  0
   11.8670   66.4570    7.2411 N   0  0  0  0  0  0
   17.8671   69.6569    1.2121 O   0  0  0  0  0  0
   10.7812   63.8121    4.8928 C   0  0  0  0  0  0
   19.4907   66.4830    9.8950 H   0  0  0  0  0  0
   19.3700   68.1454   10.4515 H   0  0  0  0  0  0
   18.5816   66.8576   11.3508 H   0  0  0  0  0  0
   15.7263   68.6559    9.6219 H   0  0  0  0  0  0
   16.1834   67.9167   11.1509 H   0  0  0  0  0  0
   17.1036   69.2570   10.5388 H   0  0  0  0  0  0
   14.8109   67.4188    3.6596 H   0  0  0  0  0  0
   15.5160   68.5776    1.6168 H   0  0  0  0  0  0
   19.4083   69.2285    3.3043 H   0  0  0  0  0  0
   18.7290   68.0387    5.3321 H   0  0  0  0  0  0
   18.8653   67.4442    7.7605 H   0  0  0  0  0  0
   16.0601   65.8568   10.0574 H   0  0  0  0  0  0
   17.4839   65.2267    9.2323 H   0  0  0  0  0  0
   12.3585   62.6734    3.0229 H   0  0  0  0  0  0
   14.6676   63.1631    2.4730 H   0  0  0  0  0  0
   15.9979   64.7366    3.8262 H   0  0  0  0  0  0
   18.3083   69.6555    6.8335 H   0  0  0  0  0  0
   17.0428   69.8911    8.0319 H   0  0  0  0  0  0
   18.7257   69.8276    8.5242 H   0  0  0  0  0  0
   18.6983   70.1379    1.2851 H   0  0  0  0  0  0
   10.3280   63.2568    4.0710 H   0  0  0  0  0  0
   10.6266   63.2659    5.8244 H   0  0  0  0  0  0
   10.2344   64.7534    4.9653 H   0  0  0  0  0  0
  1  2  1  0  0  0
  1 28  1  0  0  0
  1 29  1  0  0  0
  1 30  1  0  0  0
  2  3  1  0  0  0
  2 15  1  0  0  0
  2 16  1  0  0  0
  3 31  1  0  0  0
  3 32  1  0  0  0
  3 33  1  0  0  0
  4  5  2  0  0  0
  4  9  1  0  0  0
  4 34  1  0  0  0
  5  6  1  0  0  0
  5 35  1  0  0  0
  6  7  2  0  0  0
  6 26  1  0  0  0
  7  8  1  0  0  0
  7 36  1  0  0  0
  8  9  2  0  0  0
  8 37  1  0  0  0
  9 10  1  0  0  0
 10 14  2  0  0  0
 10 12  1  0  0  0
 11 13  1  0  0  0
 11 12  2  0  0  0
 12 17  1  0  0  0
 13 14  1  0  0  0
 13 16  1  0  0  0
 14 15  1  0  0  0
 15 23  1  0  0  0
 15 38  1  0  0  0
 16 39  1  0  0  0
 16 40  1  0  0  0
 17 18  2  0  0  0
 17 22  1  0  0  0
 18 19  1  0  0  0
 18 24  1  0  0  0
 19 20  2  0  0  0
 19 27  1  0  0  0
 20 21  1  0  0  0
 20 41  1  0  0  0
 21 22  2  0  0  0
 21 42  1  0  0  0
 22 43  1  0  0  0
 23 44  1  0  0  0
 23 45  1  0  0  0
 23 46  1  0  0  0
 24 25  3  0  0  0
 26 47  1  0  0  0
 27 48  1  0  0  0
 27 49  1  0  0  0
 27 50  1  0  0  0
M  END
> <s_m_entry_id>
34267

> <s_m_entry_name>
dock_pv.10

> <s_m_Source_Path>
/home/csk/Desktop/cluster/DUD-E-result/tgfr1

> <s_m_Source_File>
dock_pv.maegz

> <i_m_Source_File_Index>
10

> <chembl_id>
CHEMBL4278812

> <chembl_pref_name>
None

> <i_lp_mmshare_version>
53161

> <r_lp_tautomer_probability>
0.999999999997365

> <s_lp_Force_Field>
OPLS_2005

> <r_lp_Energy>
43.761237

> <b_lp_Chiralities_Consistent>
1

> <s_lp_Variant>
CHEMBL4439_lig866-1

> <s_i_glide_gridfile>
glide-grid_3hmm

> <i_i_glide_lignum>
1198

> <i_i_glide_rotatable_bonds>
3

> <r_i_docking_score>
-10.853580824943

> <r_i_glide_ligand_efficiency>
-0.401984474997889

> <r_i_glide_ligand_efficiency_sa>
-1.20595342366879

> <r_i_glide_ligand_efficiency_ln>
-2.52653468078228

> <r_i_glide_gscore>
-10.853580824943

> <r_i_glide_lipo>
-4.76642385318587

> <r_i_glide_hbond>
-0.710524345405754

> <r_i_glide_metal>
0

> <r_i_glide_rewards>
-2.53061827310327

> <r_i_glide_evdw>
-46.8682594299316

> <r_i_glide_ecoul>
-5.34846544265747

> <r_i_glide_erotb>
0.299668434647092

> <r_i_glide_esite>
0

> <r_i_glide_emodel>
-68.292668623339

> <r_i_glide_energy>
-52.2167248725891

> <r_i_glide_einternal>
0.378664642572403

> <i_i_glide_confnum>
10

> <i_i_glide_posenum>
281

> <r_i_glide_eff_state_penalty>
0

> <s_user_duplicate_titles>
CHEMBL4439_lig866

> <i_f3d_flags>
0

> <s_m_subgroup_title>
dock_pv

> <s_m_subgroupid>
dock_pv

> <b_m_subgroup_collapsed>
1

$$$$
CHEMBL4439_lig805
                    3D
 Schrodinger Suite 2021-1.
 48 51  0  0  1  0            999 V2000
   17.5900   68.4355    4.0320 C   0  0  0  0  0  0
   16.5894   68.4570    3.0492 C   0  0  0  0  0  0
   16.8770   68.8570    1.7462 C   0  0  0  0  0  0
   18.1025   69.2570    1.3290 N   0  0  0  0  0  0
   17.3300   68.0930    5.3694 N   0  0  0  0  0  0
   16.2691   67.4202    5.9916 C   0  0  0  0  0  0
   15.9965   67.6303    7.3548 C   0  0  0  0  0  0
   14.9292   66.9320    7.9233 C   0  0  0  0  0  0
   14.1595   66.0570    7.2311 N   0  0  0  0  0  0
   14.4490   65.8251    5.9203 C   0  0  0  0  0  0
   15.4921   66.5016    5.2832 C   0  0  0  0  0  0
   13.5718   64.8636    5.1817 C   0  0  0  0  0  0
   12.2113   64.7454    5.5163 C   0  0  0  0  0  0
   11.3620   63.9046    4.7961 C   0  0  0  0  0  0
   11.8606   63.1864    3.7152 C   0  0  0  0  0  0
   13.2064   63.2570    3.3875 C   0  0  0  0  0  0
   14.0600   64.0750    4.1178 C   0  0  0  0  0  0
   15.3703   64.0648    3.7820 F   0  0  0  0  0  0
   18.8579   68.8570    3.5952 C   0  0  0  0  0  0
   19.0670   69.2661    2.2522 C   0  0  0  0  0  0
   20.4354   69.6570    2.1845 C   0  0  0  0  0  0
   21.0309   69.4720    3.3358 N   0  0  0  0  0  0
   20.1089   68.9753    4.1915 N   0  0  0  0  0  0
    9.9090   63.7566    5.1877 C   0  0  0  0  0  0
   16.8135   68.5824    8.2238 C   0  0  0  0  0  0
   20.5220   68.6594    5.5579 C   0  0  0  0  0  0
   20.5307   69.8827    6.4948 C   0  0  0  0  0  0
   21.4670   70.8570    6.0780 O   0  0  0  0  0  0
   15.5672   68.2122    3.2886 H   0  0  0  0  0  0
   16.0915   68.8794    1.0035 H   0  0  0  0  0  0
   18.0040   68.4684    6.0169 H   0  0  0  0  0  0
   14.6705   67.0716    8.9612 H   0  0  0  0  0  0
   15.7071   66.3032    4.2472 H   0  0  0  0  0  0
   11.7999   65.3213    6.3338 H   0  0  0  0  0  0
   11.2096   62.5457    3.1396 H   0  0  0  0  0  0
   13.5881   62.6765    2.5607 H   0  0  0  0  0  0
   20.9681   70.0538    1.3325 H   0  0  0  0  0  0
    9.8214   63.6570    6.2700 H   0  0  0  0  0  0
    9.3489   64.6290    4.8502 H   0  0  0  0  0  0
    9.4670   62.8591    4.7575 H   0  0  0  0  0  0
   16.6774   68.3766    9.2865 H   0  0  0  0  0  0
   17.8797   68.4746    8.0232 H   0  0  0  0  0  0
   16.5353   69.6191    8.0320 H   0  0  0  0  0  0
   21.4670   68.1278    5.5678 H   0  0  0  0  0  0
   19.8239   67.9213    5.9459 H   0  0  0  0  0  0
   20.7036   69.5907    7.5314 H   0  0  0  0  0  0
   19.5560   70.3724    6.4563 H   0  0  0  0  0  0
   22.3657   70.5284    6.1998 H   0  0  0  0  0  0
  1 19  1  0  0  0
  1  2  2  0  0  0
  1  5  1  0  0  0
  2  3  1  0  0  0
  2 29  1  0  0  0
  3  4  2  0  0  0
  3 30  1  0  0  0
  4 20  1  0  0  0
  5  6  1  0  0  0
  5 31  1  0  0  0
  6  7  2  0  0  0
  6 11  1  0  0  0
  7  8  1  0  0  0
  7 25  1  0  0  0
  8  9  2  0  0  0
  8 32  1  0  0  0
  9 10  1  0  0  0
 10 11  2  0  0  0
 10 12  1  0  0  0
 11 33  1  0  0  0
 12 13  2  0  0  0
 12 17  1  0  0  0
 13 14  1  0  0  0
 13 34  1  0  0  0
 14 15  2  0  0  0
 14 24  1  0  0  0
 15 16  1  0  0  0
 15 35  1  0  0  0
 16 17  2  0  0  0
 16 36  1  0  0  0
 17 18  1  0  0  0
 19 20  2  0  0  0
 19 23  1  0  0  0
 20 21  1  0  0  0
 21 22  2  0  0  0
 21 37  1  0  0  0
 22 23  1  0  0  0
 23 26  1  0  0  0
 24 38  1  0  0  0
 24 39  1  0  0  0
 24 40  1  0  0  0
 25 41  1  0  0  0
 25 42  1  0  0  0
 25 43  1  0  0  0
 26 27  1  0  0  0
 26 44  1  0  0  0
 26 45  1  0  0  0
 27 28  1  0  0  0
 27 46  1  0  0  0
 27 47  1  0  0  0
 28 48  1  0  0  0
M  END
> <s_m_entry_id>
34268

> <s_m_entry_name>
dock_pv.11

> <s_m_Source_Path>
/home/csk/Desktop/cluster/DUD-E-result/tgfr1

> <s_m_Source_File>
dock_pv.maegz

> <i_m_Source_File_Index>
11

> <chembl_id>
CHEMBL4087735

> <chembl_pref_name>
None

> <i_lp_mmshare_version>
53161

> <r_lp_tautomer_probability>
0.999999106000799

> <s_lp_Force_Field>
OPLS_2005

> <r_lp_Energy>
26.87323

> <b_lp_Chiralities_Consistent>
1

> <s_lp_Variant>
CHEMBL4439_lig805-1

> <s_i_glide_gridfile>
glide-grid_3hmm

> <i_i_glide_lignum>
1121

> <i_i_glide_rotatable_bonds>
6

> <r_i_docking_score>
-10.810078135347

> <r_i_glide_ligand_efficiency>
-0.386074219119536

> <r_i_glide_ligand_efficiency_sa>
-1.17234871480172

> <r_i_glide_ligand_efficiency_ln>
-2.49528343132393

> <r_i_glide_gscore>
-10.810078135347

> <r_i_glide_lipo>
-4.91273422424806

> <r_i_glide_hbond>
-0.509287810605597

> <r_i_glide_metal>
0

> <r_i_glide_rewards>
-2.44818432582141

> <r_i_glide_evdw>
-50.5481605529785

> <r_i_glide_ecoul>
-7.28217697143555

> <r_i_glide_erotb>
0.679862798692315

> <r_i_glide_esite>
0

> <r_i_glide_emodel>
-93.0774361450418

> <r_i_glide_energy>
-57.8303375244141

> <r_i_glide_einternal>
2.28626370429993

> <i_i_glide_confnum>
35

> <i_i_glide_posenum>
247

> <r_i_glide_eff_state_penalty>
0

> <s_user_duplicate_titles>
CHEMBL4439_lig805

> <i_f3d_flags>
0

> <s_m_subgroup_title>
dock_pv

> <s_m_subgroupid>
dock_pv

> <b_m_subgroup_collapsed>
1

$$$$
CHEMBL4439_lig807
                    3D
 Schrodinger Suite 2021-1.
 51 54  0  0  1  0            999 V2000
   17.9139   68.4925    4.2750 C   0  0  0  0  0  0
   16.8472   68.4572    3.3606 C   0  0  0  0  0  0
   17.0302   68.8397    2.0321 C   0  0  0  0  0  0
   18.2157   69.2394    1.5152 N   0  0  0  0  0  0
   17.7734   68.1669    5.6360 N   0  0  0  0  0  0
   16.7430   67.5896    6.3955 C   0  0  0  0  0  0
   16.6734   67.8321    7.7791 C   0  0  0  0  0  0
   15.6228   67.2546    8.4982 C   0  0  0  0  0  0
   14.6672   66.4812    7.9262 N   0  0  0  0  0  0
   14.7420   66.2407    6.5891 C   0  0  0  0  0  0
   15.7862   66.7528    5.8150 C   0  0  0  0  0  0
   13.6449   65.4420    5.9661 C   0  0  0  0  0  0
   13.9330   64.5686    4.9062 C   0  0  0  0  0  0
   12.9247   63.8530    4.2616 C   0  0  0  0  0  0
   11.6058   63.9761    4.6861 C   0  0  0  0  0  0
   11.3008   64.8376    5.7307 C   0  0  0  0  0  0
   12.3014   65.5769    6.3607 C   0  0  0  0  0  0
   11.9439   66.4570    7.3233 F   0  0  0  0  0  0
   19.1297   68.9648    3.7450 C   0  0  0  0  0  0
   19.2388   69.2984    2.3692 C   0  0  0  0  0  0
   20.6011   69.6570    2.1753 C   0  0  0  0  0  0
   21.2640   69.5998    3.3005 N   0  0  0  0  0  0
   20.3930   69.2345    4.2718 N   0  0  0  0  0  0
   13.2528   63.0099    3.0537 C   0  0  0  0  0  0
   17.6822   68.7178    8.5037 C   0  0  0  0  0  0
   20.8657   69.0446    5.6526 C   0  0  0  0  0  0
   22.1265   69.8596    6.0452 C   0  0  1  0  0  0
   21.8670   71.2509    6.0321 O   0  0  0  0  0  0
   22.6294   69.5112    7.4531 C   0  0  0  0  0  0
   15.8457   68.2108    3.6668 H   0  0  0  0  0  0
   16.1941   68.8380    1.3465 H   0  0  0  0  0  0
   18.5404   68.4951    6.2003 H   0  0  0  0  0  0
   15.5213   67.4215    9.5610 H   0  0  0  0  0  0
   15.8436   66.4939    4.7722 H   0  0  0  0  0  0
   14.9493   64.4531    4.5580 H   0  0  0  0  0  0
   10.8143   63.4345    4.1886 H   0  0  0  0  0  0
   10.2736   64.9504    6.0318 H   0  0  0  0  0  0
   21.0784   69.9686    1.2578 H   0  0  0  0  0  0
   13.9964   63.5077    2.4320 H   0  0  0  0  0  0
   13.6519   62.0570    3.3743 H   0  0  0  0  0  0
   12.3731   62.8507    2.4318 H   0  0  0  0  0  0
   17.4264   68.8668    9.5538 H   0  0  0  0  0  0
   18.6795   68.2801    8.4506 H   0  0  0  0  0  0
   17.7300   69.7012    8.0340 H   0  0  0  0  0  0
   21.0572   67.9777    5.7750 H   0  0  0  0  0  0
   20.0576   69.3099    6.3321 H   0  0  0  0  0  0
   22.9341   69.6570    5.3390 H   0  0  0  0  0  0
   22.7413   71.6866    6.0959 H   0  0  0  0  0  0
   22.8984   68.4570    7.5213 H   0  0  0  0  0  0
   21.8712   69.7107    8.2113 H   0  0  0  0  0  0
   23.5179   70.0902    7.7109 H   0  0  0  0  0  0
  1 19  1  0  0  0
  1  2  2  0  0  0
  1  5  1  0  0  0
  2  3  1  0  0  0
  2 30  1  0  0  0
  3  4  2  0  0  0
  3 31  1  0  0  0
  4 20  1  0  0  0
  5  6  1  0  0  0
  5 32  1  0  0  0
  6  7  2  0  0  0
  6 11  1  0  0  0
  7  8  1  0  0  0
  7 25  1  0  0  0
  8  9  2  0  0  0
  8 33  1  0  0  0
  9 10  1  0  0  0
 10 11  2  0  0  0
 10 12  1  0  0  0
 11 34  1  0  0  0
 12 13  2  0  0  0
 12 17  1  0  0  0
 13 14  1  0  0  0
 13 35  1  0  0  0
 14 15  2  0  0  0
 14 24  1  0  0  0
 15 16  1  0  0  0
 15 36  1  0  0  0
 16 17  2  0  0  0
 16 37  1  0  0  0
 17 18  1  0  0  0
 19 20  2  0  0  0
 19 23  1  0  0  0
 20 21  1  0  0  0
 21 22  2  0  0  0
 21 38  1  0  0  0
 22 23  1  0  0  0
 23 26  1  0  0  0
 24 39  1  0  0  0
 24 40  1  0  0  0
 24 41  1  0  0  0
 25 42  1  0  0  0
 25 43  1  0  0  0
 25 44  1  0  0  0
 26 27  1  0  0  0
 26 45  1  0  0  0
 26 46  1  0  0  0
 27 28  1  0  0  0
 27 29  1  0  0  0
 27 47  1  0  0  0
 28 48  1  0  0  0
 29 49  1  0  0  0
 29 50  1  0  0  0
 29 51  1  0  0  0
M  END
> <s_m_entry_id>
34269

> <s_m_entry_name>
dock_pv.12

> <s_m_Source_Path>
/home/csk/Desktop/cluster/DUD-E-result/tgfr1

> <s_m_Source_File>
dock_pv.maegz

> <i_m_Source_File_Index>
12

> <chembl_id>
CHEMBL4095435

> <chembl_pref_name>
None

> <i_lp_mmshare_version>
53161

> <r_lp_tautomer_probability>
0.999999106000799

> <s_lp_Force_Field>
OPLS_2005

> <r_lp_Energy>
26.722817

> <b_lp_Chiralities_Consistent>
1

> <s_lp_Variant>
CHEMBL4439_lig807-1

> <s_i_glide_gridfile>
glide-grid_3hmm

> <i_i_glide_lignum>
1123

> <i_i_glide_rotatable_bonds>
6

> <r_i_docking_score>
-10.7929079376159

> <r_i_glide_ligand_efficiency>
-0.372169239228135

> <r_i_glide_ligand_efficiency_sa>
-1.14342181439989

> <r_i_glide_ligand_efficiency_ln>
-2.47130223318289

> <r_i_glide_gscore>
-10.7929079376159

> <r_i_glide_lipo>
-4.44768495111735

> <r_i_glide_hbond>
-0.599170259522829

> <r_i_glide_metal>
0

> <r_i_glide_rewards>
-2.13444411044192

> <r_i_glide_evdw>
-47.4030380249023

> <r_i_glide_ecoul>
-12.2806787490845

> <r_i_glide_erotb>
0.636792041517734

> <r_i_glide_esite>
-0.0361469444437591

> <r_i_glide_emodel>
-98.1201723862809

> <r_i_glide_energy>
-59.6837167739868

> <r_i_glide_einternal>
2.44868755340576

> <i_i_glide_confnum>
75

> <i_i_glide_posenum>
102

> <r_i_glide_eff_state_penalty>
0

> <s_user_duplicate_titles>
CHEMBL4439_lig807

> <i_f3d_flags>
0

> <s_m_subgroup_title>
dock_pv

> <s_m_subgroupid>
dock_pv

> <b_m_subgroup_collapsed>
1

$$$$
CHEMBL4439_lig939 
                    3D
 Schrodinger Suite 2021-1.
 50 53  0  0  1  0            999 V2000
   15.6076   66.6322    5.5036 C   0  0  0  0  0  0
   14.6583   66.0302    6.3279 C   0  0  0  0  0  0
   14.6643   66.1551    7.6848 N   0  0  0  0  0  0
   16.5995   67.4423    6.0459 C   0  0  0  0  0  0
   16.6384   67.5892    7.4451 C   0  0  0  0  0  0
   15.6402   66.9108    8.1935 C   0  0  0  0  0  0
   15.8670   67.1771    9.5268 N   0  0  0  0  0  0
   16.9519   68.0114    9.6511 C   0  0  0  0  0  0
   17.4575   68.2914    8.3964 C   0  0  0  0  0  0
   17.5760   68.0570    5.2634 N   0  0  0  0  0  0
   17.6851   68.4603    3.9195 C   0  0  0  0  0  0
   18.9228   68.9261    3.4051 C   0  0  0  0  0  0
   18.9636   69.2995    2.0552 C   0  0  0  0  0  0
   17.8926   69.2570    1.2320 N   0  0  0  0  0  0
   16.7148   68.8577    1.7510 C   0  0  0  0  0  0
   16.5700   68.4570    3.0719 C   0  0  0  0  0  0
   13.5734   65.2096    5.7267 C   0  0  0  0  0  0
   13.8545   64.4035    4.6138 C   0  0  0  0  0  0
   12.8524   63.6722    3.9872 C   0  0  0  0  0  0
   11.5580   63.6903    4.4852 C   0  0  0  0  0  0
   11.2694   64.4569    5.6065 C   0  0  0  0  0  0
   12.2526   65.2447    6.2055 C   0  0  0  0  0  0
   11.9059   66.0570    7.2320 F   0  0  0  0  0  0
   20.2052   69.0002    4.2058 C   0  0  0  0  0  0
   20.0718   69.2231    5.5226 N   0  0  0  0  0  0
   21.2953   68.8570    3.6560 O   0  0  0  0  0  0
   21.0865   68.9839    6.5436 C   0  0  0  0  0  0
   22.3021   69.9151    6.4726 C   0  0  2  0  0  0
   23.2701   69.6965    7.6460 C   0  0  0  0  0  0
   21.8670   71.2570    6.4778 O   0  0  0  0  0  0
   13.1926   62.8570    2.5181 Cl  0  0  0  0  0  0
   15.5814   66.4417    4.4448 H   0  0  0  0  0  0
   15.3324   66.8570   10.3213 H   0  0  0  0  0  0
   17.2709   68.3461   10.6293 H   0  0  0  0  0  0
   18.3050   68.9315    8.2012 H   0  0  0  0  0  0
   18.4377   68.1964    5.7712 H   0  0  0  0  0  0
   19.8782   69.6570    1.6001 H   0  0  0  0  0  0
   15.8670   68.8802    1.0873 H   0  0  0  0  0  0
   15.5841   68.1905    3.4094 H   0  0  0  0  0  0
   14.8505   64.3636    4.1975 H   0  0  0  0  0  0
   10.7716   63.1568    3.9757 H   0  0  0  0  0  0
   10.2670   64.4570    5.9831 H   0  0  0  0  0  0
   19.2218   69.6699    5.8322 H   0  0  0  0  0  0
   21.4099   67.9420    6.5116 H   0  0  0  0  0  0
   20.5976   69.1152    7.5093 H   0  0  0  0  0  0
   22.8359   69.7575    5.5340 H   0  0  0  0  0  0
   23.6742   68.6837    7.6318 H   0  0  0  0  0  0
   22.7741   69.8434    8.6060 H   0  0  0  0  0  0
   24.1154   70.3849    7.6097 H   0  0  0  0  0  0
   22.7073   71.7616    6.4320 H   0  0  0  0  0  0
  1  2  2  0  0  0
  1  4  1  0  0  0
  1 32  1  0  0  0
  2  3  1  0  0  0
  2 17  1  0  0  0
  3  6  2  0  0  0
  4  5  2  0  0  0
  4 10  1  0  0  0
  5  6  1  0  0  0
  5  9  1  0  0  0
  6  7  1  0  0  0
  7  8  1  0  0  0
  7 33  1  0  0  0
  8  9  2  0  0  0
  8 34  1  0  0  0
  9 35  1  0  0  0
 10 11  1  0  0  0
 10 36  1  0  0  0
 11 12  2  0  0  0
 11 16  1  0  0  0
 12 13  1  0  0  0
 12 24  1  0  0  0
 13 14  2  0  0  0
 13 37  1  0  0  0
 14 15  1  0  0  0
 15 16  2  0  0  0
 15 38  1  0  0  0
 16 39  1  0  0  0
 17 18  2  0  0  0
 17 22  1  0  0  0
 18 19  1  0  0  0
 18 40  1  0  0  0
 19 20  2  0  0  0
 19 31  1  0  0  0
 20 21  1  0  0  0
 20 41  1  0  0  0
 21 22  2  0  0  0
 21 42  1  0  0  0
 22 23  1  0  0  0
 24 25  1  0  0  0
 24 26  2  0  0  0
 25 27  1  0  0  0
 25 43  1  0  0  0
 27 28  1  0  0  0
 27 44  1  0  0  0
 27 45  1  0  0  0
 28 29  1  0  0  0
 28 30  1  0  0  0
 28 46  1  0  0  0
 29 47  1  0  0  0
 29 48  1  0  0  0
 29 49  1  0  0  0
 30 50  1  0  0  0
M  END
> <s_m_entry_id>
34270

> <s_m_entry_name>
dock_pv.13

> <s_m_Source_Path>
/home/csk/Desktop/cluster/DUD-E-result/tgfr1

> <s_m_Source_File>
dock_pv.maegz

> <i_m_Source_File_Index>
13

> <chembl_id>
CHEMBL4467267

> <chembl_pref_name>
None

> <i_lp_mmshare_version>
53161

> <r_lp_tautomer_probability>
0.999999106000799

> <s_lp_Force_Field>
OPLS_2005

> <r_lp_Energy>
27.434985

> <b_lp_Chiralities_Consistent>
1

> <s_lp_Variant>
CHEMBL4439_lig939 -1

> <s_i_glide_gridfile>
glide-grid_3hmm

> <i_i_glide_lignum>
1274

> <i_i_glide_rotatable_bonds>
8

> <r_i_docking_score>
-10.7491449443362

> <r_i_glide_ligand_efficiency>
-0.34674661110762

> <r_i_glide_ligand_efficiency_sa>
-1.08926309416892

> <r_i_glide_ligand_efficiency_ln>
-2.42426160667831

> <r_i_glide_gscore>
-10.7491449443362

> <r_i_glide_lipo>
-4.23549504595274

> <r_i_glide_hbond>
-1.1296852136896

> <r_i_glide_metal>
0

> <r_i_glide_rewards>
-1.97590513675683

> <r_i_glide_evdw>
-54.4817085266113

> <r_i_glide_ecoul>
-9.32029628753662

> <r_i_glide_erotb>
0.722189533621782

> <r_i_glide_esite>
-0.00811921209776022

> <r_i_glide_emodel>
-106.832332517802

> <r_i_glide_energy>
-63.8020048141479

> <r_i_glide_einternal>
12.6038675308228

> <i_i_glide_confnum>
14

> <i_i_glide_posenum>
49

> <r_i_glide_eff_state_penalty>
0

> <s_user_duplicate_titles>
CHEMBL4439_lig939 

> <i_f3d_flags>
0

> <s_m_subgroup_title>
dock_pv

> <s_m_subgroupid>
dock_pv

> <b_m_subgroup_collapsed>
1

$$$$
CHEMBL4439_lig933 
                    3D
 Schrodinger Suite 2021-1.
 41 45  0  0  1  0            999 V2000
   15.8309   66.4450    5.2125 C   0  0  0  0  0  0
   14.7986   65.7837    5.8923 C   0  0  0  0  0  0
   14.5942   65.9552    7.2322 N   0  0  0  0  0  0
   16.6594   67.3858    5.8530 C   0  0  0  0  0  0
   16.4410   67.5857    7.2339 C   0  0  0  0  0  0
   15.4223   66.8077    7.8507 C   0  0  0  0  0  0
   15.4671   67.0797    9.2017 N   0  0  0  0  0  0
   16.3957   68.0584    9.4521 C   0  0  0  0  0  0
   16.9954   68.4184    8.2674 C   0  0  0  0  0  0
   17.6685   68.0562    5.1178 N   0  0  0  0  0  0
   13.8263   64.8840    5.1693 C   0  0  0  0  0  0
   12.4653   64.8500    5.5366 C   0  0  0  0  0  0
   11.5468   64.0545    4.8422 C   0  0  0  0  0  0
   11.9697   63.2570    3.7893 C   0  0  0  0  0  0
   13.3031   63.2576    3.4167 C   0  0  0  0  0  0
   14.2168   64.0734    4.0787 C   0  0  0  0  0  0
   15.4890   64.0560    3.6333 F   0  0  0  0  0  0
   18.9541   68.2843    5.5350 C   0  0  0  0  0  0
   19.5855   68.8435    4.4722 N   0  0  0  0  0  0
   17.5194   68.4721    3.8005 C   0  0  0  0  0  0
   18.7324   68.9649    3.4067 C   0  0  0  0  0  0
   18.9038   69.4463    2.1129 C   0  0  0  0  0  0
   17.8719   69.4626    1.2318 N   0  0  0  0  0  0
   16.6657   68.9865    1.6335 C   0  0  0  0  0  0
   16.4423   68.4574    2.9051 C   0  0  0  0  0  0
   19.4577   68.0117    6.6262 O   0  0  0  0  0  0
   20.9915   69.2421    4.5012 C   0  0  0  0  0  0
    9.8694   64.0541    5.2321 Cl  0  0  0  0  0  0
   15.9771   66.2431    4.1641 H   0  0  0  0  0  0
   14.8924   66.6898    9.9337 H   0  0  0  0  0  0
   16.5530   68.4164   10.4591 H   0  0  0  0  0  0
   17.7742   69.1620    8.1736 H   0  0  0  0  0  0
   12.1047   65.4652    6.3490 H   0  0  0  0  0  0
   11.2526   62.6763    3.2323 H   0  0  0  0  0  0
   13.6157   62.6676    2.5722 H   0  0  0  0  0  0
   19.8513   69.8165    1.7517 H   0  0  0  0  0  0
   15.8672   69.0493    0.9127 H   0  0  0  0  0  0
   15.4568   68.1026    3.1646 H   0  0  0  0  0  0
   21.3986   69.2583    5.5139 H   0  0  0  0  0  0
   21.5875   68.5412    3.9161 H   0  0  0  0  0  0
   21.1169   70.2348    4.0733 H   0  0  0  0  0  0
  1  2  2  0  0  0
  1  4  1  0  0  0
  1 29  1  0  0  0
  2  3  1  0  0  0
  2 11  1  0  0  0
  3  6  2  0  0  0
  4  5  2  0  0  0
  4 10  1  0  0  0
  5  6  1  0  0  0
  5  9  1  0  0  0
  6  7  1  0  0  0
  7  8  1  0  0  0
  7 30  1  0  0  0
  8  9  2  0  0  0
  8 31  1  0  0  0
  9 32  1  0  0  0
 10 18  1  0  0  0
 10 20  1  0  0  0
 11 12  2  0  0  0
 11 16  1  0  0  0
 12 13  1  0  0  0
 12 33  1  0  0  0
 13 14  2  0  0  0
 13 28  1  0  0  0
 14 15  1  0  0  0
 14 34  1  0  0  0
 15 16  2  0  0  0
 15 35  1  0  0  0
 16 17  1  0  0  0
 18 19  1  0  0  0
 18 26  2  0  0  0
 19 21  1  0  0  0
 19 27  1  0  0  0
 20 21  2  0  0  0
 20 25  1  0  0  0
 21 22  1  0  0  0
 22 23  2  0  0  0
 22 36  1  0  0  0
 23 24  1  0  0  0
 24 25  2  0  0  0
 24 37  1  0  0  0
 25 38  1  0  0  0
 27 39  1  0  0  0
 27 40  1  0  0  0
 27 41  1  0  0  0
M  END
> <s_m_entry_id>
34271

> <s_m_entry_name>
dock_pv.14

> <s_m_Source_Path>
/home/csk/Desktop/cluster/DUD-E-result/tgfr1

> <s_m_Source_File>
dock_pv.maegz

> <i_m_Source_File_Index>
14

> <chembl_id>
CHEMBL4474551

> <chembl_pref_name>
None

> <i_lp_mmshare_version>
53161

> <r_lp_tautomer_probability>
1

> <s_lp_Force_Field>
OPLS_2005

> <r_lp_Energy>
59.66757

> <b_lp_Chiralities_Consistent>
1

> <s_lp_Variant>
CHEMBL4439_lig933 -1

> <s_i_glide_gridfile>
glide-grid_3hmm

> <i_i_glide_lignum>
1268

> <i_i_glide_rotatable_bonds>
2

> <r_i_docking_score>
-10.7328190985985

> <r_i_glide_ligand_efficiency>
-0.383314967807091

> <r_i_glide_ligand_efficiency_sa>
-1.16397000270502

> <r_i_glide_ligand_efficiency_ln>
-2.4774497772185

> <r_i_glide_gscore>
-10.7328190985985

> <r_i_glide_lipo>
-4.59262835664945

> <r_i_glide_hbond>
-0.362067345730229

> <r_i_glide_metal>
0

> <r_i_glide_rewards>
-3.15999294746918

> <r_i_glide_evdw>
-53.8275451660156

> <r_i_glide_ecoul>
-1.19155764579773

> <r_i_glide_erotb>
0.251980456420759

> <r_i_glide_esite>
0

> <r_i_glide_emodel>
-90.9432464729857

> <r_i_glide_energy>
-55.0191028118134

> <r_i_glide_einternal>
2.29782843589783

> <i_i_glide_confnum>
9

> <i_i_glide_posenum>
1

> <r_i_glide_eff_state_penalty>
0

> <s_user_duplicate_titles>
CHEMBL4439_lig933 

> <i_f3d_flags>
0

> <s_m_subgroup_title>
dock_pv

> <s_m_subgroupid>
dock_pv

> <b_m_subgroup_collapsed>
1

$$$$
CHEMBL4439_lig812
                    3D
 Schrodinger Suite 2021-1.
 48 51  0  0  1  0            999 V2000
   17.6337   68.4329    4.0663 C   0  0  0  0  0  0
   16.6506   68.4507    3.0683 C   0  0  0  0  0  0
   16.9748   68.8570    1.7757 C   0  0  0  0  0  0
   18.2114   69.2570    1.3893 N   0  0  0  0  0  0
   17.3900   68.0570    5.3980 N   0  0  0  0  0  0
   16.3134   67.4017    6.0124 C   0  0  0  0  0  0
   16.0387   67.6038    7.3761 C   0  0  0  0  0  0
   14.9591   66.9167    7.9345 C   0  0  0  0  0  0
   14.1815   66.0570    7.2320 N   0  0  0  0  0  0
   14.4723   65.8298    5.9214 C   0  0  0  0  0  0
   15.5252   66.4993    5.2932 C   0  0  0  0  0  0
   13.5890   64.8735    5.1824 C   0  0  0  0  0  0
   12.2316   64.7543    5.5287 C   0  0  0  0  0  0
   11.3774   63.9071    4.8226 C   0  0  0  0  0  0
   11.8669   63.1829    3.7418 C   0  0  0  0  0  0
   13.2093   63.2570    3.3993 C   0  0  0  0  0  0
   14.0678   64.0838    4.1151 C   0  0  0  0  0  0
   15.3739   64.0791    3.7637 F   0  0  0  0  0  0
   18.9164   68.8736    3.6939 C   0  0  0  0  0  0
   19.1435   69.2755    2.3441 C   0  0  0  0  0  0
   20.5087   69.6570    2.3152 C   0  0  0  0  0  0
   20.9720   69.4758    3.6009 N   0  0  0  0  0  0
   20.0504   68.9784    4.4545 N   0  0  0  0  0  0
    9.9292   63.7624    5.2319 C   0  0  0  0  0  0
   22.3538   69.6979    4.0384 C   0  0  0  0  0  0
   16.8657   68.5384    8.2538 C   0  0  0  0  0  0
   22.5889   69.7157    5.5672 C   0  0  0  0  0  0
   22.0245   70.8570    6.1647 O   0  0  0  0  0  0
   15.6260   68.1928    3.2821 H   0  0  0  0  0  0
   16.2101   68.8757    1.0117 H   0  0  0  0  0  0
   18.1239   68.3431    6.0291 H   0  0  0  0  0  0
   14.6984   67.0511    8.9727 H   0  0  0  0  0  0
   15.7439   66.3022    4.2579 H   0  0  0  0  0  0
   11.8263   65.3320    6.3481 H   0  0  0  0  0  0
   11.2120   62.5361    3.1776 H   0  0  0  0  0  0
   13.5844   62.6735    2.5715 H   0  0  0  0  0  0
   21.1593   70.0335    1.5401 H   0  0  0  0  0  0
    9.3759   64.6449    4.9130 H   0  0  0  0  0  0
    9.4670   62.8764    4.7985 H   0  0  0  0  0  0
    9.8583   63.6570    6.3150 H   0  0  0  0  0  0
   22.7861   70.5721    3.5513 H   0  0  0  0  0  0
   22.9107   68.8570    3.6353 H   0  0  0  0  0  0
   16.6903   68.3612    9.3158 H   0  0  0  0  0  0
   17.9318   68.3846    8.0834 H   0  0  0  0  0  0
   16.6374   69.5813    8.0320 H   0  0  0  0  0  0
   23.6528   69.6524    5.8004 H   0  0  0  0  0  0
   22.1177   68.8570    6.0455 H   0  0  0  0  0  0
   22.7730   71.4635    6.3223 H   0  0  0  0  0  0
  1 19  1  0  0  0
  1  2  2  0  0  0
  1  5  1  0  0  0
  2  3  1  0  0  0
  2 29  1  0  0  0
  3  4  2  0  0  0
  3 30  1  0  0  0
  4 20  1  0  0  0
  5  6  1  0  0  0
  5 31  1  0  0  0
  6  7  2  0  0  0
  6 11  1  0  0  0
  7  8  1  0  0  0
  7 26  1  0  0  0
  8  9  2  0  0  0
  8 32  1  0  0  0
  9 10  1  0  0  0
 10 11  2  0  0  0
 10 12  1  0  0  0
 11 33  1  0  0  0
 12 13  2  0  0  0
 12 17  1  0  0  0
 13 14  1  0  0  0
 13 34  1  0  0  0
 14 15  2  0  0  0
 14 24  1  0  0  0
 15 16  1  0  0  0
 15 35  1  0  0  0
 16 17  2  0  0  0
 16 36  1  0  0  0
 17 18  1  0  0  0
 19 20  1  0  0  0
 19 23  2  0  0  0
 20 21  2  0  0  0
 21 22  1  0  0  0
 21 37  1  0  0  0
 22 23  1  0  0  0
 22 25  1  0  0  0
 24 38  1  0  0  0
 24 39  1  0  0  0
 24 40  1  0  0  0
 25 27  1  0  0  0
 25 41  1  0  0  0
 25 42  1  0  0  0
 26 43  1  0  0  0
 26 44  1  0  0  0
 26 45  1  0  0  0
 27 28  1  0  0  0
 27 46  1  0  0  0
 27 47  1  0  0  0
 28 48  1  0  0  0
M  END
> <s_m_entry_id>
34272

> <s_m_entry_name>
dock_pv.15

> <s_m_Source_Path>
/home/csk/Desktop/cluster/DUD-E-result/tgfr1

> <s_m_Source_File>
dock_pv.maegz

> <i_m_Source_File_Index>
15

> <chembl_id>
CHEMBL4074026

> <chembl_pref_name>
None

> <i_lp_mmshare_version>
53161

> <r_lp_tautomer_probability>
0.999999106000799

> <s_lp_Force_Field>
OPLS_2005

> <r_lp_Energy>
33.486925

> <b_lp_Chiralities_Consistent>
1

> <s_lp_Variant>
CHEMBL4439_lig812-1

> <s_i_glide_gridfile>
glide-grid_3hmm

> <i_i_glide_lignum>
1128

> <i_i_glide_rotatable_bonds>
6

> <r_i_docking_score>
-10.5997277547231

> <r_i_glide_ligand_efficiency>
-0.378561705525826

> <r_i_glide_ligand_efficiency_sa>
-1.14953629889733

> <r_i_glide_ligand_efficiency_ln>
-2.4467283873204

> <r_i_glide_gscore>
-10.5997277547231

> <r_i_glide_lipo>
-4.6668886503313

> <r_i_glide_hbond>
-0.485025887968778

> <r_i_glide_metal>
0

> <r_i_glide_rewards>
-2.38586302301942

> <r_i_glide_evdw>
-48.8614501953125

> <r_i_glide_ecoul>
-8.65826988220215

> <r_i_glide_erotb>
0.679862798692315

> <r_i_glide_esite>
0

> <r_i_glide_emodel>
-88.3687194530291

> <r_i_glide_energy>
-57.5197200775146

> <r_i_glide_einternal>
12.7785987854004

> <i_i_glide_confnum>
51

> <i_i_glide_posenum>
94

> <r_i_glide_eff_state_penalty>
0

> <s_user_duplicate_titles>
CHEMBL4439_lig812

> <i_f3d_flags>
0

> <s_m_subgroup_title>
dock_pv

> <s_m_subgroupid>
dock_pv

> <b_m_subgroup_collapsed>
1

$$$$
CHEMBL4439_lig893 
                    3D
 Schrodinger Suite 2021-1.
 39 42  0  0  1  0            999 V2000
   17.5711   68.0571    4.9266 N   0  0  0  0  0  0
   16.2837   67.6816    5.1301 C   0  0  0  0  0  0
   15.3379   67.6570    4.0993 C   0  0  0  0  0  0
   15.6822   68.0570    2.8092 C   0  0  0  0  0  0
   17.8666   68.4688    3.6804 N   0  0  0  0  0  0
   16.9963   68.4863    2.5795 C   0  0  0  0  0  0
   17.6084   68.9544    1.4643 N   0  0  0  0  0  0
   18.8209   69.2570    1.8759 C   0  0  0  0  0  0
   19.0484   69.0078    3.2314 C   0  0  0  0  0  0
   15.8716   67.3896    6.5477 C   0  0  0  0  0  0
   16.3951   67.9562    7.7105 N   0  0  0  0  0  0
   15.6240   67.4443    8.7208 C   0  0  0  0  0  0
   14.6946   66.6263    8.3176 N   0  0  0  0  0  0
   14.8425   66.5421    7.0078 C   0  0  0  0  0  0
   13.9270   65.6567    6.2186 C   0  0  0  0  0  0
   14.4349   64.8572    5.1882 C   0  0  0  0  0  0
   13.5812   64.0570    4.4322 C   0  0  0  0  0  0
   12.2194   64.0411    4.7174 C   0  0  0  0  0  0
   11.7051   64.8256    5.7448 C   0  0  0  0  0  0
   12.5548   65.6355    6.4932 C   0  0  0  0  0  0
   17.4383   68.9783    7.9110 C   0  0  0  0  0  0
   18.6093   68.4846    8.7831 C   0  0  0  0  0  0
   11.3912   63.2574    3.9924 F   0  0  0  0  0  0
   20.2254   69.2570    4.0458 C   0  0  0  0  0  0
   21.1557   69.4640    4.6974 N   0  0  0  0  0  0
   18.2464   68.4568   10.1472 O   0  0  0  0  0  0
   14.3124   67.3854    4.2980 H   0  0  0  0  0  0
   14.9511   68.0589    2.0112 H   0  0  0  0  0  0
   19.5461   69.6727    1.1903 H   0  0  0  0  0  0
   15.8011   67.7517    9.7412 H   0  0  0  0  0  0
   15.4911   64.8615    4.9641 H   0  0  0  0  0  0
   13.9692   63.4479    3.6284 H   0  0  0  0  0  0
   10.6491   64.8048    5.9597 H   0  0  0  0  0  0
   12.1396   66.2450    7.2832 H   0  0  0  0  0  0
   17.8632   69.2410    6.9520 H   0  0  0  0  0  0
   16.9969   69.8993    8.2935 H   0  0  0  0  0  0
   18.8977   67.4750    8.4863 H   0  0  0  0  0  0
   19.4950   69.1038    8.6334 H   0  0  0  0  0  0
   18.2667   69.3728   10.4636 H   0  0  0  0  0  0
  1  5  1  0  0  0
  1  2  2  0  0  0
  2  3  1  0  0  0
  2 10  1  0  0  0
  3  4  2  0  0  0
  3 27  1  0  0  0
  4  6  1  0  0  0
  4 28  1  0  0  0
  5  6  1  0  0  0
  5  9  1  0  0  0
  6  7  2  0  0  0
  7  8  1  0  0  0
  8  9  2  0  0  0
  8 29  1  0  0  0
  9 24  1  0  0  0
 10 11  1  0  0  0
 10 14  2  0  0  0
 11 12  1  0  0  0
 11 21  1  0  0  0
 12 13  2  0  0  0
 12 30  1  0  0  0
 13 14  1  0  0  0
 14 15  1  0  0  0
 15 16  2  0  0  0
 15 20  1  0  0  0
 16 17  1  0  0  0
 16 31  1  0  0  0
 17 18  2  0  0  0
 17 32  1  0  0  0
 18 19  1  0  0  0
 18 23  1  0  0  0
 19 20  2  0  0  0
 19 33  1  0  0  0
 20 34  1  0  0  0
 21 22  1  0  0  0
 21 35  1  0  0  0
 21 36  1  0  0  0
 22 26  1  0  0  0
 22 37  1  0  0  0
 22 38  1  0  0  0
 24 25  3  0  0  0
 26 39  1  0  0  0
M  END
> <s_m_entry_id>
34273

> <s_m_entry_name>
dock_pv.16

> <s_m_Source_Path>
/home/csk/Desktop/cluster/DUD-E-result/tgfr1

> <s_m_Source_File>
dock_pv.maegz

> <i_m_Source_File_Index>
16

> <chembl_id>
CHEMBL4452178

> <chembl_pref_name>
None

> <i_lp_mmshare_version>
53161

> <r_lp_tautomer_probability>
1

> <s_lp_Force_Field>
OPLS_2005

> <r_lp_Energy>
22.334538

> <b_lp_Chiralities_Consistent>
1

> <s_lp_Variant>
CHEMBL4439_lig893 -1

> <s_i_glide_gridfile>
glide-grid_3hmm

> <i_i_glide_lignum>
1228

> <i_i_glide_rotatable_bonds>
5

> <r_i_docking_score>
-10.5757482421535

> <r_i_glide_ligand_efficiency>
-0.406759547775136

> <r_i_glide_ligand_efficiency_sa>
-1.20502355976231

> <r_i_glide_ligand_efficiency_ln>
-2.48367977280936

> <r_i_glide_gscore>
-10.5757482421535

> <r_i_glide_lipo>
-3.38426555671828

> <r_i_glide_hbond>
-0.447314463300208

> <r_i_glide_metal>
0

> <r_i_glide_rewards>
-4.10075423712121

> <r_i_glide_evdw>
-48.4876670837402

> <r_i_glide_ecoul>
-5.64368391036987

> <r_i_glide_erotb>
0.627521955728668

> <r_i_glide_esite>
0

> <r_i_glide_emodel>
-86.0593757356516

> <r_i_glide_energy>
-54.1313509941101

> <r_i_glide_einternal>
3.82138872146606

> <i_i_glide_confnum>
10

> <i_i_glide_posenum>
201

> <r_i_glide_eff_state_penalty>
0

> <s_user_duplicate_titles>
CHEMBL4439_lig893 

> <i_f3d_flags>
0

> <s_m_subgroup_title>
dock_pv

> <s_m_subgroupid>
dock_pv

> <b_m_subgroup_collapsed>
1

$$$$
CHEMBL4439_lig931 
                    3D
 Schrodinger Suite 2021-1.
 43 46  0  0  1  0            999 V2000
   15.7326   66.4106    5.2943 C   0  0  0  0  0  0
   14.6285   65.7986    5.8985 C   0  0  0  0  0  0
   14.2751   66.1249    7.1712 N   0  0  0  0  0  0
   16.4673   67.4024    5.9697 C   0  0  0  0  0  0
   16.0925   67.7288    7.2935 C   0  0  0  0  0  0
   14.9972   67.0557    7.8352 C   0  0  0  0  0  0
   17.5297   68.0262    5.2654 N   0  0  0  0  0  0
   13.7182   64.8438    5.1735 C   0  0  0  0  0  0
   12.3726   64.7139    5.5805 C   0  0  0  0  0  0
   11.4858   63.8788    4.9034 C   0  0  0  0  0  0
   11.9128   63.1942    3.7792 C   0  0  0  0  0  0
   13.2391   63.2573    3.3802 C   0  0  0  0  0  0
   14.1414   64.0663    4.0685 C   0  0  0  0  0  0
   15.4276   64.0583    3.6420 F   0  0  0  0  0  0
   18.8251   68.1219    5.6921 C   0  0  0  0  0  0
   19.5053   68.6972    4.6587 N   0  0  0  0  0  0
   17.4383   68.4414    3.9393 C   0  0  0  0  0  0
   18.6818   68.8661    3.5687 C   0  0  0  0  0  0
   18.8974   69.3209    2.2641 C   0  0  0  0  0  0
   17.8964   69.3491    1.3443 N   0  0  0  0  0  0
   16.6613   68.9335    1.7302 C   0  0  0  0  0  0
   16.3853   68.4570    3.0146 C   0  0  0  0  0  0
   19.2916   67.7397    6.7680 O   0  0  0  0  0  0
   20.9475   68.9673    4.7007 C   0  0  0  0  0  0
    9.8671   63.6571    5.4484 Cl  0  0  0  0  0  0
   16.7828   68.7663    8.1751 C   0  0  0  0  0  0
   21.3869   69.9487    5.8003 C   0  0  0  0  0  0
   16.0029   66.1566    4.2829 H   0  0  0  0  0  0
   14.6665   67.2745    8.8321 H   0  0  0  0  0  0
   11.9942   65.2620    6.4307 H   0  0  0  0  0  0
   11.2121   62.5871    3.2320 H   0  0  0  0  0  0
   13.5552   62.7050    2.5113 H   0  0  0  0  0  0
   19.8634   69.6571    1.9190 H   0  0  0  0  0  0
   15.8696   68.9981    0.9982 H   0  0  0  0  0  0
   15.3840   68.1335    3.2585 H   0  0  0  0  0  0
   21.4668   68.0182    4.8281 H   0  0  0  0  0  0
   21.2757   69.3481    3.7344 H   0  0  0  0  0  0
   16.0571   69.2572    8.8264 H   0  0  0  0  0  0
   17.5245   68.2837    8.8123 H   0  0  0  0  0  0
   17.2733   69.5679    7.6309 H   0  0  0  0  0  0
   22.4356   70.2187    5.6814 H   0  0  0  0  0  0
   20.7927   70.8581    5.7694 H   0  0  0  0  0  0
   21.2844   69.5111    6.7932 H   0  0  0  0  0  0
  1  2  2  0  0  0
  1  4  1  0  0  0
  1 28  1  0  0  0
  2  3  1  0  0  0
  2  8  1  0  0  0
  3  6  2  0  0  0
  4  5  2  0  0  0
  4  7  1  0  0  0
  5  6  1  0  0  0
  5 26  1  0  0  0
  6 29  1  0  0  0
  7 15  1  0  0  0
  7 17  1  0  0  0
  8  9  2  0  0  0
  8 13  1  0  0  0
  9 10  1  0  0  0
  9 30  1  0  0  0
 10 11  2  0  0  0
 10 25  1  0  0  0
 11 12  1  0  0  0
 11 31  1  0  0  0
 12 13  2  0  0  0
 12 32  1  0  0  0
 13 14  1  0  0  0
 15 16  1  0  0  0
 15 23  2  0  0  0
 16 18  1  0  0  0
 16 24  1  0  0  0
 17 18  2  0  0  0
 17 22  1  0  0  0
 18 19  1  0  0  0
 19 20  2  0  0  0
 19 33  1  0  0  0
 20 21  1  0  0  0
 21 22  2  0  0  0
 21 34  1  0  0  0
 22 35  1  0  0  0
 24 27  1  0  0  0
 24 36  1  0  0  0
 24 37  1  0  0  0
 26 38  1  0  0  0
 26 39  1  0  0  0
 26 40  1  0  0  0
 27 41  1  0  0  0
 27 42  1  0  0  0
 27 43  1  0  0  0
M  END
> <s_m_entry_id>
34274

> <s_m_entry_name>
dock_pv.17

> <s_m_Source_Path>
/home/csk/Desktop/cluster/DUD-E-result/tgfr1

> <s_m_Source_File>
dock_pv.maegz

> <i_m_Source_File_Index>
17

> <chembl_id>
CHEMBL4569690

> <chembl_pref_name>
None

> <i_lp_mmshare_version>
53161

> <r_lp_tautomer_probability>
1

> <s_lp_Force_Field>
OPLS_2005

> <r_lp_Energy>
60.260973

> <b_lp_Chiralities_Consistent>
1

> <s_lp_Variant>
CHEMBL4439_lig931 -1

> <s_i_glide_gridfile>
glide-grid_3hmm

> <i_i_glide_lignum>
1266

> <i_i_glide_rotatable_bonds>
3

> <r_i_docking_score>
-10.5639761056759

> <r_i_glide_ligand_efficiency>
-0.391258374284291

> <r_i_glide_ligand_efficiency_sa>
-1.17377512156335

> <r_i_glide_ligand_efficiency_ln>
-2.45911947664384

> <r_i_glide_gscore>
-10.5639761056759

> <r_i_glide_lipo>
-4.55608743710379

> <r_i_glide_hbond>
-0.228397654857194

> <r_i_glide_metal>
0

> <r_i_glide_rewards>
-3.12123387838847

> <r_i_glide_evdw>
-51.8248481750488

> <r_i_glide_ecoul>
-2.21413826942444

> <r_i_glide_erotb>
0.265106013839684

> <r_i_glide_esite>
0

> <r_i_glide_emodel>
-86.3084594839971

> <r_i_glide_energy>
-54.0389864444733

> <r_i_glide_einternal>
4.17839670181274

> <i_i_glide_confnum>
8

> <i_i_glide_posenum>
71

> <r_i_glide_eff_state_penalty>
0

> <s_user_duplicate_titles>
CHEMBL4439_lig931 

> <i_f3d_flags>
0

> <s_m_subgroup_title>
dock_pv

> <s_m_subgroupid>
dock_pv

> <b_m_subgroup_collapsed>
1

$$$$
CHEMBL4439_lig864
                    3D
 Schrodinger Suite 2021-1.
 47 50  0  0  1  0            999 V2000
   18.8936   67.2569   10.3341 C   0  0  0  0  0  0
   17.6314   67.4081    9.4643 C   0  0  0  0  0  0
   16.6621   68.3801   10.1626 C   0  0  0  0  0  0
   15.8488   67.7984    3.5913 C   0  0  0  0  0  0
   16.2293   68.4570    2.4285 C   0  0  0  0  0  0
   17.5147   68.9778    2.3167 C   0  0  0  0  0  0
   18.4372   68.8215    3.3437 C   0  0  0  0  0  0
   18.0591   68.1490    4.4996 C   0  0  0  0  0  0
   16.7571   67.6569    4.6418 C   0  0  0  0  0  0
   16.3429   66.9946    5.9105 C   0  0  0  0  0  0
   15.2872   65.6554    7.3828 N   0  0  0  0  0  0
   15.3434   65.9981    6.1158 C   0  0  0  0  0  0
   16.2669   66.2889    7.9895 N   0  0  0  0  0  0
   16.9095   67.1715    7.1832 C   0  0  0  0  0  0
   18.0057   67.8306    8.0096 C   0  0  1  0  0  0
   16.8823   66.0809    9.2787 C   0  0  0  0  0  0
   14.4413   65.2176    5.1792 C   0  0  0  0  0  0
   13.0674   65.0159    5.4356 C   0  0  0  0  0  0
   12.3212   64.0907    4.6991 C   0  0  0  0  0  0
   12.9193   63.3894    3.6587 C   0  0  0  0  0  0
   14.2418   63.6573    3.3260 C   0  0  0  0  0  0
   14.9980   64.5605    4.0755 C   0  0  0  0  0  0
   18.1914   69.3478    7.8057 C   0  0  0  0  0  0
   12.3862   65.8070    6.4383 C   0  0  0  0  0  0
   11.8670   66.4568    7.2321 N   0  0  0  0  0  0
   17.8671   69.6568    1.1882 O   0  0  0  0  0  0
   19.6057   66.5646    9.8827 H   0  0  0  0  0  0
   19.4086   68.2094   10.4661 H   0  0  0  0  0  0
   18.6542   66.8705   11.3258 H   0  0  0  0  0  0
   15.8437   68.6999    9.5162 H   0  0  0  0  0  0
   16.2175   67.9442   11.0591 H   0  0  0  0  0  0
   17.1956   69.2572   10.4957 H   0  0  0  0  0  0
   14.8368   67.4314    3.6768 H   0  0  0  0  0  0
   15.5199   68.5839    1.6232 H   0  0  0  0  0  0
   19.4406   69.2101    3.2498 H   0  0  0  0  0  0
   18.7885   68.0130    5.2829 H   0  0  0  0  0  0
   18.9482   67.3543    7.7318 H   0  0  0  0  0  0
   16.1433   65.8725   10.0539 H   0  0  0  0  0  0
   17.5610   65.2286    9.2324 H   0  0  0  0  0  0
   11.2728   63.9258    4.9085 H   0  0  0  0  0  0
   12.3443   62.6878    3.0720 H   0  0  0  0  0  0
   14.6669   63.1590    2.4735 H   0  0  0  0  0  0
   16.0266   64.7301    3.8036 H   0  0  0  0  0  0
   18.4887   69.6024    6.7911 H   0  0  0  0  0  0
   17.2809   69.9039    8.0313 H   0  0  0  0  0  0
   18.9670   69.7335    8.4678 H   0  0  0  0  0  0
   18.6989   70.1387    1.2521 H   0  0  0  0  0  0
  1  2  1  0  0  0
  1 27  1  0  0  0
  1 28  1  0  0  0
  1 29  1  0  0  0
  2  3  1  0  0  0
  2 15  1  0  0  0
  2 16  1  0  0  0
  3 30  1  0  0  0
  3 31  1  0  0  0
  3 32  1  0  0  0
  4  5  2  0  0  0
  4  9  1  0  0  0
  4 33  1  0  0  0
  5  6  1  0  0  0
  5 34  1  0  0  0
  6  7  2  0  0  0
  6 26  1  0  0  0
  7  8  1  0  0  0
  7 35  1  0  0  0
  8  9  2  0  0  0
  8 36  1  0  0  0
  9 10  1  0  0  0
 10 14  2  0  0  0
 10 12  1  0  0  0
 11 13  1  0  0  0
 11 12  2  0  0  0
 12 17  1  0  0  0
 13 14  1  0  0  0
 13 16  1  0  0  0
 14 15  1  0  0  0
 15 23  1  0  0  0
 15 37  1  0  0  0
 16 38  1  0  0  0
 16 39  1  0  0  0
 17 18  2  0  0  0
 17 22  1  0  0  0
 18 19  1  0  0  0
 18 24  1  0  0  0
 19 20  2  0  0  0
 19 40  1  0  0  0
 20 21  1  0  0  0
 20 41  1  0  0  0
 21 22  2  0  0  0
 21 42  1  0  0  0
 22 43  1  0  0  0
 23 44  1  0  0  0
 23 45  1  0  0  0
 23 46  1  0  0  0
 24 25  3  0  0  0
 26 47  1  0  0  0
M  END
> <s_m_entry_id>
34275

> <s_m_entry_name>
dock_pv.18

> <s_m_Source_Path>
/home/csk/Desktop/cluster/DUD-E-result/tgfr1

> <s_m_Source_File>
dock_pv.maegz

> <i_m_Source_File_Index>
18

> <chembl_id>
CHEMBL4279331

> <chembl_pref_name>
None

> <i_lp_mmshare_version>
53161

> <r_lp_tautomer_probability>
0.999999999997365

> <s_lp_Force_Field>
OPLS_2005

> <r_lp_Energy>
41.849482

> <b_lp_Chiralities_Consistent>
1

> <s_lp_Variant>
CHEMBL4439_lig864-1

> <s_i_glide_gridfile>
glide-grid_3hmm

> <i_i_glide_lignum>
1194

> <i_i_glide_rotatable_bonds>
3

> <r_i_docking_score>
-10.4731549260041

> <r_i_glide_ligand_efficiency>
-0.402813651000157

> <r_i_glide_ligand_efficiency_sa>
-1.19333385609279

> <r_i_glide_ligand_efficiency_ln>
-2.45958606914779

> <r_i_glide_gscore>
-10.4731549260041

> <r_i_glide_lipo>
-4.47839876512509

> <r_i_glide_hbond>
-0.706677964063221

> <r_i_glide_metal>
0

> <r_i_glide_rewards>
-2.5426771495203

> <r_i_glide_evdw>
-44.7869529724121

> <r_i_glide_ecoul>
-5.51885223388672

> <r_i_glide_erotb>
0.321774436408143

> <r_i_glide_esite>
0

> <r_i_glide_emodel>
-62.5331685830417

> <r_i_glide_energy>
-50.3058052062988

> <r_i_glide_einternal>
0.618719041347504

> <i_i_glide_confnum>
13

> <i_i_glide_posenum>
357

> <r_i_glide_eff_state_penalty>
0

> <s_user_duplicate_titles>
CHEMBL4439_lig864

> <i_f3d_flags>
0

> <s_m_subgroup_title>
dock_pv

> <s_m_subgroupid>
dock_pv

> <b_m_subgroup_collapsed>
1

$$$$
CHEMBL4439_lig932 
                    3D
 Schrodinger Suite 2021-1.
 40 43  0  0  1  0            999 V2000
   15.8022   66.4168    5.3196 C   0  0  0  0  0  0
   14.7169   65.7800    5.9358 C   0  0  0  0  0  0
   14.3929   66.0638    7.2242 N   0  0  0  0  0  0
   16.5372   67.4089    5.9957 C   0  0  0  0  0  0
   16.1719   67.7119    7.3287 C   0  0  0  0  0  0
   15.1074   67.0022    7.8838 C   0  0  0  0  0  0
   17.5797   68.0570    5.2793 N   0  0  0  0  0  0
   13.7872   64.8498    5.2064 C   0  0  0  0  0  0
   12.4475   64.7189    5.6316 C   0  0  0  0  0  0
   11.5458   63.9043    4.9472 C   0  0  0  0  0  0
   11.9486   63.2561    3.7916 C   0  0  0  0  0  0
   13.2711   63.3166    3.3791 C   0  0  0  0  0  0
   14.1882   64.0979    4.0762 C   0  0  0  0  0  0
   15.4667   64.0919    3.6342 F   0  0  0  0  0  0
   18.8676   68.2386    5.7065 C   0  0  0  0  0  0
   19.5348   68.7486    4.6364 N   0  0  0  0  0  0
   17.4673   68.4551    3.9457 C   0  0  0  0  0  0
   18.7036   68.8824    3.5518 C   0  0  0  0  0  0
   18.9057   69.3116    2.2399 C   0  0  0  0  0  0
   17.8939   69.3183    1.3301 N   0  0  0  0  0  0
   16.6637   68.9076    1.7392 C   0  0  0  0  0  0
   16.4038   68.4568    3.0339 C   0  0  0  0  0  0
   19.3410   67.9653    6.8110 O   0  0  0  0  0  0
   20.9587   69.0699    4.6730 C   0  0  0  0  0  0
    9.9388   63.6572    5.5236 Cl  0  0  0  0  0  0
   16.8344   68.7771    8.1988 C   0  0  0  0  0  0
   16.0493   66.1846    4.2970 H   0  0  0  0  0  0
   14.7865   67.1997    8.8869 H   0  0  0  0  0  0
   12.0858   65.2514    6.4996 H   0  0  0  0  0  0
   11.2367   62.6730    3.2323 H   0  0  0  0  0  0
   13.5728   62.7940    2.4878 H   0  0  0  0  0  0
   19.8660   69.6568    1.8832 H   0  0  0  0  0  0
   15.8674   68.9548    1.0122 H   0  0  0  0  0  0
   15.4049   68.1332    3.2933 H   0  0  0  0  0  0
   21.1311   70.0801    4.3039 H   0  0  0  0  0  0
   21.3784   69.0063    5.6804 H   0  0  0  0  0  0
   21.5141   68.3799    4.0360 H   0  0  0  0  0  0
   17.2314   69.6144    7.6320 H   0  0  0  0  0  0
   16.1178   69.2137    8.8996 H   0  0  0  0  0  0
   17.6478   68.3350    8.7780 H   0  0  0  0  0  0
  1  2  2  0  0  0
  1  4  1  0  0  0
  1 27  1  0  0  0
  2  3  1  0  0  0
  2  8  1  0  0  0
  3  6  2  0  0  0
  4  5  2  0  0  0
  4  7  1  0  0  0
  5  6  1  0  0  0
  5 26  1  0  0  0
  6 28  1  0  0  0
  7 15  1  0  0  0
  7 17  1  0  0  0
  8  9  2  0  0  0
  8 13  1  0  0  0
  9 10  1  0  0  0
  9 29  1  0  0  0
 10 11  2  0  0  0
 10 25  1  0  0  0
 11 12  1  0  0  0
 11 30  1  0  0  0
 12 13  2  0  0  0
 12 31  1  0  0  0
 13 14  1  0  0  0
 15 16  1  0  0  0
 15 23  2  0  0  0
 16 18  1  0  0  0
 16 24  1  0  0  0
 17 18  2  0  0  0
 17 22  1  0  0  0
 18 19  1  0  0  0
 19 20  2  0  0  0
 19 32  1  0  0  0
 20 21  1  0  0  0
 21 22  2  0  0  0
 21 33  1  0  0  0
 22 34  1  0  0  0
 24 35  1  0  0  0
 24 36  1  0  0  0
 24 37  1  0  0  0
 26 38  1  0  0  0
 26 39  1  0  0  0
 26 40  1  0  0  0
M  END
> <s_m_entry_id>
34276

> <s_m_entry_name>
dock_pv.19

> <s_m_Source_Path>
/home/csk/Desktop/cluster/DUD-E-result/tgfr1

> <s_m_Source_File>
dock_pv.maegz

> <i_m_Source_File_Index>
19

> <chembl_id>
CHEMBL4515962

> <chembl_pref_name>
None

> <i_lp_mmshare_version>
53161

> <r_lp_tautomer_probability>
1

> <s_lp_Force_Field>
OPLS_2005

> <r_lp_Energy>
59.334781

> <b_lp_Chiralities_Consistent>
1

> <s_lp_Variant>
CHEMBL4439_lig932 -1

> <s_i_glide_gridfile>
glide-grid_3hmm

> <i_i_glide_lignum>
1267

> <i_i_glide_rotatable_bonds>
2

> <r_i_docking_score>
-10.4495259060086

> <r_i_glide_ligand_efficiency>
-0.401904842538792

> <r_i_glide_ligand_efficiency_sa>
-1.19064151460198

> <r_i_glide_ligand_efficiency_ln>
-2.45403687133499

> <r_i_glide_gscore>
-10.4495259060086

> <r_i_glide_lipo>
-4.45640674458241

> <r_i_glide_hbond>
-0.252123868270453

> <r_i_glide_metal>
0

> <r_i_glide_rewards>
-3.15867791412709

> <r_i_glide_evdw>
-50.8019638061523

> <r_i_glide_ecoul>
-2.17094707489014

> <r_i_glide_erotb>
0.283422872512508

> <r_i_glide_esite>
0

> <r_i_glide_emodel>
-84.0783632557296

> <r_i_glide_energy>
-52.9729108810425

> <r_i_glide_einternal>
3.80559992790222

> <i_i_glide_confnum>
7

> <i_i_glide_posenum>
127

> <r_i_glide_eff_state_penalty>
0

> <s_user_duplicate_titles>
CHEMBL4439_lig932 

> <i_f3d_flags>
0

> <s_m_subgroup_title>
dock_pv

> <s_m_subgroupid>
dock_pv

> <b_m_subgroup_collapsed>
1

$$$$
CHEMBL4439_lig894 
                    3D
 Schrodinger Suite 2021-1.
 39 42  0  0  1  0            999 V2000
   17.6351   68.0570    4.9593 N   0  0  0  0  0  0
   16.3475   67.6817    5.1591 C   0  0  0  0  0  0
   15.4099   67.6570    4.1221 C   0  0  0  0  0  0
   15.7546   68.0570    2.8320 C   0  0  0  0  0  0
   17.9330   68.4717    3.7139 N   0  0  0  0  0  0
   17.0677   68.4900    2.6087 C   0  0  0  0  0  0
   17.6845   68.9569    1.4958 N   0  0  0  0  0  0
   18.8954   69.2570    1.9134 C   0  0  0  0  0  0
   19.1149   69.0104    3.2693 C   0  0  0  0  0  0
   15.9264   67.3881    6.5779 C   0  0  0  0  0  0
   16.4478   67.9582    7.7405 N   0  0  0  0  0  0
   15.6846   67.4448    8.7551 C   0  0  0  0  0  0
   14.7524   66.6300    8.3550 N   0  0  0  0  0  0
   14.8921   66.5469    7.0435 C   0  0  0  0  0  0
   13.9540   65.6782    6.2623 C   0  0  0  0  0  0
   14.4235   64.9025    5.1960 C   0  0  0  0  0  0
   13.5480   64.1322    4.4320 C   0  0  0  0  0  0
   12.1922   64.0943    4.7495 C   0  0  0  0  0  0
   11.7170   64.8569    5.8102 C   0  0  0  0  0  0
   12.5856   65.6498    6.5611 C   0  0  0  0  0  0
   17.4804   68.9897    7.9351 C   0  0  0  0  0  0
   18.6686   68.5091    8.7898 C   0  0  0  0  0  0
   11.3328   63.3344    4.0320 F   0  0  0  0  0  0
   20.2912   69.2570    4.0865 C   0  0  0  0  0  0
   21.2200   69.4631    4.7404 N   0  0  0  0  0  0
   18.3180   68.4570   10.1563 O   0  0  0  0  0  0
   14.1499   63.2570    3.0810 Cl  0  0  0  0  0  0
   14.3937   67.3681    4.3211 H   0  0  0  0  0  0
   15.0257   68.0593    2.0337 H   0  0  0  0  0  0
   19.6324   69.6570    1.2320 H   0  0  0  0  0  0
   15.8670   67.7526    9.7745 H   0  0  0  0  0  0
   15.4699   64.9169    4.9376 H   0  0  0  0  0  0
   10.6670   64.8351    6.0320 H   0  0  0  0  0  0
   12.1866   66.2441    7.3700 H   0  0  0  0  0  0
   17.8846   69.2570    6.9706 H   0  0  0  0  0  0
   17.0341   69.9066    8.3213 H   0  0  0  0  0  0
   18.9732   67.5080    8.4790 H   0  0  0  0  0  0
   19.5405   69.1479    8.6401 H   0  0  0  0  0  0
   18.2670   69.3721   10.4706 H   0  0  0  0  0  0
  1  5  1  0  0  0
  1  2  2  0  0  0
  2  3  1  0  0  0
  2 10  1  0  0  0
  3  4  2  0  0  0
  3 28  1  0  0  0
  4  6  1  0  0  0
  4 29  1  0  0  0
  5  6  1  0  0  0
  5  9  1  0  0  0
  6  7  2  0  0  0
  7  8  1  0  0  0
  8  9  2  0  0  0
  8 30  1  0  0  0
  9 24  1  0  0  0
 10 11  1  0  0  0
 10 14  2  0  0  0
 11 12  1  0  0  0
 11 21  1  0  0  0
 12 13  2  0  0  0
 12 31  1  0  0  0
 13 14  1  0  0  0
 14 15  1  0  0  0
 15 16  2  0  0  0
 15 20  1  0  0  0
 16 17  1  0  0  0
 16 32  1  0  0  0
 17 18  2  0  0  0
 17 27  1  0  0  0
 18 19  1  0  0  0
 18 23  1  0  0  0
 19 20  2  0  0  0
 19 33  1  0  0  0
 20 34  1  0  0  0
 21 22  1  0  0  0
 21 35  1  0  0  0
 21 36  1  0  0  0
 22 26  1  0  0  0
 22 37  1  0  0  0
 22 38  1  0  0  0
 24 25  3  0  0  0
 26 39  1  0  0  0
M  END
> <s_m_entry_id>
34277

> <s_m_entry_name>
dock_pv.20

> <s_m_Source_Path>
/home/csk/Desktop/cluster/DUD-E-result/tgfr1

> <s_m_Source_File>
dock_pv.maegz

> <i_m_Source_File_Index>
20

> <chembl_id>
CHEMBL4514379

> <chembl_pref_name>
None

> <i_lp_mmshare_version>
53161

> <r_lp_tautomer_probability>
1

> <s_lp_Force_Field>
OPLS_2005

> <r_lp_Energy>
21.354071

> <b_lp_Chiralities_Consistent>
1

> <s_lp_Variant>
CHEMBL4439_lig894 -1

> <s_i_glide_gridfile>
glide-grid_3hmm

> <i_i_glide_lignum>
1229

> <i_i_glide_rotatable_bonds>
5

> <r_i_docking_score>
-10.4455834187291

> <r_i_glide_ligand_efficiency>
-0.386873459952928

> <r_i_glide_ligand_efficiency_sa>
-1.16062037858371

> <r_i_glide_ligand_efficiency_ln>
-2.43155961097861

> <r_i_glide_gscore>
-10.4455834187291

> <r_i_glide_lipo>
-3.39618762111718

> <r_i_glide_hbond>
-0.418893627611988

> <r_i_glide_metal>
0

> <r_i_glide_rewards>
-3.87423693409091

> <r_i_glide_evdw>
-51.0672340393066

> <r_i_glide_ecoul>
-4.88809537887573

> <r_i_glide_erotb>
0.530310772887698

> <r_i_glide_esite>
0

> <r_i_glide_emodel>
-88.546020315698

> <r_i_glide_energy>
-55.9553294181824

> <r_i_glide_einternal>
4.26304388046265

> <i_i_glide_confnum>
30

> <i_i_glide_posenum>
144

> <r_i_glide_eff_state_penalty>
0

> <s_user_duplicate_titles>
CHEMBL4439_lig894 

> <i_f3d_flags>
0

> <s_m_subgroup_title>
dock_pv

> <s_m_subgroupid>
dock_pv

> <b_m_subgroup_collapsed>
1

$$$$
CHEMBL4439_lig934 
                    3D
 Schrodinger Suite 2021-1.
 41 45  0  0  1  0            999 V2000
   16.0072   66.6416    5.5262 C   0  0  0  0  0  0
   14.9764   66.0963    6.2968 C   0  0  0  0  0  0
   14.8570   66.3401    7.6324 N   0  0  0  0  0  0
   16.9215   67.5617    6.0597 C   0  0  0  0  0  0
   16.7943   67.8516    7.4390 C   0  0  0  0  0  0
   15.7600   67.1777    8.1527 C   0  0  0  0  0  0
   15.8670   67.5429    9.4776 N   0  0  0  0  0  0
   16.8796   68.4551    9.6262 C   0  0  0  0  0  0
   17.4576   68.6944    8.3969 C   0  0  0  0  0  0
   17.9047   68.1213    5.2059 N   0  0  0  0  0  0
   13.9237   65.2458    5.6473 C   0  0  0  0  0  0
   14.2679   64.4246    4.5613 C   0  0  0  0  0  0
   13.3195   63.6435    3.9077 C   0  0  0  0  0  0
   11.9915   63.6829    4.3127 C   0  0  0  0  0  0
   11.6197   64.4826    5.3889 C   0  0  0  0  0  0
   12.5722   65.2621    6.0473 C   0  0  0  0  0  0
   12.1588   66.0571    7.0603 F   0  0  0  0  0  0
   19.2175   68.3394    5.5244 C   0  0  0  0  0  0
   19.7782   68.8587    4.4038 N   0  0  0  0  0  0
   17.6716   68.4926    3.8821 C   0  0  0  0  0  0
   18.8589   68.9516    3.3889 C   0  0  0  0  0  0
   18.9508   69.3624    2.0583 C   0  0  0  0  0  0
   17.8750   69.3172    1.2313 N   0  0  0  0  0  0
   16.6918   68.8791    1.7334 C   0  0  0  0  0  0
   16.5401   68.4564    3.0554 C   0  0  0  0  0  0
   19.7916   68.0922    6.5877 O   0  0  0  0  0  0
   11.0654   62.9768    3.6322 F   0  0  0  0  0  0
   21.1818   69.2565    4.3439 C   0  0  0  0  0  0
   16.0821   66.3628    4.4874 H   0  0  0  0  0  0
   15.2947   67.2351   10.2505 H   0  0  0  0  0  0
   17.0991   68.8713   10.5994 H   0  0  0  0  0  0
   18.2831   69.3710    8.2288 H   0  0  0  0  0  0
   15.2892   64.3614    4.2134 H   0  0  0  0  0  0
   13.6037   63.0262    3.0673 H   0  0  0  0  0  0
   10.5872   64.5167    5.6998 H   0  0  0  0  0  0
   19.8739   69.7224    1.6254 H   0  0  0  0  0  0
   15.8528   68.8730    1.0520 H   0  0  0  0  0  0
   15.5654   68.1413    3.3949 H   0  0  0  0  0  0
   21.6045   69.4273    5.3362 H   0  0  0  0  0  0
   21.7685   68.4739    3.8616 H   0  0  0  0  0  0
   21.2998   70.1757    3.7692 H   0  0  0  0  0  0
  1  2  2  0  0  0
  1  4  1  0  0  0
  1 29  1  0  0  0
  2  3  1  0  0  0
  2 11  1  0  0  0
  3  6  2  0  0  0
  4  5  2  0  0  0
  4 10  1  0  0  0
  5  6  1  0  0  0
  5  9  1  0  0  0
  6  7  1  0  0  0
  7  8  1  0  0  0
  7 30  1  0  0  0
  8  9  2  0  0  0
  8 31  1  0  0  0
  9 32  1  0  0  0
 10 18  1  0  0  0
 10 20  1  0  0  0
 11 12  2  0  0  0
 11 16  1  0  0  0
 12 13  1  0  0  0
 12 33  1  0  0  0
 13 14  2  0  0  0
 13 34  1  0  0  0
 14 15  1  0  0  0
 14 27  1  0  0  0
 15 16  2  0  0  0
 15 35  1  0  0  0
 16 17  1  0  0  0
 18 19  1  0  0  0
 18 26  2  0  0  0
 19 21  1  0  0  0
 19 28  1  0  0  0
 20 21  2  0  0  0
 20 25  1  0  0  0
 21 22  1  0  0  0
 22 23  2  0  0  0
 22 36  1  0  0  0
 23 24  1  0  0  0
 24 25  2  0  0  0
 24 37  1  0  0  0
 25 38  1  0  0  0
 28 39  1  0  0  0
 28 40  1  0  0  0
 28 41  1  0  0  0
M  END
> <s_m_entry_id>
34278

> <s_m_entry_name>
dock_pv.21

> <s_m_Source_Path>
/home/csk/Desktop/cluster/DUD-E-result/tgfr1

> <s_m_Source_File>
dock_pv.maegz

> <i_m_Source_File_Index>
21

> <chembl_id>
CHEMBL4513488

> <chembl_pref_name>
None

> <i_lp_mmshare_version>
53161

> <r_lp_tautomer_probability>
1

> <s_lp_Force_Field>
OPLS_2005

> <r_lp_Energy>
60.495049

> <b_lp_Chiralities_Consistent>
1

> <s_lp_Variant>
CHEMBL4439_lig934 -1

> <s_i_glide_gridfile>
glide-grid_3hmm

> <i_i_glide_lignum>
1269

> <i_i_glide_rotatable_bonds>
2

> <r_i_docking_score>
-10.3989981787009

> <r_i_glide_ligand_efficiency>
-0.37139279209646

> <r_i_glide_ligand_efficiency_sa>
-1.12776725546157

> <r_i_glide_ligand_efficiency_ln>
-2.40039410749801

> <r_i_glide_gscore>
-10.3989981787009

> <r_i_glide_lipo>
-3.92401474748514

> <r_i_glide_hbond>
-0.326510971382123

> <r_i_glide_metal>
0

> <r_i_glide_rewards>
-3.43596254114135

> <r_i_glide_evdw>
-52.2885551452637

> <r_i_glide_ecoul>
-2.46743249893188

> <r_i_glide_erotb>
0.272032713410711

> <r_i_glide_esite>
0

> <r_i_glide_emodel>
-88.1124070234161

> <r_i_glide_energy>
-54.7559876441956

> <r_i_glide_einternal>
3.14561772346497

> <i_i_glide_confnum>
10

> <i_i_glide_posenum>
55

> <r_i_glide_eff_state_penalty>
0

> <s_user_duplicate_titles>
CHEMBL4439_lig934 

> <i_f3d_flags>
0

> <s_m_subgroup_title>
dock_pv

> <s_m_subgroupid>
dock_pv

> <b_m_subgroup_collapsed>
1

$$$$
CHEMBL4439_lig94
                    3D
 Schrodinger Suite 2021-1.
 63 68  0  0  1  0            999 V2000
   14.6006   66.4569    8.3140 N   0  0  0  0  0  0
   15.8203   67.2625    6.5733 C   0  0  0  0  0  0
   14.7045   66.4797    6.9965 C   0  0  0  0  0  0
   16.4188   67.6317    7.7755 C   0  0  0  0  0  0
   15.6561   67.1181    8.7731 N   0  0  0  0  0  0
   16.2211   67.2822   10.0974 C   0  0  0  0  0  0
   17.1840   68.4478    9.8573 C   0  0  0  0  0  0
   17.5781   68.3805    8.3809 C   0  0  0  0  0  0
   16.3113   67.6485    5.2088 C   0  0  0  0  0  0
   17.6456   68.0568    5.0874 C   0  0  0  0  0  0
   15.8992   68.0814    2.8344 C   0  0  0  0  0  0
   15.4671   67.6563    4.0911 C   0  0  0  0  0  0
   13.7220   65.6833    6.1923 C   0  0  0  0  0  0
   14.2425   64.9488    5.1714 N   0  0  0  0  0  0
   13.3995   64.1763    4.4366 C   0  0  0  0  0  0
   12.0304   64.0905    4.6949 C   0  0  0  0  0  0
   11.5052   64.8462    5.7405 C   0  0  0  0  0  0
   12.3548   65.6548    6.5015 C   0  0  0  0  0  0
   17.8601   69.0256    1.6144 N   0  0  0  0  0  0
   17.2192   68.5301    2.7144 C   0  0  0  0  0  0
   18.0790   68.4999    3.8405 C   0  0  0  0  0  0
   19.2937   68.9618    3.3738 N   0  0  0  0  0  0
   19.0726   69.2651    2.0439 C   0  0  0  0  0  0
   14.0115   63.4300    3.2707 C   0  0  0  0  0  0
   20.5755   69.0119    4.0933 C   0  0  0  0  0  0
   20.5467   69.9111    5.3538 C   0  0  0  0  0  0
   21.8672   69.8678    6.1776 C   0  0  0  0  0  0
   21.8245   70.4038    7.5518 N   0  0  0  0  0  0
   20.8091   69.7823    8.4181 C   0  0  0  0  0  0
   20.9257   70.2301    9.8957 C   0  0  0  0  0  0
   22.2379   70.0216   10.3965 O   0  0  0  0  0  0
   23.1941   70.7536    9.6409 C   0  0  0  0  0  0
   23.1596   70.2843    8.1734 C   0  0  0  0  0  0
   15.4673   67.5059   10.8517 H   0  0  0  0  0  0
   16.7527   66.3761   10.3905 H   0  0  0  0  0  0
   16.6675   69.3894   10.0348 H   0  0  0  0  0  0
   18.0458   68.4261   10.5258 H   0  0  0  0  0  0
   18.5202   67.8486    8.2441 H   0  0  0  0  0  0
   17.6899   69.3804    7.9608 H   0  0  0  0  0  0
   18.3246   68.0161    5.9208 H   0  0  0  0  0  0
   15.2243   68.0943    1.9911 H   0  0  0  0  0  0
   14.4351   67.3619    4.1943 H   0  0  0  0  0  0
   11.3868   63.4739    4.0835 H   0  0  0  0  0  0
   10.4505   64.8056    5.9592 H   0  0  0  0  0  0
   11.9545   66.2331    7.3205 H   0  0  0  0  0  0
   19.8817   69.6553    1.4410 H   0  0  0  0  0  0
   13.5335   62.4603    3.1307 H   0  0  0  0  0  0
   13.8742   64.0133    2.3622 H   0  0  0  0  0  0
   15.0795   63.2665    3.4133 H   0  0  0  0  0  0
   21.3597   69.3389    3.4088 H   0  0  0  0  0  0
   20.8278   67.9875    4.3730 H   0  0  0  0  0  0
   19.6675   69.7481    5.9685 H   0  0  0  0  0  0
   20.4261   70.9121    4.9620 H   0  0  0  0  0  0
   22.6091   70.4514    5.6284 H   0  0  0  0  0  0
   22.2657   68.8569    6.1882 H   0  0  0  0  0  0
   20.9061   68.6959    8.3665 H   0  0  0  0  0  0
   19.8147   70.0265    8.0544 H   0  0  0  0  0  0
   20.6660   71.2826   10.0043 H   0  0  0  0  0  0
   20.2330   69.6636   10.5152 H   0  0  0  0  0  0
   23.0137   71.8287    9.7081 H   0  0  0  0  0  0
   24.1844   70.5792   10.0611 H   0  0  0  0  0  0
   23.9028   70.8557    7.6322 H   0  0  0  0  0  0
   23.4934   69.2465    8.1247 H   0  0  0  0  0  0
  1  5  1  0  0  0
  1  3  2  0  0  0
  2  9  1  0  0  0
  2  4  2  0  0  0
  2  3  1  0  0  0
  3 13  1  0  0  0
  4  5  1  0  0  0
  4  8  1  0  0  0
  5  6  1  0  0  0
  6  7  1  0  0  0
  6 34  1  0  0  0
  6 35  1  0  0  0
  7  8  1  0  0  0
  7 36  1  0  0  0
  7 37  1  0  0  0
  8 38  1  0  0  0
  8 39  1  0  0  0
  9 10  2  0  0  0
  9 12  1  0  0  0
 10 21  1  0  0  0
 10 40  1  0  0  0
 11 20  1  0  0  0
 11 12  2  0  0  0
 11 41  1  0  0  0
 12 42  1  0  0  0
 13 14  2  0  0  0
 13 18  1  0  0  0
 14 15  1  0  0  0
 15 16  2  0  0  0
 15 24  1  0  0  0
 16 17  1  0  0  0
 16 43  1  0  0  0
 17 18  2  0  0  0
 17 44  1  0  0  0
 18 45  1  0  0  0
 19 20  1  0  0  0
 19 23  2  0  0  0
 20 21  2  0  0  0
 21 22  1  0  0  0
 22 23  1  0  0  0
 22 25  1  0  0  0
 23 46  1  0  0  0
 24 47  1  0  0  0
 24 48  1  0  0  0
 24 49  1  0  0  0
 25 26  1  0  0  0
 25 50  1  0  0  0
 25 51  1  0  0  0
 26 27  1  0  0  0
 26 52  1  0  0  0
 26 53  1  0  0  0
 27 28  1  0  0  0
 27 54  1  0  0  0
 27 55  1  0  0  0
 28 29  1  0  0  0
 28 33  1  0  0  0
 29 30  1  0  0  0
 29 56  1  0  0  0
 29 57  1  0  0  0
 30 31  1  0  0  0
 30 58  1  0  0  0
 30 59  1  0  0  0
 31 32  1  0  0  0
 32 33  1  0  0  0
 32 60  1  0  0  0
 32 61  1  0  0  0
 33 62  1  0  0  0
 33 63  1  0  0  0
M  END
> <s_m_entry_id>
34279

> <s_m_entry_name>
dock_pv.22

> <s_m_Source_Path>
/home/csk/Desktop/cluster/DUD-E-result/tgfr1

> <s_m_Source_File>
dock_pv.maegz

> <i_m_Source_File_Index>
22

> <chembl_id>
CHEMBL381532

> <chembl_pref_name>
None

> <i_lp_mmshare_version>
53161

> <r_lp_tautomer_probability>
1

> <s_lp_Force_Field>
OPLS_2005

> <r_lp_Energy>
58.503411

> <b_lp_Chiralities_Consistent>
1

> <s_lp_Variant>
CHEMBL4439_lig94-1

> <s_i_glide_gridfile>
glide-grid_3hmm

> <i_i_glide_lignum>
133

> <i_i_glide_rotatable_bonds>
6

> <r_i_docking_score>
-10.3282239947977

> <r_i_glide_ligand_efficiency>
-0.31297648469084

> <r_i_glide_ligand_efficiency_sa>
-1.00388281795725

> <r_i_glide_ligand_efficiency_ln>
-2.29694353976118

> <r_i_glide_gscore>
-10.3282239947977

> <r_i_glide_lipo>
-4.63379152520159

> <r_i_glide_hbond>
-0.16

> <r_i_glide_metal>
0

> <r_i_glide_rewards>
-2.23967879957782

> <r_i_glide_evdw>
-56.0656700134277

> <r_i_glide_ecoul>
-6.67766666412354

> <r_i_glide_erotb>
0.510179830271606

> <r_i_glide_esite>
0

> <r_i_glide_emodel>
-97.6526865231294

> <r_i_glide_energy>
-62.7433366775513

> <r_i_glide_einternal>
7.89725542068481

> <i_i_glide_confnum>
49

> <i_i_glide_posenum>
236

> <r_i_glide_eff_state_penalty>
0

> <s_user_duplicate_titles>
CHEMBL4439_lig94,341460

> <i_f3d_flags>
0

> <s_m_subgroup_title>
dock_pv

> <s_m_subgroupid>
dock_pv

> <b_m_subgroup_collapsed>
1

$$$$
CHEMBL4439_lig866
                    3D
 Schrodinger Suite 2021-1.
 50 53  0  0  1  0            999 V2000
   19.0410   66.8515    9.5541 C   0  0  0  0  0  0
   17.7127   67.6255    9.3757 C   0  0  0  0  0  0
   17.6238   68.6239   10.5364 C   0  0  0  0  0  0
   17.7320   68.0570    4.2203 C   0  0  0  0  0  0
   17.9353   68.6272    2.9676 C   0  0  0  0  0  0
   16.8675   68.7244    2.0848 C   0  0  0  0  0  0
   15.6056   68.2585    2.4322 C   0  0  0  0  0  0
   15.4160   67.6578    3.6691 C   0  0  0  0  0  0
   16.4693   67.5771    4.5839 C   0  0  0  0  0  0
   16.2117   66.9703    5.9244 C   0  0  0  0  0  0
   15.2882   65.6571    7.5118 N   0  0  0  0  0  0
   15.2948   65.9211    6.2259 C   0  0  0  0  0  0
   16.1619   66.4733    8.0673 N   0  0  0  0  0  0
   16.7294   67.3343    7.1815 C   0  0  0  0  0  0
   17.5648   68.3242    7.9846 C   0  0  2  0  0  0
   16.5023   66.6732    9.4520 C   0  0  0  0  0  0
   14.3537   65.1218    5.3454 C   0  0  0  0  0  0
   12.9707   64.9705    5.6019 C   0  0  0  0  0  0
   12.1833   64.0906    4.8291 C   0  0  0  0  0  0
   12.7731   63.4118    3.7640 C   0  0  0  0  0  0
   14.1019   63.6477    3.4378 C   0  0  0  0  0  0
   14.8844   64.4812    4.2253 C   0  0  0  0  0  0
   18.8677   68.8128    7.3243 C   0  0  0  0  0  0
   12.3470   65.7921    6.6250 C   0  0  0  0  0  0
   11.8672   66.4570    7.4301 N   0  0  0  0  0  0
   17.0442   69.2569    0.8467 O   0  0  0  0  0  0
   10.6908   63.8786    5.0804 C   0  0  0  0  0  0
   19.1880   66.0569    8.8321 H   0  0  0  0  0  0
   19.9100   67.5076    9.4930 H   0  0  0  0  0  0
   19.0673   66.3989   10.5420 H   0  0  0  0  0  0
   16.7463   69.2567   10.4316 H   0  0  0  0  0  0
   17.5521   68.1234   11.5032 H   0  0  0  0  0  0
   18.5104   69.2570   10.5650 H   0  0  0  0  0  0
   18.5722   67.9547    4.8845 H   0  0  0  0  0  0
   18.9140   68.9823    2.6807 H   0  0  0  0  0  0
   14.7764   68.3338    1.7444 H   0  0  0  0  0  0
   14.4286   67.3077    3.9238 H   0  0  0  0  0  0
   16.9420   69.2130    8.1080 H   0  0  0  0  0  0
   15.6499   67.1219    9.9644 H   0  0  0  0  0  0
   16.7285   65.7281    9.9470 H   0  0  0  0  0  0
   12.1908   62.7481    3.1414 H   0  0  0  0  0  0
   14.5277   63.1655    2.5736 H   0  0  0  0  0  0
   15.9101   64.6314    3.9512 H   0  0  0  0  0  0
   18.6666   69.4658    6.4755 H   0  0  0  0  0  0
   19.4602   69.3986    8.0278 H   0  0  0  0  0  0
   19.4884   67.9818    6.9873 H   0  0  0  0  0  0
   16.1849   69.3279    0.4205 H   0  0  0  0  0  0
   10.2245   63.2571    4.3157 H   0  0  0  0  0  0
   10.5305   63.4152    6.0547 H   0  0  0  0  0  0
   10.1659   64.8347    5.0802 H   0  0  0  0  0  0
  1  2  1  0  0  0
  1 28  1  0  0  0
  1 29  1  0  0  0
  1 30  1  0  0  0
  2  3  1  0  0  0
  2 15  1  0  0  0
  2 16  1  0  0  0
  3 31  1  0  0  0
  3 32  1  0  0  0
  3 33  1  0  0  0
  4  5  2  0  0  0
  4  9  1  0  0  0
  4 34  1  0  0  0
  5  6  1  0  0  0
  5 35  1  0  0  0
  6  7  2  0  0  0
  6 26  1  0  0  0
  7  8  1  0  0  0
  7 36  1  0  0  0
  8  9  2  0  0  0
  8 37  1  0  0  0
  9 10  1  0  0  0
 10 14  2  0  0  0
 10 12  1  0  0  0
 11 13  1  0  0  0
 11 12  2  0  0  0
 12 17  1  0  0  0
 13 14  1  0  0  0
 13 16  1  0  0  0
 14 15  1  0  0  0
 15 23  1  0  0  0
 15 38  1  0  0  0
 16 39  1  0  0  0
 16 40  1  0  0  0
 17 18  2  0  0  0
 17 22  1  0  0  0
 18 19  1  0  0  0
 18 24  1  0  0  0
 19 20  2  0  0  0
 19 27  1  0  0  0
 20 21  1  0  0  0
 20 41  1  0  0  0
 21 22  2  0  0  0
 21 42  1  0  0  0
 22 43  1  0  0  0
 23 44  1  0  0  0
 23 45  1  0  0  0
 23 46  1  0  0  0
 24 25  3  0  0  0
 26 47  1  0  0  0
 27 48  1  0  0  0
 27 49  1  0  0  0
 27 50  1  0  0  0
M  END
> <s_m_entry_id>
34280

> <s_m_entry_name>
dock_pv.23

> <s_m_Source_Path>
/home/csk/Desktop/cluster/DUD-E-result/tgfr1

> <s_m_Source_File>
dock_pv.maegz

> <i_m_Source_File_Index>
23

> <chembl_id>
CHEMBL4278812

> <chembl_pref_name>
None

> <i_lp_mmshare_version>
53161

> <r_lp_tautomer_probability>
0.999999999997365

> <s_lp_Force_Field>
OPLS_2005

> <r_lp_Energy>
43.761237

> <b_lp_Chiralities_Consistent>
1

> <s_lp_Variant>
CHEMBL4439_lig866-2

> <s_i_glide_gridfile>
glide-grid_3hmm

> <i_i_glide_lignum>
1199

> <i_i_glide_rotatable_bonds>
3

> <r_i_docking_score>
-10.3047079699819

> <r_i_glide_ligand_efficiency>
-0.381655850740069

> <r_i_glide_ligand_efficiency_sa>
-1.14496755096233

> <r_i_glide_ligand_efficiency_ln>
-2.39876612902355

> <r_i_glide_gscore>
-10.3047079699819

> <r_i_glide_lipo>
-5.02173825454093

> <r_i_glide_hbond>
-0.588623195958119

> <r_i_glide_metal>
0

> <r_i_glide_rewards>
-2.49138433889553

> <r_i_glide_evdw>
-36.7680358886719

> <r_i_glide_ecoul>
-4.42819213867188

> <r_i_glide_erotb>
0.299668434647092

> <r_i_glide_esite>
0

> <r_i_glide_emodel>
-58.56196256023

> <r_i_glide_energy>
-41.1962280273438

> <r_i_glide_einternal>
1.05299496650696

> <i_i_glide_confnum>
11

> <i_i_glide_posenum>
385

> <r_i_glide_eff_state_penalty>
0

> <s_user_duplicate_titles>
CHEMBL4439_lig866

> <i_f3d_flags>
0

> <s_m_subgroup_title>
dock_pv

> <s_m_subgroupid>
dock_pv

> <b_m_subgroup_collapsed>
1

$$$$
CHEMBL4439_lig891 
                    3D
 Schrodinger Suite 2021-1.
 41 44  0  0  1  0            999 V2000
   17.6432   68.1114    5.1015 N   0  0  0  0  0  0
   16.3693   67.6584    5.1914 C   0  0  0  0  0  0
   15.5102   67.6212    4.0847 C   0  0  0  0  0  0
   15.9445   68.0573    2.8316 C   0  0  0  0  0  0
   18.0146   68.5877    3.9012 N   0  0  0  0  0  0
   17.2412   68.5835    2.7294 C   0  0  0  0  0  0
   17.9081   69.1384    1.6876 N   0  0  0  0  0  0
   19.0509   69.5269    2.2152 C   0  0  0  0  0  0
   19.1929   69.2187    3.5749 C   0  0  0  0  0  0
   15.9016   67.2913    6.5776 C   0  0  0  0  0  0
   16.4339   67.7532    7.7814 N   0  0  0  0  0  0
   15.6533   67.1947    8.7569 C   0  0  0  0  0  0
   14.6869   66.4575    8.2934 N   0  0  0  0  0  0
   14.8370   66.4576    6.9799 C   0  0  0  0  0  0
   13.9057   65.6301    6.1509 C   0  0  0  0  0  0
   14.4124   64.8570    5.1010 C   0  0  0  0  0  0
   13.5616   64.0586    4.3408 C   0  0  0  0  0  0
   12.2001   64.0331    4.6277 C   0  0  0  0  0  0
   11.6840   64.7997    5.6686 C   0  0  0  0  0  0
   12.5342   65.5962    6.4316 C   0  0  0  0  0  0
   17.5422   68.6741    8.0610 C   0  0  0  0  0  0
   18.8512   67.9405    8.4037 C   0  0  0  0  0  0
   18.7306   67.1209    9.4488 F   0  0  0  0  0  0
   19.3731   67.2582    7.3858 F   0  0  0  0  0  0
   11.3725   63.2572    3.8929 F   0  0  0  0  0  0
   20.2515   69.5451    4.4808 C   0  0  0  0  0  0
   20.0422   70.0555    5.5776 O   0  0  0  0  0  0
   21.4664   69.2567    4.0296 N   0  0  0  0  0  0
   14.4868   67.2997    4.1921 H   0  0  0  0  0  0
   15.2797   68.0565    1.9787 H   0  0  0  0  0  0
   19.7814   70.0550    1.6163 H   0  0  0  0  0  0
   15.8542   67.4089    9.7972 H   0  0  0  0  0  0
   15.4692   64.8635    4.8787 H   0  0  0  0  0  0
   13.9519   63.4631    3.5279 H   0  0  0  0  0  0
   10.6280   64.7716    5.8872 H   0  0  0  0  0  0
   12.1217   66.1815    7.2412 H   0  0  0  0  0  0
   17.6904   69.3589    7.2332 H   0  0  0  0  0  0
   17.2513   69.3024    8.9042 H   0  0  0  0  0  0
   19.6121   68.6700    8.6820 H   0  0  0  0  0  0
   22.2660   69.4084    4.6282 H   0  0  0  0  0  0
   21.5869   68.8001    3.1405 H   0  0  0  0  0  0
  1  5  1  0  0  0
  1  2  2  0  0  0
  2  3  1  0  0  0
  2 10  1  0  0  0
  3  4  2  0  0  0
  3 29  1  0  0  0
  4  6  1  0  0  0
  4 30  1  0  0  0
  5  6  1  0  0  0
  5  9  1  0  0  0
  6  7  2  0  0  0
  7  8  1  0  0  0
  8  9  2  0  0  0
  8 31  1  0  0  0
  9 26  1  0  0  0
 10 11  1  0  0  0
 10 14  2  0  0  0
 11 12  1  0  0  0
 11 21  1  0  0  0
 12 13  2  0  0  0
 12 32  1  0  0  0
 13 14  1  0  0  0
 14 15  1  0  0  0
 15 16  2  0  0  0
 15 20  1  0  0  0
 16 17  1  0  0  0
 16 33  1  0  0  0
 17 18  2  0  0  0
 17 34  1  0  0  0
 18 19  1  0  0  0
 18 25  1  0  0  0
 19 20  2  0  0  0
 19 35  1  0  0  0
 20 36  1  0  0  0
 21 22  1  0  0  0
 21 37  1  0  0  0
 21 38  1  0  0  0
 22 23  1  0  0  0
 22 24  1  0  0  0
 22 39  1  0  0  0
 26 27  2  0  0  0
 26 28  1  0  0  0
 28 40  1  0  0  0
 28 41  1  0  0  0
M  END
> <s_m_entry_id>
34281

> <s_m_entry_name>
dock_pv.24

> <s_m_Source_Path>
/home/csk/Desktop/cluster/DUD-E-result/tgfr1

> <s_m_Source_File>
dock_pv.maegz

> <i_m_Source_File_Index>
24

> <chembl_id>
CHEMBL4440988

> <chembl_pref_name>
None

> <i_lp_mmshare_version>
53161

> <r_lp_tautomer_probability>
1

> <s_lp_Force_Field>
OPLS_2005

> <r_lp_Energy>
22.500372

> <b_lp_Chiralities_Consistent>
1

> <s_lp_Variant>
CHEMBL4439_lig891 -1

> <s_i_glide_gridfile>
glide-grid_3hmm

> <i_i_glide_lignum>
1226

> <i_i_glide_rotatable_bonds>
5

> <r_i_docking_score>
-10.2735987909999

> <r_i_glide_ligand_efficiency>
-0.366914242535712

> <r_i_glide_ligand_efficiency_sa>
-1.11416774127051

> <r_i_glide_ligand_efficiency_ln>
-2.37144824693063

> <r_i_glide_gscore>
-10.2735987909999

> <r_i_glide_lipo>
-3.35413468981632

> <r_i_glide_hbond>
-0.157952873034884

> <r_i_glide_metal>
0

> <r_i_glide_rewards>
-3.85001843863636

> <r_i_glide_evdw>
-50.9478912353516

> <r_i_glide_ecoul>
-5.03530788421631

> <r_i_glide_erotb>
0.39119795488765

> <r_i_glide_esite>
0

> <r_i_glide_emodel>
-89.567334183812

> <r_i_glide_energy>
-55.9831991195679

> <r_i_glide_einternal>
2.46591472625732

> <i_i_glide_confnum>
11

> <i_i_glide_posenum>
282

> <r_i_glide_eff_state_penalty>
0

> <s_user_duplicate_titles>
CHEMBL4439_lig891 

> <i_f3d_flags>
0

> <s_m_subgroup_title>
dock_pv

> <s_m_subgroupid>
dock_pv

> <b_m_subgroup_collapsed>
1

$$$$
CHEMBL4439_lig96
                    3D
 Schrodinger Suite 2021-1.
 58 62  0  0  1  0            999 V2000
   14.5384   66.4570    8.3066 N   0  0  0  0  0  0
   15.7713   67.2783    6.5809 C   0  0  0  0  0  0
   14.6520   66.4964    6.9919 C   0  0  0  0  0  0
   13.6957   65.6866    6.1761 C   0  0  0  0  0  0
   12.3185   65.6465    6.4352 C   0  0  0  0  0  0
   11.5096   64.8178    5.6532 C   0  0  0  0  0  0
   12.0831   64.0558    4.6361 C   0  0  0  0  0  0
   13.4599   64.1571    4.4319 C   0  0  0  0  0  0
   14.2638   64.9451    5.1889 N   0  0  0  0  0  0
   16.3635   67.6302    7.7911 C   0  0  0  0  0  0
   15.6047   67.0894    8.7772 N   0  0  0  0  0  0
   16.1982   67.1728   10.0966 C   0  0  0  0  0  0
   17.1724   68.3343    9.9025 C   0  0  0  0  0  0
   17.5205   68.3627    8.4131 C   0  0  0  0  0  0
   16.2698   67.6566    5.2144 C   0  0  0  0  0  0
   19.2669   68.9074    3.3655 N   0  0  0  0  0  0
   19.0535   69.2576    2.0474 C   0  0  0  0  0  0
   17.8394   69.0220    1.6156 N   0  0  0  0  0  0
   17.1893   68.5155    2.7098 C   0  0  0  0  0  0
   15.8692   68.0631    2.8325 C   0  0  0  0  0  0
   15.4304   67.6550    4.0928 C   0  0  0  0  0  0
   17.6072   68.0518    5.0902 C   0  0  0  0  0  0
   18.0448   68.4774    3.8372 C   0  0  0  0  0  0
   20.5388   68.9087    4.0914 C   0  0  0  0  0  0
   20.5201   69.8643    5.3014 C   0  0  0  0  0  0
   21.7206   69.6708    6.2563 C   0  0  0  0  0  0
   21.6099   70.4528    7.4943 N   0  0  0  0  0  0
   20.5802   69.9352    8.3906 C   0  0  0  0  0  0
   22.8757   70.4301    8.2251 C   0  0  0  0  0  0
   14.1358   63.4310    3.2914 C   0  0  0  0  0  0
   11.8814   66.2322    7.2306 H   0  0  0  0  0  0
   10.4463   64.7681    5.8285 H   0  0  0  0  0  0
   11.4713   63.4274    4.0050 H   0  0  0  0  0  0
   16.7232   66.2458   10.3295 H   0  0  0  0  0  0
   15.4678   67.3674   10.8792 H   0  0  0  0  0  0
   18.0566   68.2557   10.5370 H   0  0  0  0  0  0
   16.6706   69.2615   10.1696 H   0  0  0  0  0  0
   17.5841   69.3877    8.0493 H   0  0  0  0  0  0
   18.4719   67.8682    8.2149 H   0  0  0  0  0  0
   19.8693   69.6449    1.4521 H   0  0  0  0  0  0
   15.1964   68.0733    1.9871 H   0  0  0  0  0  0
   14.3979   67.3617    4.1968 H   0  0  0  0  0  0
   18.2852   68.0165    5.9252 H   0  0  0  0  0  0
   21.3538   69.1558    3.4084 H   0  0  0  0  0  0
   20.7180   67.8841    4.4223 H   0  0  0  0  0  0
   19.5727   69.8460    5.8336 H   0  0  0  0  0  0
   20.5909   70.8573    4.8799 H   0  0  0  0  0  0
   22.6219   69.9838    5.7243 H   0  0  0  0  0  0
   21.8688   68.6098    6.4687 H   0  0  0  0  0  0
   20.5650   70.4835    9.3350 H   0  0  0  0  0  0
   19.5969   70.0575    7.9490 H   0  0  0  0  0  0
   20.7321   68.8775    8.6156 H   0  0  0  0  0  0
   22.8122   71.0320    9.1332 H   0  0  0  0  0  0
   23.1673   69.4166    8.5055 H   0  0  0  0  0  0
   23.6800   70.8562    7.6321 H   0  0  0  0  0  0
   13.6585   62.4713    3.0900 H   0  0  0  0  0  0
   14.0694   64.0461    2.3963 H   0  0  0  0  0  0
   15.1908   63.2584    3.5030 H   0  0  0  0  0  0
  1  3  2  0  0  0
  1 11  1  0  0  0
  2  3  1  0  0  0
  2 15  1  0  0  0
  2 10  2  0  0  0
  3  4  1  0  0  0
  4  9  1  0  0  0
  4  5  2  0  0  0
  5  6  1  0  0  0
  5 31  1  0  0  0
  6  7  2  0  0  0
  6 32  1  0  0  0
  7  8  1  0  0  0
  7 33  1  0  0  0
  8  9  2  0  0  0
  8 30  1  0  0  0
 10 14  1  0  0  0
 10 11  1  0  0  0
 11 12  1  0  0  0
 12 13  1  0  0  0
 12 34  1  0  0  0
 12 35  1  0  0  0
 13 14  1  0  0  0
 13 36  1  0  0  0
 13 37  1  0  0  0
 14 38  1  0  0  0
 14 39  1  0  0  0
 15 21  1  0  0  0
 15 22  2  0  0  0
 16 17  1  0  0  0
 16 23  1  0  0  0
 16 24  1  0  0  0
 17 18  2  0  0  0
 17 40  1  0  0  0
 18 19  1  0  0  0
 19 23  2  0  0  0
 19 20  1  0  0  0
 20 21  2  0  0  0
 20 41  1  0  0  0
 21 42  1  0  0  0
 22 23  1  0  0  0
 22 43  1  0  0  0
 24 25  1  0  0  0
 24 44  1  0  0  0
 24 45  1  0  0  0
 25 26  1  0  0  0
 25 46  1  0  0  0
 25 47  1  0  0  0
 26 27  1  0  0  0
 26 48  1  0  0  0
 26 49  1  0  0  0
 27 28  1  0  0  0
 27 29  1  0  0  0
 28 50  1  0  0  0
 28 51  1  0  0  0
 28 52  1  0  0  0
 29 53  1  0  0  0
 29 54  1  0  0  0
 29 55  1  0  0  0
 30 56  1  0  0  0
 30 57  1  0  0  0
 30 58  1  0  0  0
M  END
> <s_m_entry_id>
34282

> <s_m_entry_name>
dock_pv.25

> <s_m_Source_Path>
/home/csk/Desktop/cluster/DUD-E-result/tgfr1

> <s_m_Source_File>
dock_pv.maegz

> <i_m_Source_File_Index>
25

> <chembl_id>
CHEMBL441176

> <chembl_pref_name>
None

> <i_lp_mmshare_version>
53161

> <r_lp_tautomer_probability>
1

> <s_lp_Force_Field>
OPLS_2005

> <r_lp_Energy>
42.231319

> <b_lp_Chiralities_Consistent>
1

> <s_lp_Variant>
CHEMBL4439_lig96-1

> <s_i_glide_gridfile>
glide-grid_3hmm

> <i_i_glide_lignum>
135

> <i_i_glide_rotatable_bonds>
6

> <r_i_docking_score>
-10.2542335949817

> <r_i_glide_ligand_efficiency>
-0.341807786499389

> <r_i_glide_ligand_efficiency_sa>
-1.06207626379493

> <r_i_glide_ligand_efficiency_ln>
-2.32987360160363

> <r_i_glide_gscore>
-10.2542335949817

> <r_i_glide_lipo>
-4.68114906798451

> <r_i_glide_hbond>
-0.16

> <r_i_glide_metal>
0

> <r_i_glide_rewards>
-2.51764726834376

> <r_i_glide_evdw>
-52.941722869873

> <r_i_glide_ecoul>
-5.72948169708252

> <r_i_glide_erotb>
0.611071139402638

> <r_i_glide_esite>
0

> <r_i_glide_emodel>
-91.2333974317382

> <r_i_glide_energy>
-58.6712045669556

> <r_i_glide_einternal>
7.14806318283081

> <i_i_glide_confnum>
187

> <i_i_glide_posenum>
400

> <r_i_glide_eff_state_penalty>
0

> <s_user_duplicate_titles>
CHEMBL4439_lig96,341111

> <i_f3d_flags>
0

> <s_m_subgroup_title>
dock_pv

> <s_m_subgroupid>
dock_pv

> <b_m_subgroup_collapsed>
1

$$$$
CHEMBL4439_lig890 
                    3D
 Schrodinger Suite 2021-1.
 44 47  0  0  1  0            999 V2000
   17.6807   68.0603    5.1159 C   0  0  0  0  0  0
   16.3590   67.6570    5.2943 C   0  0  0  0  0  0
   15.5197   67.6487    4.1749 C   0  0  0  0  0  0
   15.9562   68.0575    2.9118 C   0  0  0  0  0  0
   18.0924   68.5656    3.9116 N   0  0  0  0  0  0
   17.2582   68.5672    2.7790 C   0  0  0  0  0  0
   17.8838   69.1185    1.7090 N   0  0  0  0  0  0
   19.0512   69.5048    2.1814 C   0  0  0  0  0  0
   19.2626   69.1789    3.5279 C   0  0  0  0  0  0
   15.8385   67.3068    6.6647 C   0  0  0  0  0  0
   16.2717   67.8698    7.8640 N   0  0  0  0  0  0
   15.5056   67.2836    8.8323 C   0  0  0  0  0  0
   14.6134   66.4619    8.3665 N   0  0  0  0  0  0
   14.7717   66.4644    7.0553 C   0  0  0  0  0  0
   13.8437   65.6221    6.2350 C   0  0  0  0  0  0
   14.4039   64.9465    5.1997 N   0  0  0  0  0  0
   13.6006   64.1677    4.4315 C   0  0  0  0  0  0
   12.2350   64.0104    4.6711 C   0  0  0  0  0  0
   11.6702   64.7008    5.7424 C   0  0  0  0  0  0
   12.4771   65.5214    6.5328 C   0  0  0  0  0  0
   14.2673   63.5083    3.2482 C   0  0  0  0  0  0
   17.2716   68.9063    8.1425 C   0  0  0  0  0  0
   18.5206   68.3474    8.8483 C   0  0  0  0  0  0
   18.2525   67.8086   10.0384 F   0  0  0  0  0  0
   19.1895   67.4545    8.1196 F   0  0  0  0  0  0
   20.3652   69.4943    4.3838 C   0  0  0  0  0  0
   20.2058   69.9513    5.5114 O   0  0  0  0  0  0
   21.5560   69.2572    3.8527 N   0  0  0  0  0  0
   18.4231   68.0618    5.8971 H   0  0  0  0  0  0
   14.4864   67.3519    4.2844 H   0  0  0  0  0  0
   15.2826   68.0564    2.0687 H   0  0  0  0  0  0
   19.7485   70.0437    1.5528 H   0  0  0  0  0  0
   15.6514   67.5505    9.8701 H   0  0  0  0  0  0
   11.6247   63.3916    4.0316 H   0  0  0  0  0  0
   10.6179   64.6073    5.9581 H   0  0  0  0  0  0
   12.0418   66.0590    7.3655 H   0  0  0  0  0  0
   13.7444   62.6032    2.9421 H   0  0  0  0  0  0
   14.2664   64.2041    2.4131 H   0  0  0  0  0  0
   15.3027   63.2572    3.4802 H   0  0  0  0  0  0
   17.5429   69.4292    7.2340 H   0  0  0  0  0  0
   16.8021   69.6569    8.7786 H   0  0  0  0  0  0
   19.2244   69.1574    9.0431 H   0  0  0  0  0  0
   22.3848   69.4047    4.4118 H   0  0  0  0  0  0
   21.6343   68.8481    2.9350 H   0  0  0  0  0  0
  1  5  1  0  0  0
  1  2  2  0  0  0
  1 29  1  0  0  0
  2  3  1  0  0  0
  2 10  1  0  0  0
  3  4  2  0  0  0
  3 30  1  0  0  0
  4  6  1  0  0  0
  4 31  1  0  0  0
  5  6  1  0  0  0
  5  9  1  0  0  0
  6  7  2  0  0  0
  7  8  1  0  0  0
  8  9  2  0  0  0
  8 32  1  0  0  0
  9 26  1  0  0  0
 10 11  1  0  0  0
 10 14  2  0  0  0
 11 12  1  0  0  0
 11 22  1  0  0  0
 12 13  2  0  0  0
 12 33  1  0  0  0
 13 14  1  0  0  0
 14 15  1  0  0  0
 15 16  2  0  0  0
 15 20  1  0  0  0
 16 17  1  0  0  0
 17 18  2  0  0  0
 17 21  1  0  0  0
 18 19  1  0  0  0
 18 34  1  0  0  0
 19 20  2  0  0  0
 19 35  1  0  0  0
 20 36  1  0  0  0
 21 37  1  0  0  0
 21 38  1  0  0  0
 21 39  1  0  0  0
 22 23  1  0  0  0
 22 40  1  0  0  0
 22 41  1  0  0  0
 23 24  1  0  0  0
 23 25  1  0  0  0
 23 42  1  0  0  0
 26 27  2  0  0  0
 26 28  1  0  0  0
 28 43  1  0  0  0
 28 44  1  0  0  0
M  END
> <s_m_entry_id>
34283

> <s_m_entry_name>
dock_pv.26

> <s_m_Source_Path>
/home/csk/Desktop/cluster/DUD-E-result/tgfr1

> <s_m_Source_File>
dock_pv.maegz

> <i_m_Source_File_Index>
26

> <chembl_id>
CHEMBL4455462

> <chembl_pref_name>
None

> <i_lp_mmshare_version>
53161

> <r_lp_tautomer_probability>
1

> <s_lp_Force_Field>
OPLS_2005

> <r_lp_Energy>
20.704492

> <b_lp_Chiralities_Consistent>
1

> <s_lp_Variant>
CHEMBL4439_lig890 -1

> <s_i_glide_gridfile>
glide-grid_3hmm

> <i_i_glide_lignum>
1225

> <i_i_glide_rotatable_bonds>
5

> <r_i_docking_score>
-10.2153766050016

> <r_i_glide_ligand_efficiency>
-0.364834878750055

> <r_i_glide_ligand_efficiency_sa>
-1.10785356813748

> <r_i_glide_ligand_efficiency_ln>
-2.35800885692454

> <r_i_glide_gscore>
-10.2153766050016

> <r_i_glide_lipo>
-3.36672014144691

> <r_i_glide_hbond>
-0.16

> <r_i_glide_metal>
0

> <r_i_glide_rewards>
-3.7353782469697

> <r_i_glide_evdw>
-50.2243118286133

> <r_i_glide_ecoul>
-5.60376024246216

> <r_i_glide_erotb>
0.398501411215045

> <r_i_glide_esite>
0

> <r_i_glide_emodel>
-86.0763162631828

> <r_i_glide_energy>
-55.8280720710754

> <r_i_glide_einternal>
8.0842809677124

> <i_i_glide_confnum>
14

> <i_i_glide_posenum>
79

> <r_i_glide_eff_state_penalty>
0

> <s_user_duplicate_titles>
CHEMBL4439_lig890 

> <i_f3d_flags>
0

> <s_m_subgroup_title>
dock_pv

> <s_m_subgroupid>
dock_pv

> <b_m_subgroup_collapsed>
1

$$$$
CHEMBL4439_lig100
                    3D
 Schrodinger Suite 2021-1.
 44 48  0  0  1  0            999 V2000
   14.8472   66.4570    8.3556 N   0  0  0  0  0  0
   15.9837   67.2746    6.5606 C   0  0  0  0  0  0
   14.8962   66.4872    7.0378 C   0  0  0  0  0  0
   13.9072   65.6812    6.2623 C   0  0  0  0  0  0
   12.5408   65.6564    6.5624 C   0  0  0  0  0  0
   11.7003   64.8558    5.7855 C   0  0  0  0  0  0
   12.2286   64.1188    4.7241 C   0  0  0  0  0  0
   13.5997   64.2081    4.4772 C   0  0  0  0  0  0
   14.4347   64.9538    5.2422 N   0  0  0  0  0  0
   16.6620   67.6103    7.7307 C   0  0  0  0  0  0
   15.9394   67.0916    8.7605 N   0  0  0  0  0  0
   16.5736   67.2015   10.0556 C   0  0  0  0  0  0
   17.5852   68.3165    9.7920 C   0  0  0  0  0  0
   17.8755   68.3137    8.2861 C   0  0  0  0  0  0
   16.3539   67.6581    5.1551 C   0  0  0  0  0  0
   14.2485   63.5001    3.3070 C   0  0  0  0  0  0
   19.0669   69.0283    2.9817 N   0  0  0  0  0  0
   18.7259   69.2571    1.6657 C   0  0  0  0  0  0
   17.4886   68.9578    1.3708 N   0  0  0  0  0  0
   16.9729   68.4977    2.5526 C   0  0  0  0  0  0
   15.6774   68.0571    2.8322 C   0  0  0  0  0  0
   15.3916   67.6570    4.1354 C   0  0  0  0  0  0
   17.6627   68.0804    4.8855 C   0  0  0  0  0  0
   17.9420   68.5141    3.5862 C   0  0  0  0  0  0
   20.3627   69.2585    3.6006 C   0  0  0  0  0  0
   12.1366   66.2327    7.3816 H   0  0  0  0  0  0
   10.6457   64.8140    6.0026 H   0  0  0  0  0  0
   11.5877   63.5163    4.0970 H   0  0  0  0  0  0
   17.0664   66.2639   10.3129 H   0  0  0  0  0  0
   15.8651   67.4600   10.8424 H   0  0  0  0  0  0
   18.4899   68.2179   10.3928 H   0  0  0  0  0  0
   17.1201   69.2575   10.0716 H   0  0  0  0  0  0
   18.7952   67.7751    8.0559 H   0  0  0  0  0  0
   17.9913   69.3300    7.9073 H   0  0  0  0  0  0
   13.7220   62.5793    3.0546 H   0  0  0  0  0  0
   14.2519   64.1474    2.4320 H   0  0  0  0  0  0
   15.2861   63.2571    3.5334 H   0  0  0  0  0  0
   19.4623   69.6568    0.9815 H   0  0  0  0  0  0
   14.9151   68.0542    2.0662 H   0  0  0  0  0  0
   14.3747   67.3732    4.3514 H   0  0  0  0  0  0
   18.4226   68.0988    5.6502 H   0  0  0  0  0  0
   20.7487   68.3191    3.9990 H   0  0  0  0  0  0
   21.0681   69.6564    2.8704 H   0  0  0  0  0  0
   20.2497   69.9712    4.4176 H   0  0  0  0  0  0
  1  3  2  0  0  0
  1 11  1  0  0  0
  2 10  2  0  0  0
  2  3  1  0  0  0
  2 15  1  0  0  0
  3  4  1  0  0  0
  4  9  1  0  0  0
  4  5  2  0  0  0
  5  6  1  0  0  0
  5 26  1  0  0  0
  6  7  2  0  0  0
  6 27  1  0  0  0
  7  8  1  0  0  0
  7 28  1  0  0  0
  8 16  1  0  0  0
  8  9  2  0  0  0
 10 14  1  0  0  0
 10 11  1  0  0  0
 11 12  1  0  0  0
 12 13  1  0  0  0
 12 29  1  0  0  0
 12 30  1  0  0  0
 13 14  1  0  0  0
 13 31  1  0  0  0
 13 32  1  0  0  0
 14 33  1  0  0  0
 14 34  1  0  0  0
 15 22  1  0  0  0
 15 23  2  0  0  0
 16 35  1  0  0  0
 16 36  1  0  0  0
 16 37  1  0  0  0
 17 18  1  0  0  0
 17 24  1  0  0  0
 17 25  1  0  0  0
 18 19  2  0  0  0
 18 38  1  0  0  0
 19 20  1  0  0  0
 20 24  2  0  0  0
 20 21  1  0  0  0
 21 22  2  0  0  0
 21 39  1  0  0  0
 22 40  1  0  0  0
 23 24  1  0  0  0
 23 41  1  0  0  0
 25 42  1  0  0  0
 25 43  1  0  0  0
 25 44  1  0  0  0
M  END
> <s_m_entry_id>
34284

> <s_m_entry_name>
dock_pv.27

> <s_m_Source_Path>
/home/csk/Desktop/cluster/DUD-E-result/tgfr1

> <s_m_Source_File>
dock_pv.maegz

> <i_m_Source_File_Index>
27

> <chembl_id>
CHEMBL204966

> <chembl_pref_name>
None

> <i_lp_mmshare_version>
53161

> <r_lp_tautomer_probability>
1

> <s_lp_Force_Field>
OPLS_2005

> <r_lp_Energy>
37.278318

> <b_lp_Chiralities_Consistent>
1

> <s_lp_Variant>
CHEMBL4439_lig100-1

> <s_i_glide_gridfile>
glide-grid_3hmm

> <i_i_glide_lignum>
139

> <i_i_glide_rotatable_bonds>
2

> <r_i_docking_score>
-10.1729667396882

> <r_i_glide_ligand_efficiency>
-0.406918669587528

> <r_i_glide_ligand_efficiency_sa>
-1.18983740660727

> <r_i_glide_ligand_efficiency_ln>
-2.41129797651866

> <r_i_glide_gscore>
-10.1729667396882

> <r_i_glide_lipo>
-4.17927610970731

> <r_i_glide_hbond>
-0.239312236592704

> <r_i_glide_metal>
0

> <r_i_glide_rewards>
-3.13210397715247

> <r_i_glide_evdw>
-48.3120880126953

> <r_i_glide_ecoul>
-3.68732690811157

> <r_i_glide_erotb>
0.34642902061579

> <r_i_glide_esite>
0

> <r_i_glide_emodel>
-81.6089228378062

> <r_i_glide_energy>
-51.9994149208069

> <r_i_glide_einternal>
2.62380814552307

> <i_i_glide_confnum>
8

> <i_i_glide_posenum>
388

> <r_i_glide_eff_state_penalty>
0

> <s_user_duplicate_titles>
CHEMBL4439_lig100,341042

> <i_f3d_flags>
0

> <s_m_subgroup_title>
dock_pv

> <s_m_subgroupid>
dock_pv

> <b_m_subgroup_collapsed>
1

$$$$
CHEMBL4439_lig790
                    3D
 Schrodinger Suite 2021-1.
 42 45  0  0  1  0            999 V2000
   17.6570   68.4658    3.9800 C   0  0  0  0  0  0
   16.6670   68.4570    2.9870 C   0  0  0  0  0  0
   16.9572   68.8570    1.6881 C   0  0  0  0  0  0
   18.1830   69.2433    1.2712 N   0  0  0  0  0  0
   17.3781   68.0772    5.2975 N   0  0  0  0  0  0
   16.3265   67.3830    5.9061 C   0  0  0  0  0  0
   16.1553   67.5343    7.2813 C   0  0  0  0  0  0
   15.1101   66.8572    7.9038 C   0  0  0  0  0  0
   14.2579   66.0436    7.2320 N   0  0  0  0  0  0
   14.4546   65.8499    5.8974 C   0  0  0  0  0  0
   15.4754   66.5189    5.2117 C   0  0  0  0  0  0
   13.5203   64.9113    5.2013 C   0  0  0  0  0  0
   12.1616   64.8570    5.5593 C   0  0  0  0  0  0
   11.2685   64.0406    4.8662 C   0  0  0  0  0  0
   11.7192   63.2570    3.8096 C   0  0  0  0  0  0
   13.0670   63.2570    3.4694 C   0  0  0  0  0  0
   13.9592   64.0801    4.1506 C   0  0  0  0  0  0
   15.2567   64.0570    3.7689 F   0  0  0  0  0  0
   18.9201   68.9586    3.5743 C   0  0  0  0  0  0
   19.1313   69.2950    2.2069 C   0  0  0  0  0  0
   20.4947   69.6570    2.1121 C   0  0  0  0  0  0
   21.0544   69.6332    3.2884 N   0  0  0  0  0  0
   20.1349   69.2570    4.2267 N   0  0  0  0  0  0
   20.4741   69.2604    5.6320 C   0  0  0  0  0  0
   21.7335   69.6570    5.9089 N   0  0  0  0  0  0
   22.2974   69.7341    7.2509 C   0  0  0  0  0  0
    9.9622   64.0160    5.2065 F   0  0  0  0  0  0
   19.6552   68.9622    6.5019 O   0  0  0  0  0  0
   15.6476   68.1917    3.2117 H   0  0  0  0  0  0
   16.1750   68.8735    0.9450 H   0  0  0  0  0  0
   18.0989   68.3894    5.9445 H   0  0  0  0  0  0
   16.8101   68.1753    7.8545 H   0  0  0  0  0  0
   14.9553   66.9568    8.9659 H   0  0  0  0  0  0
   15.6197   66.3400    4.1602 H   0  0  0  0  0  0
   11.7793   65.4730    6.3609 H   0  0  0  0  0  0
   11.0178   62.6762    3.2320 H   0  0  0  0  0  0
   13.4190   62.6585    2.6439 H   0  0  0  0  0  0
   21.0431   69.9664    1.2339 H   0  0  0  0  0  0
   22.3589   69.8653    5.1440 H   0  0  0  0  0  0
   23.1122   70.4570    7.2706 H   0  0  0  0  0  0
   22.7001   68.7637    7.5422 H   0  0  0  0  0  0
   21.5556   70.0401    7.9902 H   0  0  0  0  0  0
  1 19  2  0  0  0
  1  2  1  0  0  0
  1  5  1  0  0  0
  2  3  2  0  0  0
  2 29  1  0  0  0
  3  4  1  0  0  0
  3 30  1  0  0  0
  4 20  2  0  0  0
  5  6  1  0  0  0
  5 31  1  0  0  0
  6  7  2  0  0  0
  6 11  1  0  0  0
  7  8  1  0  0  0
  7 32  1  0  0  0
  8  9  2  0  0  0
  8 33  1  0  0  0
  9 10  1  0  0  0
 10 11  2  0  0  0
 10 12  1  0  0  0
 11 34  1  0  0  0
 12 13  2  0  0  0
 12 17  1  0  0  0
 13 14  1  0  0  0
 13 35  1  0  0  0
 14 15  2  0  0  0
 14 27  1  0  0  0
 15 16  1  0  0  0
 15 36  1  0  0  0
 16 17  2  0  0  0
 16 37  1  0  0  0
 17 18  1  0  0  0
 19 20  1  0  0  0
 19 23  1  0  0  0
 20 21  1  0  0  0
 21 22  2  0  0  0
 21 38  1  0  0  0
 22 23  1  0  0  0
 23 24  1  0  0  0
 24 25  1  0  0  0
 24 28  2  0  0  0
 25 26  1  0  0  0
 25 39  1  0  0  0
 26 40  1  0  0  0
 26 41  1  0  0  0
 26 42  1  0  0  0
M  END
> <s_m_entry_id>
34285

> <s_m_entry_name>
dock_pv.28

> <s_m_Source_Path>
/home/csk/Desktop/cluster/DUD-E-result/tgfr1

> <s_m_Source_File>
dock_pv.maegz

> <i_m_Source_File_Index>
28

> <chembl_id>
CHEMBL4060987

> <chembl_pref_name>
None

> <i_lp_mmshare_version>
53161

> <r_lp_tautomer_probability>
0.999999106000799

> <s_lp_Force_Field>
OPLS_2005

> <r_lp_Energy>
28.187615

> <b_lp_Chiralities_Consistent>
1

> <s_lp_Variant>
CHEMBL4439_lig790-1

> <s_i_glide_gridfile>
glide-grid_3hmm

> <i_i_glide_lignum>
1104

> <i_i_glide_rotatable_bonds>
5

> <r_i_docking_score>
-10.1584411278909

> <r_i_glide_ligand_efficiency>
-0.362801468853246

> <r_i_glide_ligand_efficiency_sa>
-1.10167893807639

> <r_i_glide_ligand_efficiency_ln>
-2.34486647710915

> <r_i_glide_gscore>
-10.1584411278909

> <r_i_glide_lipo>
-4.09642810127598

> <r_i_glide_hbond>
-0.21953565671761

> <r_i_glide_metal>
0

> <r_i_glide_rewards>
-3.24253357382382

> <r_i_glide_evdw>
-52.4788932800293

> <r_i_glide_ecoul>
-3.41594743728638

> <r_i_glide_erotb>
0.53639298352093

> <r_i_glide_esite>
0

> <r_i_glide_emodel>
-88.588337595937

> <r_i_glide_energy>
-55.8948407173157

> <r_i_glide_einternal>
1.36499464511871

> <i_i_glide_confnum>
6

> <i_i_glide_posenum>
175

> <r_i_glide_eff_state_penalty>
0

> <s_user_duplicate_titles>
CHEMBL4439_lig790

> <i_f3d_flags>
0

> <s_m_subgroup_title>
dock_pv

> <s_m_subgroupid>
dock_pv

> <b_m_subgroup_collapsed>
1

$$$$
CHEMBL4439_lig888 
                    3D
 Schrodinger Suite 2021-1.
 38 41  0  0  1  0            999 V2000
   17.6872   68.0630    4.8038 C   0  0  0  0  0  0
   16.3980   67.6571    5.1550 C   0  0  0  0  0  0
   15.4175   67.6570    4.1517 C   0  0  0  0  0  0
   15.6780   68.0570    2.8383 C   0  0  0  0  0  0
   17.9409   68.5000    3.5322 N   0  0  0  0  0  0
   16.9677   68.4998    2.5183 C   0  0  0  0  0  0
   17.4738   68.9630    1.3475 N   0  0  0  0  0  0
   18.7235   69.2571    1.6316 C   0  0  0  0  0  0
   19.0671   69.0182    2.9584 C   0  0  0  0  0  0
   16.0298   67.2740    6.5689 C   0  0  0  0  0  0
   16.6546   67.7131    7.7317 N   0  0  0  0  0  0
   15.9244   67.1900    8.7638 C   0  0  0  0  0  0
   14.9262   66.4571    8.3692 N   0  0  0  0  0  0
   14.9843   66.4558    7.0470 C   0  0  0  0  0  0
   13.9867   65.6485    6.2787 C   0  0  0  0  0  0
   14.3887   64.8693    5.1859 C   0  0  0  0  0  0
   13.4538   64.1353    4.4499 C   0  0  0  0  0  0
   12.1115   64.1480    4.8306 C   0  0  0  0  0  0
   11.7059   64.9042    5.9271 C   0  0  0  0  0  0
   12.6349   65.6571    6.6431 C   0  0  0  0  0  0
   13.8775   63.3564    3.2231 C   0  0  0  0  0  0
   17.7978   68.5971    7.9142 C   0  0  0  0  0  0
   18.5253   68.0879    5.4785 H   0  0  0  0  0  0
   14.4027   67.3817    4.3916 H   0  0  0  0  0  0
   14.8964   68.0580    2.0920 H   0  0  0  0  0  0
   19.3867   69.6566    0.8754 H   0  0  0  0  0  0
   19.9955   69.1537    3.4941 H   0  0  0  0  0  0
   16.1898   67.4116    9.7875 H   0  0  0  0  0  0
   15.4294   64.8554    4.8950 H   0  0  0  0  0  0
   11.3807   63.5856    4.2681 H   0  0  0  0  0  0
   10.6677   64.9160    6.2151 H   0  0  0  0  0  0
   12.2961   66.2454    7.4836 H   0  0  0  0  0  0
   13.1878   63.5450    2.4014 H   0  0  0  0  0  0
   13.8529   62.2902    3.4278 H   0  0  0  0  0  0
   14.8715   63.6441    2.8794 H   0  0  0  0  0  0
   17.8127   68.9834    8.9346 H   0  0  0  0  0  0
   18.7157   68.0318    7.7543 H   0  0  0  0  0  0
   17.7494   69.4402    7.2322 H   0  0  0  0  0  0
  1  5  1  0  0  0
  1  2  2  0  0  0
  1 23  1  0  0  0
  2  3  1  0  0  0
  2 10  1  0  0  0
  3  4  2  0  0  0
  3 24  1  0  0  0
  4  6  1  0  0  0
  4 25  1  0  0  0
  5  6  1  0  0  0
  5  9  1  0  0  0
  6  7  2  0  0  0
  7  8  1  0  0  0
  8  9  2  0  0  0
  8 26  1  0  0  0
  9 27  1  0  0  0
 10 11  1  0  0  0
 10 14  2  0  0  0
 11 12  1  0  0  0
 11 22  1  0  0  0
 12 13  2  0  0  0
 12 28  1  0  0  0
 13 14  1  0  0  0
 14 15  1  0  0  0
 15 16  2  0  0  0
 15 20  1  0  0  0
 16 17  1  0  0  0
 16 29  1  0  0  0
 17 18  2  0  0  0
 17 21  1  0  0  0
 18 19  1  0  0  0
 18 30  1  0  0  0
 19 20  2  0  0  0
 19 31  1  0  0  0
 20 32  1  0  0  0
 21 33  1  0  0  0
 21 34  1  0  0  0
 21 35  1  0  0  0
 22 36  1  0  0  0
 22 37  1  0  0  0
 22 38  1  0  0  0
M  END
> <s_m_entry_id>
34286

> <s_m_entry_name>
dock_pv.29

> <s_m_Source_Path>
/home/csk/Desktop/cluster/DUD-E-result/tgfr1

> <s_m_Source_File>
dock_pv.maegz

> <i_m_Source_File_Index>
29

> <chembl_id>
CHEMBL4534989

> <chembl_pref_name>
None

> <i_lp_mmshare_version>
53161

> <r_lp_tautomer_probability>
1

> <s_lp_Force_Field>
OPLS_2005

> <r_lp_Energy>
15.678645

> <b_lp_Chiralities_Consistent>
1

> <s_lp_Variant>
CHEMBL4439_lig888 -1

> <s_i_glide_gridfile>
glide-grid_3hmm

> <i_i_glide_lignum>
1223

> <i_i_glide_rotatable_bonds>
2

> <r_i_docking_score>
-10.1201729811277

> <r_i_glide_ligand_efficiency>
-0.460007862778533

> <r_i_glide_ligand_efficiency_sa>
-1.2889601225881

> <r_i_glide_ligand_efficiency_ln>
-2.47373941886624

> <r_i_glide_gscore>
-10.1201729811277

> <r_i_glide_lipo>
-3.57385337179012

> <r_i_glide_hbond>
-0.246441733254475

> <r_i_glide_metal>
0

> <r_i_glide_rewards>
-4.03872484117502

> <r_i_glide_evdw>
-42.6075134277344

> <r_i_glide_ecoul>
-3.78908061981201

> <r_i_glide_erotb>
0.437584729450391

> <r_i_glide_esite>
0

> <r_i_glide_emodel>
-72.0424896685875

> <r_i_glide_energy>
-46.3965940475464

> <r_i_glide_einternal>
4.51555490493774

> <i_i_glide_confnum>
7

> <i_i_glide_posenum>
232

> <r_i_glide_eff_state_penalty>
0

> <s_user_duplicate_titles>
CHEMBL4439_lig888 

> <i_f3d_flags>
0

> <s_m_subgroup_title>
dock_pv

> <s_m_subgroupid>
dock_pv

> <b_m_subgroup_collapsed>
1

$$$$
CHEMBL4439_lig889 
                    3D
 Schrodinger Suite 2021-1.
 40 43  0  0  1  0            999 V2000
   17.6935   68.0570    4.7822 C   0  0  0  0  0  0
   16.4046   67.6571    5.1441 C   0  0  0  0  0  0
   15.4197   67.6570    4.1462 C   0  0  0  0  0  0
   15.6755   68.0570    2.8321 C   0  0  0  0  0  0
   17.9417   68.4965    3.5112 N   0  0  0  0  0  0
   16.9639   68.5005    2.5032 C   0  0  0  0  0  0
   17.4670   68.9647    1.3305 N   0  0  0  0  0  0
   18.7184   69.2570    1.6094 C   0  0  0  0  0  0
   19.0670   69.0120    2.9334 C   0  0  0  0  0  0
   16.0370   67.2824    6.5616 C   0  0  0  0  0  0
   16.6226   67.7769    7.7260 N   0  0  0  0  0  0
   15.9135   67.2207    8.7561 C   0  0  0  0  0  0
   14.9403   66.4570    8.3636 N   0  0  0  0  0  0
   14.9920   66.4582    7.0415 C   0  0  0  0  0  0
   13.9680   65.6597    6.2951 C   0  0  0  0  0  0
   14.4039   64.9561    5.2142 N   0  0  0  0  0  0
   13.4885   64.2571    4.4916 C   0  0  0  0  0  0
   12.1366   64.2010    4.8322 C   0  0  0  0  0  0
   11.7062   64.9104    5.9510 C   0  0  0  0  0  0
   12.6239   65.6571    6.6909 C   0  0  0  0  0  0
   14.0042   63.5166    3.2781 C   0  0  0  0  0  0
   17.7177   68.7277    7.9317 C   0  0  0  0  0  0
   19.0216   68.0365    8.3774 C   0  0  0  0  0  0
   18.8859   67.3243    9.4966 F   0  0  0  0  0  0
   19.5622   67.2572    7.4437 F   0  0  0  0  0  0
   18.5409   68.0636    5.4449 H   0  0  0  0  0  0
   14.4049   67.3850    4.3897 H   0  0  0  0  0  0
   14.8906   68.0573    2.0893 H   0  0  0  0  0  0
   19.3800   69.6560    0.8513 H   0  0  0  0  0  0
   19.9992   69.1408    3.4645 H   0  0  0  0  0  0
   16.1678   67.4577    9.7796 H   0  0  0  0  0  0
   11.4373   63.6314    4.2377 H   0  0  0  0  0  0
   10.6670   64.8905    6.2366 H   0  0  0  0  0  0
   12.2901   66.2203    7.5502 H   0  0  0  0  0  0
   14.0111   62.4569    3.4998 H   0  0  0  0  0  0
   13.3497   63.6570    2.4191 H   0  0  0  0  0  0
   15.0119   63.8263    2.9983 H   0  0  0  0  0  0
   17.8680   69.3316    7.0446 H   0  0  0  0  0  0
   17.4043   69.4274    8.7077 H   0  0  0  0  0  0
   19.7773   68.7912    8.5996 H   0  0  0  0  0  0
  1  5  1  0  0  0
  1  2  2  0  0  0
  1 26  1  0  0  0
  2  3  1  0  0  0
  2 10  1  0  0  0
  3  4  2  0  0  0
  3 27  1  0  0  0
  4  6  1  0  0  0
  4 28  1  0  0  0
  5  6  1  0  0  0
  5  9  1  0  0  0
  6  7  2  0  0  0
  7  8  1  0  0  0
  8  9  2  0  0  0
  8 29  1  0  0  0
  9 30  1  0  0  0
 10 11  1  0  0  0
 10 14  2  0  0  0
 11 12  1  0  0  0
 11 22  1  0  0  0
 12 13  2  0  0  0
 12 31  1  0  0  0
 13 14  1  0  0  0
 14 15  1  0  0  0
 15 16  2  0  0  0
 15 20  1  0  0  0
 16 17  1  0  0  0
 17 18  2  0  0  0
 17 21  1  0  0  0
 18 19  1  0  0  0
 18 32  1  0  0  0
 19 20  2  0  0  0
 19 33  1  0  0  0
 20 34  1  0  0  0
 21 35  1  0  0  0
 21 36  1  0  0  0
 21 37  1  0  0  0
 22 23  1  0  0  0
 22 38  1  0  0  0
 22 39  1  0  0  0
 23 24  1  0  0  0
 23 25  1  0  0  0
 23 40  1  0  0  0
M  END
> <s_m_entry_id>
34287

> <s_m_entry_name>
dock_pv.30

> <s_m_Source_Path>
/home/csk/Desktop/cluster/DUD-E-result/tgfr1

> <s_m_Source_File>
dock_pv.maegz

> <i_m_Source_File_Index>
30

> <chembl_id>
CHEMBL4458215

> <chembl_pref_name>
None

> <i_lp_mmshare_version>
53161

> <r_lp_tautomer_probability>
1

> <s_lp_Force_Field>
OPLS_2005

> <r_lp_Energy>
18.993931

> <b_lp_Chiralities_Consistent>
1

> <s_lp_Variant>
CHEMBL4439_lig889 -1

> <s_i_glide_gridfile>
glide-grid_3hmm

> <i_i_glide_lignum>
1224

> <i_i_glide_rotatable_bonds>
4

> <r_i_docking_score>
-10.1178561666457

> <r_i_glide_ligand_efficiency>
-0.404714246665826

> <r_i_glide_ligand_efficiency_sa>
-1.1833916348886

> <r_i_glide_ligand_efficiency_ln>
-2.39823511917698

> <r_i_glide_gscore>
-10.1178561666457

> <r_i_glide_lipo>
-3.44441095414426

> <r_i_glide_hbond>
-0.255607538635208

> <r_i_glide_metal>
0

> <r_i_glide_rewards>
-4.03665991406911

> <r_i_glide_evdw>
-44.9380798339844

> <r_i_glide_ecoul>
-4.18182563781738

> <r_i_glide_erotb>
0.493000077574741

> <r_i_glide_esite>
0

> <r_i_glide_emodel>
-75.8746790753085

> <r_i_glide_energy>
-49.1199054718018

> <r_i_glide_einternal>
6.70403861999512

> <i_i_glide_confnum>
12

> <i_i_glide_posenum>
328

> <r_i_glide_eff_state_penalty>
0

> <s_user_duplicate_titles>
CHEMBL4439_lig889 

> <i_f3d_flags>
0

> <s_m_subgroup_title>
dock_pv

> <s_m_subgroupid>
dock_pv

> <b_m_subgroup_collapsed>
1

$$$$
CHEMBL4439_lig804
                    3D
 Schrodinger Suite 2021-1.
 47 50  0  0  1  0            999 V2000
   17.5978   68.5042    3.9589 C   0  0  0  0  0  0
   16.6027   68.4604    2.9701 C   0  0  0  0  0  0
   16.8802   68.8571    1.6632 C   0  0  0  0  0  0
   18.1047   69.2413    1.2320 N   0  0  0  0  0  0
   17.3403   68.1955    5.3036 N   0  0  0  0  0  0
   16.3160   67.4840    5.9462 C   0  0  0  0  0  0
   16.0750   67.6745    7.3188 C   0  0  0  0  0  0
   15.0436   66.9426    7.9114 C   0  0  0  0  0  0
   14.2744   66.0570    7.2318 N   0  0  0  0  0  0
   14.5304   65.8486    5.9111 C   0  0  0  0  0  0
   15.5444   66.5478    5.2529 C   0  0  0  0  0  0
   13.6419   64.8883    5.1878 C   0  0  0  0  0  0
   12.2838   64.7871    5.5349 C   0  0  0  0  0  0
   11.4227   63.9407    4.8368 C   0  0  0  0  0  0
   11.9074   63.1945    3.7695 C   0  0  0  0  0  0
   13.2500   63.2570    3.4232 C   0  0  0  0  0  0
   14.1148   64.0880    4.1269 C   0  0  0  0  0  0
   15.4202   64.0796    3.7720 F   0  0  0  0  0  0
   18.8533   68.9610    3.5190 C   0  0  0  0  0  0
   19.0665   69.2917    2.1550 C   0  0  0  0  0  0
   20.4388   69.6570    2.0626 C   0  0  0  0  0  0
   21.0163   69.6057    3.2353 N   0  0  0  0  0  0
   20.0779   69.2204    4.1312 N   0  0  0  0  0  0
    9.9681   63.8315    5.2310 C   0  0  0  0  0  0
   16.8918   68.6366    8.1767 C   0  0  0  0  0  0
   20.4586   69.1400    5.5412 C   0  0  0  0  0  0
   20.5410   67.6875    6.0343 C   0  0  0  0  0  0
   15.5846   68.2032    3.2131 H   0  0  0  0  0  0
   16.0935   68.8597    0.9213 H   0  0  0  0  0  0
   18.0333   68.5619    5.9368 H   0  0  0  0  0  0
   14.8133   67.0649    8.9587 H   0  0  0  0  0  0
   15.7353   66.3512    4.2120 H   0  0  0  0  0  0
   11.8836   65.3815    6.3445 H   0  0  0  0  0  0
   11.2467   62.5427    3.2191 H   0  0  0  0  0  0
   13.6206   62.6611    2.6025 H   0  0  0  0  0  0
   20.9795   69.9770    1.1839 H   0  0  0  0  0  0
    9.4664   64.7639    4.9786 H   0  0  0  0  0  0
    9.4670   63.0078    4.7260 H   0  0  0  0  0  0
    9.8766   63.6567    6.3034 H   0  0  0  0  0  0
   16.8152   68.3930    9.2373 H   0  0  0  0  0  0
   17.9517   68.5819    7.9269 H   0  0  0  0  0  0
   16.5587   69.6644    8.0319 H   0  0  0  0  0  0
   19.7454   69.7199    6.1277 H   0  0  0  0  0  0
   21.4311   69.6209    5.6732 H   0  0  0  0  0  0
   21.0672   67.6428    6.9870 H   0  0  0  0  0  0
   21.0668   67.0486    5.3267 H   0  0  0  0  0  0
   19.5591   67.2523    6.1957 H   0  0  0  0  0  0
  1 19  1  0  0  0
  1  2  2  0  0  0
  1  5  1  0  0  0
  2  3  1  0  0  0
  2 28  1  0  0  0
  3  4  2  0  0  0
  3 29  1  0  0  0
  4 20  1  0  0  0
  5  6  1  0  0  0
  5 30  1  0  0  0
  6  7  2  0  0  0
  6 11  1  0  0  0
  7  8  1  0  0  0
  7 25  1  0  0  0
  8  9  2  0  0  0
  8 31  1  0  0  0
  9 10  1  0  0  0
 10 11  2  0  0  0
 10 12  1  0  0  0
 11 32  1  0  0  0
 12 13  2  0  0  0
 12 17  1  0  0  0
 13 14  1  0  0  0
 13 33  1  0  0  0
 14 15  2  0  0  0
 14 24  1  0  0  0
 15 16  1  0  0  0
 15 34  1  0  0  0
 16 17  2  0  0  0
 16 35  1  0  0  0
 17 18  1  0  0  0
 19 20  2  0  0  0
 19 23  1  0  0  0
 20 21  1  0  0  0
 21 22  2  0  0  0
 21 36  1  0  0  0
 22 23  1  0  0  0
 23 26  1  0  0  0
 24 37  1  0  0  0
 24 38  1  0  0  0
 24 39  1  0  0  0
 25 40  1  0  0  0
 25 41  1  0  0  0
 25 42  1  0  0  0
 26 27  1  0  0  0
 26 43  1  0  0  0
 26 44  1  0  0  0
 27 45  1  0  0  0
 27 46  1  0  0  0
 27 47  1  0  0  0
M  END
> <s_m_entry_id>
34288

> <s_m_entry_name>
dock_pv.31

> <s_m_Source_Path>
/home/csk/Desktop/cluster/DUD-E-result/tgfr1

> <s_m_Source_File>
dock_pv.maegz

> <i_m_Source_File_Index>
31

> <chembl_id>
CHEMBL4104104

> <chembl_pref_name>
None

> <i_lp_mmshare_version>
53161

> <r_lp_tautomer_probability>
0.999999106000799

> <s_lp_Force_Field>
OPLS_2005

> <r_lp_Energy>
27.159885

> <b_lp_Chiralities_Consistent>
1

> <s_lp_Variant>
CHEMBL4439_lig804-1

> <s_i_glide_gridfile>
glide-grid_3hmm

> <i_i_glide_lignum>
1120

> <i_i_glide_rotatable_bonds>
4

> <r_i_docking_score>
-10.0907843286495

> <r_i_glide_ligand_efficiency>
-0.373732752912945

> <r_i_glide_ligand_efficiency_sa>
-1.12119825750707

> <r_i_glide_ligand_efficiency_ln>
-2.34896823212824

> <r_i_glide_gscore>
-10.0907843286495

> <r_i_glide_lipo>
-4.86136573067239

> <r_i_glide_hbond>
-0.262034602873992

> <r_i_glide_metal>
0

> <r_i_glide_rewards>
-2.65130173117052

> <r_i_glide_evdw>
-49.888298034668

> <r_i_glide_ecoul>
-1.7494238615036

> <r_i_glide_erotb>
0.440746217026309

> <r_i_glide_esite>
0

> <r_i_glide_emodel>
-81.4819105233904

> <r_i_glide_energy>
-51.6377218961716

> <r_i_glide_einternal>
1.77199625968933

> <i_i_glide_confnum>
8

> <i_i_glide_posenum>
22

> <r_i_glide_eff_state_penalty>
0

> <s_user_duplicate_titles>
CHEMBL4439_lig804

> <i_f3d_flags>
0

> <s_m_subgroup_title>
dock_pv

> <s_m_subgroupid>
dock_pv

> <b_m_subgroup_collapsed>
1

$$$$
CHEMBL4439_lig792
                    3D
 Schrodinger Suite 2021-1.
 45 48  0  0  1  0            999 V2000
   17.6725   68.4594    4.0320 C   0  0  0  0  0  0
   16.6670   68.4570    3.0538 C   0  0  0  0  0  0
   16.9362   68.8570    1.7511 C   0  0  0  0  0  0
   18.1550   69.2432    1.3150 N   0  0  0  0  0  0
   17.4098   68.0570    5.3507 N   0  0  0  0  0  0
   16.3476   67.3777    5.9696 C   0  0  0  0  0  0
   16.1314   67.5363    7.3496 C   0  0  0  0  0  0
   15.0600   66.8570    7.9284 C   0  0  0  0  0  0
   14.2291   66.0463    7.2320 N   0  0  0  0  0  0
   14.4678   65.8441    5.9088 C   0  0  0  0  0  0
   15.5176   66.5023    5.2578 C   0  0  0  0  0  0
   13.5371   64.9120    5.1960 C   0  0  0  0  0  0
   12.1764   64.8570    5.5494 C   0  0  0  0  0  0
   11.2840   64.0417    4.8563 C   0  0  0  0  0  0
   11.7366   63.2570    3.8028 C   0  0  0  0  0  0
   13.0848   63.2570    3.4637 C   0  0  0  0  0  0
   13.9770   64.0818    4.1448 C   0  0  0  0  0  0
   15.2752   64.0570    3.7660 F   0  0  0  0  0  0
   18.9293   68.9557    3.6069 C   0  0  0  0  0  0
   19.1177   69.2939    2.2357 C   0  0  0  0  0  0
   20.4788   69.6570    2.1177 C   0  0  0  0  0  0
   21.0581   69.6347    3.2835 N   0  0  0  0  0  0
   20.1557   69.2570    4.2372 N   0  0  0  0  0  0
   20.5242   69.2570    5.6342 C   0  0  0  0  0  0
   21.7871   69.6570    5.8876 N   0  0  0  0  0  0
   22.3667   69.7450    7.2214 C   0  0  0  0  0  0
    9.9774   64.0172    5.1955 F   0  0  0  0  0  0
   19.7259   68.9524    6.5193 O   0  0  0  0  0  0
   16.9998   68.4349    8.2242 C   0  0  0  0  0  0
   15.6511   68.1879    3.2892 H   0  0  0  0  0  0
   16.1417   68.8721    1.0209 H   0  0  0  0  0  0
   18.1401   68.3501    5.9943 H   0  0  0  0  0  0
   14.8609   66.9432    8.9832 H   0  0  0  0  0  0
   15.6967   66.3141    4.2133 H   0  0  0  0  0  0
   11.7907   65.4712    6.3507 H   0  0  0  0  0  0
   11.0351   62.6708    3.2320 H   0  0  0  0  0  0
   13.4379   62.6557    2.6408 H   0  0  0  0  0  0
   21.0129   69.9681    1.2320 H   0  0  0  0  0  0
   22.3965   69.8777    5.1133 H   0  0  0  0  0  0
   23.4095   70.0570    7.1541 H   0  0  0  0  0  0
   22.3332   68.7762    7.7211 H   0  0  0  0  0  0
   21.8304   70.4725    7.8318 H   0  0  0  0  0  0
   16.5269   68.6592    9.1812 H   0  0  0  0  0  0
   17.9673   67.9669    8.4084 H   0  0  0  0  0  0
   17.1818   69.3914    7.7344 H   0  0  0  0  0  0
  1 19  2  0  0  0
  1  2  1  0  0  0
  1  5  1  0  0  0
  2  3  2  0  0  0
  2 30  1  0  0  0
  3  4  1  0  0  0
  3 31  1  0  0  0
  4 20  2  0  0  0
  5  6  1  0  0  0
  5 32  1  0  0  0
  6  7  2  0  0  0
  6 11  1  0  0  0
  7  8  1  0  0  0
  7 29  1  0  0  0
  8  9  2  0  0  0
  8 33  1  0  0  0
  9 10  1  0  0  0
 10 11  2  0  0  0
 10 12  1  0  0  0
 11 34  1  0  0  0
 12 13  2  0  0  0
 12 17  1  0  0  0
 13 14  1  0  0  0
 13 35  1  0  0  0
 14 15  2  0  0  0
 14 27  1  0  0  0
 15 16  1  0  0  0
 15 36  1  0  0  0
 16 17  2  0  0  0
 16 37  1  0  0  0
 17 18  1  0  0  0
 19 20  1  0  0  0
 19 23  1  0  0  0
 20 21  1  0  0  0
 21 22  2  0  0  0
 21 38  1  0  0  0
 22 23  1  0  0  0
 23 24  1  0  0  0
 24 25  1  0  0  0
 24 28  2  0  0  0
 25 26  1  0  0  0
 25 39  1  0  0  0
 26 40  1  0  0  0
 26 41  1  0  0  0
 26 42  1  0  0  0
 29 43  1  0  0  0
 29 44  1  0  0  0
 29 45  1  0  0  0
M  END
> <s_m_entry_id>
34289

> <s_m_entry_name>
dock_pv.32

> <s_m_Source_Path>
/home/csk/Desktop/cluster/DUD-E-result/tgfr1

> <s_m_Source_File>
dock_pv.maegz

> <i_m_Source_File_Index>
32

> <chembl_id>
CHEMBL4101751

> <chembl_pref_name>
None

> <i_lp_mmshare_version>
53161

> <r_lp_tautomer_probability>
0.999999106000799

> <s_lp_Force_Field>
OPLS_2005

> <r_lp_Energy>
27.399772

> <b_lp_Chiralities_Consistent>
1

> <s_lp_Variant>
CHEMBL4439_lig792-1

> <s_i_glide_gridfile>
glide-grid_3hmm

> <i_i_glide_lignum>
1106

> <i_i_glide_rotatable_bonds>
5

> <r_i_docking_score>
-10.0819421404548

> <r_i_glide_ligand_efficiency>
-0.347653177257061

> <r_i_glide_ligand_efficiency_sa>
-1.06810070479114

> <r_i_glide_ligand_efficiency_ln>
-2.30850909417006

> <r_i_glide_gscore>
-10.0819421404548

> <r_i_glide_lipo>
-4.27027796551086

> <r_i_glide_hbond>
-0.196600812587859

> <r_i_glide_metal>
0

> <r_i_glide_rewards>
-2.9547425332009

> <r_i_glide_evdw>
-53.6833457946777

> <r_i_glide_ecoul>
-3.19194388389587

> <r_i_glide_erotb>
0.502638043163129

> <r_i_glide_esite>
0

> <r_i_glide_emodel>
-90.551189193696

> <r_i_glide_energy>
-56.8752896785736

> <r_i_glide_einternal>
0.981666743755341

> <i_i_glide_confnum>
29

> <i_i_glide_posenum>
303

> <r_i_glide_eff_state_penalty>
0

> <s_user_duplicate_titles>
CHEMBL4439_lig792

> <i_f3d_flags>
0

> <s_m_subgroup_title>
dock_pv

> <s_m_subgroupid>
dock_pv

> <b_m_subgroup_collapsed>
1

$$$$
CHEMBL4439_lig624
                    3D
 Schrodinger Suite 2021-1.
 50 54  0  0  1  0            999 V2000
   17.6211   67.6066   10.0307 C   0  0  0  0  0  0
   16.1654   67.1995    9.6981 C   0  0  0  0  0  0
   17.8654   68.0574   11.1491 O   0  0  0  0  0  0
   18.5567   67.4601    9.0658 N   0  0  0  0  0  0
   19.8077   68.0855    9.0576 C   0  0  0  0  0  0
   19.9787   69.3252    8.4272 C   0  0  0  0  0  0
   21.2437   69.9165    8.3937 C   0  0  0  0  0  0
   22.3333   69.2869    8.9928 C   0  0  0  0  0  0
   22.1659   68.0464    9.6062 C   0  0  0  0  0  0
   20.9090   67.4399    9.6156 C   0  0  0  0  0  0
   18.9370   69.9446    7.8225 F   0  0  0  0  0  0
   15.8605   67.0376    8.2718 N   0  0  0  0  0  0
   15.0597   66.0571    7.8339 N   0  0  0  0  0  0
   15.0427   66.1625    6.5131 C   0  0  0  0  0  0
   15.8631   67.2284    6.0893 C   0  0  0  0  0  0
   16.2300   67.8641    7.2535 C   0  0  0  0  0  0
   14.2736   65.2105    5.6455 C   0  0  0  0  0  0
   14.8381   64.6288    4.5017 C   0  0  0  0  0  0
   14.0576   63.7746    3.7196 C   0  0  0  0  0  0
   12.7357   63.5228    4.0869 C   0  0  0  0  0  0
   12.2345   64.1461    5.2321 C   0  0  0  0  0  0
   12.9837   64.9710    6.0118 N   0  0  0  0  0  0
   10.7966   63.9549    5.6689 C   0  0  0  0  0  0
   17.0529   68.7250    2.2756 C   0  0  0  0  0  0
   15.7516   68.2200    2.4321 C   0  0  0  0  0  0
   15.3868   67.6579    3.6580 C   0  0  0  0  0  0
   16.2661   67.6811    4.7439 C   0  0  0  0  0  0
   17.5505   68.2082    4.5911 C   0  0  0  0  0  0
   17.9065   68.7063    3.3755 N   0  0  0  0  0  0
   19.0859   69.2557    3.0456 N   0  0  0  0  0  0
   18.8955   69.5336    1.7719 C   0  0  0  0  0  0
   17.7220   69.2590    1.2308 N   0  0  0  0  0  0
   15.9418   66.2686   10.2198 H   0  0  0  0  0  0
   15.4921   67.9646   10.0835 H   0  0  0  0  0  0
   18.2689   67.0334    8.1981 H   0  0  0  0  0  0
   21.3900   70.8605    7.8946 H   0  0  0  0  0  0
   23.3074   69.7543    8.9624 H   0  0  0  0  0  0
   23.0139   67.5479   10.0529 H   0  0  0  0  0  0
   20.7848   66.4577   10.0321 H   0  0  0  0  0  0
   16.8106   68.7562    7.4358 H   0  0  0  0  0  0
   15.8608   64.8369    4.2216 H   0  0  0  0  0  0
   14.4700   63.3177    2.8324 H   0  0  0  0  0  0
   12.1162   62.8767    3.4816 H   0  0  0  0  0  0
   10.2651   63.2577    5.0227 H   0  0  0  0  0  0
   10.7492   63.5763    6.6905 H   0  0  0  0  0  0
   10.2711   64.9085    5.6297 H   0  0  0  0  0  0
   15.0527   68.2363    1.6127 H   0  0  0  0  0  0
   14.3840   67.2714    3.7802 H   0  0  0  0  0  0
   18.2904   68.2667    5.3762 H   0  0  0  0  0  0
   19.6875   69.9800    1.1860 H   0  0  0  0  0  0
  1  2  1  0  0  0
  1  3  2  0  0  0
  1  4  1  0  0  0
  2 12  1  0  0  0
  2 33  1  0  0  0
  2 34  1  0  0  0
  4  5  1  0  0  0
  4 35  1  0  0  0
  5  6  1  0  0  0
  5 10  2  0  0  0
  6  7  2  0  0  0
  6 11  1  0  0  0
  7  8  1  0  0  0
  7 36  1  0  0  0
  8  9  2  0  0  0
  8 37  1  0  0  0
  9 10  1  0  0  0
  9 38  1  0  0  0
 10 39  1  0  0  0
 12 13  1  0  0  0
 12 16  1  0  0  0
 13 14  2  0  0  0
 14 15  1  0  0  0
 14 17  1  0  0  0
 15 16  2  0  0  0
 15 27  1  0  0  0
 16 40  1  0  0  0
 17 18  1  0  0  0
 17 22  2  0  0  0
 18 19  2  0  0  0
 18 41  1  0  0  0
 19 20  1  0  0  0
 19 42  1  0  0  0
 20 21  2  0  0  0
 20 43  1  0  0  0
 21 22  1  0  0  0
 21 23  1  0  0  0
 23 44  1  0  0  0
 23 45  1  0  0  0
 23 46  1  0  0  0
 24 25  1  0  0  0
 24 29  1  0  0  0
 24 32  2  0  0  0
 25 26  2  0  0  0
 25 47  1  0  0  0
 26 27  1  0  0  0
 26 48  1  0  0  0
 27 28  2  0  0  0
 28 29  1  0  0  0
 28 49  1  0  0  0
 29 30  1  0  0  0
 30 31  2  0  0  0
 31 32  1  0  0  0
 31 50  1  0  0  0
M  END
> <s_m_entry_id>
34290

> <s_m_entry_name>
dock_pv.33

> <s_m_Source_Path>
/home/csk/Desktop/cluster/DUD-E-result/tgfr1

> <s_m_Source_File>
dock_pv.maegz

> <i_m_Source_File_Index>
33

> <chembl_id>
CHEMBL3261092

> <chembl_pref_name>
None

> <i_lp_mmshare_version>
53161

> <r_lp_tautomer_probability>
1

> <s_lp_Force_Field>
OPLS_2005

> <r_lp_Energy>
29.421889

> <b_lp_Chiralities_Consistent>
1

> <s_lp_Variant>
CHEMBL4439_lig624-1

> <s_i_glide_gridfile>
glide-grid_3hmm

> <i_i_glide_lignum>
842

> <i_i_glide_rotatable_bonds>
6

> <r_i_docking_score>
-10.0458746337459

> <r_i_glide_ligand_efficiency>
-0.313933582304561

> <r_i_glide_ligand_efficiency_sa>
-0.996676996445404

> <r_i_glide_ligand_efficiency_ln>
-2.24954517069579

> <r_i_glide_gscore>
-10.0458746337459

> <r_i_glide_lipo>
-3.75813399038607

> <r_i_glide_hbond>
-0.418569706071115

> <r_i_glide_metal>
0

> <r_i_glide_rewards>
-3.14847037887957

> <r_i_glide_evdw>
-54.8130493164062

> <r_i_glide_ecoul>
-3.48948526382446

> <r_i_glide_erotb>
0.543374696984791

> <r_i_glide_esite>
0

> <r_i_glide_emodel>
-50.3463494710968

> <r_i_glide_energy>
-58.3025345802307

> <r_i_glide_einternal>
18.3200092315674

> <i_i_glide_confnum>
1

> <i_i_glide_posenum>
1

> <r_i_glide_eff_state_penalty>
0

> <s_user_duplicate_titles>
CHEMBL4439_lig624

> <i_f3d_flags>
0

> <s_m_subgroup_title>
dock_pv

> <s_m_subgroupid>
dock_pv

> <b_m_subgroup_collapsed>
1

$$$$
CHEMBL4439_lig803
                    3D
 Schrodinger Suite 2021-1.
 44 47  0  0  1  0            999 V2000
   17.7255   68.4488    3.9888 C   0  0  0  0  0  0
   16.6678   68.4569    3.0646 C   0  0  0  0  0  0
   16.8755   68.8571    1.7462 C   0  0  0  0  0  0
   18.0741   69.2569    1.2560 N   0  0  0  0  0  0
   17.5619   68.0668    5.3299 N   0  0  0  0  0  0
   16.5519   67.3398    5.9730 C   0  0  0  0  0  0
   16.3332   67.4898    7.3526 C   0  0  0  0  0  0
   15.2952   66.7595    7.9335 C   0  0  0  0  0  0
   14.5096   65.9052    7.2320 N   0  0  0  0  0  0
   14.7498   65.7268    5.9029 C   0  0  0  0  0  0
   15.7676   66.4301    5.2594 C   0  0  0  0  0  0
   13.8353   64.8072    5.1561 C   0  0  0  0  0  0
   12.4977   64.6851    5.5530 C   0  0  0  0  0  0
   11.6106   63.8626    4.8625 C   0  0  0  0  0  0
   12.0351   63.1704    3.7348 C   0  0  0  0  0  0
   13.3602   63.2569    3.3317 C   0  0  0  0  0  0
   14.2535   64.0570    4.0379 C   0  0  0  0  0  0
   15.5379   64.0581    3.6321 F   0  0  0  0  0  0
   18.9524   68.9108    3.4879 C   0  0  0  0  0  0
   19.0849   69.2880    2.1274 C   0  0  0  0  0  0
   20.4526   69.6570    1.9785 C   0  0  0  0  0  0
   21.0949   69.5729    3.1167 N   0  0  0  0  0  0
   20.2165   69.1103    4.0322 N   0  0  0  0  0  0
   10.1823   63.7737    5.3229 C   0  0  0  0  0  0
   17.1684   68.4294    8.2147 C   0  0  0  0  0  0
   20.6762   68.8755    5.3926 C   0  0  0  0  0  0
   15.6637   68.1962    3.3589 H   0  0  0  0  0  0
   16.0509   68.8653    1.0460 H   0  0  0  0  0  0
   18.2781   68.4138    5.9476 H   0  0  0  0  0  0
   15.0708   66.8597    8.9862 H   0  0  0  0  0  0
   15.9479   66.2647    4.2116 H   0  0  0  0  0  0
   12.1295   65.2409    6.4039 H   0  0  0  0  0  0
   11.3469   62.5535    3.1758 H   0  0  0  0  0  0
   13.6977   62.7077    2.4657 H   0  0  0  0  0  0
   20.9422   70.0165    1.0856 H   0  0  0  0  0  0
    9.5286   63.2904    4.5962 H   0  0  0  0  0  0
    9.8668   64.8049    5.4484 H   0  0  0  0  0  0
   10.1088   63.2613    6.2842 H   0  0  0  0  0  0
   18.2103   68.1070    8.2233 H   0  0  0  0  0  0
   17.1441   69.4415    7.8089 H   0  0  0  0  0  0
   16.8126   68.4792    9.2461 H   0  0  0  0  0  0
   20.0749   69.4654    6.0845 H   0  0  0  0  0  0
   20.5776   67.8151    5.6257 H   0  0  0  0  0  0
   21.7243   69.1624    5.5035 H   0  0  0  0  0  0
  1 19  1  0  0  0
  1  2  2  0  0  0
  1  5  1  0  0  0
  2  3  1  0  0  0
  2 27  1  0  0  0
  3  4  2  0  0  0
  3 28  1  0  0  0
  4 20  1  0  0  0
  5  6  1  0  0  0
  5 29  1  0  0  0
  6  7  2  0  0  0
  6 11  1  0  0  0
  7  8  1  0  0  0
  7 25  1  0  0  0
  8  9  2  0  0  0
  8 30  1  0  0  0
  9 10  1  0  0  0
 10 11  2  0  0  0
 10 12  1  0  0  0
 11 31  1  0  0  0
 12 13  2  0  0  0
 12 17  1  0  0  0
 13 14  1  0  0  0
 13 32  1  0  0  0
 14 15  2  0  0  0
 14 24  1  0  0  0
 15 16  1  0  0  0
 15 33  1  0  0  0
 16 17  2  0  0  0
 16 34  1  0  0  0
 17 18  1  0  0  0
 19 20  2  0  0  0
 19 23  1  0  0  0
 20 21  1  0  0  0
 21 22  2  0  0  0
 21 35  1  0  0  0
 22 23  1  0  0  0
 23 26  1  0  0  0
 24 36  1  0  0  0
 24 37  1  0  0  0
 24 38  1  0  0  0
 25 39  1  0  0  0
 25 40  1  0  0  0
 25 41  1  0  0  0
 26 42  1  0  0  0
 26 43  1  0  0  0
 26 44  1  0  0  0
M  END
> <s_m_entry_id>
34291

> <s_m_entry_name>
dock_pv.34

> <s_m_Source_Path>
/home/csk/Desktop/cluster/DUD-E-result/tgfr1

> <s_m_Source_File>
dock_pv.maegz

> <i_m_Source_File_Index>
34

> <chembl_id>
CHEMBL4079857

> <chembl_pref_name>
None

> <i_lp_mmshare_version>
53161

> <r_lp_tautomer_probability>
0.999999106000799

> <s_lp_Force_Field>
OPLS_2005

> <r_lp_Energy>
25.307704

> <b_lp_Chiralities_Consistent>
1

> <s_lp_Variant>
CHEMBL4439_lig803-1

> <s_i_glide_gridfile>
glide-grid_3hmm

> <i_i_glide_lignum>
1119

> <i_i_glide_rotatable_bonds>
3

> <r_i_docking_score>
-9.97361569047854

> <r_i_glide_ligand_efficiency>
-0.383600603479944

> <r_i_glide_ligand_efficiency_sa>
-1.13641527841385

> <r_i_glide_ligand_efficiency_ln>
-2.34227091880654

> <r_i_glide_gscore>
-9.97361569047854

> <r_i_glide_lipo>
-4.71272192940096

> <r_i_glide_hbond>
-0.274887643210094

> <r_i_glide_metal>
0

> <r_i_glide_rewards>
-2.74914468638453

> <r_i_glide_evdw>
-46.8758087158203

> <r_i_glide_ecoul>
-2.43993043899536

> <r_i_glide_erotb>
0.472918570157358

> <r_i_glide_esite>
0

> <r_i_glide_emodel>
-78.789214551331

> <r_i_glide_energy>
-49.3157391548157

> <r_i_glide_einternal>
0.742144107818604

> <i_i_glide_confnum>
20

> <i_i_glide_posenum>
61

> <r_i_glide_eff_state_penalty>
0

> <s_user_duplicate_titles>
CHEMBL4439_lig803

> <i_f3d_flags>
0

> <s_m_subgroup_title>
dock_pv

> <s_m_subgroupid>
dock_pv

> <b_m_subgroup_collapsed>
1

$$$$
CHEMBL4439_lig936 
                    3D
 Schrodinger Suite 2021-1.
 38 42  0  0  1  0            999 V2000
   15.9853   66.6773    5.6177 C   0  0  0  0  0  0
   14.9642   66.1908    6.4390 C   0  0  0  0  0  0
   14.9027   66.4532    7.7731 N   0  0  0  0  0  0
   16.9613   67.5576    6.1068 C   0  0  0  0  0  0
   16.9022   67.8593    7.4906 C   0  0  0  0  0  0
   15.8617   67.2481    8.2502 C   0  0  0  0  0  0
   16.0278   67.6146    9.5664 N   0  0  0  0  0  0
   17.1050   68.4579    9.6724 C   0  0  0  0  0  0
   17.6490   68.6633    8.4206 C   0  0  0  0  0  0
   17.9452   68.0594    5.2170 N   0  0  0  0  0  0
   13.8476   65.3815    5.8559 C   0  0  0  0  0  0
   14.1113   64.4569    4.8308 C   0  0  0  0  0  0
   13.0870   63.7272    4.2294 C   0  0  0  0  0  0
   11.7703   63.9277    4.6280 C   0  0  0  0  0  0
   11.4850   64.8326    5.6447 C   0  0  0  0  0  0
   12.5092   65.5521    6.2597 C   0  0  0  0  0  0
   12.1828   66.4387    7.2307 F   0  0  0  0  0  0
   10.7681   63.2574    4.0235 F   0  0  0  0  0  0
   19.2765   68.2135    5.4977 C   0  0  0  0  0  0
   19.8267   68.7266    4.3796 N   0  0  0  0  0  0
   17.7046   68.4464    3.8955 C   0  0  0  0  0  0
   18.9017   68.8572    3.3795 C   0  0  0  0  0  0
   18.9926   69.2682    2.0506 C   0  0  0  0  0  0
   17.9044   69.2575    1.2325 N   0  0  0  0  0  0
   16.7120   68.8683    1.7558 C   0  0  0  0  0  0
   16.5627   68.4568    3.0834 C   0  0  0  0  0  0
   19.8866   67.9265    6.5273 O   0  0  0  0  0  0
   16.0000   66.3866    4.5787 H   0  0  0  0  0  0
   15.4698   67.3369   10.3603 H   0  0  0  0  0  0
   17.3946   68.8562   10.6354 H   0  0  0  0  0  0
   18.5077   69.2871    8.2152 H   0  0  0  0  0  0
   15.1239   64.2903    4.4912 H   0  0  0  0  0  0
   13.3093   63.0282    3.4349 H   0  0  0  0  0  0
   10.4622   64.9894    5.9439 H   0  0  0  0  0  0
   20.8128   68.9208    4.2919 H   0  0  0  0  0  0
   19.9193   69.6009    1.6050 H   0  0  0  0  0  0
   15.8640   68.8888    1.0859 H   0  0  0  0  0  0
   15.5833   68.1736    3.4370 H   0  0  0  0  0  0
  1  2  2  0  0  0
  1  4  1  0  0  0
  1 28  1  0  0  0
  2  3  1  0  0  0
  2 11  1  0  0  0
  3  6  2  0  0  0
  4  5  2  0  0  0
  4 10  1  0  0  0
  5  6  1  0  0  0
  5  9  1  0  0  0
  6  7  1  0  0  0
  7  8  1  0  0  0
  7 29  1  0  0  0
  8  9  2  0  0  0
  8 30  1  0  0  0
  9 31  1  0  0  0
 10 19  1  0  0  0
 10 21  1  0  0  0
 11 12  2  0  0  0
 11 16  1  0  0  0
 12 13  1  0  0  0
 12 32  1  0  0  0
 13 14  2  0  0  0
 13 33  1  0  0  0
 14 15  1  0  0  0
 14 18  1  0  0  0
 15 16  2  0  0  0
 15 34  1  0  0  0
 16 17  1  0  0  0
 19 20  1  0  0  0
 19 27  2  0  0  0
 20 22  1  0  0  0
 20 35  1  0  0  0
 21 22  2  0  0  0
 21 26  1  0  0  0
 22 23  1  0  0  0
 23 24  2  0  0  0
 23 36  1  0  0  0
 24 25  1  0  0  0
 25 26  2  0  0  0
 25 37  1  0  0  0
 26 38  1  0  0  0
M  END
> <s_m_entry_id>
34292

> <s_m_entry_name>
dock_pv.35

> <s_m_Source_Path>
/home/csk/Desktop/cluster/DUD-E-result/tgfr1

> <s_m_Source_File>
dock_pv.maegz

> <i_m_Source_File_Index>
35

> <chembl_id>
CHEMBL4555703

> <chembl_pref_name>
None

> <i_lp_mmshare_version>
53161

> <r_lp_tautomer_probability>
1

> <s_lp_Force_Field>
OPLS_2005

> <r_lp_Energy>
57.44787

> <b_lp_Chiralities_Consistent>
1

> <s_lp_Variant>
CHEMBL4439_lig936 -1

> <s_i_glide_gridfile>
glide-grid_3hmm

> <i_i_glide_lignum>
1271

> <i_i_glide_rotatable_bonds>
2

> <r_i_docking_score>
-9.95866216080397

> <r_i_glide_ligand_efficiency>
-0.368839339289036

> <r_i_glide_ligand_efficiency_sa>
-1.10651801665147

> <r_i_glide_ligand_efficiency_ln>
-2.31821236965797

> <r_i_glide_gscore>
-9.95866216080397

> <r_i_glide_lipo>
-3.94233627527889

> <r_i_glide_hbond>
-0.295244467104908

> <r_i_glide_metal>
0

> <r_i_glide_rewards>
-3.06944795394875

> <r_i_glide_evdw>
-49.8691825866699

> <r_i_glide_ecoul>
-2.94075059890747

> <r_i_glide_erotb>
0.291088460300852

> <r_i_glide_esite>
-0.00815020560265354

> <r_i_glide_emodel>
-82.4333700189126

> <r_i_glide_energy>
-52.8099331855774

> <r_i_glide_einternal>
2.74199175834656

> <i_i_glide_confnum>
1

> <i_i_glide_posenum>
30

> <r_i_glide_eff_state_penalty>
0

> <s_user_duplicate_titles>
CHEMBL4439_lig936 

> <i_f3d_flags>
0

> <s_m_subgroup_title>
dock_pv

> <s_m_subgroupid>
dock_pv

> <b_m_subgroup_collapsed>
1

$$$$
CHEMBL4439_lig892 
                    3D
 Schrodinger Suite 2021-1.
 38 41  0  0  1  0            999 V2000
   17.6304   68.0619    4.9376 N   0  0  0  0  0  0
   16.3539   67.6584    5.1451 C   0  0  0  0  0  0
   15.3941   67.6533    4.1252 C   0  0  0  0  0  0
   15.7237   68.0569    2.8321 C   0  0  0  0  0  0
   17.9115   68.4786    3.6908 N   0  0  0  0  0  0
   17.0349   68.4913    2.5945 C   0  0  0  0  0  0
   17.6383   68.9555    1.4741 N   0  0  0  0  0  0
   18.8538   69.2570    1.8765 C   0  0  0  0  0  0
   19.0888   69.0148    3.2317 C   0  0  0  0  0  0
   15.9890   67.2966    6.5593 C   0  0  0  0  0  0
   16.6081   67.7497    7.7237 N   0  0  0  0  0  0
   15.8847   67.1966    8.7462 C   0  0  0  0  0  0
   14.8905   66.4575    8.3472 N   0  0  0  0  0  0
   14.9491   66.4667    7.0261 C   0  0  0  0  0  0
   13.9705   65.6486    6.2422 C   0  0  0  0  0  0
   12.6092   65.6568    6.5646 C   0  0  0  0  0  0
   11.7156   64.8710    5.8385 C   0  0  0  0  0  0
   12.1750   64.0812    4.7887 C   0  0  0  0  0  0
   13.5250   64.0754    4.4505 C   0  0  0  0  0  0
   14.4200   64.8569    5.1787 C   0  0  0  0  0  0
   17.7442   68.6591    7.9245 C   0  0  0  0  0  0
   19.0596   67.9128    8.2061 C   0  0  0  0  0  0
   18.9775   67.0700    9.2362 F   0  0  0  0  0  0
   19.5298   67.2574    7.1476 F   0  0  0  0  0  0
   11.3047   63.3195    4.0892 F   0  0  0  0  0  0
   20.2736   69.2571    4.0371 C   0  0  0  0  0  0
   21.2091   69.4604    4.6825 N   0  0  0  0  0  0
   14.3736   67.3733    4.3323 H   0  0  0  0  0  0
   14.9859   68.0651    2.0415 H   0  0  0  0  0  0
   19.5784   69.6607    1.1819 H   0  0  0  0  0  0
   16.1519   67.4083    9.7720 H   0  0  0  0  0  0
   12.2355   66.2649    7.3768 H   0  0  0  0  0  0
   10.6670   64.8769    6.0857 H   0  0  0  0  0  0
   13.8727   63.4664    3.6290 H   0  0  0  0  0  0
   15.4667   64.8449    4.9165 H   0  0  0  0  0  0
   17.8666   69.3174    7.0724 H   0  0  0  0  0  0
   17.5069   69.3087    8.7675 H   0  0  0  0  0  0
   19.8365   68.6317    8.4695 H   0  0  0  0  0  0
  1  5  1  0  0  0
  1  2  2  0  0  0
  2  3  1  0  0  0
  2 10  1  0  0  0
  3  4  2  0  0  0
  3 28  1  0  0  0
  4  6  1  0  0  0
  4 29  1  0  0  0
  5  6  1  0  0  0
  5  9  1  0  0  0
  6  7  2  0  0  0
  7  8  1  0  0  0
  8  9  2  0  0  0
  8 30  1  0  0  0
  9 26  1  0  0  0
 10 11  1  0  0  0
 10 14  2  0  0  0
 11 12  1  0  0  0
 11 21  1  0  0  0
 12 13  2  0  0  0
 12 31  1  0  0  0
 13 14  1  0  0  0
 14 15  1  0  0  0
 15 16  2  0  0  0
 15 20  1  0  0  0
 16 17  1  0  0  0
 16 32  1  0  0  0
 17 18  2  0  0  0
 17 33  1  0  0  0
 18 19  1  0  0  0
 18 25  1  0  0  0
 19 20  2  0  0  0
 19 34  1  0  0  0
 20 35  1  0  0  0
 21 22  1  0  0  0
 21 36  1  0  0  0
 21 37  1  0  0  0
 22 23  1  0  0  0
 22 24  1  0  0  0
 22 38  1  0  0  0
 26 27  3  0  0  0
M  END
> <s_m_entry_id>
34293

> <s_m_entry_name>
dock_pv.36

> <s_m_Source_Path>
/home/csk/Desktop/cluster/DUD-E-result/tgfr1

> <s_m_Source_File>
dock_pv.maegz

> <i_m_Source_File_Index>
36

> <chembl_id>
CHEMBL4584495

> <chembl_pref_name>
None

> <i_lp_mmshare_version>
53161

> <r_lp_tautomer_probability>
1

> <s_lp_Force_Field>
OPLS_2005

> <r_lp_Energy>
22.769743

> <b_lp_Chiralities_Consistent>
1

> <s_lp_Variant>
CHEMBL4439_lig892 -1

> <s_i_glide_gridfile>
glide-grid_3hmm

> <i_i_glide_lignum>
1227

> <i_i_glide_rotatable_bonds>
4

> <r_i_docking_score>
-9.91881928666227

> <r_i_glide_ligand_efficiency>
-0.367363677283788

> <r_i_glide_ligand_efficiency_sa>
-1.10209103064059

> <r_i_glide_ligand_efficiency_ln>
-2.3089376054189

> <r_i_glide_gscore>
-9.91881928666227

> <r_i_glide_lipo>
-3.41872998857355

> <r_i_glide_hbond>
-0.153086778516805

> <r_i_glide_metal>
0

> <r_i_glide_rewards>
-3.97284989318182

> <r_i_glide_evdw>
-49.4576148986816

> <r_i_glide_ecoul>
-2.18259429931641

> <r_i_glide_erotb>
0.42611726344145

> <r_i_glide_esite>
0

> <r_i_glide_emodel>
-80.8219816015847

> <r_i_glide_energy>
-51.640209197998

> <r_i_glide_einternal>
2.76769614219666

> <i_i_glide_confnum>
16

> <i_i_glide_posenum>
84

> <r_i_glide_eff_state_penalty>
0

> <s_user_duplicate_titles>
CHEMBL4439_lig892 

> <i_f3d_flags>
0

> <s_m_subgroup_title>
dock_pv

> <s_m_subgroupid>
dock_pv

> <b_m_subgroup_collapsed>
1

$$$$
CHEMBL4439_lig740
                    3D
 Schrodinger Suite 2021-1.
 48 52  0  0  1  0            999 V2000
   17.9684   68.5746    4.7457 C   0  0  0  0  0  0
   16.6682   68.0586    4.7958 C   0  0  0  0  0  0
   15.9506   68.0050    3.5808 C   0  0  0  0  0  0
   16.4783   68.4567    2.3690 C   0  0  0  0  0  0
   18.5004   68.9431    3.5455 N   0  0  0  0  0  0
   17.8095   68.8720    2.3425 C   0  0  0  0  0  0
   18.6317   69.2594    1.3467 N   0  0  0  0  0  0
   19.6975   69.6569    2.0240 C   0  0  0  0  0  0
   19.7228   69.4565    3.3294 N   0  0  0  0  0  0
   15.9794   67.6291    6.0744 C   0  0  0  0  0  0
   16.2760   67.3897    7.4543 C   0  0  0  0  0  0
   15.2084   66.8933    8.0800 N   0  0  0  0  0  0
   14.2349   66.8693    7.2176 C   0  0  0  0  0  0
   14.6371   67.3658    6.0259 N   0  0  0  0  0  0
   17.5294   67.5721    8.2815 C   0  0  0  0  0  0
   17.5542   67.6607    9.6898 C   0  0  0  0  0  0
   18.7778   67.8484   10.3395 C   0  0  0  0  0  0
   19.9496   67.9709    9.5922 C   0  0  0  0  0  0
   19.8531   67.8801    8.2045 C   0  0  0  0  0  0
   18.6780   67.6572    7.5707 N   0  0  0  0  0  0
   21.0482   68.0712    7.2932 C   0  0  0  0  0  0
   12.8134   66.4424    7.4876 C   0  0  0  0  0  0
   12.2614   65.2571    6.8294 N   0  0  0  0  0  0
   12.6279   64.6153    5.6256 C   0  0  0  0  0  0
   13.9405   64.5536    5.1334 C   0  0  0  0  0  0
   14.2301   63.9069    3.9338 C   0  0  0  0  0  0
   13.2190   63.2567    3.2340 C   0  0  0  0  0  0
   11.9193   63.2573    3.7333 C   0  0  0  0  0  0
   11.6220   63.9406    4.9127 C   0  0  0  0  0  0
   16.4262   67.5812   10.4343 F   0  0  0  0  0  0
   10.3432   63.9303    5.3579 F   0  0  0  0  0  0
   18.6077   68.7811    5.5768 H   0  0  0  0  0  0
   14.9349   67.6387    3.5521 H   0  0  0  0  0  0
   15.8890   68.4555    1.4633 H   0  0  0  0  0  0
   20.5533   70.0733    1.5094 H   0  0  0  0  0  0
   14.0510   67.4439    5.2084 H   0  0  0  0  0  0
   18.8140   67.9209   11.4158 H   0  0  0  0  0  0
   20.8971   68.1482   10.0797 H   0  0  0  0  0  0
   21.9890   68.0651    7.8441 H   0  0  0  0  0  0
   21.0713   67.2898    6.5315 H   0  0  0  0  0  0
   20.9755   69.0305    6.7791 H   0  0  0  0  0  0
   12.1406   67.2568    7.2316 H   0  0  0  0  0  0
   12.6664   66.3069    8.5560 H   0  0  0  0  0  0
   11.3118   65.0537    7.1216 H   0  0  0  0  0  0
   14.7764   64.9424    5.6861 H   0  0  0  0  0  0
   15.2455   63.8754    3.5662 H   0  0  0  0  0  0
   13.4426   62.7411    2.3114 H   0  0  0  0  0  0
   11.1325   62.7485    3.1965 H   0  0  0  0  0  0
  1  5  1  0  0  0
  1  2  2  0  0  0
  1 32  1  0  0  0
  2  3  1  0  0  0
  2 10  1  0  0  0
  3  4  2  0  0  0
  3 33  1  0  0  0
  4  6  1  0  0  0
  4 34  1  0  0  0
  5  6  1  0  0  0
  5  9  1  0  0  0
  6  7  2  0  0  0
  7  8  1  0  0  0
  8  9  2  0  0  0
  8 35  1  0  0  0
 10 11  2  0  0  0
 10 14  1  0  0  0
 11 15  1  0  0  0
 11 12  1  0  0  0
 12 13  2  0  0  0
 13 14  1  0  0  0
 13 22  1  0  0  0
 14 36  1  0  0  0
 15 16  2  0  0  0
 15 20  1  0  0  0
 16 17  1  0  0  0
 16 30  1  0  0  0
 17 18  2  0  0  0
 17 37  1  0  0  0
 18 19  1  0  0  0
 18 38  1  0  0  0
 19 20  2  0  0  0
 19 21  1  0  0  0
 21 39  1  0  0  0
 21 40  1  0  0  0
 21 41  1  0  0  0
 22 23  1  0  0  0
 22 42  1  0  0  0
 22 43  1  0  0  0
 23 24  1  0  0  0
 23 44  1  0  0  0
 24 25  2  0  0  0
 24 29  1  0  0  0
 25 26  1  0  0  0
 25 45  1  0  0  0
 26 27  2  0  0  0
 26 46  1  0  0  0
 27 28  1  0  0  0
 27 47  1  0  0  0
 28 29  2  0  0  0
 28 48  1  0  0  0
 29 31  1  0  0  0
M  END
> <s_m_entry_id>
34294

> <s_m_entry_name>
dock_pv.37

> <s_m_Source_Path>
/home/csk/Desktop/cluster/DUD-E-result/tgfr1

> <s_m_Source_File>
dock_pv.maegz

> <i_m_Source_File_Index>
37

> <chembl_id>
CHEMBL3634705

> <chembl_pref_name>
None

> <i_lp_mmshare_version>
53161

> <r_lp_tautomer_probability>
0.499999999999999

> <s_lp_Force_Field>
OPLS_2005

> <r_lp_Energy>
20.875563

> <b_lp_Chiralities_Consistent>
1

> <s_lp_Variant>
CHEMBL4439_lig740-2

> <s_i_glide_gridfile>
glide-grid_3hmm

> <i_i_glide_lignum>
1053

> <i_i_glide_rotatable_bonds>
5

> <r_i_docking_score>
-9.91665994168229

> <r_i_glide_ligand_efficiency>
-0.3198922561833

> <r_i_glide_ligand_efficiency_sa>
-1.00490334327377

> <r_i_glide_ligand_efficiency_ln>
-2.23651072597846

> <r_i_glide_gscore>
-9.91665994168229

> <r_i_glide_lipo>
-3.97843515827644

> <r_i_glide_hbond>
-0.0324316462127764

> <r_i_glide_metal>
0

> <r_i_glide_rewards>
-3.47601326667255

> <r_i_glide_evdw>
-51.8846893310547

> <r_i_glide_ecoul>
-2.53492736816406

> <r_i_glide_erotb>
0.567192840668897

> <r_i_glide_esite>
-0.0224991394120689

> <r_i_glide_emodel>
-87.8653142091937

> <r_i_glide_energy>
-54.4196166992188

> <r_i_glide_einternal>
4.26052808761597

> <i_i_glide_confnum>
72

> <i_i_glide_posenum>
69

> <r_i_glide_eff_state_penalty>
0

> <s_user_duplicate_titles>
CHEMBL4439_lig740,CHEMBL4439_lig740

> <i_f3d_flags>
0

> <s_m_subgroup_title>
dock_pv

> <s_m_subgroupid>
dock_pv

> <b_m_subgroup_collapsed>
1

$$$$
CHEMBL4439_lig99
                    3D
 Schrodinger Suite 2021-1.
 41 45  0  0  1  0            999 V2000
   14.8623   66.4564    8.3321 N   0  0  0  0  0  0
   16.0013   67.2707    6.5432 C   0  0  0  0  0  0
   14.9195   66.4732    7.0131 C   0  0  0  0  0  0
   13.9540   65.6462    6.2210 C   0  0  0  0  0  0
   14.3906   64.8571    5.1484 C   0  0  0  0  0  0
   13.4631   64.0751    4.4565 C   0  0  0  0  0  0
   12.1262   64.0874    4.8570 C   0  0  0  0  0  0
   11.7654   64.8879    5.9426 C   0  0  0  0  0  0
   12.6531   65.6572    6.6244 N   0  0  0  0  0  0
   16.6787   67.6083    7.7131 C   0  0  0  0  0  0
   15.9520   67.0929    8.7413 N   0  0  0  0  0  0
   16.5777   67.2099   10.0409 C   0  0  0  0  0  0
   17.6085   68.3076    9.7766 C   0  0  0  0  0  0
   17.8928   68.3088    8.2683 C   0  0  0  0  0  0
   16.3720   67.6568    5.1434 C   0  0  0  0  0  0
   19.0669   69.0298    2.9455 N   0  0  0  0  0  0
   18.7119   69.2569    1.6331 C   0  0  0  0  0  0
   17.4722   68.9569    1.3514 N   0  0  0  0  0  0
   16.9688   68.4973    2.5382 C   0  0  0  0  0  0
   15.6757   68.0571    2.8316 C   0  0  0  0  0  0
   15.4003   67.6563    4.1350 C   0  0  0  0  0  0
   17.6773   68.0822    4.8651 C   0  0  0  0  0  0
   17.9470   68.5160    3.5629 C   0  0  0  0  0  0
   20.3715   69.2575    3.5466 C   0  0  0  0  0  0
   15.4301   64.8497    4.8546 H   0  0  0  0  0  0
   13.7770   63.4707    3.6167 H   0  0  0  0  0  0
   11.3884   63.4952    4.3353 H   0  0  0  0  0  0
   10.7404   64.9238    6.2802 H   0  0  0  0  0  0
   17.0547   66.2686   10.3158 H   0  0  0  0  0  0
   15.8648   67.4899   10.8190 H   0  0  0  0  0  0
   18.5153   68.1848   10.3744 H   0  0  0  0  0  0
   17.1656   69.2575   10.0665 H   0  0  0  0  0  0
   18.8106   67.7676    8.0328 H   0  0  0  0  0  0
   18.0089   69.3250    7.8896 H   0  0  0  0  0  0
   19.4422   69.6571    0.9406 H   0  0  0  0  0  0
   14.9051   68.0561    2.0738 H   0  0  0  0  0  0
   14.3837   67.3795    4.3622 H   0  0  0  0  0  0
   18.4421   68.1025    5.6247 H   0  0  0  0  0  0
   20.7695   68.3147    3.9252 H   0  0  0  0  0  0
   21.0603   69.6709    2.8084 H   0  0  0  0  0  0
   20.2689   69.9559    4.3774 H   0  0  0  0  0  0
  1  3  2  0  0  0
  1 11  1  0  0  0
  2 10  2  0  0  0
  2  3  1  0  0  0
  2 15  1  0  0  0
  3  4  1  0  0  0
  4  5  2  0  0  0
  4  9  1  0  0  0
  5  6  1  0  0  0
  5 25  1  0  0  0
  6  7  2  0  0  0
  6 26  1  0  0  0
  7  8  1  0  0  0
  7 27  1  0  0  0
  8  9  2  0  0  0
  8 28  1  0  0  0
 10 14  1  0  0  0
 10 11  1  0  0  0
 11 12  1  0  0  0
 12 13  1  0  0  0
 12 29  1  0  0  0
 12 30  1  0  0  0
 13 14  1  0  0  0
 13 31  1  0  0  0
 13 32  1  0  0  0
 14 33  1  0  0  0
 14 34  1  0  0  0
 15 21  1  0  0  0
 15 22  2  0  0  0
 16 17  1  0  0  0
 16 23  1  0  0  0
 16 24  1  0  0  0
 17 18  2  0  0  0
 17 35  1  0  0  0
 18 19  1  0  0  0
 19 23  2  0  0  0
 19 20  1  0  0  0
 20 21  2  0  0  0
 20 36  1  0  0  0
 21 37  1  0  0  0
 22 23  1  0  0  0
 22 38  1  0  0  0
 24 39  1  0  0  0
 24 40  1  0  0  0
 24 41  1  0  0  0
M  END
> <s_m_entry_id>
34295

> <s_m_entry_name>
dock_pv.38

> <s_m_Source_Path>
/home/csk/Desktop/cluster/DUD-E-result/tgfr1

> <s_m_Source_File>
dock_pv.maegz

> <i_m_Source_File_Index>
38

> <chembl_id>
CHEMBL204170

> <chembl_pref_name>
None

> <i_lp_mmshare_version>
53161

> <r_lp_tautomer_probability>
1

> <s_lp_Force_Field>
OPLS_2005

> <r_lp_Energy>
37.801851

> <b_lp_Chiralities_Consistent>
1

> <s_lp_Variant>
CHEMBL4439_lig99-1

> <s_i_glide_gridfile>
glide-grid_3hmm

> <i_i_glide_lignum>
138

> <i_i_glide_rotatable_bonds>
2

> <r_i_docking_score>
-9.90394042294337

> <r_i_glide_ligand_efficiency>
-0.412664184289307

> <r_i_glide_ligand_efficiency_sa>
-1.19032948368404

> <r_i_glide_ligand_efficiency_ln>
-2.3704674054232

> <r_i_glide_gscore>
-9.90394042294337

> <r_i_glide_lipo>
-3.98583140260221

> <r_i_glide_hbond>
-0.246610716590707

> <r_i_glide_metal>
0

> <r_i_glide_rewards>
-3.17413615933615

> <r_i_glide_evdw>
-45.2159042358398

> <r_i_glide_ecoul>
-4.07081747055054

> <r_i_glide_erotb>
0.374055687960268

> <r_i_glide_esite>
0

> <r_i_glide_emodel>
-77.4088065470374

> <r_i_glide_energy>
-49.2867217063904

> <r_i_glide_einternal>
1.87339222431183

> <i_i_glide_confnum>
12

> <i_i_glide_posenum>
217

> <r_i_glide_eff_state_penalty>
0

> <s_user_duplicate_titles>
CHEMBL4439_lig99,341188

> <i_f3d_flags>
0

> <s_m_subgroup_title>
dock_pv

> <s_m_subgroupid>
dock_pv

> <b_m_subgroup_collapsed>
1

$$$$
CHEMBL4439_lig777
                    3D
 Schrodinger Suite 2021-1.
 48 51  0  0  1  0            999 V2000
   20.4638   69.6570    1.8993 C   0  0  0  0  0  0
   21.5390   69.6570    2.7751 C   0  0  0  0  0  0
   21.3588   69.3206    4.1078 C   0  0  0  0  0  0
   20.1046   68.9482    4.6145 C   0  0  0  0  0  0
   19.1815   69.2570    2.3415 C   0  0  0  0  0  0
   18.9855   68.8714    3.7094 C   0  0  0  0  0  0
   17.6648   68.4359    4.0774 C   0  0  0  0  0  0
   16.6616   68.4570    3.1034 C   0  0  0  0  0  0
   16.9542   68.8590    1.8106 C   0  0  0  0  0  0
   18.1835   69.2462    1.4172 N   0  0  0  0  0  0
   19.9078   68.6606    5.9572 O   0  0  0  0  0  0
   20.9688   68.8486    6.8909 C   0  0  0  0  0  0
   17.3668   68.0570    5.3987 N   0  0  0  0  0  0
   16.2886   67.3924    6.0023 C   0  0  0  0  0  0
   16.0106   67.5854    7.3675 C   0  0  0  0  0  0
   14.9216   66.9052    7.9154 C   0  0  0  0  0  0
   14.1393   66.0570    7.2050 N   0  0  0  0  0  0
   14.4405   65.8271    5.8964 C   0  0  0  0  0  0
   15.5009   66.4947    5.2768 C   0  0  0  0  0  0
   13.5660   64.8659    5.1495 C   0  0  0  0  0  0
   14.0575   64.0846    4.0800 C   0  0  0  0  0  0
   13.2096   63.2570    3.3519 C   0  0  0  0  0  0
   11.8671   63.1659    3.6893 C   0  0  0  0  0  0
   11.3716   63.8713    4.7763 C   0  0  0  0  0  0
   12.2077   64.7280    5.4905 C   0  0  0  0  0  0
    9.7265   63.6570    5.2320 Cl  0  0  0  0  0  0
   15.3657   64.0878    3.7373 F   0  0  0  0  0  0
   16.8383   68.5028    8.2672 C   0  0  0  0  0  0
   17.9471   67.7430    9.0084 C   0  0  0  0  0  0
   20.6085   69.9465    0.8674 H   0  0  0  0  0  0
   22.5196   69.9459    2.4245 H   0  0  0  0  0  0
   22.2293   69.3569    4.7457 H   0  0  0  0  0  0
   15.6377   68.2143    3.3364 H   0  0  0  0  0  0
   16.1756   68.8886    1.0605 H   0  0  0  0  0  0
   20.5987   68.6702    7.8997 H   0  0  0  0  0  0
   21.7870   68.1503    6.7180 H   0  0  0  0  0  0
   21.3553   69.8688    6.8643 H   0  0  0  0  0  0
   18.1113   68.3136    6.0379 H   0  0  0  0  0  0
   14.6670   67.0320    8.9560 H   0  0  0  0  0  0
   15.7267   66.3011    4.2425 H   0  0  0  0  0  0
   13.5936   62.6842    2.5207 H   0  0  0  0  0  0
   11.2151   62.5173    3.1243 H   0  0  0  0  0  0
   11.7882   65.2898    6.3134 H   0  0  0  0  0  0
   17.2748   69.3160    7.6868 H   0  0  0  0  0  0
   16.1815   68.9884    8.9912 H   0  0  0  0  0  0
   18.5336   68.4207    9.6298 H   0  0  0  0  0  0
   17.5345   66.9717    9.6596 H   0  0  0  0  0  0
   18.6294   67.2575    8.3097 H   0  0  0  0  0  0
  1  2  2  0  0  0
  1  5  1  0  0  0
  1 30  1  0  0  0
  2  3  1  0  0  0
  2 31  1  0  0  0
  3  4  2  0  0  0
  3 32  1  0  0  0
  4  6  1  0  0  0
  4 11  1  0  0  0
  5  6  1  0  0  0
  5 10  2  0  0  0
  6  7  2  0  0  0
  7  8  1  0  0  0
  7 13  1  0  0  0
  8  9  2  0  0  0
  8 33  1  0  0  0
  9 10  1  0  0  0
  9 34  1  0  0  0
 11 12  1  0  0  0
 12 35  1  0  0  0
 12 36  1  0  0  0
 12 37  1  0  0  0
 13 14  1  0  0  0
 13 38  1  0  0  0
 14 15  2  0  0  0
 14 19  1  0  0  0
 15 16  1  0  0  0
 15 28  1  0  0  0
 16 17  2  0  0  0
 16 39  1  0  0  0
 17 18  1  0  0  0
 18 19  2  0  0  0
 18 20  1  0  0  0
 19 40  1  0  0  0
 20 21  2  0  0  0
 20 25  1  0  0  0
 21 22  1  0  0  0
 21 27  1  0  0  0
 22 23  2  0  0  0
 22 41  1  0  0  0
 23 24  1  0  0  0
 23 42  1  0  0  0
 24 25  2  0  0  0
 24 26  1  0  0  0
 25 43  1  0  0  0
 28 29  1  0  0  0
 28 44  1  0  0  0
 28 45  1  0  0  0
 29 46  1  0  0  0
 29 47  1  0  0  0
 29 48  1  0  0  0
M  END
> <s_m_entry_id>
34296

> <s_m_entry_name>
dock_pv.39

> <s_m_Source_Path>
/home/csk/Desktop/cluster/DUD-E-result/tgfr1

> <s_m_Source_File>
dock_pv.maegz

> <i_m_Source_File_Index>
39

> <chembl_id>
CHEMBL4066735

> <chembl_pref_name>
None

> <i_lp_mmshare_version>
53161

> <r_lp_tautomer_probability>
0.999999106000799

> <s_lp_Force_Field>
OPLS_2005

> <r_lp_Energy>
33.34229

> <b_lp_Chiralities_Consistent>
1

> <s_lp_Variant>
CHEMBL4439_lig777-1

> <s_i_glide_gridfile>
glide-grid_3hmm

> <i_i_glide_lignum>
1091

> <i_i_glide_rotatable_bonds>
5

> <r_i_docking_score>
-9.87708718584638

> <r_i_glide_ligand_efficiency>
-0.340589213305047

> <r_i_glide_ligand_efficiency_sa>
-1.04639796950969

> <r_i_glide_ligand_efficiency_ln>
-2.26160250423818

> <r_i_glide_gscore>
-9.87708718584638

> <r_i_glide_lipo>
-4.89193216456735

> <r_i_glide_hbond>
-0.111495060244214

> <r_i_glide_metal>
0

> <r_i_glide_rewards>
-2.18756765715259

> <r_i_glide_evdw>
-51.8203048706055

> <r_i_glide_ecoul>
-2.99936604499817

> <r_i_glide_erotb>
0.354827846397773

> <r_i_glide_esite>
0

> <r_i_glide_emodel>
-86.2821695897301

> <r_i_glide_energy>
-54.8196709156036

> <r_i_glide_einternal>
1.03816533088684

> <i_i_glide_confnum>
7

> <i_i_glide_posenum>
71

> <r_i_glide_eff_state_penalty>
0

> <s_user_duplicate_titles>
CHEMBL4439_lig777

> <i_f3d_flags>
0

> <s_m_subgroup_title>
dock_pv

> <s_m_subgroupid>
dock_pv

> <b_m_subgroup_collapsed>
1

$$$$
CHEMBL4439_lig5
                    3D
 Schrodinger Suite 2021-1.
 48 52  0  0  1  0            999 V2000
   16.1585   67.6190    4.7241 C   0  0  0  0  0  0
   16.5708   67.5810    9.6089 C   0  0  0  0  0  0
   19.9272   67.4154    8.0754 C   0  0  0  0  0  0
   16.9368   68.6543    2.2437 C   0  0  0  0  0  0
   20.6670   67.9286    7.0052 C   0  0  0  0  0  0
   19.0328   69.0077    2.9428 N   0  0  0  0  0  0
   12.4426   65.3639    6.4724 C   0  0  0  0  0  0
   18.0465   67.4895    9.5856 N   0  0  0  0  0  0
   16.3438   67.7858    7.1431 N   0  0  0  0  0  0
   18.8359   68.1230    8.5921 C   0  0  0  0  0  0
   13.7618   65.5269    6.0315 C   0  0  0  0  0  0
   20.3786   69.1801    6.4797 C   0  0  0  0  0  0
   18.5548   69.3937    8.0479 C   0  0  0  0  0  0
   13.9962   63.4111    3.0291 C   0  0  0  0  0  0
   14.8628   66.4570    8.0393 N   0  0  0  0  0  0
   11.5969   64.5046    5.7647 C   0  0  0  0  0  0
   14.2368   64.8824    4.9354 N   0  0  0  0  0  0
   14.7593   66.4087    6.7038 C   0  0  0  0  0  0
   17.6021   69.1742    1.1899 N   0  0  0  0  0  0
   19.3213   69.9093    7.0033 C   0  0  0  0  0  0
   13.4037   64.0569    4.2587 C   0  0  0  0  0  0
   15.7212   67.2272    6.0872 C   0  0  0  0  0  0
   12.0797   63.8339    4.6404 C   0  0  0  0  0  0
   17.4670   70.0925    8.4320 F   0  0  0  0  0  0
   15.6160   68.2178    2.4320 C   0  0  0  0  0  0
   15.8868   67.2414    8.2884 C   0  0  0  0  0  0
   17.4723   68.0570    4.5273 C   0  0  0  0  0  0
   18.8218   69.3069    1.6763 C   0  0  0  0  0  0
   17.8247   68.5502    3.3092 N   0  0  0  0  0  0
   15.2643   67.6570    3.6590 C   0  0  0  0  0  0
   16.2160   66.9298   10.4086 H   0  0  0  0  0  0
   16.2815   68.5785    9.9418 H   0  0  0  0  0  0
   20.1732   66.4366    8.4603 H   0  0  0  0  0  0
   21.4670   67.3661    6.5489 H   0  0  0  0  0  0
   12.0758   65.8880    7.3430 H   0  0  0  0  0  0
   18.4021   66.5977    9.8995 H   0  0  0  0  0  0
   20.9558   69.5670    5.6515 H   0  0  0  0  0  0
   13.5200   62.4570    2.8138 H   0  0  0  0  0  0
   13.8670   64.0570    2.1641 H   0  0  0  0  0  0
   15.0670   63.2570    3.1586 H   0  0  0  0  0  0
   17.1041   68.4473    7.0896 H   0  0  0  0  0  0
   10.5764   64.3601    6.0844 H   0  0  0  0  0  0
   19.0670   70.8603    6.5644 H   0  0  0  0  0  0
   11.4395   63.1751    4.0722 H   0  0  0  0  0  0
   14.8955   68.2814    1.6320 H   0  0  0  0  0  0
   18.2454   68.0367    5.2770 H   0  0  0  0  0  0
   19.6312   69.6570    1.0513 H   0  0  0  0  0  0
   14.2670   67.2968    3.8070 H   0  0  0  0  0  0
  1 27  2  0  0  0
  1 30  1  0  0  0
  1 22  1  0  0  0
  2  8  1  0  0  0
  2 31  1  0  0  0
  2 32  1  0  0  0
  2 26  1  0  0  0
  3 10  1  0  0  0
  3  5  2  0  0  0
  3 33  1  0  0  0
  4 19  2  0  0  0
  4 29  1  0  0  0
  4 25  1  0  0  0
  5 12  1  0  0  0
  5 34  1  0  0  0
  6 29  1  0  0  0
  6 28  2  0  0  0
  7 11  2  0  0  0
  7 16  1  0  0  0
  7 35  1  0  0  0
  8 10  1  0  0  0
  8 36  1  0  0  0
  9 22  1  0  0  0
  9 41  1  0  0  0
  9 26  1  0  0  0
 10 13  2  0  0  0
 11 17  1  0  0  0
 11 18  1  0  0  0
 12 20  2  0  0  0
 12 37  1  0  0  0
 13 24  1  0  0  0
 13 20  1  0  0  0
 14 21  1  0  0  0
 14 38  1  0  0  0
 14 39  1  0  0  0
 14 40  1  0  0  0
 15 26  2  0  0  0
 15 18  1  0  0  0
 16 23  2  0  0  0
 16 42  1  0  0  0
 17 21  2  0  0  0
 18 22  2  0  0  0
 19 28  1  0  0  0
 20 43  1  0  0  0
 21 23  1  0  0  0
 23 44  1  0  0  0
 25 30  2  0  0  0
 25 45  1  0  0  0
 27 29  1  0  0  0
 27 46  1  0  0  0
 28 47  1  0  0  0
 30 48  1  0  0  0
M  END
> <s_m_entry_id>
34297

> <s_m_entry_name>
dock_pv.40

> <s_m_Source_Path>
/home/csk/Desktop/cluster/DUD-E-result/tgfr1

> <s_m_Source_File>
dock_pv.maegz

> <i_m_Source_File_Index>
40

> <chembl_id>
CHEMBL3260567

> <chembl_pref_name>
VACTOSERTIB

> <i_lp_mmshare_version>
53161

> <r_lp_tautomer_probability>
0.499999999999999

> <s_lp_Force_Field>
OPLS_2005

> <r_lp_Energy>
18.05555

> <b_lp_Chiralities_Consistent>
1

> <s_lp_Variant>
CHEMBL4439_lig5-2

> <s_i_glide_gridfile>
glide-grid_3hmm

> <i_i_glide_lignum>
7

> <i_i_glide_rotatable_bonds>
5

> <r_i_docking_score>
-9.87088087041467

> <r_i_glide_ligand_efficiency>
-0.329029362347156

> <r_i_glide_ligand_efficiency_sa>
-1.02237072893926

> <r_i_glide_ligand_efficiency_ln>
-2.24277168561952

> <r_i_glide_gscore>
-9.87088087041467

> <r_i_glide_lipo>
-3.74970343900146

> <r_i_glide_hbond>
-0.390111083431419

> <r_i_glide_metal>
0

> <r_i_glide_rewards>
-3.15026951801937

> <r_i_glide_evdw>
-51.3999137878418

> <r_i_glide_ecoul>
-3.94292807579041

> <r_i_glide_erotb>
0.614091747577904

> <r_i_glide_esite>
-0.0334536767796806

> <r_i_glide_emodel>
-80.3478139927417

> <r_i_glide_energy>
-55.3428418636322

> <r_i_glide_einternal>
16.7061023712158

> <i_i_glide_confnum>
10

> <i_i_glide_posenum>
68

> <r_i_glide_eff_state_penalty>
0

> <s_user_duplicate_titles>
CHEMBL4439_lig5,CHEMBL4439_lig5

> <i_f3d_flags>
0

> <s_m_subgroup_title>
dock_pv

> <s_m_subgroupid>
dock_pv

> <b_m_subgroup_collapsed>
1

$$$$
CHEMBL4439_lig794
                    3D
 Schrodinger Suite 2021-1.
 42 45  0  0  1  0            999 V2000
   17.7282   68.4910    3.9561 C   0  0  0  0  0  0
   16.7225   68.4594    2.9785 C   0  0  0  0  0  0
   16.9879   68.8568    1.6732 C   0  0  0  0  0  0
   18.2050   69.2457    1.2333 N   0  0  0  0  0  0
   17.4558   68.1847    5.2969 N   0  0  0  0  0  0
   16.4376   67.4522    5.9147 C   0  0  0  0  0  0
   16.2426   67.6190    7.2851 C   0  0  0  0  0  0
   15.2245   66.9006    7.9055 C   0  0  0  0  0  0
   14.4131   66.0456    7.2328 N   0  0  0  0  0  0
   14.6302   65.8491    5.9018 C   0  0  0  0  0  0
   15.6389   66.5380    5.2244 C   0  0  0  0  0  0
   13.7140   64.9089    5.1896 C   0  0  0  0  0  0
   12.3527   64.8553    5.5338 C   0  0  0  0  0  0
   11.4759   64.0332    4.8310 C   0  0  0  0  0  0
   11.9353   63.2569    3.7814 C   0  0  0  0  0  0
   13.2809   63.2573    3.4487 C   0  0  0  0  0  0
   14.1654   64.0836    4.1375 C   0  0  0  0  0  0
   15.4668   64.0574    3.7719 F   0  0  0  0  0  0
   18.9900   68.9449    3.5136 C   0  0  0  0  0  0
   19.1743   69.2877    2.1464 C   0  0  0  0  0  0
   20.5357   69.6570    2.0309 C   0  0  0  0  0  0
   21.1110   69.6569    3.2004 N   0  0  0  0  0  0
   20.2270   69.2131    4.1290 N   0  0  0  0  0  0
   20.6599   69.1718    5.4860 C   0  0  0  0  0  0
   20.2169   68.0871    6.1401 N   0  0  0  0  0  0
   20.4578   67.8271    7.5524 C   0  0  0  0  0  0
    9.8123   63.9591    5.2320 Cl  0  0  0  0  0  0
   21.3609   70.0614    5.9740 O   0  0  0  0  0  0
   15.7039   68.2106    3.2265 H   0  0  0  0  0  0
   16.1911   68.8735    0.9459 H   0  0  0  0  0  0
   18.0776   68.6426    5.9470 H   0  0  0  0  0  0
   16.8566   68.2994    7.8573 H   0  0  0  0  0  0
   15.0571   67.0082    8.9664 H   0  0  0  0  0  0
   15.7989   66.3508    4.1766 H   0  0  0  0  0  0
   11.9619   65.4689    6.3338 H   0  0  0  0  0  0
   11.2387   62.6476    3.2321 H   0  0  0  0  0  0
   13.6256   62.6533    2.6272 H   0  0  0  0  0  0
   21.0663   69.9854    1.1494 H   0  0  0  0  0  0
   19.6578   67.4160    5.6328 H   0  0  0  0  0  0
   20.2677   66.7776    7.7767 H   0  0  0  0  0  0
   19.7945   68.4346    8.1686 H   0  0  0  0  0  0
   21.4890   68.0571    7.8259 H   0  0  0  0  0  0
  1 19  2  0  0  0
  1  2  1  0  0  0
  1  5  1  0  0  0
  2  3  2  0  0  0
  2 29  1  0  0  0
  3  4  1  0  0  0
  3 30  1  0  0  0
  4 20  2  0  0  0
  5  6  1  0  0  0
  5 31  1  0  0  0
  6  7  2  0  0  0
  6 11  1  0  0  0
  7  8  1  0  0  0
  7 32  1  0  0  0
  8  9  2  0  0  0
  8 33  1  0  0  0
  9 10  1  0  0  0
 10 11  2  0  0  0
 10 12  1  0  0  0
 11 34  1  0  0  0
 12 13  2  0  0  0
 12 17  1  0  0  0
 13 14  1  0  0  0
 13 35  1  0  0  0
 14 15  2  0  0  0
 14 27  1  0  0  0
 15 16  1  0  0  0
 15 36  1  0  0  0
 16 17  2  0  0  0
 16 37  1  0  0  0
 17 18  1  0  0  0
 19 20  1  0  0  0
 19 23  1  0  0  0
 20 21  1  0  0  0
 21 22  2  0  0  0
 21 38  1  0  0  0
 22 23  1  0  0  0
 23 24  1  0  0  0
 24 25  1  0  0  0
 24 28  2  0  0  0
 25 26  1  0  0  0
 25 39  1  0  0  0
 26 40  1  0  0  0
 26 41  1  0  0  0
 26 42  1  0  0  0
M  END
> <s_m_entry_id>
34298

> <s_m_entry_name>
dock_pv.41

> <s_m_Source_Path>
/home/csk/Desktop/cluster/DUD-E-result/tgfr1

> <s_m_Source_File>
dock_pv.maegz

> <i_m_Source_File_Index>
41

> <chembl_id>
CHEMBL4063730

> <chembl_pref_name>
None

> <i_lp_mmshare_version>
53161

> <r_lp_tautomer_probability>
0.999999106000799

> <s_lp_Force_Field>
OPLS_2005

> <r_lp_Energy>
28.173216

> <b_lp_Chiralities_Consistent>
1

> <s_lp_Variant>
CHEMBL4439_lig794-1

> <s_i_glide_gridfile>
glide-grid_3hmm

> <i_i_glide_lignum>
1109

> <i_i_glide_rotatable_bonds>
5

> <r_i_docking_score>
-9.8580621479625

> <r_i_glide_ligand_efficiency>
-0.352073648141518

> <r_i_glide_ligand_efficiency_sa>
-1.06910295604708

> <r_i_glide_ligand_efficiency_ln>
-2.27553018903159

> <r_i_glide_gscore>
-9.8580621479625

> <r_i_glide_lipo>
-4.58733827637943

> <r_i_glide_hbond>
-0.23451144687738

> <r_i_glide_metal>
0

> <r_i_glide_rewards>
-2.5892278762803

> <r_i_glide_evdw>
-53.4020576477051

> <r_i_glide_ecoul>
-1.8266886472702

> <r_i_glide_erotb>
0.49712163105039

> <r_i_glide_esite>
0

> <r_i_glide_emodel>
-86.3011383819116

> <r_i_glide_energy>
-55.2287462949753

> <r_i_glide_einternal>
3.46444916725159

> <i_i_glide_confnum>
6

> <i_i_glide_posenum>
25

> <r_i_glide_eff_state_penalty>
0

> <s_user_duplicate_titles>
CHEMBL4439_lig794

> <i_f3d_flags>
0

> <s_m_subgroup_title>
dock_pv

> <s_m_subgroupid>
dock_pv

> <b_m_subgroup_collapsed>
1

$$$$
CHEMBL4439_lig155
                    3D
 Schrodinger Suite 2021-1.
 35 38  0  0  1  0            999 V2000
   17.2890   68.0243    9.4409 C   0  0  0  0  0  0
   16.3410   67.2157   10.0666 C   0  0  0  0  0  0
   15.4672   66.4568    9.3566 N   0  0  0  0  0  0
   17.3938   68.0943    8.0896 N   0  0  0  0  0  0
   16.5223   67.3368    7.3548 C   0  0  0  0  0  0
   15.5499   66.5187    7.9990 C   0  0  0  0  0  0
   14.6667   65.7542    7.3050 N   0  0  0  0  0  0
   14.7527   65.7847    5.9525 C   0  0  0  0  0  0
   15.6330   66.5331    5.2398 N   0  0  0  0  0  0
   16.5102   67.3042    5.9366 C   0  0  0  0  0  0
   13.7970   64.9078    5.2057 C   0  0  0  0  0  0
   14.1921   64.1754    4.0716 C   0  0  0  0  0  0
   13.2872   63.3616    3.3942 C   0  0  0  0  0  0
   11.9746   63.2570    3.8359 C   0  0  0  0  0  0
   11.5750   63.9168    4.9911 C   0  0  0  0  0  0
   12.4706   64.7590    5.6509 C   0  0  0  0  0  0
   17.4593   68.0569    5.2274 N   0  0  0  0  0  0
   15.4670   64.2114    3.6320 F   0  0  0  0  0  0
    9.9889   63.6572    5.6181 Cl  0  0  0  0  0  0
   17.5689   68.4313    3.8833 C   0  0  0  0  0  0
   18.8059   68.9038    3.4356 C   0  0  0  0  0  0
   18.9281   69.2988    2.1031 C   0  0  0  0  0  0
   17.8917   69.2677    1.2319 N   0  0  0  0  0  0
   16.6879   68.8570    1.6891 C   0  0  0  0  0  0
   16.4912   68.4039    2.9898 C   0  0  0  0  0  0
   17.9780   68.6258   10.0167 H   0  0  0  0  0  0
   16.2674   67.1737   11.1448 H   0  0  0  0  0  0
   13.5918   62.8488    2.4977 H   0  0  0  0  0  0
   11.2736   62.6538    3.2816 H   0  0  0  0  0  0
   12.1330   65.2803    6.5372 H   0  0  0  0  0  0
   18.1309   68.5041    5.8333 H   0  0  0  0  0  0
   19.6590   68.9515    4.0956 H   0  0  0  0  0  0
   19.8698   69.6577    1.7121 H   0  0  0  0  0  0
   15.8671   68.8824    0.9904 H   0  0  0  0  0  0
   15.5083   68.0758    3.2885 H   0  0  0  0  0  0
  1  2  2  0  0  0
  1  4  1  0  0  0
  1 26  1  0  0  0
  2  3  1  0  0  0
  2 27  1  0  0  0
  3  6  2  0  0  0
  4  5  2  0  0  0
  5  6  1  0  0  0
  5 10  1  0  0  0
  6  7  1  0  0  0
  7  8  2  0  0  0
  8  9  1  0  0  0
  8 11  1  0  0  0
  9 10  2  0  0  0
 10 17  1  0  0  0
 11 12  2  0  0  0
 11 16  1  0  0  0
 12 13  1  0  0  0
 12 18  1  0  0  0
 13 14  2  0  0  0
 13 28  1  0  0  0
 14 15  1  0  0  0
 14 29  1  0  0  0
 15 16  2  0  0  0
 15 19  1  0  0  0
 16 30  1  0  0  0
 17 20  1  0  0  0
 17 31  1  0  0  0
 20 21  2  0  0  0
 20 25  1  0  0  0
 21 22  1  0  0  0
 21 32  1  0  0  0
 22 23  2  0  0  0
 22 33  1  0  0  0
 23 24  1  0  0  0
 24 25  2  0  0  0
 24 34  1  0  0  0
 25 35  1  0  0  0
M  END
> <s_m_entry_id>
34299

> <s_m_entry_name>
dock_pv.42

> <s_m_Source_Path>
/home/csk/Desktop/cluster/DUD-E-result/tgfr1

> <s_m_Source_File>
dock_pv.maegz

> <i_m_Source_File_Index>
42

> <chembl_id>
CHEMBL238125

> <chembl_pref_name>
None

> <i_lp_mmshare_version>
53161

> <r_lp_tautomer_probability>
0.999999106000799

> <s_lp_Force_Field>
OPLS_2005

> <r_lp_Energy>
31.695467

> <b_lp_Chiralities_Consistent>
1

> <s_lp_Variant>
CHEMBL4439_lig155-1

> <s_i_glide_gridfile>
glide-grid_3hmm

> <i_i_glide_lignum>
243

> <i_i_glide_rotatable_bonds>
3

> <r_i_docking_score>
-9.82935042322923

> <r_i_glide_ligand_efficiency>
-0.393174016929169

> <r_i_glide_ligand_efficiency_sa>
-1.14964779847177

> <r_i_glide_ligand_efficiency_ln>
-2.32985061216783

> <r_i_glide_gscore>
-9.82935042322923

> <r_i_glide_lipo>
-3.92505038507545

> <r_i_glide_hbond>
-0.43273816215897

> <r_i_glide_metal>
0

> <r_i_glide_rewards>
-2.76402863792628

> <r_i_glide_evdw>
-49.3137474060059

> <r_i_glide_ecoul>
-4.6803731918335

> <r_i_glide_erotb>
0.460210111006788

> <r_i_glide_esite>
0

> <r_i_glide_emodel>
-84.9286374217632

> <r_i_glide_energy>
-53.9941205978394

> <r_i_glide_einternal>
3.26241612434387

> <i_i_glide_confnum>
15

> <i_i_glide_posenum>
104

> <r_i_glide_eff_state_penalty>
0

> <s_user_duplicate_titles>
CHEMBL4439_lig155,396730

> <i_f3d_flags>
0

> <s_m_subgroup_title>
dock_pv

> <s_m_subgroupid>
dock_pv

> <b_m_subgroup_collapsed>
1

$$$$
CHEMBL4439_lig961C21H16ClFN4O2
                    3D
 Schrodinger Suite 2021-1.
 45 48  0  0  1  0            999 V2000
   15.6102   67.9052    7.8203 C   0  0  0  0  0  0
   16.3567   67.3405    6.7701 C   0  0  0  0  0  0
   15.7577   66.3501    5.9708 C   0  0  0  0  0  0
   14.4338   65.9391    6.2172 C   0  0  0  0  0  0
   13.7519   66.4594    7.2723 N   0  0  0  0  0  0
   14.3267   67.4116    8.0320 C   0  0  0  0  0  0
   13.6369   64.9830    5.3558 C   0  0  0  0  0  0
   12.2667   64.7616    5.6285 C   0  0  0  0  0  0
   11.4909   63.9103    4.8503 C   0  0  0  0  0  0
   12.0578   63.2533    3.7699 C   0  0  0  0  0  0
   13.4062   63.4169    3.4909 C   0  0  0  0  0  0
   14.1806   64.2859    4.2571 C   0  0  0  0  0  0
   15.4671   64.4159    3.8929 F   0  0  0  0  0  0
    9.8334   63.6569    5.2319 Cl  0  0  0  0  0  0
   17.6599   67.7796    6.4354 N   0  0  0  0  0  0
   18.0061   68.2745    5.1873 C   0  0  0  0  0  0
   19.3385   68.5860    5.2387 C   0  0  0  0  0  0
   19.7696   68.2756    6.5157 N   0  0  0  0  0  0
   18.7576   67.7357    7.2478 C   0  0  0  0  0  0
   18.8253   67.2964    8.3997 O   0  0  0  0  0  0
   21.1113   68.4693    7.0965 C   0  0  0  0  0  0
   21.4138   69.9607    7.3152 C   0  0  0  0  0  0
   21.8888   70.3044    8.5099 N   0  0  0  0  0  0
   21.2394   70.7974    6.4318 O   0  0  0  0  0  0
   20.0083   69.0772    4.1157 C   0  0  0  0  0  0
   19.2852   69.2584    2.9315 C   0  0  0  0  0  0
   17.9205   68.9537    2.8796 C   0  0  0  0  0  0
   17.2691   68.4569    4.0121 C   0  0  0  0  0  0
   16.1028   69.0463    8.6971 C   0  0  0  0  0  0
   16.3339   65.9651    5.1502 H   0  0  0  0  0  0
   13.6981   67.8228    8.8046 H   0  0  0  0  0  0
   11.7722   65.2504    6.4546 H   0  0  0  0  0  0
   11.4566   62.5932    3.1613 H   0  0  0  0  0  0
   13.8471   62.8992    2.6513 H   0  0  0  0  0  0
   21.2138   67.9388    8.0449 H   0  0  0  0  0  0
   21.8659   68.0576    6.4316 H   0  0  0  0  0  0
   22.1356   71.2674    8.6833 H   0  0  0  0  0  0
   22.0367   69.6151    9.2303 H   0  0  0  0  0  0
   21.0635   69.3071    4.1440 H   0  0  0  0  0  0
   19.7831   69.6424    2.0519 H   0  0  0  0  0  0
   17.3698   69.0987    1.9629 H   0  0  0  0  0  0
   16.2169   68.2232    3.9591 H   0  0  0  0  0  0
   15.3871   69.2607    9.4903 H   0  0  0  0  0  0
   17.0399   68.8123    9.1993 H   0  0  0  0  0  0
   16.2584   69.9432    8.0978 H   0  0  0  0  0  0
  1  2  2  0  0  0
  1  6  1  0  0  0
  1 29  1  0  0  0
  2  3  1  0  0  0
  2 15  1  0  0  0
  3  4  2  0  0  0
  3 30  1  0  0  0
  4  5  1  0  0  0
  4  7  1  0  0  0
  5  6  2  0  0  0
  6 31  1  0  0  0
  7  8  2  0  0  0
  7 12  1  0  0  0
  8  9  1  0  0  0
  8 32  1  0  0  0
  9 10  2  0  0  0
  9 14  1  0  0  0
 10 11  1  0  0  0
 10 33  1  0  0  0
 11 12  2  0  0  0
 11 34  1  0  0  0
 12 13  1  0  0  0
 15 16  1  0  0  0
 15 19  1  0  0  0
 16 17  2  0  0  0
 16 28  1  0  0  0
 17 18  1  0  0  0
 17 25  1  0  0  0
 18 19  1  0  0  0
 18 21  1  0  0  0
 19 20  2  0  0  0
 21 22  1  0  0  0
 21 35  1  0  0  0
 21 36  1  0  0  0
 22 23  1  0  0  0
 22 24  2  0  0  0
 23 37  1  0  0  0
 23 38  1  0  0  0
 25 26  2  0  0  0
 25 39  1  0  0  0
 26 27  1  0  0  0
 26 40  1  0  0  0
 27 28  2  0  0  0
 27 41  1  0  0  0
 28 42  1  0  0  0
 29 43  1  0  0  0
 29 44  1  0  0  0
 29 45  1  0  0  0
M  END
> <s_m_entry_id>
34300

> <s_m_entry_name>
dock_pv.43

> <s_m_Source_Path>
/home/csk/Desktop/cluster/DUD-E-result/tgfr1

> <s_m_Source_File>
dock_pv.maegz

> <i_m_Source_File_Index>
43

> <chembl_id>
CHEMBL4543737

> <chembl_pref_name>
None

> <i_lp_mmshare_version>
53161

> <r_lp_tautomer_probability>
1

> <s_lp_Force_Field>
OPLS_2005

> <r_lp_Energy>
50.876221

> <b_lp_Chiralities_Consistent>
1

> <s_lp_Variant>
CHEMBL4439_lig961C21H16ClFN4O2-1

> <s_i_glide_gridfile>
glide-grid_3hmm

> <i_i_glide_lignum>
1309

> <i_i_glide_rotatable_bonds>
4

> <r_i_docking_score>
-9.775621482612

> <r_i_glide_ligand_efficiency>
-0.337090395952138

> <r_i_glide_ligand_efficiency_sa>
-1.03564849409841

> <r_i_glide_ligand_efficiency_ln>
-2.23836943114574

> <r_i_glide_gscore>
-9.775621482612

> <r_i_glide_lipo>
-4.45597764579775

> <r_i_glide_hbond>
-0.406740079894025

> <r_i_glide_metal>
0

> <r_i_glide_rewards>
-1.96438425223221

> <r_i_glide_evdw>
-51.4760856628418

> <r_i_glide_ecoul>
-4.83295965194702

> <r_i_glide_erotb>
0.350228726246124

> <r_i_glide_esite>
0

> <r_i_glide_emodel>
-84.7268324056767

> <r_i_glide_energy>
-56.3090453147888

> <r_i_glide_einternal>
8.46602630615234

> <i_i_glide_confnum>
3

> <i_i_glide_posenum>
354

> <r_i_glide_eff_state_penalty>
0

> <s_user_duplicate_titles>
CHEMBL4439_lig961C21H16ClFN4O2

> <i_f3d_flags>
0

> <s_m_subgroup_title>
dock_pv

> <s_m_subgroupid>
dock_pv

> <b_m_subgroup_collapsed>
1

$$$$
CHEMBL4439_lig733
                    3D
 Schrodinger Suite 2021-1.
 48 52  0  0  1  0            999 V2000
   17.8076   68.4570    4.6356 C   0  0  0  0  0  0
   16.4925   67.9924    4.7468 C   0  0  0  0  0  0
   15.7152   67.9728    3.5667 C   0  0  0  0  0  0
   16.1777   68.4553    2.3430 C   0  0  0  0  0  0
   18.2769   68.8498    3.4162 N   0  0  0  0  0  0
   17.5085   68.8580    2.2570 C   0  0  0  0  0  0
   18.2707   69.2858    1.2315 N   0  0  0  0  0  0
   19.4043   69.5719    1.8487 C   0  0  0  0  0  0
   19.5074   69.3053    3.1379 N   0  0  0  0  0  0
   15.8410   67.5521    6.0432 C   0  0  0  0  0  0
   16.1694   67.2893    7.4120 C   0  0  0  0  0  0
   15.1047   66.8126    8.0625 N   0  0  0  0  0  0
   14.1146   66.7896    7.2187 C   0  0  0  0  0  0
   14.4951   67.2977    6.0272 N   0  0  0  0  0  0
   17.4400   67.4297    8.2230 C   0  0  0  0  0  0
   17.4572   67.3228    9.6261 C   0  0  0  0  0  0
   18.6634   67.4805   10.3121 C   0  0  0  0  0  0
   19.8295   67.7594    9.5991 C   0  0  0  0  0  0
   19.7487   67.8579    8.2080 C   0  0  0  0  0  0
   18.5831   67.6733    7.5361 N   0  0  0  0  0  0
   20.9493   68.2288    7.3532 C   0  0  0  0  0  0
   12.7104   66.2996    7.4985 C   0  0  0  0  0  0
   11.9525   65.6484    6.4297 N   0  0  0  0  0  0
   12.3843   64.7406    5.4393 C   0  0  0  0  0  0
   13.7277   64.4569    5.1402 C   0  0  0  0  0  0
   14.0641   63.6803    4.0321 C   0  0  0  0  0  0
   13.0670   63.0722    3.2825 C   0  0  0  0  0  0
   11.7337   63.2569    3.6320 C   0  0  0  0  0  0
   11.3903   64.1073    4.6779 C   0  0  0  0  0  0
   21.0023   67.9410   10.2490 F   0  0  0  0  0  0
   10.0774   64.3206    4.9246 F   0  0  0  0  0  0
   18.5143   68.5817    5.4271 H   0  0  0  0  0  0
   14.6951   67.6198    3.5755 H   0  0  0  0  0  0
   15.5423   68.4595    1.4681 H   0  0  0  0  0  0
   20.2378   69.9960    1.3033 H   0  0  0  0  0  0
   13.8930   67.3733    5.2210 H   0  0  0  0  0  0
   16.5541   67.1289   10.1866 H   0  0  0  0  0  0
   18.6966   67.3990   11.3884 H   0  0  0  0  0  0
   21.8889   68.0680    7.8848 H   0  0  0  0  0  0
   20.9850   67.6454    6.4320 H   0  0  0  0  0  0
   20.8960   69.2832    7.0758 H   0  0  0  0  0  0
   12.1140   67.1631    7.7652 H   0  0  0  0  0  0
   12.6682   65.6572    8.3710 H   0  0  0  0  0  0
   10.9470   65.7220    6.5217 H   0  0  0  0  0  0
   14.5447   64.8385    5.7236 H   0  0  0  0  0  0
   15.1014   63.5161    3.7772 H   0  0  0  0  0  0
   13.3224   62.4570    2.4333 H   0  0  0  0  0  0
   10.9547   62.7899    3.0484 H   0  0  0  0  0  0
  1  5  1  0  0  0
  1  2  2  0  0  0
  1 32  1  0  0  0
  2  3  1  0  0  0
  2 10  1  0  0  0
  3  4  2  0  0  0
  3 33  1  0  0  0
  4  6  1  0  0  0
  4 34  1  0  0  0
  5  6  1  0  0  0
  5  9  1  0  0  0
  6  7  2  0  0  0
  7  8  1  0  0  0
  8  9  2  0  0  0
  8 35  1  0  0  0
 10 11  2  0  0  0
 10 14  1  0  0  0
 11 15  1  0  0  0
 11 12  1  0  0  0
 12 13  2  0  0  0
 13 14  1  0  0  0
 13 22  1  0  0  0
 14 36  1  0  0  0
 15 16  2  0  0  0
 15 20  1  0  0  0
 16 17  1  0  0  0
 16 37  1  0  0  0
 17 18  2  0  0  0
 17 38  1  0  0  0
 18 19  1  0  0  0
 18 30  1  0  0  0
 19 20  2  0  0  0
 19 21  1  0  0  0
 21 39  1  0  0  0
 21 40  1  0  0  0
 21 41  1  0  0  0
 22 23  1  0  0  0
 22 42  1  0  0  0
 22 43  1  0  0  0
 23 24  1  0  0  0
 23 44  1  0  0  0
 24 25  2  0  0  0
 24 29  1  0  0  0
 25 26  1  0  0  0
 25 45  1  0  0  0
 26 27  2  0  0  0
 26 46  1  0  0  0
 27 28  1  0  0  0
 27 47  1  0  0  0
 28 29  2  0  0  0
 28 48  1  0  0  0
 29 31  1  0  0  0
M  END
> <s_m_entry_id>
34301

> <s_m_entry_name>
dock_pv.44

> <s_m_Source_Path>
/home/csk/Desktop/cluster/DUD-E-result/tgfr1

> <s_m_Source_File>
dock_pv.maegz

> <i_m_Source_File_Index>
44

> <chembl_id>
CHEMBL3634712

> <chembl_pref_name>
None

> <i_lp_mmshare_version>
53161

> <r_lp_tautomer_probability>
0.499999999999999

> <s_lp_Force_Field>
OPLS_2005

> <r_lp_Energy>
20.269414

> <b_lp_Chiralities_Consistent>
1

> <s_lp_Variant>
CHEMBL4439_lig733-2

> <s_i_glide_gridfile>
glide-grid_3hmm

> <i_i_glide_lignum>
1039

> <i_i_glide_rotatable_bonds>
5

> <r_i_docking_score>
-9.75937697725289

> <r_i_glide_ligand_efficiency>
-0.314818612169448

> <r_i_glide_ligand_efficiency_sa>
-0.988965096149783

> <r_i_glide_ligand_efficiency_ln>
-2.20103859735565

> <r_i_glide_gscore>
-9.75937697725289

> <r_i_glide_lipo>
-3.89626633043793

> <r_i_glide_hbond>
-0.193490599717869

> <r_i_glide_metal>
0

> <r_i_glide_rewards>
-3.3476552033039

> <r_i_glide_evdw>
-50.625804901123

> <r_i_glide_ecoul>
-2.28494048118591

> <r_i_glide_erotb>
0.567192840668897

> <r_i_glide_esite>
-0.0151263672280458

> <r_i_glide_emodel>
-84.9267269760189

> <r_i_glide_energy>
-52.910745382309

> <r_i_glide_einternal>
4.60429239273071

> <i_i_glide_confnum>
52

> <i_i_glide_posenum>
113

> <r_i_glide_eff_state_penalty>
0

> <s_user_duplicate_titles>
CHEMBL4439_lig733,CHEMBL4439_lig733

> <i_f3d_flags>
0

> <s_m_subgroup_title>
dock_pv

> <s_m_subgroupid>
dock_pv

> <b_m_subgroup_collapsed>
1

$$$$
CHEMBL4439_lig784
                    3D
 Schrodinger Suite 2021-1.
 35 38  0  0  1  0            999 V2000
   18.0957   69.2570    1.2456 N   0  0  0  0  0  0
   17.6112   68.4250    3.9526 C   0  0  0  0  0  0
   16.5984   68.4570    2.9818 C   0  0  0  0  0  0
   16.8727   68.8613    1.6762 C   0  0  0  0  0  0
   18.8663   68.8661    3.5052 C   0  0  0  0  0  0
   19.0670   69.2706    2.1618 C   0  0  0  0  0  0
   20.4372   69.6570    2.0894 C   0  0  0  0  0  0
   21.0311   69.5001    3.2468 N   0  0  0  0  0  0
   20.1058   69.0234    4.1049 N   0  0  0  0  0  0
   17.3797   68.0570    5.2895 N   0  0  0  0  0  0
   16.3199   67.3796    5.9089 C   0  0  0  0  0  0
   16.1230   67.5609    7.2784 C   0  0  0  0  0  0
   15.0669   66.8953    7.8985 C   0  0  0  0  0  0
   14.2337   66.0570    7.2320 N   0  0  0  0  0  0
   14.4455   65.8456    5.9021 C   0  0  0  0  0  0
   15.4761   66.5038    5.2198 C   0  0  0  0  0  0
   13.5075   64.9106    5.2050 C   0  0  0  0  0  0
   13.9397   64.0817    4.1493 C   0  0  0  0  0  0
   13.0433   63.2570    3.4752 C   0  0  0  0  0  0
   11.6981   63.2570    3.8263 C   0  0  0  0  0  0
   11.2524   64.0420    4.8820 C   0  0  0  0  0  0
   12.1499   64.8570    5.5692 C   0  0  0  0  0  0
   15.2349   64.0570    3.7606 F   0  0  0  0  0  0
    9.9489   64.0117    5.2319 F   0  0  0  0  0  0
   15.5786   68.2122    3.2300 H   0  0  0  0  0  0
   16.0792   68.8866    0.9421 H   0  0  0  0  0  0
   20.9693   70.0428    1.2320 H   0  0  0  0  0  0
   20.3664   68.8157    5.0582 H   0  0  0  0  0  0
   18.0712   68.4124    5.9312 H   0  0  0  0  0  0
   16.7601   68.2208    7.8491 H   0  0  0  0  0  0
   14.8766   67.0336    8.9523 H   0  0  0  0  0  0
   15.6314   66.3166    4.1708 H   0  0  0  0  0  0
   13.3883   62.6401    2.6579 H   0  0  0  0  0  0
   11.0003   62.6415    3.2785 H   0  0  0  0  0  0
   11.7712   65.4718    6.3735 H   0  0  0  0  0  0
  1  6  2  0  0  0
  1  4  1  0  0  0
  2  5  2  0  0  0
  2  3  1  0  0  0
  2 10  1  0  0  0
  3  4  2  0  0  0
  3 25  1  0  0  0
  4 26  1  0  0  0
  5  6  1  0  0  0
  5  9  1  0  0  0
  6  7  1  0  0  0
  7  8  2  0  0  0
  7 27  1  0  0  0
  8  9  1  0  0  0
  9 28  1  0  0  0
 10 11  1  0  0  0
 10 29  1  0  0  0
 11 12  2  0  0  0
 11 16  1  0  0  0
 12 13  1  0  0  0
 12 30  1  0  0  0
 13 14  2  0  0  0
 13 31  1  0  0  0
 14 15  1  0  0  0
 15 16  2  0  0  0
 15 17  1  0  0  0
 16 32  1  0  0  0
 17 18  2  0  0  0
 17 22  1  0  0  0
 18 19  1  0  0  0
 18 23  1  0  0  0
 19 20  2  0  0  0
 19 33  1  0  0  0
 20 21  1  0  0  0
 20 34  1  0  0  0
 21 22  2  0  0  0
 21 24  1  0  0  0
 22 35  1  0  0  0
M  END
> <s_m_entry_id>
34302

> <s_m_entry_name>
dock_pv.45

> <s_m_Source_Path>
/home/csk/Desktop/cluster/DUD-E-result/tgfr1

> <s_m_Source_File>
dock_pv.maegz

> <i_m_Source_File_Index>
45

> <chembl_id>
CHEMBL4064820

> <chembl_pref_name>
None

> <i_lp_mmshare_version>
53161

> <r_lp_tautomer_probability>
0.999999106000799

> <s_lp_Force_Field>
OPLS_2005

> <r_lp_Energy>
24.276328

> <b_lp_Chiralities_Consistent>
1

> <s_lp_Variant>
CHEMBL4439_lig784-1

> <s_i_glide_gridfile>
glide-grid_3hmm

> <i_i_glide_lignum>
1098

> <i_i_glide_rotatable_bonds>
3

> <r_i_docking_score>
-9.73600512243147

> <r_i_glide_ligand_efficiency>
-0.405666880101311

> <r_i_glide_ligand_efficiency_sa>
-1.17014576578853

> <r_i_glide_ligand_efficiency_ln>
-2.3302727819619

> <r_i_glide_gscore>
-9.73600512243147

> <r_i_glide_lipo>
-4.09025282679333

> <r_i_glide_hbond>
-0.261036449753585

> <r_i_glide_metal>
0

> <r_i_glide_rewards>
-3.32382711461463

> <r_i_glide_evdw>
-44.698802947998

> <r_i_glide_ecoul>
-2.42015314102173

> <r_i_glide_erotb>
0.537074387283236

> <r_i_glide_esite>
0

> <r_i_glide_emodel>
-72.0231683251397

> <r_i_glide_energy>
-47.1189560890198

> <r_i_glide_einternal>
5.24457979202271

> <i_i_glide_confnum>
19

> <i_i_glide_posenum>
2

> <r_i_glide_eff_state_penalty>
0

> <s_user_duplicate_titles>
CHEMBL4439_lig784

> <i_f3d_flags>
0

> <s_m_subgroup_title>
dock_pv

> <s_m_subgroupid>
dock_pv

> <b_m_subgroup_collapsed>
1

$$$$
CHEMBL4439_lig830
                    3D
 Schrodinger Suite 2021-1.
 37 40  0  0  1  0            999 V2000
   16.6811   67.6381    6.1036 C   0  0  0  0  0  0
   14.9002   66.0536    7.5795 N   0  0  0  0  0  0
   15.0024   66.0297    6.2237 C   0  0  0  0  0  0
   15.8684   66.7579    5.4825 N   0  0  0  0  0  0
   15.7589   66.9070    8.1626 N   0  0  0  0  0  0
   16.6853   67.7503    7.5079 C   0  0  0  0  0  0
   17.3620   68.4947    8.5132 C   0  0  0  0  0  0
   16.8544   68.0683    9.7337 C   0  0  0  0  0  0
   15.8844   67.0961    9.5157 C   0  0  0  0  0  0
   14.1158   65.1125    5.4492 C   0  0  0  0  0  0
   12.8320   64.9458    5.8872 N   0  0  0  0  0  0
   12.0107   64.1150    5.1869 C   0  0  0  0  0  0
   12.4201   63.4400    4.0370 C   0  0  0  0  0  0
   13.7234   63.6357    3.5907 C   0  0  0  0  0  0
   14.5806   64.4767    4.2900 C   0  0  0  0  0  0
   17.5207   68.4566    5.3354 N   0  0  0  0  0  0
   17.6934   68.6568    3.9494 C   0  0  0  0  0  0
   18.9341   69.1669    3.5368 C   0  0  0  0  0  0
   19.1373   69.4502    2.1872 C   0  0  0  0  0  0
   18.1919   69.2533    1.2375 N   0  0  0  0  0  0
   16.9753   68.8355    1.6481 C   0  0  0  0  0  0
   16.6896   68.4840    2.9676 C   0  0  0  0  0  0
   15.4375   68.0566    3.2449 F   0  0  0  0  0  0
   10.6012   63.9552    5.7174 C   0  0  0  0  0  0
   19.9308   69.4004    4.4250 F   0  0  0  0  0  0
   18.1294   69.2461    8.3895 H   0  0  0  0  0  0
   17.1676   68.4399   10.7002 H   0  0  0  0  0  0
   15.2876   66.5421   10.2246 H   0  0  0  0  0  0
   11.7478   62.7948    3.4903 H   0  0  0  0  0  0
   14.0626   63.1420    2.6920 H   0  0  0  0  0  0
   15.5897   64.6267    3.9339 H   0  0  0  0  0  0
   18.2322   68.9078    5.8924 H   0  0  0  0  0  0
   20.0872   69.8323    1.8413 H   0  0  0  0  0  0
   16.2078   68.7617    0.8904 H   0  0  0  0  0  0
   10.0504   63.1827    5.1825 H   0  0  0  0  0  0
   10.0486   64.8857    5.5988 H   0  0  0  0  0  0
   10.6065   63.6857    6.7743 H   0  0  0  0  0  0
  1  6  1  0  0  0
  1  4  2  0  0  0
  1 16  1  0  0  0
  2  5  1  0  0  0
  2  3  2  0  0  0
  3  4  1  0  0  0
  3 10  1  0  0  0
  5  6  1  0  0  0
  5  9  1  0  0  0
  6  7  2  0  0  0
  7  8  1  0  0  0
  7 26  1  0  0  0
  8  9  2  0  0  0
  8 27  1  0  0  0
  9 28  1  0  0  0
 10 11  2  0  0  0
 10 15  1  0  0  0
 11 12  1  0  0  0
 12 13  2  0  0  0
 12 24  1  0  0  0
 13 14  1  0  0  0
 13 29  1  0  0  0
 14 15  2  0  0  0
 14 30  1  0  0  0
 15 31  1  0  0  0
 16 17  1  0  0  0
 16 32  1  0  0  0
 17 18  2  0  0  0
 17 22  1  0  0  0
 18 19  1  0  0  0
 18 25  1  0  0  0
 19 20  2  0  0  0
 19 33  1  0  0  0
 20 21  1  0  0  0
 21 22  2  0  0  0
 21 34  1  0  0  0
 22 23  1  0  0  0
 24 35  1  0  0  0
 24 36  1  0  0  0
 24 37  1  0  0  0
M  END
> <s_m_entry_id>
34303

> <s_m_entry_name>
dock_pv.46

> <s_m_Source_Path>
/home/csk/Desktop/cluster/DUD-E-result/tgfr1

> <s_m_Source_File>
dock_pv.maegz

> <i_m_Source_File_Index>
46

> <chembl_id>
CHEMBL4211574

> <chembl_pref_name>
None

> <i_lp_mmshare_version>
53161

> <r_lp_tautomer_probability>
0.999999106000799

> <s_lp_Force_Field>
OPLS_2005

> <r_lp_Energy>
33.82243

> <b_lp_Chiralities_Consistent>
1

> <s_lp_Variant>
CHEMBL4439_lig830-1

> <s_i_glide_gridfile>
glide-grid_3hmm

> <i_i_glide_lignum>
1148

> <i_i_glide_rotatable_bonds>
3

> <r_i_docking_score>
-9.71972895275728

> <r_i_glide_ligand_efficiency>
-0.388789158110291

> <r_i_glide_ligand_efficiency_sa>
-1.13682639351957

> <r_i_glide_ligand_efficiency_ln>
-2.3038670385756

> <r_i_glide_gscore>
-9.71972895275728

> <r_i_glide_lipo>
-3.98347144082947

> <r_i_glide_hbond>
-0.288197350747385

> <r_i_glide_metal>
0

> <r_i_glide_rewards>
-3.32783601529803

> <r_i_glide_evdw>
-46.693775177002

> <r_i_glide_ecoul>
-1.87461864948273

> <r_i_glide_erotb>
0.495657410390119

> <r_i_glide_esite>
0

> <r_i_glide_emodel>
-72.6743431224195

> <r_i_glide_energy>
-48.5683938264847

> <r_i_glide_einternal>
7.23606872558594

> <i_i_glide_confnum>
1

> <i_i_glide_posenum>
58

> <r_i_glide_eff_state_penalty>
0

> <s_user_duplicate_titles>
CHEMBL4439_lig830

> <i_f3d_flags>
0

> <s_m_subgroup_title>
dock_pv

> <s_m_subgroupid>
dock_pv

> <b_m_subgroup_collapsed>
1

$$$$
CHEMBL4439_lig779
                    3D
 Schrodinger Suite 2021-1.
 45 48  0  0  1  0            999 V2000
   20.4828   69.6570    1.8910 C   0  0  0  0  0  0
   21.5555   69.6575    2.7709 C   0  0  0  0  0  0
   21.3736   69.3135    4.1019 C   0  0  0  0  0  0
   20.1187   68.9363    4.6018 C   0  0  0  0  0  0
   19.1983   69.2579    2.3284 C   0  0  0  0  0  0
   19.0000   68.8707    3.6945 C   0  0  0  0  0  0
   17.6774   68.4418    4.0599 C   0  0  0  0  0  0
   16.6739   68.4570    3.0848 C   0  0  0  0  0  0
   16.9694   68.8657    1.7941 C   0  0  0  0  0  0
   18.2001   69.2529    1.4034 N   0  0  0  0  0  0
   19.9196   68.6302    5.9398 O   0  0  0  0  0  0
   20.9833   68.7735    6.8775 C   0  0  0  0  0  0
   17.3791   68.0761    5.3835 N   0  0  0  0  0  0
   16.3167   67.3884    5.9752 C   0  0  0  0  0  0
   16.0611   67.5920    7.3308 C   0  0  0  0  0  0
   14.9915   66.9183    7.9154 C   0  0  0  0  0  0
   14.2041   66.0555    7.2259 N   0  0  0  0  0  0
   14.4824   65.8194    5.9106 C   0  0  0  0  0  0
   15.5285   66.4831    5.2649 C   0  0  0  0  0  0
   13.5899   64.8690    5.1781 C   0  0  0  0  0  0
   14.0568   64.0750    4.1074 C   0  0  0  0  0  0
   13.1887   63.2562    3.3954 C   0  0  0  0  0  0
   11.8483   63.1961    3.7440 C   0  0  0  0  0  0
   11.3711   63.9262    4.8255 C   0  0  0  0  0  0
   12.2338   64.7641    5.5302 C   0  0  0  0  0  0
    9.9252   63.7914    5.2346 C   0  0  0  0  0  0
   15.3592   64.0587    3.7447 F   0  0  0  0  0  0
   20.6297   69.9505    0.8608 H   0  0  0  0  0  0
   22.5366   69.9494    2.4241 H   0  0  0  0  0  0
   22.2421   69.3458    4.7428 H   0  0  0  0  0  0
   15.6506   68.2109    3.3179 H   0  0  0  0  0  0
   16.1925   68.8932    1.0421 H   0  0  0  0  0  0
   20.6036   68.5754    7.8797 H   0  0  0  0  0  0
   21.7875   68.0626    6.6901 H   0  0  0  0  0  0
   21.3899   69.7860    6.8778 H   0  0  0  0  0  0
   18.1276   68.3311    6.0190 H   0  0  0  0  0  0
   16.6609   68.2762    7.9135 H   0  0  0  0  0  0
   14.7500   67.0720    8.9559 H   0  0  0  0  0  0
   15.7347   66.2888    4.2263 H   0  0  0  0  0  0
   13.5544   62.6687    2.5661 H   0  0  0  0  0  0
   11.1843   62.5527    3.1873 H   0  0  0  0  0  0
   11.8366   65.3456    6.3509 H   0  0  0  0  0  0
    9.4657   62.9185    4.7780 H   0  0  0  0  0  0
    9.3762   64.6856    4.9440 H   0  0  0  0  0  0
    9.8564   63.6589    6.3149 H   0  0  0  0  0  0
  1  2  2  0  0  0
  1  5  1  0  0  0
  1 28  1  0  0  0
  2  3  1  0  0  0
  2 29  1  0  0  0
  3  4  2  0  0  0
  3 30  1  0  0  0
  4  6  1  0  0  0
  4 11  1  0  0  0
  5  6  1  0  0  0
  5 10  2  0  0  0
  6  7  2  0  0  0
  7  8  1  0  0  0
  7 13  1  0  0  0
  8  9  2  0  0  0
  8 31  1  0  0  0
  9 10  1  0  0  0
  9 32  1  0  0  0
 11 12  1  0  0  0
 12 33  1  0  0  0
 12 34  1  0  0  0
 12 35  1  0  0  0
 13 14  1  0  0  0
 13 36  1  0  0  0
 14 15  2  0  0  0
 14 19  1  0  0  0
 15 16  1  0  0  0
 15 37  1  0  0  0
 16 17  2  0  0  0
 16 38  1  0  0  0
 17 18  1  0  0  0
 18 19  2  0  0  0
 18 20  1  0  0  0
 19 39  1  0  0  0
 20 21  2  0  0  0
 20 25  1  0  0  0
 21 22  1  0  0  0
 21 27  1  0  0  0
 22 23  2  0  0  0
 22 40  1  0  0  0
 23 24  1  0  0  0
 23 41  1  0  0  0
 24 25  2  0  0  0
 24 26  1  0  0  0
 25 42  1  0  0  0
 26 43  1  0  0  0
 26 44  1  0  0  0
 26 45  1  0  0  0
M  END
> <s_m_entry_id>
34304

> <s_m_entry_name>
dock_pv.47

> <s_m_Source_Path>
/home/csk/Desktop/cluster/DUD-E-result/tgfr1

> <s_m_Source_File>
dock_pv.maegz

> <i_m_Source_File_Index>
47

> <chembl_id>
CHEMBL4070456

> <chembl_pref_name>
None

> <i_lp_mmshare_version>
53161

> <r_lp_tautomer_probability>
0.999999106000799

> <s_lp_Force_Field>
OPLS_2005

> <r_lp_Energy>
34.162146

> <b_lp_Chiralities_Consistent>
1

> <s_lp_Variant>
CHEMBL4439_lig779-1

> <s_i_glide_gridfile>
glide-grid_3hmm

> <i_i_glide_lignum>
1093

> <i_i_glide_rotatable_bonds>
4

> <r_i_docking_score>
-9.71632791187227

> <r_i_glide_ligand_efficiency>
-0.35986399673601

> <r_i_glide_ligand_efficiency_sa>
-1.07959198902198

> <r_i_glide_ligand_efficiency_ln>
-2.26180095169901

> <r_i_glide_gscore>
-9.71632791187227

> <r_i_glide_lipo>
-4.66080286830914

> <r_i_glide_hbond>
-0.124502126611489

> <r_i_glide_metal>
0

> <r_i_glide_rewards>
-2.5311965452757

> <r_i_glide_evdw>
-48.6554527282715

> <r_i_glide_ecoul>
-2.74816179275513

> <r_i_glide_erotb>
0.4451705336509

> <r_i_glide_esite>
0

> <r_i_glide_emodel>
-78.5306879288311

> <r_i_glide_energy>
-51.4036145210266

> <r_i_glide_einternal>
5.03205108642578

> <i_i_glide_confnum>
13

> <i_i_glide_posenum>
78

> <r_i_glide_eff_state_penalty>
0

> <s_user_duplicate_titles>
CHEMBL4439_lig779

> <i_f3d_flags>
0

> <s_m_subgroup_title>
dock_pv

> <s_m_subgroupid>
dock_pv

> <b_m_subgroup_collapsed>
1

$$$$
CHEMBL4439_lig776
                    3D
 Schrodinger Suite 2021-1.
 45 48  0  0  1  0            999 V2000
   20.4828   69.6570    1.9678 C   0  0  0  0  0  0
   21.5485   69.6570    2.8555 C   0  0  0  0  0  0
   21.3559   69.3121    4.1846 C   0  0  0  0  0  0
   20.0978   68.9327    4.6753 C   0  0  0  0  0  0
   19.1960   69.2570    2.3958 C   0  0  0  0  0  0
   18.9866   68.8662    3.7597 C   0  0  0  0  0  0
   17.6615   68.4340    4.1143 C   0  0  0  0  0  0
   16.6670   68.4570    3.1313 C   0  0  0  0  0  0
   16.9733   68.8599    1.8420 C   0  0  0  0  0  0
   18.2065   69.2494    1.4620 N   0  0  0  0  0  0
   19.8882   68.6259    6.0116 O   0  0  0  0  0  0
   20.9461   68.7649    6.9563 C   0  0  0  0  0  0
   17.3528   68.0587    5.4336 N   0  0  0  0  0  0
   16.2754   67.3915    6.0321 C   0  0  0  0  0  0
   16.0011   67.5803    7.3973 C   0  0  0  0  0  0
   14.9152   66.8974    7.9464 C   0  0  0  0  0  0
   14.1277   66.0563    7.2320 N   0  0  0  0  0  0
   14.4264   65.8305    5.9220 C   0  0  0  0  0  0
   15.4861   66.4990    5.3032 C   0  0  0  0  0  0
   13.5550   64.8689    5.1727 C   0  0  0  0  0  0
   14.0530   64.0872    4.1066 C   0  0  0  0  0  0
   13.2109   63.2570    3.3752 C   0  0  0  0  0  0
   11.8670   63.1653    3.7052 C   0  0  0  0  0  0
   11.3641   63.8722    4.7880 C   0  0  0  0  0  0
   12.1951   64.7306    5.5066 C   0  0  0  0  0  0
    9.7159   63.6570    5.2320 Cl  0  0  0  0  0  0
   15.3630   64.0923    3.7707 F   0  0  0  0  0  0
   16.8361   68.4980    8.2858 C   0  0  0  0  0  0
   20.6370   69.9514    0.9387 H   0  0  0  0  0  0
   22.5322   69.9494    2.5167 H   0  0  0  0  0  0
   22.2195   69.3448    4.8319 H   0  0  0  0  0  0
   15.6407   68.2156    3.3549 H   0  0  0  0  0  0
   16.2024   68.8915    1.0842 H   0  0  0  0  0  0
   20.5618   68.5583    7.9549 H   0  0  0  0  0  0
   21.7527   68.0571    6.7670 H   0  0  0  0  0  0
   21.3503   69.7785    6.9657 H   0  0  0  0  0  0
   18.0940   68.3173    6.0757 H   0  0  0  0  0  0
   14.6661   67.0172    8.9890 H   0  0  0  0  0  0
   15.7105   66.3089    4.2680 H   0  0  0  0  0  0
   13.6005   62.6832    2.5474 H   0  0  0  0  0  0
   11.2189   62.5150    3.1376 H   0  0  0  0  0  0
   11.7710   65.2932    6.3267 H   0  0  0  0  0  0
   17.8992   68.2949    8.1522 H   0  0  0  0  0  0
   16.6633   69.5441    8.0320 H   0  0  0  0  0  0
   16.6160   68.3560    9.3447 H   0  0  0  0  0  0
  1  2  2  0  0  0
  1  5  1  0  0  0
  1 29  1  0  0  0
  2  3  1  0  0  0
  2 30  1  0  0  0
  3  4  2  0  0  0
  3 31  1  0  0  0
  4  6  1  0  0  0
  4 11  1  0  0  0
  5  6  1  0  0  0
  5 10  2  0  0  0
  6  7  2  0  0  0
  7  8  1  0  0  0
  7 13  1  0  0  0
  8  9  2  0  0  0
  8 32  1  0  0  0
  9 10  1  0  0  0
  9 33  1  0  0  0
 11 12  1  0  0  0
 12 34  1  0  0  0
 12 35  1  0  0  0
 12 36  1  0  0  0
 13 14  1  0  0  0
 13 37  1  0  0  0
 14 15  2  0  0  0
 14 19  1  0  0  0
 15 16  1  0  0  0
 15 28  1  0  0  0
 16 17  2  0  0  0
 16 38  1  0  0  0
 17 18  1  0  0  0
 18 19  2  0  0  0
 18 20  1  0  0  0
 19 39  1  0  0  0
 20 21  2  0  0  0
 20 25  1  0  0  0
 21 22  1  0  0  0
 21 27  1  0  0  0
 22 23  2  0  0  0
 22 40  1  0  0  0
 23 24  1  0  0  0
 23 41  1  0  0  0
 24 25  2  0  0  0
 24 26  1  0  0  0
 25 42  1  0  0  0
 28 43  1  0  0  0
 28 44  1  0  0  0
 28 45  1  0  0  0
M  END
> <s_m_entry_id>
34305

> <s_m_entry_name>
dock_pv.48

> <s_m_Source_Path>
/home/csk/Desktop/cluster/DUD-E-result/tgfr1

> <s_m_Source_File>
dock_pv.maegz

> <i_m_Source_File_Index>
48

> <chembl_id>
CHEMBL4101991

> <chembl_pref_name>
None

> <i_lp_mmshare_version>
53161

> <r_lp_tautomer_probability>
0.999999106000799

> <s_lp_Force_Field>
OPLS_2005

> <r_lp_Energy>
32.998928

> <b_lp_Chiralities_Consistent>
1

> <s_lp_Variant>
CHEMBL4439_lig776-1

> <s_i_glide_gridfile>
glide-grid_3hmm

> <i_i_glide_lignum>
1090

> <i_i_glide_rotatable_bonds>
4

> <r_i_docking_score>
-9.69418854149315

> <r_i_glide_ligand_efficiency>
-0.346221019339041

> <r_i_glide_ligand_efficiency_sa>
-1.05133092798873

> <r_i_glide_ligand_efficiency_ln>
-2.23770334912031

> <r_i_glide_gscore>
-9.69418854149315

> <r_i_glide_lipo>
-4.75290514423445

> <r_i_glide_hbond>
-0.083165489509679

> <r_i_glide_metal>
0

> <r_i_glide_rewards>
-2.27081564844876

> <r_i_glide_evdw>
-50.608283996582

> <r_i_glide_ecoul>
-2.89860105514526

> <r_i_glide_erotb>
0.377902098800622

> <r_i_glide_esite>
0

> <r_i_glide_emodel>
-83.5153376853132

> <r_i_glide_energy>
-53.5068850517273

> <r_i_glide_einternal>
0.996973693370819

> <i_i_glide_confnum>
7

> <i_i_glide_posenum>
316

> <r_i_glide_eff_state_penalty>
0

> <s_user_duplicate_titles>
CHEMBL4439_lig776

> <i_f3d_flags>
0

> <s_m_subgroup_title>
dock_pv

> <s_m_subgroupid>
dock_pv

> <b_m_subgroup_collapsed>
1

$$$$
CHEMBL4439_lig711
                    3D
 Schrodinger Suite 2021-1.
 48 52  0  0  1  0            999 V2000
   17.4828   68.0568    4.5536 C   0  0  0  0  0  0
   16.1603   67.6475    4.7582 C   0  0  0  0  0  0
   15.2791   67.6566    3.6776 C   0  0  0  0  0  0
   15.6505   68.1617    2.4321 C   0  0  0  0  0  0
   17.8507   68.5118    3.3241 N   0  0  0  0  0  0
   16.9744   68.5897    2.2462 C   0  0  0  0  0  0
   17.6476   69.0926    1.1883 N   0  0  0  0  0  0
   18.8563   69.2629    1.6903 C   0  0  0  0  0  0
   19.0580   68.9757    2.9623 N   0  0  0  0  0  0
   15.6762   67.3664    6.1421 C   0  0  0  0  0  0
   14.6361   66.5723    6.6552 C   0  0  0  0  0  0
   14.6539   66.8549    8.0032 N   0  0  0  0  0  0
   15.7041   67.7027    8.2295 C   0  0  0  0  0  0
   16.2603   68.0378    7.1073 N   0  0  0  0  0  0
   13.6774   65.6287    6.0183 C   0  0  0  0  0  0
   12.3480   65.4793    6.4319 C   0  0  0  0  0  0
   11.5302   64.5758    5.7475 C   0  0  0  0  0  0
   12.0480   63.8526    4.6722 C   0  0  0  0  0  0
   13.3800   64.0688    4.3139 C   0  0  0  0  0  0
   14.1903   64.9320    4.9728 N   0  0  0  0  0  0
   13.9923   63.4109    3.0998 C   0  0  0  0  0  0
   16.1197   68.2736    9.5782 C   0  0  0  0  0  0
   17.5555   68.4571    9.8579 N   0  0  0  0  0  0
   18.5077   68.6017    8.8291 C   0  0  0  0  0  0
   18.5520   69.7030    7.9523 C   0  0  0  0  0  0
   19.4954   69.7587    6.9214 C   0  0  0  0  0  0
   20.4166   68.7353    6.7675 C   0  0  0  0  0  0
   20.3743   67.6568    7.6371 C   0  0  0  0  0  0
   19.4450   67.5853    8.6701 C   0  0  0  0  0  0
   17.6437   70.6951    8.0321 F   0  0  0  0  0  0
   19.4951   70.7779    6.0323 F   0  0  0  0  0  0
   18.2355   68.0725    5.3229 H   0  0  0  0  0  0
   14.2670   67.3383    3.8277 H   0  0  0  0  0  0
   14.9320   68.2171    1.6319 H   0  0  0  0  0  0
   19.6579   69.6569    1.0796 H   0  0  0  0  0  0
   14.0223   66.4922    8.6992 H   0  0  0  0  0  0
   11.9456   66.0518    7.2548 H   0  0  0  0  0  0
   10.4995   64.4456    6.0383 H   0  0  0  0  0  0
   11.4245   63.1702    4.1126 H   0  0  0  0  0  0
   13.5181   62.4570    2.8822 H   0  0  0  0  0  0
   13.8669   64.0563    2.2326 H   0  0  0  0  0  0
   15.0626   63.2567    3.2374 H   0  0  0  0  0  0
   15.6933   67.7183   10.4130 H   0  0  0  0  0  0
   15.6635   69.2583    9.6320 H   0  0  0  0  0  0
   17.6991   69.1438   10.5871 H   0  0  0  0  0  0
   21.1418   68.7664    5.9647 H   0  0  0  0  0  0
   21.0585   66.8570    7.4859 H   0  0  0  0  0  0
   19.4352   66.7254    9.3250 H   0  0  0  0  0  0
  1  5  1  0  0  0
  1  2  2  0  0  0
  1 32  1  0  0  0
  2  3  1  0  0  0
  2 10  1  0  0  0
  3  4  2  0  0  0
  3 33  1  0  0  0
  4  6  1  0  0  0
  4 34  1  0  0  0
  5  6  1  0  0  0
  5  9  1  0  0  0
  6  7  2  0  0  0
  7  8  1  0  0  0
  8  9  2  0  0  0
  8 35  1  0  0  0
 10 11  2  0  0  0
 10 14  1  0  0  0
 11 12  1  0  0  0
 11 15  1  0  0  0
 12 13  1  0  0  0
 12 36  1  0  0  0
 13 14  2  0  0  0
 13 22  1  0  0  0
 15 16  2  0  0  0
 15 20  1  0  0  0
 16 17  1  0  0  0
 16 37  1  0  0  0
 17 18  2  0  0  0
 17 38  1  0  0  0
 18 19  1  0  0  0
 18 39  1  0  0  0
 19 20  2  0  0  0
 19 21  1  0  0  0
 21 40  1  0  0  0
 21 41  1  0  0  0
 21 42  1  0  0  0
 22 23  1  0  0  0
 22 43  1  0  0  0
 22 44  1  0  0  0
 23 24  1  0  0  0
 23 45  1  0  0  0
 24 25  2  0  0  0
 24 29  1  0  0  0
 25 26  1  0  0  0
 25 30  1  0  0  0
 26 27  2  0  0  0
 26 31  1  0  0  0
 27 28  1  0  0  0
 27 46  1  0  0  0
 28 29  2  0  0  0
 28 47  1  0  0  0
 29 48  1  0  0  0
M  END
> <s_m_entry_id>
34306

> <s_m_entry_name>
dock_pv.49

> <s_m_Source_Path>
/home/csk/Desktop/cluster/DUD-E-result/tgfr1

> <s_m_Source_File>
dock_pv.maegz

> <i_m_Source_File_Index>
49

> <chembl_id>
CHEMBL3260614

> <chembl_pref_name>
None

> <i_lp_mmshare_version>
53161

> <r_lp_tautomer_probability>
0.499999999999999

> <s_lp_Force_Field>
OPLS_2005

> <r_lp_Energy>
15.790009

> <b_lp_Chiralities_Consistent>
1

> <s_lp_Variant>
CHEMBL4439_lig711-1

> <s_i_glide_gridfile>
glide-grid_3hmm

> <i_i_glide_lignum>
1010

> <i_i_glide_rotatable_bonds>
5

> <r_i_docking_score>
-9.6880837678214

> <r_i_glide_ligand_efficiency>
-0.312518831220045

> <r_i_glide_ligand_efficiency_sa>
-0.981740608778859

> <r_i_glide_ligand_efficiency_ln>
-2.18495979375437

> <r_i_glide_gscore>
-9.6880837678214

> <r_i_glide_lipo>
-3.8514611327992

> <r_i_glide_hbond>
-0.454992163545149

> <r_i_glide_metal>
0

> <r_i_glide_rewards>
-3.07644299665657

> <r_i_glide_evdw>
-47.4827499389648

> <r_i_glide_ecoul>
-3.19196748733521

> <r_i_glide_erotb>
0.567192840668897

> <r_i_glide_esite>
-0.0194476954408528

> <r_i_glide_emodel>
-75.6200688267669

> <r_i_glide_energy>
-50.6747174263

> <r_i_glide_einternal>
13.1335668563843

> <i_i_glide_confnum>
23

> <i_i_glide_posenum>
5

> <r_i_glide_eff_state_penalty>
0

> <s_user_duplicate_titles>
CHEMBL4439_lig711,CHEMBL4439_lig711

> <i_f3d_flags>
0

> <s_m_subgroup_title>
dock_pv

> <s_m_subgroupid>
dock_pv

> <b_m_subgroup_collapsed>
1

$$$$
CHEMBL4439_lig935 
                    3D
 Schrodinger Suite 2021-1.
 38 42  0  0  1  0            999 V2000
   16.1227   66.7157    5.6574 C   0  0  0  0  0  0
   15.1128   66.2093    6.4792 C   0  0  0  0  0  0
   15.0656   66.4523    7.8186 N   0  0  0  0  0  0
   17.0964   67.6001    6.1460 C   0  0  0  0  0  0
   17.0469   67.8838    7.5337 C   0  0  0  0  0  0
   16.0210   67.2513    8.2956 C   0  0  0  0  0  0
   16.1911   67.6052    9.6151 N   0  0  0  0  0  0
   17.2586   68.4571    9.7208 C   0  0  0  0  0  0
   17.7896   68.6834    8.4669 C   0  0  0  0  0  0
   18.0655   68.1171    5.2469 N   0  0  0  0  0  0
   13.9943   65.4012    5.8984 C   0  0  0  0  0  0
   14.2293   64.5512    4.8037 C   0  0  0  0  0  0
   13.1970   63.8148    4.2254 C   0  0  0  0  0  0
   11.9130   63.8800    4.7467 C   0  0  0  0  0  0
   11.6601   64.7232    5.8200 C   0  0  0  0  0  0
   12.6742   65.4955    6.3809 C   0  0  0  0  0  0
   12.3523   66.3472    7.3831 F   0  0  0  0  0  0
   19.3985   68.2832    5.5107 C   0  0  0  0  0  0
   19.9320   68.7908    4.3824 N   0  0  0  0  0  0
   17.8099   68.4740    3.9200 C   0  0  0  0  0  0
   18.9957   68.8979    3.3887 C   0  0  0  0  0  0
   19.0669   69.2986    2.0533 C   0  0  0  0  0  0
   17.9756   69.2573    1.2412 N   0  0  0  0  0  0
   16.7952   68.8572    1.7837 C   0  0  0  0  0  0
   16.6632   68.4571    3.1153 C   0  0  0  0  0  0
   20.0219   68.0078    6.5344 O   0  0  0  0  0  0
   13.4891   62.8569    2.8313 Cl  0  0  0  0  0  0
   16.1362   66.4306    4.6175 H   0  0  0  0  0  0
   15.6369   67.3213   10.4089 H   0  0  0  0  0  0
   17.5444   68.8547   10.6852 H   0  0  0  0  0  0
   18.6353   69.3234    8.2624 H   0  0  0  0  0  0
   15.2166   64.4567    4.3797 H   0  0  0  0  0  0
   11.1162   63.2999    4.3035 H   0  0  0  0  0  0
   10.6670   64.7879    6.2078 H   0  0  0  0  0  0
   20.9189   68.9754    4.2780 H   0  0  0  0  0  0
   19.9860   69.6535    1.6082 H   0  0  0  0  0  0
   15.9313   68.8640    1.1366 H   0  0  0  0  0  0
   15.6902   68.1616    3.4767 H   0  0  0  0  0  0
  1  2  2  0  0  0
  1  4  1  0  0  0
  1 28  1  0  0  0
  2  3  1  0  0  0
  2 11  1  0  0  0
  3  6  2  0  0  0
  4  5  2  0  0  0
  4 10  1  0  0  0
  5  6  1  0  0  0
  5  9  1  0  0  0
  6  7  1  0  0  0
  7  8  1  0  0  0
  7 29  1  0  0  0
  8  9  2  0  0  0
  8 30  1  0  0  0
  9 31  1  0  0  0
 10 18  1  0  0  0
 10 20  1  0  0  0
 11 12  2  0  0  0
 11 16  1  0  0  0
 12 13  1  0  0  0
 12 32  1  0  0  0
 13 14  2  0  0  0
 13 27  1  0  0  0
 14 15  1  0  0  0
 14 33  1  0  0  0
 15 16  2  0  0  0
 15 34  1  0  0  0
 16 17  1  0  0  0
 18 19  1  0  0  0
 18 26  2  0  0  0
 19 21  1  0  0  0
 19 35  1  0  0  0
 20 21  2  0  0  0
 20 25  1  0  0  0
 21 22  1  0  0  0
 22 23  2  0  0  0
 22 36  1  0  0  0
 23 24  1  0  0  0
 24 25  2  0  0  0
 24 37  1  0  0  0
 25 38  1  0  0  0
M  END
> <s_m_entry_id>
34307

> <s_m_entry_name>
dock_pv.50

> <s_m_Source_Path>
/home/csk/Desktop/cluster/DUD-E-result/tgfr1

> <s_m_Source_File>
dock_pv.maegz

> <i_m_Source_File_Index>
50

> <chembl_id>
CHEMBL4470706

> <chembl_pref_name>
None

> <i_lp_mmshare_version>
53161

> <r_lp_tautomer_probability>
1

> <s_lp_Force_Field>
OPLS_2005

> <r_lp_Energy>
56.479702

> <b_lp_Chiralities_Consistent>
1

> <s_lp_Variant>
CHEMBL4439_lig935 -1

> <s_i_glide_gridfile>
glide-grid_3hmm

> <i_i_glide_lignum>
1270

> <i_i_glide_rotatable_bonds>
2

> <r_i_docking_score>
-9.67190440866114

> <r_i_glide_ligand_efficiency>
-0.358218681802264

> <r_i_glide_ligand_efficiency_sa>
-1.07465604422616

> <r_i_glide_ligand_efficiency_ln>
-2.25145989253014

> <r_i_glide_gscore>
-9.67190440866114

> <r_i_glide_lipo>
-4.0039886043875

> <r_i_glide_hbond>
-0.260292865132939

> <r_i_glide_metal>
0

> <r_i_glide_rewards>
-2.72159768912913

> <r_i_glide_evdw>
-53.1254081726074

> <r_i_glide_ecoul>
-1.90601694583893

> <r_i_glide_erotb>
0.268926020246532

> <r_i_glide_esite>
-0.0127783197518886

> <r_i_glide_emodel>
-85.0407762826652

> <r_i_glide_energy>
-55.0314251184464

> <r_i_glide_einternal>
2.98694252967834

> <i_i_glide_confnum>
6

> <i_i_glide_posenum>
169

> <r_i_glide_eff_state_penalty>
0

> <s_user_duplicate_titles>
CHEMBL4439_lig935 

> <i_f3d_flags>
0

> <s_m_subgroup_title>
dock_pv

> <s_m_subgroupid>
dock_pv

> <b_m_subgroup_collapsed>
1

$$$$
CHEMBL4439_lig785
                    3D
 Schrodinger Suite 2021-1.
 38 41  0  0  1  0            999 V2000
   18.1373   69.2570    1.2671 N   0  0  0  0  0  0
   17.6947   68.4328    3.9804 C   0  0  0  0  0  0
   16.6670   68.4570    3.0259 C   0  0  0  0  0  0
   16.9208   68.8659    1.7188 C   0  0  0  0  0  0
   18.9395   68.8799    3.5173 C   0  0  0  0  0  0
   19.1203   69.2776    2.1702 C   0  0  0  0  0  0
   20.4923   69.6570    2.0791 C   0  0  0  0  0  0
   21.0979   69.5154    3.2320 N   0  0  0  0  0  0
   20.1840   69.0443    4.1034 N   0  0  0  0  0  0
   17.4913   68.0570    5.3170 N   0  0  0  0  0  0
   16.4627   67.3430    5.9501 C   0  0  0  0  0  0
   16.2658   67.4860    7.3337 C   0  0  0  0  0  0
   15.2266   66.7678    7.9249 C   0  0  0  0  0  0
   14.4170   65.9301    7.2320 N   0  0  0  0  0  0
   14.6330   65.7528    5.8994 C   0  0  0  0  0  0
   15.6485   66.4518    5.2405 C   0  0  0  0  0  0
   13.6994   64.8257    5.1801 C   0  0  0  0  0  0
   14.1034   64.0577    4.0636 C   0  0  0  0  0  0
   13.1901   63.2582    3.3770 C   0  0  0  0  0  0
   11.8670   63.2086    3.7889 C   0  0  0  0  0  0
   11.4669   63.8812    4.9325 C   0  0  0  0  0  0
   12.3648   64.7029    5.6083 C   0  0  0  0  0  0
   15.3853   64.0571    3.6320 F   0  0  0  0  0  0
    9.8670   63.6570    5.5171 Cl  0  0  0  0  0  0
   17.1257   68.4062    8.1943 C   0  0  0  0  0  0
   15.6529   68.2003    3.2850 H   0  0  0  0  0  0
   16.1134   68.9028    1.0037 H   0  0  0  0  0  0
   21.0221   70.0327    1.2161 H   0  0  0  0  0  0
   20.4553   68.8437    5.0552 H   0  0  0  0  0  0
   18.2002   68.3935    5.9495 H   0  0  0  0  0  0
   15.0321   66.8570    8.9829 H   0  0  0  0  0  0
   15.8103   66.2893    4.1889 H   0  0  0  0  0  0
   13.4900   62.7159    2.4956 H   0  0  0  0  0  0
   11.1542   62.6228    3.2320 H   0  0  0  0  0  0
   12.0115   65.2469    6.4733 H   0  0  0  0  0  0
   16.7335   68.5148    9.2064 H   0  0  0  0  0  0
   18.1461   68.0263    8.2535 H   0  0  0  0  0  0
   17.1714   69.4039    7.7578 H   0  0  0  0  0  0
  1  6  2  0  0  0
  1  4  1  0  0  0
  2  5  2  0  0  0
  2  3  1  0  0  0
  2 10  1  0  0  0
  3  4  2  0  0  0
  3 26  1  0  0  0
  4 27  1  0  0  0
  5  6  1  0  0  0
  5  9  1  0  0  0
  6  7  1  0  0  0
  7  8  2  0  0  0
  7 28  1  0  0  0
  8  9  1  0  0  0
  9 29  1  0  0  0
 10 11  1  0  0  0
 10 30  1  0  0  0
 11 12  2  0  0  0
 11 16  1  0  0  0
 12 13  1  0  0  0
 12 25  1  0  0  0
 13 14  2  0  0  0
 13 31  1  0  0  0
 14 15  1  0  0  0
 15 16  2  0  0  0
 15 17  1  0  0  0
 16 32  1  0  0  0
 17 18  2  0  0  0
 17 22  1  0  0  0
 18 19  1  0  0  0
 18 23  1  0  0  0
 19 20  2  0  0  0
 19 33  1  0  0  0
 20 21  1  0  0  0
 20 34  1  0  0  0
 21 22  2  0  0  0
 21 24  1  0  0  0
 22 35  1  0  0  0
 25 36  1  0  0  0
 25 37  1  0  0  0
 25 38  1  0  0  0
M  END
> <s_m_entry_id>
34308

> <s_m_entry_name>
dock_pv.51

> <s_m_Source_Path>
/home/csk/Desktop/cluster/DUD-E-result/tgfr1

> <s_m_Source_File>
dock_pv.maegz

> <i_m_Source_File_Index>
51

> <chembl_id>
CHEMBL4084771

> <chembl_pref_name>
None

> <i_lp_mmshare_version>
53161

> <r_lp_tautomer_probability>
0.999999106000799

> <s_lp_Force_Field>
OPLS_2005

> <r_lp_Energy>
24.545889

> <b_lp_Chiralities_Consistent>
1

> <s_lp_Variant>
CHEMBL4439_lig785-1

> <s_i_glide_gridfile>
glide-grid_3hmm

> <i_i_glide_lignum>
1099

> <i_i_glide_rotatable_bonds>
3

> <r_i_docking_score>
-9.6457185453539

> <r_i_glide_ligand_efficiency>
-0.385828741814156

> <r_i_glide_ligand_efficiency_sa>
-1.12817008376646

> <r_i_glide_ligand_efficiency_ln>
-2.28632435410806

> <r_i_glide_gscore>
-9.6457185453539

> <r_i_glide_lipo>
-4.50477121398242

> <r_i_glide_hbond>
-0.25312971930691

> <r_i_glide_metal>
0

> <r_i_glide_rewards>
-2.62564467486043

> <r_i_glide_evdw>
-47.0007591247559

> <r_i_glide_ecoul>
-2.4664580821991

> <r_i_glide_erotb>
0.457833731363527

> <r_i_glide_esite>
0

> <r_i_glide_emodel>
-77.6815953709038

> <r_i_glide_energy>
-49.467217206955

> <r_i_glide_einternal>
1.40718460083008

> <i_i_glide_confnum>
9

> <i_i_glide_posenum>
358

> <r_i_glide_eff_state_penalty>
0

> <s_user_duplicate_titles>
CHEMBL4439_lig785

> <i_f3d_flags>
0

> <s_m_subgroup_title>
dock_pv

> <s_m_subgroupid>
dock_pv

> <b_m_subgroup_collapsed>
1

$$$$
CHEMBL4439_lig741
                    3D
 Schrodinger Suite 2021-1.
 48 52  0  0  1  0            999 V2000
   17.8370   68.5273    4.6154 C   0  0  0  0  0  0
   16.5258   68.0549    4.7312 C   0  0  0  0  0  0
   15.7480   68.0085    3.5524 C   0  0  0  0  0  0
   16.2141   68.4567    2.3178 C   0  0  0  0  0  0
   18.3101   68.8870    3.3882 N   0  0  0  0  0  0
   17.5458   68.8581    2.2266 C   0  0  0  0  0  0
   18.3111   69.2575    1.1930 N   0  0  0  0  0  0
   19.4410   69.5648    1.8053 C   0  0  0  0  0  0
   19.5394   69.3394    3.1019 N   0  0  0  0  0  0
   15.8879   67.6215    6.0342 C   0  0  0  0  0  0
   16.2346   67.4185    7.4067 C   0  0  0  0  0  0
   15.2004   66.9073    8.0762 N   0  0  0  0  0  0
   14.2010   66.8319    7.2472 C   0  0  0  0  0  0
   14.5540   67.3052    6.0315 N   0  0  0  0  0  0
   17.5072   67.6477    8.1923 C   0  0  0  0  0  0
   17.5450   67.8435    9.5890 C   0  0  0  0  0  0
   18.7757   68.0568   10.2137 C   0  0  0  0  0  0
   19.9418   68.1074    9.4508 C   0  0  0  0  0  0
   19.8341   67.9185    8.0739 C   0  0  0  0  0  0
   18.6509   67.6579    7.4649 N   0  0  0  0  0  0
   21.0305   68.0568    7.1521 C   0  0  0  0  0  0
   12.8104   66.3385    7.5805 C   0  0  0  0  0  0
   11.9816   65.7789    6.5077 N   0  0  0  0  0  0
   12.3204   64.8122    5.5426 C   0  0  0  0  0  0
   13.6313   64.4764    5.1773 C   0  0  0  0  0  0
   13.8669   63.6562    4.0776 C   0  0  0  0  0  0
   12.7945   63.0839    3.4098 C   0  0  0  0  0  0
   11.4888   63.3191    3.8264 C   0  0  0  0  0  0
   11.2539   64.2073    4.8727 C   0  0  0  0  0  0
   16.4222   67.8456   10.3445 F   0  0  0  0  0  0
   18.5337   68.6853    5.4103 H   0  0  0  0  0  0
   14.7271   67.6559    3.5720 H   0  0  0  0  0  0
   15.5774   68.4563    1.4437 H   0  0  0  0  0  0
   20.2775   69.9620    1.2463 H   0  0  0  0  0  0
   13.9396   67.3314    5.2310 H   0  0  0  0  0  0
   18.8196   68.2177   11.2796 H   0  0  0  0  0  0
   20.8938   68.3141    9.9164 H   0  0  0  0  0  0
   21.9678   68.0619    7.7073 H   0  0  0  0  0  0
   21.0662   67.2438    6.4257 H   0  0  0  0  0  0
   20.9708   68.9931    6.5969 H   0  0  0  0  0  0
   12.2694   67.1966    7.9609 H   0  0  0  0  0  0
   12.7986   65.6572    8.4188 H   0  0  0  0  0  0
   10.9859   65.8698    6.6679 H   0  0  0  0  0  0
   14.4922   64.8556    5.6962 H   0  0  0  0  0  0
   14.8773   63.4469    3.7579 H   0  0  0  0  0  0
   12.9804   62.4569    2.5519 H   0  0  0  0  0  0
   10.6622   62.8652    3.2978 H   0  0  0  0  0  0
   10.2339   64.4374    5.1435 H   0  0  0  0  0  0
  1  5  1  0  0  0
  1  2  2  0  0  0
  1 31  1  0  0  0
  2  3  1  0  0  0
  2 10  1  0  0  0
  3  4  2  0  0  0
  3 32  1  0  0  0
  4  6  1  0  0  0
  4 33  1  0  0  0
  5  6  1  0  0  0
  5  9  1  0  0  0
  6  7  2  0  0  0
  7  8  1  0  0  0
  8  9  2  0  0  0
  8 34  1  0  0  0
 10 11  2  0  0  0
 10 14  1  0  0  0
 11 15  1  0  0  0
 11 12  1  0  0  0
 12 13  2  0  0  0
 13 14  1  0  0  0
 13 22  1  0  0  0
 14 35  1  0  0  0
 15 16  2  0  0  0
 15 20  1  0  0  0
 16 17  1  0  0  0
 16 30  1  0  0  0
 17 18  2  0  0  0
 17 36  1  0  0  0
 18 19  1  0  0  0
 18 37  1  0  0  0
 19 20  2  0  0  0
 19 21  1  0  0  0
 21 38  1  0  0  0
 21 39  1  0  0  0
 21 40  1  0  0  0
 22 23  1  0  0  0
 22 41  1  0  0  0
 22 42  1  0  0  0
 23 24  1  0  0  0
 23 43  1  0  0  0
 24 25  2  0  0  0
 24 29  1  0  0  0
 25 26  1  0  0  0
 25 44  1  0  0  0
 26 27  2  0  0  0
 26 45  1  0  0  0
 27 28  1  0  0  0
 27 46  1  0  0  0
 28 29  2  0  0  0
 28 47  1  0  0  0
 29 48  1  0  0  0
M  END
> <s_m_entry_id>
34309

> <s_m_entry_name>
dock_pv.52

> <s_m_Source_Path>
/home/csk/Desktop/cluster/DUD-E-result/tgfr1

> <s_m_Source_File>
dock_pv.maegz

> <i_m_Source_File_Index>
52

> <chembl_id>
CHEMBL3634704

> <chembl_pref_name>
None

> <i_lp_mmshare_version>
53161

> <r_lp_tautomer_probability>
0.499999999999999

> <s_lp_Force_Field>
OPLS_2005

> <r_lp_Energy>
21.432037

> <b_lp_Chiralities_Consistent>
1

> <s_lp_Variant>
CHEMBL4439_lig741-2

> <s_i_glide_gridfile>
glide-grid_3hmm

> <i_i_glide_lignum>
1055

> <i_i_glide_rotatable_bonds>
5

> <r_i_docking_score>
-9.63193790733967

> <r_i_glide_ligand_efficiency>
-0.321064596911322

> <r_i_glide_ligand_efficiency_sa>
-0.997622350902797

> <r_i_glide_ligand_efficiency_ln>
-2.18848124091678

> <r_i_glide_gscore>
-9.63193790733967

> <r_i_glide_lipo>
-3.8190347698913

> <r_i_glide_hbond>
-0.197924647127221

> <r_i_glide_metal>
0

> <r_i_glide_rewards>
-3.34304316002378

> <r_i_glide_evdw>
-48.6152420043945

> <r_i_glide_ecoul>
-2.90798258781433

> <r_i_glide_erotb>
0.614091747577904

> <r_i_glide_esite>
-0.0190675894833973

> <r_i_glide_emodel>
-84.0137600914956

> <r_i_glide_energy>
-51.5232245922089

> <r_i_glide_einternal>
3.83723497390747

> <i_i_glide_confnum>
49

> <i_i_glide_posenum>
296

> <r_i_glide_eff_state_penalty>
0

> <s_user_duplicate_titles>
CHEMBL4439_lig741,CHEMBL4439_lig741

> <i_f3d_flags>
0

> <s_m_subgroup_title>
dock_pv

> <s_m_subgroupid>
dock_pv

> <b_m_subgroup_collapsed>
1

$$$$
CHEMBL4439_lig612
                    3D
 Schrodinger Suite 2021-1.
 38 41  0  0  1  0            999 V2000
   15.8204   66.8702    8.2005 C   0  0  0  0  0  0
   16.1545   66.8939    9.6032 C   0  0  0  0  0  0
   16.7864   67.9867   10.0316 N   0  0  0  0  0  0
   17.5629   68.0571    4.4641 C   0  0  0  0  0  0
   16.2533   67.5914    4.6999 C   0  0  0  0  0  0
   15.2847   67.6568    3.6766 C   0  0  0  0  0  0
   15.6027   68.2070    2.4320 C   0  0  0  0  0  0
   17.8481   68.5859    3.2146 C   0  0  0  0  0  0
   16.9029   68.6539    2.2334 C   0  0  0  0  0  0
   17.4613   69.1690    1.1106 O   0  0  0  0  0  0
   18.7097   69.6552    1.5123 C   0  0  0  0  0  0
   19.0246   69.0768    2.7484 O   0  0  0  0  0  0
   15.9034   67.1198    5.9823 N   0  0  0  0  0  0
   14.9894   66.1513    6.3701 C   0  0  0  0  0  0
   14.9241   66.0555    7.6792 N   0  0  0  0  0  0
   16.4305   67.5749    7.1709 C   0  0  0  0  0  0
   14.1808   65.2468    5.4819 C   0  0  0  0  0  0
   14.7176   64.6125    4.3532 C   0  0  0  0  0  0
   13.9206   63.7180    3.6328 C   0  0  0  0  0  0
   12.6166   63.4634    4.0577 C   0  0  0  0  0  0
   12.1451   64.1298    5.1910 C   0  0  0  0  0  0
   12.9018   65.0147    5.8916 N   0  0  0  0  0  0
   10.7418   63.8913    5.7132 C   0  0  0  0  0  0
   15.8674   65.9659   10.3577 O   0  0  0  0  0  0
   17.0336   68.0582   11.0061 H   0  0  0  0  0  0
   17.0029   68.7410    9.4004 H   0  0  0  0  0  0
   18.3324   68.0125    5.2204 H   0  0  0  0  0  0
   14.2679   67.3285    3.8438 H   0  0  0  0  0  0
   14.8652   68.2658    1.6435 H   0  0  0  0  0  0
   18.6150   70.7324    1.6333 H   0  0  0  0  0  0
   19.4804   69.4500    0.7686 H   0  0  0  0  0  0
   17.2029   68.3293    7.1800 H   0  0  0  0  0  0
   15.7369   64.7940    4.0463 H   0  0  0  0  0  0
   14.3086   63.2222    2.7563 H   0  0  0  0  0  0
   11.9907   62.7722    3.5123 H   0  0  0  0  0  0
   10.4196   62.8692    5.5155 H   0  0  0  0  0  0
   10.6868   64.0447    6.7919 H   0  0  0  0  0  0
   10.0410   64.5734    5.2317 H   0  0  0  0  0  0
  1  2  1  0  0  0
  1 15  1  0  0  0
  1 16  2  0  0  0
  2  3  1  0  0  0
  2 24  2  0  0  0
  3 25  1  0  0  0
  3 26  1  0  0  0
  4  8  1  0  0  0
  4  5  2  0  0  0
  4 27  1  0  0  0
  5  6  1  0  0  0
  5 13  1  0  0  0
  6  7  2  0  0  0
  6 28  1  0  0  0
  7  9  1  0  0  0
  7 29  1  0  0  0
  8  9  2  0  0  0
  8 12  1  0  0  0
  9 10  1  0  0  0
 10 11  1  0  0  0
 11 12  1  0  0  0
 11 30  1  0  0  0
 11 31  1  0  0  0
 13 14  1  0  0  0
 13 16  1  0  0  0
 14 15  2  0  0  0
 14 17  1  0  0  0
 16 32  1  0  0  0
 17 18  2  0  0  0
 17 22  1  0  0  0
 18 19  1  0  0  0
 18 33  1  0  0  0
 19 20  2  0  0  0
 19 34  1  0  0  0
 20 21  1  0  0  0
 20 35  1  0  0  0
 21 22  2  0  0  0
 21 23  1  0  0  0
 23 36  1  0  0  0
 23 37  1  0  0  0
 23 38  1  0  0  0
M  END
> <s_m_entry_id>
34310

> <s_m_entry_name>
dock_pv.53

> <s_m_Source_Path>
/home/csk/Desktop/cluster/DUD-E-result/tgfr1

> <s_m_Source_File>
dock_pv.maegz

> <i_m_Source_File_Index>
53

> <chembl_id>
CHEMBL2435037

> <chembl_pref_name>
None

> <i_lp_mmshare_version>
53161

> <r_lp_tautomer_probability>
1

> <s_lp_Force_Field>
OPLS_2005

> <r_lp_Energy>
30.310124

> <b_lp_Chiralities_Consistent>
1

> <s_lp_Variant>
CHEMBL4439_lig612-1

> <s_i_glide_gridfile>
glide-grid_3hmm

> <i_i_glide_lignum>
828

> <i_i_glide_rotatable_bonds>
3

> <r_i_docking_score>
-9.5970178571106

> <r_i_glide_ligand_efficiency>
-0.399875744046275

> <r_i_glide_ligand_efficiency_sa>
-1.15344123883229

> <r_i_glide_ligand_efficiency_ln>
-2.29700675166059

> <r_i_glide_gscore>
-9.5970178571106

> <r_i_glide_lipo>
-3.65498098608742

> <r_i_glide_hbond>
-0.429911170688412

> <r_i_glide_metal>
0

> <r_i_glide_rewards>
-2.66137665096718

> <r_i_glide_evdw>
-44.8376007080078

> <r_i_glide_ecoul>
-6.42211055755615

> <r_i_glide_erotb>
0.35997454018517

> <r_i_glide_esite>
-0.00552697051894478

> <r_i_glide_emodel>
-76.996599346462

> <r_i_glide_energy>
-51.259711265564

> <r_i_glide_einternal>
3.62009000778198

> <i_i_glide_confnum>
7

> <i_i_glide_posenum>
27

> <r_i_glide_eff_state_penalty>
0

> <s_user_duplicate_titles>
CHEMBL4439_lig612

> <i_f3d_flags>
0

> <s_m_subgroup_title>
dock_pv

> <s_m_subgroupid>
dock_pv

> <b_m_subgroup_collapsed>
1

$$$$
CHEMBL4439_lig795
                    3D
 Schrodinger Suite 2021-1.
 45 48  0  0  1  0            999 V2000
   17.7432   68.4730    4.0325 C   0  0  0  0  0  0
   16.7325   68.4570    3.0590 C   0  0  0  0  0  0
   16.9934   68.8570    1.7542 C   0  0  0  0  0  0
   18.2091   69.2450    1.3109 N   0  0  0  0  0  0
   17.4912   68.0893    5.3575 N   0  0  0  0  0  0
   16.4451   67.3956    5.9815 C   0  0  0  0  0  0
   16.2198   67.5555    7.3597 C   0  0  0  0  0  0
   15.1580   66.8570    7.9343 C   0  0  0  0  0  0
   14.3456   66.0310    7.2320 N   0  0  0  0  0  0
   14.5965   65.8349    5.9099 C   0  0  0  0  0  0
   15.6393   66.5041    5.2669 C   0  0  0  0  0  0
   13.6800   64.9077    5.1803 C   0  0  0  0  0  0
   12.3175   64.8542    5.5227 C   0  0  0  0  0  0
   11.4419   64.0289    4.8235 C   0  0  0  0  0  0
   11.9028   63.2561    3.7735 C   0  0  0  0  0  0
   13.2481   63.2570    3.4387 C   0  0  0  0  0  0
   14.1327   64.0837    4.1270 C   0  0  0  0  0  0
   15.4348   64.0570    3.7618 F   0  0  0  0  0  0
   18.9972   68.9628    3.5983 C   0  0  0  0  0  0
   19.1774   69.2975    2.2258 C   0  0  0  0  0  0
   20.5380   69.6570    2.1000 C   0  0  0  0  0  0
   21.1229   69.6372    3.2632 N   0  0  0  0  0  0
   20.2273   69.2580    4.2223 N   0  0  0  0  0  0
   20.6036   69.2570    5.6180 C   0  0  0  0  0  0
   21.8670   69.6570    5.8640 N   0  0  0  0  0  0
   22.4547   69.7454    7.1943 C   0  0  0  0  0  0
    9.7804   63.9387    5.2320 Cl  0  0  0  0  0  0
   19.8116   68.9538    6.5092 O   0  0  0  0  0  0
   17.0664   68.4755    8.2334 C   0  0  0  0  0  0
   15.7180   68.1894    3.3026 H   0  0  0  0  0  0
   16.1953   68.8676    1.0278 H   0  0  0  0  0  0
   18.2254   68.3891    5.9940 H   0  0  0  0  0  0
   14.9508   66.9465    8.9883 H   0  0  0  0  0  0
   15.8276   66.3162    4.2241 H   0  0  0  0  0  0
   11.9259   65.4638    6.3251 H   0  0  0  0  0  0
   11.2061   62.6409    3.2320 H   0  0  0  0  0  0
   13.5924   62.6506    2.6186 H   0  0  0  0  0  0
   21.0670   69.9668    1.2108 H   0  0  0  0  0  0
   22.4717   69.8781    5.0861 H   0  0  0  0  0  0
   23.4969   70.0570    7.1200 H   0  0  0  0  0  0
   22.4238   68.7771    7.6950 H   0  0  0  0  0  0
   21.9235   70.4744    7.8073 H   0  0  0  0  0  0
   16.5776   68.7063    9.1809 H   0  0  0  0  0  0
   18.0366   68.0212    8.4367 H   0  0  0  0  0  0
   17.2440   69.4283    7.7346 H   0  0  0  0  0  0
  1 19  2  0  0  0
  1  2  1  0  0  0
  1  5  1  0  0  0
  2  3  2  0  0  0
  2 30  1  0  0  0
  3  4  1  0  0  0
  3 31  1  0  0  0
  4 20  2  0  0  0
  5  6  1  0  0  0
  5 32  1  0  0  0
  6  7  2  0  0  0
  6 11  1  0  0  0
  7  8  1  0  0  0
  7 29  1  0  0  0
  8  9  2  0  0  0
  8 33  1  0  0  0
  9 10  1  0  0  0
 10 11  2  0  0  0
 10 12  1  0  0  0
 11 34  1  0  0  0
 12 13  2  0  0  0
 12 17  1  0  0  0
 13 14  1  0  0  0
 13 35  1  0  0  0
 14 15  2  0  0  0
 14 27  1  0  0  0
 15 16  1  0  0  0
 15 36  1  0  0  0
 16 17  2  0  0  0
 16 37  1  0  0  0
 17 18  1  0  0  0
 19 20  1  0  0  0
 19 23  1  0  0  0
 20 21  1  0  0  0
 21 22  2  0  0  0
 21 38  1  0  0  0
 22 23  1  0  0  0
 23 24  1  0  0  0
 24 25  1  0  0  0
 24 28  2  0  0  0
 25 26  1  0  0  0
 25 39  1  0  0  0
 26 40  1  0  0  0
 26 41  1  0  0  0
 26 42  1  0  0  0
 29 43  1  0  0  0
 29 44  1  0  0  0
 29 45  1  0  0  0
M  END
> <s_m_entry_id>
34311

> <s_m_entry_name>
dock_pv.54

> <s_m_Source_Path>
/home/csk/Desktop/cluster/DUD-E-result/tgfr1

> <s_m_Source_File>
dock_pv.maegz

> <i_m_Source_File_Index>
54

> <chembl_id>
CHEMBL4093090

> <chembl_pref_name>
None

> <i_lp_mmshare_version>
53161

> <r_lp_tautomer_probability>
0.999999106000799

> <s_lp_Force_Field>
OPLS_2005

> <r_lp_Energy>
27.233016

> <b_lp_Chiralities_Consistent>
1

> <s_lp_Variant>
CHEMBL4439_lig795-1

> <s_i_glide_gridfile>
glide-grid_3hmm

> <i_i_glide_lignum>
1110

> <i_i_glide_rotatable_bonds>
5

> <r_i_docking_score>
-9.59551450099757

> <r_i_glide_ligand_efficiency>
-0.330879810379227

> <r_i_glide_ligand_efficiency_sa>
-1.01656760756681

> <r_i_glide_ligand_efficiency_ln>
-2.19712949947503

> <r_i_glide_gscore>
-9.59551450099757

> <r_i_glide_lipo>
-4.58683194403701

> <r_i_glide_hbond>
-0.18599408515884

> <r_i_glide_metal>
0

> <r_i_glide_rewards>
-2.13709439260704

> <r_i_glide_evdw>
-53.7861366271973

> <r_i_glide_ecoul>
-3.08834743499756

> <r_i_glide_erotb>
0.466964867414809

> <r_i_glide_esite>
0

> <r_i_glide_emodel>
-89.6853333947284

> <r_i_glide_energy>
-56.8744840621948

> <r_i_glide_einternal>
0.885877370834351

> <i_i_glide_confnum>
7

> <i_i_glide_posenum>
199

> <r_i_glide_eff_state_penalty>
0

> <s_user_duplicate_titles>
CHEMBL4439_lig795

> <i_f3d_flags>
0

> <s_m_subgroup_title>
dock_pv

> <s_m_subgroupid>
dock_pv

> <b_m_subgroup_collapsed>
1

$$$$
CHEMBL4439_lig254
                    3D
 Schrodinger Suite 2021-1.
 39 42  0  0  1  0            999 V2000
   15.3270   66.0612    7.7569 N   0  0  0  0  0  0
   16.3485   67.2694    6.1205 C   0  0  0  0  0  0
   15.3936   66.2624    6.4507 C   0  0  0  0  0  0
   16.8450   67.6596    7.3618 C   0  0  0  0  0  0
   16.1955   66.9112    8.2931 N   0  0  0  0  0  0
   16.6619   67.1088    9.6497 C   0  0  0  0  0  0
   17.3786   68.4571    9.5230 C   0  0  0  0  0  0
   17.8123   68.5857    8.0578 C   0  0  0  0  0  0
   16.7611   67.8389    4.7953 C   0  0  0  0  0  0
   18.0367   68.4021    4.6542 C   0  0  0  0  0  0
   18.4181   69.0016    3.4582 C   0  0  0  0  0  0
   17.5228   69.0342    2.3949 C   0  0  0  0  0  0
   16.2642   68.4569    2.5065 C   0  0  0  0  0  0
   15.8826   67.8633    3.7059 C   0  0  0  0  0  0
   14.5563   65.4065    5.5485 C   0  0  0  0  0  0
   15.0667   64.8513    4.3709 C   0  0  0  0  0  0
   14.2670   63.9783    3.6323 C   0  0  0  0  0  0
   12.9757   63.6834    4.0689 C   0  0  0  0  0  0
   12.5167   64.3062    5.2316 C   0  0  0  0  0  0
   13.2865   65.1488    5.9708 N   0  0  0  0  0  0
   11.1142   64.0765    5.7533 C   0  0  0  0  0  0
   17.8673   69.6570    1.2320 O   0  0  0  0  0  0
   17.3517   66.3120    9.9316 H   0  0  0  0  0  0
   15.8399   67.1390   10.3654 H   0  0  0  0  0  0
   18.2181   68.5498   10.2132 H   0  0  0  0  0  0
   16.6794   69.2574    9.7698 H   0  0  0  0  0  0
   18.8467   68.2711    7.9140 H   0  0  0  0  0  0
   17.7399   69.6197    7.7197 H   0  0  0  0  0  0
   18.7390   68.3876    5.4735 H   0  0  0  0  0  0
   19.3989   69.4444    3.3677 H   0  0  0  0  0  0
   15.5722   68.4904    1.6766 H   0  0  0  0  0  0
   14.8817   67.4666    3.7894 H   0  0  0  0  0  0
   16.0638   65.0842    4.0325 H   0  0  0  0  0  0
   14.6421   63.5318    2.7243 H   0  0  0  0  0  0
   12.3449   63.0159    3.5002 H   0  0  0  0  0  0
   10.4765   63.6095    5.0020 H   0  0  0  0  0  0
   11.1324   63.4398    6.6381 H   0  0  0  0  0  0
   10.6670   65.0311    6.0290 H   0  0  0  0  0  0
   18.6788   70.1737    1.2792 H   0  0  0  0  0  0
  1  5  1  0  0  0
  1  3  2  0  0  0
  2  4  2  0  0  0
  2  3  1  0  0  0
  2  9  1  0  0  0
  3 15  1  0  0  0
  4  5  1  0  0  0
  4  8  1  0  0  0
  5  6  1  0  0  0
  6  7  1  0  0  0
  6 23  1  0  0  0
  6 24  1  0  0  0
  7  8  1  0  0  0
  7 25  1  0  0  0
  7 26  1  0  0  0
  8 27  1  0  0  0
  8 28  1  0  0  0
  9 10  2  0  0  0
  9 14  1  0  0  0
 10 11  1  0  0  0
 10 29  1  0  0  0
 11 12  2  0  0  0
 11 30  1  0  0  0
 12 13  1  0  0  0
 12 22  1  0  0  0
 13 14  2  0  0  0
 13 31  1  0  0  0
 14 32  1  0  0  0
 15 16  2  0  0  0
 15 20  1  0  0  0
 16 17  1  0  0  0
 16 33  1  0  0  0
 17 18  2  0  0  0
 17 34  1  0  0  0
 18 19  1  0  0  0
 18 35  1  0  0  0
 19 20  2  0  0  0
 19 21  1  0  0  0
 21 36  1  0  0  0
 21 37  1  0  0  0
 21 38  1  0  0  0
 22 39  1  0  0  0
M  END
> <s_m_entry_id>
34312

> <s_m_entry_name>
dock_pv.55

> <s_m_Source_Path>
/home/csk/Desktop/cluster/DUD-E-result/tgfr1

> <s_m_Source_File>
dock_pv.maegz

> <i_m_Source_File_Index>
55

> <chembl_id>
CHEMBL330814

> <chembl_pref_name>
None

> <i_lp_mmshare_version>
53161

> <r_lp_tautomer_probability>
0.999999999997365

> <s_lp_Force_Field>
OPLS_2005

> <r_lp_Energy>
36.009162

> <b_lp_Chiralities_Consistent>
1

> <s_lp_Variant>
CHEMBL4439_lig254-1

> <s_i_glide_gridfile>
glide-grid_3hmm

> <i_i_glide_lignum>
360

> <i_i_glide_rotatable_bonds>
3

> <r_i_docking_score>
-9.56729152576601

> <r_i_glide_ligand_efficiency>
-0.434876887534819

> <r_i_glide_ligand_efficiency_sa>
-1.21854214161004

> <r_i_glide_ligand_efficiency_ln>
-2.33859502433476

> <r_i_glide_gscore>
-9.56729152576601

> <r_i_glide_lipo>
-4.20929262561818

> <r_i_glide_hbond>
-0.522742841379816

> <r_i_glide_metal>
0

> <r_i_glide_rewards>
-2.44730238877548

> <r_i_glide_evdw>
-41.6733474731445

> <r_i_glide_ecoul>
-4.8936243057251

> <r_i_glide_erotb>
0.429757349523464

> <r_i_glide_esite>
0

> <r_i_glide_emodel>
-72.2230675092774

> <r_i_glide_energy>
-46.5669717788696

> <r_i_glide_einternal>
1.21635580062866

> <i_i_glide_confnum>
3

> <i_i_glide_posenum>
261

> <r_i_glide_eff_state_penalty>
0

> <s_user_duplicate_titles>
CHEMBL4439_lig254,197071

> <i_f3d_flags>
0

> <s_m_subgroup_title>
dock_pv

> <s_m_subgroupid>
dock_pv

> <b_m_subgroup_collapsed>
1

$$$$
CHEMBL4439_lig737
                    3D
 Schrodinger Suite 2021-1.
 52 56  0  0  1  0            999 V2000
   17.7402   68.5451    4.4237 C   0  0  0  0  0  0
   16.4405   68.0568    4.5399 C   0  0  0  0  0  0
   15.6548   68.0077    3.3664 C   0  0  0  0  0  0
   16.1247   68.4576    2.1271 C   0  0  0  0  0  0
   18.2210   68.8760    3.1997 N   0  0  0  0  0  0
   17.4614   68.8559    2.0370 C   0  0  0  0  0  0
   18.2447   69.2552    1.0149 N   0  0  0  0  0  0
   19.3974   69.4548    1.6280 C   0  0  0  0  0  0
   19.4715   69.2572    2.9259 N   0  0  0  0  0  0
   15.8670   67.6402    5.8702 C   0  0  0  0  0  0
   16.2919   67.5115    7.2282 C   0  0  0  0  0  0
   15.3128   67.0173    7.9766 N   0  0  0  0  0  0
   14.2814   66.8573    7.2018 C   0  0  0  0  0  0
   14.5538   67.2577    5.9364 N   0  0  0  0  0  0
   17.5941   67.7964    7.9356 C   0  0  0  0  0  0
   17.6831   68.1856    9.2865 C   0  0  0  0  0  0
   18.9402   68.4535    9.8355 C   0  0  0  0  0  0
   20.0784   68.3739    9.0341 C   0  0  0  0  0  0
   19.9157   67.9889    7.7038 C   0  0  0  0  0  0
   18.7113   67.6567    7.1833 N   0  0  0  0  0  0
   21.0649   67.9970    6.7198 C   0  0  0  0  0  0
   12.9851   66.2460    7.6636 C   0  0  0  0  0  0
   11.9114   66.0567    6.7082 N   0  0  0  0  0  0
   11.9802   65.0619    5.7258 C   0  0  0  0  0  0
   10.7789   64.5971    5.2111 C   0  0  0  0  0  0
   10.7502   63.6570    4.1929 C   0  0  0  0  0  0
   11.9413   63.2188    3.6374 C   0  0  0  0  0  0
   13.1585   63.6814    4.1248 C   0  0  0  0  0  0
   13.1732   64.5477    5.2165 C   0  0  0  0  0  0
   16.5823   68.3258   10.0616 F   0  0  0  0  0  0
   14.3752   63.3264    3.4069 C   0  0  0  0  0  0
   15.5487   63.9788    3.4932 C   0  0  0  0  0  0
   18.4319   68.7328    5.2127 H   0  0  0  0  0  0
   14.6357   67.6529    3.4038 H   0  0  0  0  0  0
   15.4969   68.4562    1.2443 H   0  0  0  0  0  0
   20.2766   69.7287    1.0630 H   0  0  0  0  0  0
   13.9045   67.2098    5.1643 H   0  0  0  0  0  0
   19.0238   68.7684   10.8656 H   0  0  0  0  0  0
   21.0498   68.6338    9.4287 H   0  0  0  0  0  0
   22.0247   68.0611    7.2323 H   0  0  0  0  0  0
   21.0644   67.1001    6.0992 H   0  0  0  0  0  0
   20.9846   68.8579    6.0570 H   0  0  0  0  0  0
   12.6114   66.8560    8.4707 H   0  0  0  0  0  0
   13.1635   65.2592    8.0319 H   0  0  0  0  0  0
   10.9771   66.2409    7.0542 H   0  0  0  0  0  0
    9.8670   64.9718    5.6142 H   0  0  0  0  0  0
    9.8208   63.2830    3.8019 H   0  0  0  0  0  0
   11.9114   62.5376    2.8013 H   0  0  0  0  0  0
   14.1225   64.8445    5.6204 H   0  0  0  0  0  0
   14.2677   62.4689    2.7624 H   0  0  0  0  0  0
   15.6841   64.8469    4.1205 H   0  0  0  0  0  0
   16.4065   63.6599    2.9218 H   0  0  0  0  0  0
  1  5  1  0  0  0
  1  2  2  0  0  0
  1 33  1  0  0  0
  2  3  1  0  0  0
  2 10  1  0  0  0
  3  4  2  0  0  0
  3 34  1  0  0  0
  4  6  1  0  0  0
  4 35  1  0  0  0
  5  6  1  0  0  0
  5  9  1  0  0  0
  6  7  2  0  0  0
  7  8  1  0  0  0
  8  9  2  0  0  0
  8 36  1  0  0  0
 10 11  2  0  0  0
 10 14  1  0  0  0
 11 15  1  0  0  0
 11 12  1  0  0  0
 12 13  2  0  0  0
 13 14  1  0  0  0
 13 22  1  0  0  0
 14 37  1  0  0  0
 15 16  2  0  0  0
 15 20  1  0  0  0
 16 17  1  0  0  0
 16 30  1  0  0  0
 17 18  2  0  0  0
 17 38  1  0  0  0
 18 19  1  0  0  0
 18 39  1  0  0  0
 19 20  2  0  0  0
 19 21  1  0  0  0
 21 40  1  0  0  0
 21 41  1  0  0  0
 21 42  1  0  0  0
 22 23  1  0  0  0
 22 43  1  0  0  0
 22 44  1  0  0  0
 23 24  1  0  0  0
 23 45  1  0  0  0
 24 25  2  0  0  0
 24 29  1  0  0  0
 25 26  1  0  0  0
 25 46  1  0  0  0
 26 27  2  0  0  0
 26 47  1  0  0  0
 27 28  1  0  0  0
 27 48  1  0  0  0
 28 29  2  0  0  0
 28 31  1  0  0  0
 29 49  1  0  0  0
 31 32  2  0  0  0
 31 50  1  0  0  0
 32 51  1  0  0  0
 32 52  1  0  0  0
M  END
> <s_m_entry_id>
34313

> <s_m_entry_name>
dock_pv.56

> <s_m_Source_Path>
/home/csk/Desktop/cluster/DUD-E-result/tgfr1

> <s_m_Source_File>
dock_pv.maegz

> <i_m_Source_File_Index>
56

> <chembl_id>
CHEMBL3634708

> <chembl_pref_name>
None

> <i_lp_mmshare_version>
53161

> <r_lp_tautomer_probability>
0.499999999999999

> <s_lp_Force_Field>
OPLS_2005

> <r_lp_Energy>
23.450412

> <b_lp_Chiralities_Consistent>
1

> <s_lp_Variant>
CHEMBL4439_lig737-2

> <s_i_glide_gridfile>
glide-grid_3hmm

> <i_i_glide_lignum>
1047

> <i_i_glide_rotatable_bonds>
6

> <r_i_docking_score>
-9.54709210273433

> <r_i_glide_ligand_efficiency>
-0.298346628210448

> <r_i_glide_ligand_efficiency_sa>
-0.947191501850622

> <r_i_glide_ligand_efficiency_ln>
-2.13785416570401

> <r_i_glide_gscore>
-9.54709210273433

> <r_i_glide_lipo>
-3.90917028332747

> <r_i_glide_hbond>
-0.430878343930099

> <r_i_glide_metal>
0

> <r_i_glide_rewards>
-3.02579620579066

> <r_i_glide_evdw>
-44.8796577453613

> <r_i_glide_ecoul>
-3.8459005355835

> <r_i_glide_erotb>
0.657532569287293

> <r_i_glide_esite>
-0.0179118713678043

> <r_i_glide_emodel>
-66.89877671099

> <r_i_glide_energy>
-48.7255582809448

> <r_i_glide_einternal>
10.4591579437256

> <i_i_glide_confnum>
41

> <i_i_glide_posenum>
250

> <r_i_glide_eff_state_penalty>
0

> <s_user_duplicate_titles>
CHEMBL4439_lig737

> <i_f3d_flags>
0

> <s_m_subgroup_title>
dock_pv

> <s_m_subgroupid>
dock_pv

> <b_m_subgroup_collapsed>
1

$$$$
CHEMBL4439_lig735
                    3D
 Schrodinger Suite 2021-1.
 48 52  0  0  1  0            999 V2000
   17.6927   68.4568    4.6802 C   0  0  0  0  0  0
   16.3702   68.0007    4.7545 C   0  0  0  0  0  0
   15.6308   67.9811    3.5508 C   0  0  0  0  0  0
   16.1337   68.4569    2.3394 C   0  0  0  0  0  0
   18.2046   68.8351    3.4716 N   0  0  0  0  0  0
   17.4704   68.8477    2.2898 C   0  0  0  0  0  0
   18.2674   69.2584    1.2819 N   0  0  0  0  0  0
   19.3884   69.5264    1.9295 C   0  0  0  0  0  0
   19.4536   69.2595    3.2218 N   0  0  0  0  0  0
   15.6781   67.5754    6.0384 C   0  0  0  0  0  0
   15.9627   67.3817    7.4278 C   0  0  0  0  0  0
   14.8948   66.8952    8.0633 N   0  0  0  0  0  0
   13.9418   66.7807    7.1866 C   0  0  0  0  0  0
   14.3445   67.2585    5.9865 N   0  0  0  0  0  0
   17.1961   67.5905    8.2745 C   0  0  0  0  0  0
   17.1404   67.6727    9.6780 C   0  0  0  0  0  0
   18.3195   67.8660   10.3994 C   0  0  0  0  0  0
   19.5317   67.9831    9.7197 C   0  0  0  0  0  0
   19.5176   67.8916    8.3274 C   0  0  0  0  0  0
   18.3794   67.6792    7.6212 N   0  0  0  0  0  0
   20.7767   68.0592    7.4993 C   0  0  0  0  0  0
   12.5875   66.1465    7.4405 C   0  0  0  0  0  0
   11.8202   65.6570    6.3076 N   0  0  0  0  0  0
   12.2660   64.7382    5.3465 C   0  0  0  0  0  0
   13.6171   64.4464    5.1036 C   0  0  0  0  0  0
   13.9849   63.6570    4.0213 C   0  0  0  0  0  0
   13.0075   63.0653    3.2345 C   0  0  0  0  0  0
   11.6624   63.2570    3.5398 C   0  0  0  0  0  0
   11.2885   64.1031    4.5750 C   0  0  0  0  0  0
   18.2838   67.9503   11.7493 F   0  0  0  0  0  0
    9.9715   64.3072    4.8139 F   0  0  0  0  0  0
   18.3754   68.5708    5.4952 H   0  0  0  0  0  0
   14.6094   67.6345    3.5331 H   0  0  0  0  0  0
   15.5258   68.4579    1.4456 H   0  0  0  0  0  0
   20.2479   69.9177    1.4014 H   0  0  0  0  0  0
   13.7727   67.2575    5.1549 H   0  0  0  0  0  0
   16.2039   67.6000   10.2098 H   0  0  0  0  0  0
   20.4482   68.1526   10.2645 H   0  0  0  0  0  0
   21.6723   68.0573    8.1210 H   0  0  0  0  0  0
   20.8677   67.2587    6.7633 H   0  0  0  0  0  0
   20.7466   69.0066    6.9605 H   0  0  0  0  0  0
   11.9532   66.8421    7.9822 H   0  0  0  0  0  0
   12.6676   65.2570    8.0320 H   0  0  0  0  0  0
   10.8150   65.7467    6.3918 H   0  0  0  0  0  0
   14.4181   64.8208    5.7139 H   0  0  0  0  0  0
   15.0287   63.4823    3.8048 H   0  0  0  0  0  0
   13.2909   62.4572    2.3903 H   0  0  0  0  0  0
   10.9011   62.7896    2.9337 H   0  0  0  0  0  0
  1  5  1  0  0  0
  1  2  2  0  0  0
  1 32  1  0  0  0
  2  3  1  0  0  0
  2 10  1  0  0  0
  3  4  2  0  0  0
  3 33  1  0  0  0
  4  6  1  0  0  0
  4 34  1  0  0  0
  5  6  1  0  0  0
  5  9  1  0  0  0
  6  7  2  0  0  0
  7  8  1  0  0  0
  8  9  2  0  0  0
  8 35  1  0  0  0
 10 11  2  0  0  0
 10 14  1  0  0  0
 11 15  1  0  0  0
 11 12  1  0  0  0
 12 13  2  0  0  0
 13 14  1  0  0  0
 13 22  1  0  0  0
 14 36  1  0  0  0
 15 16  2  0  0  0
 15 20  1  0  0  0
 16 17  1  0  0  0
 16 37  1  0  0  0
 17 18  2  0  0  0
 17 30  1  0  0  0
 18 19  1  0  0  0
 18 38  1  0  0  0
 19 20  2  0  0  0
 19 21  1  0  0  0
 21 39  1  0  0  0
 21 40  1  0  0  0
 21 41  1  0  0  0
 22 23  1  0  0  0
 22 42  1  0  0  0
 22 43  1  0  0  0
 23 24  1  0  0  0
 23 44  1  0  0  0
 24 25  2  0  0  0
 24 29  1  0  0  0
 25 26  1  0  0  0
 25 45  1  0  0  0
 26 27  2  0  0  0
 26 46  1  0  0  0
 27 28  1  0  0  0
 27 47  1  0  0  0
 28 29  2  0  0  0
 28 48  1  0  0  0
 29 31  1  0  0  0
M  END
> <s_m_entry_id>
34314

> <s_m_entry_name>
dock_pv.57

> <s_m_Source_Path>
/home/csk/Desktop/cluster/DUD-E-result/tgfr1

> <s_m_Source_File>
dock_pv.maegz

> <i_m_Source_File_Index>
57

> <chembl_id>
CHEMBL3634710

> <chembl_pref_name>
None

> <i_lp_mmshare_version>
53161

> <r_lp_tautomer_probability>
0.499999999999999

> <s_lp_Force_Field>
OPLS_2005

> <r_lp_Energy>
18.283337

> <b_lp_Chiralities_Consistent>
1

> <s_lp_Variant>
CHEMBL4439_lig735-2

> <s_i_glide_gridfile>
glide-grid_3hmm

> <i_i_glide_lignum>
1043

> <i_i_glide_rotatable_bonds>
5

> <r_i_docking_score>
-9.54582561671595

> <r_i_glide_ligand_efficiency>
-0.30792985860374

> <r_i_glide_ligand_efficiency_sa>
-0.967324899004147

> <r_i_glide_ligand_efficiency_ln>
-2.15287622099134

> <r_i_glide_gscore>
-9.54582561671595

> <r_i_glide_lipo>
-3.96911500394157

> <r_i_glide_hbond>
-0.151676359833612

> <r_i_glide_metal>
0

> <r_i_glide_rewards>
-3.16779101944693

> <r_i_glide_evdw>
-49.5387496948242

> <r_i_glide_ecoul>
-2.2812237739563

> <r_i_glide_erotb>
0.567192840668897

> <r_i_glide_esite>
-0.00531502332807913

> <r_i_glide_emodel>
-83.9909497024706

> <r_i_glide_energy>
-51.8199734687805

> <r_i_glide_einternal>
3.94565272331238

> <i_i_glide_confnum>
44

> <i_i_glide_posenum>
197

> <r_i_glide_eff_state_penalty>
0

> <s_user_duplicate_titles>
CHEMBL4439_lig735,CHEMBL4439_lig735

> <i_f3d_flags>
0

> <s_m_subgroup_title>
dock_pv

> <s_m_subgroupid>
dock_pv

> <b_m_subgroup_collapsed>
1

$$$$
CHEMBL4439_lig126
                    3D
 Schrodinger Suite 2021-1.
 40 43  0  0  1  0            999 V2000
   15.6846   66.9885    7.4224 C   0  0  0  0  0  0
   15.4645   67.5696    8.6353 N   0  0  0  0  0  0
   16.3978   68.4117    9.1408 C   0  0  0  0  0  0
   17.5715   68.7262    8.4605 C   0  0  0  0  0  0
   17.8188   68.1214    7.2238 C   0  0  0  0  0  0
   16.8821   67.2104    6.7314 C   0  0  0  0  0  0
   19.0658   68.4623    6.4789 C   0  0  0  0  0  0
   19.3167   68.7604    5.1020 C   0  0  0  0  0  0
   20.6008   69.0071    4.9121 N   0  0  0  0  0  0
   21.1801   68.9081    6.1014 N   0  0  0  0  0  0
   20.3065   68.5806    7.0885 C   0  0  0  0  0  0
   18.3987   68.8477    3.9024 C   0  0  0  0  0  0
   17.1165   68.4265    4.0586 N   0  0  0  0  0  0
   16.2699   68.4564    2.9987 C   0  0  0  0  0  0
   16.6473   68.9512    1.7538 C   0  0  0  0  0  0
   17.9536   69.4004    1.5949 C   0  0  0  0  0  0
   18.8451   69.3380    2.6650 C   0  0  0  0  0  0
   14.5539   66.2057    6.8258 C   0  0  0  0  0  0
   14.7780   65.2584    5.8142 C   0  0  0  0  0  0
   13.7162   64.5899    5.2089 C   0  0  0  0  0  0
   12.4036   64.8359    5.6209 C   0  0  0  0  0  0
   12.1698   65.7561    6.6435 C   0  0  0  0  0  0
   13.2305   66.4389    7.2314 C   0  0  0  0  0  0
   11.2222   64.1084    4.9782 C   0  0  0  0  0  0
   11.6043   63.2584    4.0244 F   0  0  0  0  0  0
   10.3784   64.9902    4.4404 F   0  0  0  0  0  0
   10.5734   63.4164    5.9125 F   0  0  0  0  0  0
   16.1797   68.8563   10.0997 H   0  0  0  0  0  0
   18.2738   69.4306    8.8832 H   0  0  0  0  0  0
   17.0671   66.7179    5.7931 H   0  0  0  0  0  0
   22.1793   69.0276    6.2168 H   0  0  0  0  0  0
   20.6354   68.4541    8.1089 H   0  0  0  0  0  0
   15.2653   68.0948    3.1721 H   0  0  0  0  0  0
   15.9403   68.9852    0.9368 H   0  0  0  0  0  0
   18.2721   69.7954    0.6458 H   0  0  0  0  0  0
   19.8618   69.6707    2.5239 H   0  0  0  0  0  0
   15.7789   65.0307    5.4774 H   0  0  0  0  0  0
   13.9216   63.8775    4.4225 H   0  0  0  0  0  0
   11.1586   65.9555    6.9741 H   0  0  0  0  0  0
   13.0158   67.1640    8.0037 H   0  0  0  0  0  0
  1  2  2  0  0  0
  1 18  1  0  0  0
  1  6  1  0  0  0
  2  3  1  0  0  0
  3  4  2  0  0  0
  3 28  1  0  0  0
  4  5  1  0  0  0
  4 29  1  0  0  0
  5  7  1  0  0  0
  5  6  2  0  0  0
  6 30  1  0  0  0
  7  8  1  0  0  0
  7 11  2  0  0  0
  8 12  1  0  0  0
  8  9  2  0  0  0
  9 10  1  0  0  0
 10 11  1  0  0  0
 10 31  1  0  0  0
 11 32  1  0  0  0
 12 17  1  0  0  0
 12 13  2  0  0  0
 13 14  1  0  0  0
 14 15  2  0  0  0
 14 33  1  0  0  0
 15 16  1  0  0  0
 15 34  1  0  0  0
 16 17  2  0  0  0
 16 35  1  0  0  0
 17 36  1  0  0  0
 18 19  2  0  0  0
 18 23  1  0  0  0
 19 20  1  0  0  0
 19 37  1  0  0  0
 20 21  2  0  0  0
 20 38  1  0  0  0
 21 22  1  0  0  0
 21 24  1  0  0  0
 22 23  2  0  0  0
 22 39  1  0  0  0
 23 40  1  0  0  0
 24 25  1  0  0  0
 24 26  1  0  0  0
 24 27  1  0  0  0
M  END
> <s_m_entry_id>
34315

> <s_m_entry_name>
dock_pv.58

> <s_m_Source_Path>
/home/csk/Desktop/cluster/DUD-E-result/tgfr1

> <s_m_Source_File>
dock_pv.maegz

> <i_m_Source_File_Index>
58

> <chembl_id>
CHEMBL383523

> <chembl_pref_name>
None

> <i_lp_mmshare_version>
53161

> <r_lp_tautomer_probability>
0.5

> <s_lp_Force_Field>
OPLS_2005

> <r_lp_Energy>
21.439739

> <b_lp_Chiralities_Consistent>
1

> <s_lp_Variant>
CHEMBL4439_lig126-1

> <s_i_glide_gridfile>
glide-grid_3hmm

> <i_i_glide_lignum>
188

> <i_i_glide_rotatable_bonds>
4

> <r_i_docking_score>
-9.53281176270835

> <r_i_glide_ligand_efficiency>
-0.353067102322532

> <r_i_glide_ligand_efficiency_sa>
-1.05920130580394

> <r_i_glide_ligand_efficiency_ln>
-2.21908141767382

> <r_i_glide_gscore>
-9.53281176270835

> <r_i_glide_lipo>
-4.6085695253361

> <r_i_glide_hbond>
-0.0124526343106643

> <r_i_glide_metal>
0

> <r_i_glide_rewards>
-2.46422193548492

> <r_i_glide_evdw>
-49.122875213623

> <r_i_glide_ecoul>
-2.81103444099426

> <r_i_glide_erotb>
0.430231259253623

> <r_i_glide_esite>
0

> <r_i_glide_emodel>
-82.5628485283777

> <r_i_glide_energy>
-51.9339096546173

> <r_i_glide_einternal>
0.940598905086517

> <i_i_glide_confnum>
15

> <i_i_glide_posenum>
95

> <r_i_glide_eff_state_penalty>
0

> <s_user_duplicate_titles>
CHEMBL4439_lig126,CHEMBL4439_lig126,342854

> <i_f3d_flags>
0

> <s_m_subgroup_title>
dock_pv

> <s_m_subgroupid>
dock_pv

> <b_m_subgroup_collapsed>
1

$$$$
CHEMBL4439_lig221
                    3D
 Schrodinger Suite 2021-1.
 37 40  0  0  1  0            999 V2000
   17.6794   68.2492    9.6229 C   0  0  0  0  0  0
   16.7512   67.4385   10.2651 C   0  0  0  0  0  0
   15.8653   66.6588    9.5278 C   0  0  0  0  0  0
   17.7400   68.2964    8.2344 C   0  0  0  0  0  0
   16.8450   67.5127    7.4529 C   0  0  0  0  0  0
   15.8799   66.6887    8.1118 C   0  0  0  0  0  0
   14.9850   65.9271    7.4115 N   0  0  0  0  0  0
   15.0815   65.9488    6.0527 C   0  0  0  0  0  0
   15.9639   66.6878    5.3474 N   0  0  0  0  0  0
   16.8226   67.4769    6.0302 C   0  0  0  0  0  0
   14.1933   65.0511    5.2495 C   0  0  0  0  0  0
   14.6644   64.4353    4.0764 C   0  0  0  0  0  0
   13.8670   63.5455    3.3558 C   0  0  0  0  0  0
   12.5737   63.2587    3.7834 C   0  0  0  0  0  0
   12.0642   63.9152    4.9028 C   0  0  0  0  0  0
   12.8682   64.7965    5.6317 C   0  0  0  0  0  0
   17.7365   68.2343    5.2777 N   0  0  0  0  0  0
   17.7723   68.5754    3.9172 C   0  0  0  0  0  0
   18.9594   69.1068    3.4080 C   0  0  0  0  0  0
   19.0057   69.4741    2.0643 C   0  0  0  0  0  0
   17.9449   69.3451    1.2316 N   0  0  0  0  0  0
   16.7904   68.8570    1.7365 C   0  0  0  0  0  0
   16.6667   68.4570    3.0621 C   0  0  0  0  0  0
   10.4284   63.6571    5.3760 Cl  0  0  0  0  0  0
   18.3555   68.8557   10.2073 H   0  0  0  0  0  0
   16.7110   67.4219   11.3460 H   0  0  0  0  0  0
   15.1360   66.0539   10.0464 H   0  0  0  0  0  0
   18.4690   68.9317    7.7549 H   0  0  0  0  0  0
   15.6704   64.6227    3.7294 H   0  0  0  0  0  0
   14.2434   63.0841    2.4542 H   0  0  0  0  0  0
   11.9518   62.5823    3.2172 H   0  0  0  0  0  0
   12.4539   65.2814    6.5036 H   0  0  0  0  0  0
   18.4660   68.6644    5.8225 H   0  0  0  0  0  0
   19.8338   69.2265    4.0310 H   0  0  0  0  0  0
   19.9046   69.8884    1.6309 H   0  0  0  0  0  0
   15.9457   68.8056    1.0622 H   0  0  0  0  0  0
   15.7064   68.1038    3.3996 H   0  0  0  0  0  0
  1  2  2  0  0  0
  1  4  1  0  0  0
  1 25  1  0  0  0
  2  3  1  0  0  0
  2 26  1  0  0  0
  3  6  2  0  0  0
  3 27  1  0  0  0
  4  5  2  0  0  0
  4 28  1  0  0  0
  5  6  1  0  0  0
  5 10  1  0  0  0
  6  7  1  0  0  0
  7  8  2  0  0  0
  8 11  1  0  0  0
  8  9  1  0  0  0
  9 10  2  0  0  0
 10 17  1  0  0  0
 11 12  2  0  0  0
 11 16  1  0  0  0
 12 13  1  0  0  0
 12 29  1  0  0  0
 13 14  2  0  0  0
 13 30  1  0  0  0
 14 15  1  0  0  0
 14 31  1  0  0  0
 15 16  2  0  0  0
 15 24  1  0  0  0
 16 32  1  0  0  0
 17 18  1  0  0  0
 17 33  1  0  0  0
 18 19  2  0  0  0
 18 23  1  0  0  0
 19 20  1  0  0  0
 19 34  1  0  0  0
 20 21  2  0  0  0
 20 35  1  0  0  0
 21 22  1  0  0  0
 22 23  2  0  0  0
 22 36  1  0  0  0
 23 37  1  0  0  0
M  END
> <s_m_entry_id>
34316

> <s_m_entry_name>
dock_pv.59

> <s_m_Source_Path>
/home/csk/Desktop/cluster/DUD-E-result/tgfr1

> <s_m_Source_File>
dock_pv.maegz

> <i_m_Source_File_Index>
59

> <chembl_id>
CHEMBL571451

> <chembl_pref_name>
None

> <i_lp_mmshare_version>
53161

> <r_lp_tautomer_probability>
0.999977106282132

> <s_lp_Force_Field>
OPLS_2005

> <r_lp_Energy>
19.509962

> <b_lp_Chiralities_Consistent>
1

> <s_lp_Variant>
CHEMBL4439_lig221-1

> <s_i_glide_gridfile>
glide-grid_3hmm

> <i_i_glide_lignum>
323

> <i_i_glide_rotatable_bonds>
3

> <r_i_docking_score>
-9.51315528792913

> <r_i_glide_ligand_efficiency>
-0.39638147033038

> <r_i_glide_ligand_efficiency_sa>
-1.1433620093124

> <r_i_glide_ligand_efficiency_ln>
-2.27693459065291

> <r_i_glide_gscore>
-9.51315528792913

> <r_i_glide_lipo>
-4.28147571052939

> <r_i_glide_hbond>
-0.345311196492767

> <r_i_glide_metal>
0

> <r_i_glide_rewards>
-2.5602909719844

> <r_i_glide_evdw>
-48.7563743591309

> <r_i_glide_ecoul>
-2.65724182128906

> <r_i_glide_erotb>
0.510327582227331

> <r_i_glide_esite>
0

> <r_i_glide_emodel>
-78.125673822692

> <r_i_glide_energy>
-51.4136161804199

> <r_i_glide_einternal>
4.52759647369385

> <i_i_glide_confnum>
6

> <i_i_glide_posenum>
171

> <r_i_glide_eff_state_penalty>
0

> <s_user_duplicate_titles>
CHEMBL4439_lig221,561341

> <i_f3d_flags>
0

> <s_m_subgroup_title>
dock_pv

> <s_m_subgroupid>
dock_pv

> <b_m_subgroup_collapsed>
1

$$$$
CHEMBL4439_lig638
                    3D
 Schrodinger Suite 2021-1.
 48 52  0  0  1  0            999 V2000
   17.9506   68.5772    4.3346 C   0  0  0  0  0  0
   16.6546   68.1411    4.6311 C   0  0  0  0  0  0
   15.7405   68.0569    3.5560 C   0  0  0  0  0  0
   16.0524   68.4570    2.2591 C   0  0  0  0  0  0
   18.2724   68.8695    3.0413 N   0  0  0  0  0  0
   17.3717   68.8005    1.9838 C   0  0  0  0  0  0
   18.0182   69.0727    0.8335 N   0  0  0  0  0  0
   19.2463   69.2575    1.2731 C   0  0  0  0  0  0
   19.4669   69.2570    2.5748 N   0  0  0  0  0  0
   16.1396   67.8066    6.0169 C   0  0  0  0  0  0
   16.6212   67.5761    7.3438 C   0  0  0  0  0  0
   15.6302   67.1341    8.1195 N   0  0  0  0  0  0
   14.5494   67.1153    7.3964 C   0  0  0  0  0  0
   14.7867   67.6323    6.1712 N   0  0  0  0  0  0
   17.9782   67.7046    8.0035 C   0  0  0  0  0  0
   18.2010   67.3508    9.3474 C   0  0  0  0  0  0
   19.4697   67.5269    9.9031 C   0  0  0  0  0  0
   20.4996   68.0467    9.1197 C   0  0  0  0  0  0
   20.2158   68.3772    7.7944 C   0  0  0  0  0  0
   18.9838   68.2114    7.2497 N   0  0  0  0  0  0
   21.2730   68.9612    6.8766 C   0  0  0  0  0  0
   13.2254   66.5253    7.8296 C   0  0  0  0  0  0
   12.2668   66.0698    6.8311 N   0  0  0  0  0  0
   12.5394   65.1264    5.8297 C   0  0  0  0  0  0
   13.8283   64.8256    5.3689 C   0  0  0  0  0  0
   14.0034   64.0570    4.2281 C   0  0  0  0  0  0
   12.9025   63.4836    3.6093 C   0  0  0  0  0  0
   11.6239   63.6587    4.1308 C   0  0  0  0  0  0
   11.4426   64.5062    5.2240 C   0  0  0  0  0  0
   15.2400   63.9020    3.7039 F   0  0  0  0  0  0
   13.0670   62.8568    2.4322 F   0  0  0  0  0  0
   18.7559   68.7165    5.0221 H   0  0  0  0  0  0
   14.7260   67.7172    3.7060 H   0  0  0  0  0  0
   15.3198   68.4163    1.4675 H   0  0  0  0  0  0
   20.0361   69.5387    0.5901 H   0  0  0  0  0  0
   14.0974   67.6961    5.4370 H   0  0  0  0  0  0
   17.4087   66.9541    9.9649 H   0  0  0  0  0  0
   19.6536   67.2592   10.9336 H   0  0  0  0  0  0
   21.4865   68.1953    9.5350 H   0  0  0  0  0  0
   22.2650   68.9310    7.3306 H   0  0  0  0  0  0
   21.3223   68.4052    5.9393 H   0  0  0  0  0  0
   21.0396   70.0015    6.6436 H   0  0  0  0  0  0
   12.7097   67.2565    8.4320 H   0  0  0  0  0  0
   13.3905   65.6570    8.4323 H   0  0  0  0  0  0
   11.2985   66.0902    7.1285 H   0  0  0  0  0  0
   14.7224   65.2012    5.8279 H   0  0  0  0  0  0
   10.7718   63.2212    3.6321 H   0  0  0  0  0  0
   10.4390   64.7054    5.5715 H   0  0  0  0  0  0
  1  5  1  0  0  0
  1  2  2  0  0  0
  1 32  1  0  0  0
  2  3  1  0  0  0
  2 10  1  0  0  0
  3  4  2  0  0  0
  3 33  1  0  0  0
  4  6  1  0  0  0
  4 34  1  0  0  0
  5  6  1  0  0  0
  5  9  1  0  0  0
  6  7  2  0  0  0
  7  8  1  0  0  0
  8  9  2  0  0  0
  8 35  1  0  0  0
 10 11  2  0  0  0
 10 14  1  0  0  0
 11 15  1  0  0  0
 11 12  1  0  0  0
 12 13  2  0  0  0
 13 14  1  0  0  0
 13 22  1  0  0  0
 14 36  1  0  0  0
 15 16  2  0  0  0
 15 20  1  0  0  0
 16 17  1  0  0  0
 16 37  1  0  0  0
 17 18  2  0  0  0
 17 38  1  0  0  0
 18 19  1  0  0  0
 18 39  1  0  0  0
 19 20  2  0  0  0
 19 21  1  0  0  0
 21 40  1  0  0  0
 21 41  1  0  0  0
 21 42  1  0  0  0
 22 23  1  0  0  0
 22 43  1  0  0  0
 22 44  1  0  0  0
 23 24  1  0  0  0
 23 45  1  0  0  0
 24 25  2  0  0  0
 24 29  1  0  0  0
 25 26  1  0  0  0
 25 46  1  0  0  0
 26 27  2  0  0  0
 26 30  1  0  0  0
 27 28  1  0  0  0
 27 31  1  0  0  0
 28 29  2  0  0  0
 28 47  1  0  0  0
 29 48  1  0  0  0
M  END
> <s_m_entry_id>
34317

> <s_m_entry_name>
dock_pv.60

> <s_m_Source_Path>
/home/csk/Desktop/cluster/DUD-E-result/tgfr1

> <s_m_Source_File>
dock_pv.maegz

> <i_m_Source_File_Index>
60

> <chembl_id>
CHEMBL3260619

> <chembl_pref_name>
None

> <i_lp_mmshare_version>
53161

> <r_lp_tautomer_probability>
0.499999999999999

> <s_lp_Force_Field>
OPLS_2005

> <r_lp_Energy>
18.26593

> <b_lp_Chiralities_Consistent>
1

> <s_lp_Variant>
CHEMBL4439_lig638-2

> <s_i_glide_gridfile>
glide-grid_3hmm

> <i_i_glide_lignum>
865

> <i_i_glide_rotatable_bonds>
5

> <r_i_docking_score>
-9.48739038689559

> <r_i_glide_ligand_efficiency>
-0.30604485119018

> <r_i_glide_ligand_efficiency_sa>
-0.961403373192353

> <r_i_glide_ligand_efficiency_ln>
-2.13969728584213

> <r_i_glide_gscore>
-9.48739038689559

> <r_i_glide_lipo>
-3.57863929649567

> <r_i_glide_hbond>
-0.32

> <r_i_glide_metal>
0

> <r_i_glide_rewards>
-3.45021366966443

> <r_i_glide_evdw>
-44.6710433959961

> <r_i_glide_ecoul>
-3.1379177570343

> <r_i_glide_erotb>
0.567192840668897

> <r_i_glide_esite>
-0.00149042804944196

> <r_i_glide_emodel>
-78.6049151649278

> <r_i_glide_energy>
-47.8089611530304

> <r_i_glide_einternal>
3.76559948921204

> <i_i_glide_confnum>
13

> <i_i_glide_posenum>
18

> <r_i_glide_eff_state_penalty>
0

> <s_user_duplicate_titles>
CHEMBL4439_lig638,CHEMBL4439_lig638

> <i_f3d_flags>
0

> <s_m_subgroup_title>
dock_pv

> <s_m_subgroupid>
dock_pv

> <b_m_subgroup_collapsed>
1

$$$$
CHEMBL4439_lig782
                    3D
 Schrodinger Suite 2021-1.
 35 38  0  0  1  0            999 V2000
   18.0957   69.2570    1.2320 N   0  0  0  0  0  0
   17.6158   68.4391    3.9435 C   0  0  0  0  0  0
   16.6032   68.4570    2.9714 C   0  0  0  0  0  0
   16.8747   68.8576    1.6643 C   0  0  0  0  0  0
   18.8685   68.8809    3.4939 C   0  0  0  0  0  0
   19.0670   69.2761    2.1479 C   0  0  0  0  0  0
   20.4388   69.6570    2.0725 C   0  0  0  0  0  0
   21.0324   69.5131    3.2320 N   0  0  0  0  0  0
   20.1068   69.0449    4.0938 N   0  0  0  0  0  0
   17.3832   68.0802    5.2823 N   0  0  0  0  0  0
   16.3213   67.3936    5.8852 C   0  0  0  0  0  0
   16.0612   67.6053    7.2391 C   0  0  0  0  0  0
   14.9914   66.9323    7.8270 C   0  0  0  0  0  0
   14.2090   66.0570    7.1462 N   0  0  0  0  0  0
   14.4867   65.8147    5.8328 C   0  0  0  0  0  0
   15.5309   66.4815    5.1831 C   0  0  0  0  0  0
   13.5975   64.8533    5.1062 C   0  0  0  0  0  0
   14.0721   64.0688    4.0320 C   0  0  0  0  0  0
   13.2084   63.2570    3.3058 C   0  0  0  0  0  0
   11.8693   63.1728    3.6578 C   0  0  0  0  0  0
   11.3929   63.8719    4.7570 C   0  0  0  0  0  0
   12.2428   64.7215    5.4647 C   0  0  0  0  0  0
   15.3775   64.0573    3.6779 F   0  0  0  0  0  0
    9.7534   63.6570    5.2320 Cl  0  0  0  0  0  0
   15.5849   68.2060    3.2210 H   0  0  0  0  0  0
   16.0810   68.8753    0.9301 H   0  0  0  0  0  0
   20.9720   70.0343    1.2121 H   0  0  0  0  0  0
   20.3666   68.8452    5.0490 H   0  0  0  0  0  0
   18.0576   68.4570    5.9301 H   0  0  0  0  0  0
   16.6553   68.2971    7.8183 H   0  0  0  0  0  0
   14.7433   67.0992    8.8638 H   0  0  0  0  0  0
   15.7371   66.2829    4.1453 H   0  0  0  0  0  0
   13.5782   62.6862    2.4669 H   0  0  0  0  0  0
   11.2063   62.5327    3.0959 H   0  0  0  0  0  0
   11.8370   65.2834    6.2943 H   0  0  0  0  0  0
  1  6  2  0  0  0
  1  4  1  0  0  0
  2  5  2  0  0  0
  2  3  1  0  0  0
  2 10  1  0  0  0
  3  4  2  0  0  0
  3 25  1  0  0  0
  4 26  1  0  0  0
  5  6  1  0  0  0
  5  9  1  0  0  0
  6  7  1  0  0  0
  7  8  2  0  0  0
  7 27  1  0  0  0
  8  9  1  0  0  0
  9 28  1  0  0  0
 10 11  1  0  0  0
 10 29  1  0  0  0
 11 12  2  0  0  0
 11 16  1  0  0  0
 12 13  1  0  0  0
 12 30  1  0  0  0
 13 14  2  0  0  0
 13 31  1  0  0  0
 14 15  1  0  0  0
 15 16  2  0  0  0
 15 17  1  0  0  0
 16 32  1  0  0  0
 17 18  2  0  0  0
 17 22  1  0  0  0
 18 19  1  0  0  0
 18 23  1  0  0  0
 19 20  2  0  0  0
 19 33  1  0  0  0
 20 21  1  0  0  0
 20 34  1  0  0  0
 21 22  2  0  0  0
 21 24  1  0  0  0
 22 35  1  0  0  0
M  END
> <s_m_entry_id>
34318

> <s_m_entry_name>
dock_pv.61

> <s_m_Source_Path>
/home/csk/Desktop/cluster/DUD-E-result/tgfr1

> <s_m_Source_File>
dock_pv.maegz

> <i_m_Source_File_Index>
61

> <chembl_id>
CHEMBL4073422

> <chembl_pref_name>
None

> <i_lp_mmshare_version>
53161

> <r_lp_tautomer_probability>
0.999999106000799

> <s_lp_Force_Field>
OPLS_2005

> <r_lp_Energy>
24.082189

> <b_lp_Chiralities_Consistent>
1

> <s_lp_Variant>
CHEMBL4439_lig782-1

> <s_i_glide_gridfile>
glide-grid_3hmm

> <i_i_glide_lignum>
1096

> <i_i_glide_rotatable_bonds>
3

> <r_i_docking_score>
-9.48244225706787

> <r_i_glide_ligand_efficiency>
-0.395101760711161

> <r_i_glide_ligand_efficiency_sa>
-1.13967068801943

> <r_i_glide_ligand_efficiency_ln>
-2.26958355303866

> <r_i_glide_gscore>
-9.48244225706787

> <r_i_glide_lipo>
-4.3831308644456

> <r_i_glide_hbond>
-0.247053327580247

> <r_i_glide_metal>
0

> <r_i_glide_rewards>
-2.70262933546188

> <r_i_glide_evdw>
-45.704345703125

> <r_i_glide_ecoul>
-2.37568521499634

> <r_i_glide_erotb>
0.491941337825565

> <r_i_glide_esite>
0

> <r_i_glide_emodel>
-71.8485343629053

> <r_i_glide_energy>
-48.0800309181213

> <r_i_glide_einternal>
7.27313423156738

> <i_i_glide_confnum>
12

> <i_i_glide_posenum>
378

> <r_i_glide_eff_state_penalty>
0

> <s_user_duplicate_titles>
CHEMBL4439_lig782

> <i_f3d_flags>
0

> <s_m_subgroup_title>
dock_pv

> <s_m_subgroupid>
dock_pv

> <b_m_subgroup_collapsed>
1

$$$$
CHEMBL4439_lig865
                    3D
 Schrodinger Suite 2021-1.
 48 51  0  0  1  0            999 V2000
   18.9147   67.0009    9.7687 C   0  0  0  0  0  0
   17.5444   67.3717    9.1442 C   0  0  0  0  0  0
   16.8397   68.3841   10.0726 C   0  0  0  0  0  0
   15.2651   67.7249    3.4596 C   0  0  0  0  0  0
   15.4857   68.4569    2.2896 C   0  0  0  0  0  0
   16.7149   68.8737    1.8979 N   0  0  0  0  0  0
   17.7620   68.5750    2.7034 C   0  0  0  0  0  0
   17.6153   67.8843    3.9078 C   0  0  0  0  0  0
   16.3408   67.4696    4.3155 C   0  0  0  0  0  0
   16.1079   66.7834    5.6251 C   0  0  0  0  0  0
   15.2550   65.3570    7.1582 N   0  0  0  0  0  0
   15.1916   65.7312    5.9070 C   0  0  0  0  0  0
   16.1472   66.1366    7.7308 N   0  0  0  0  0  0
   16.6901   67.0474    6.8795 C   0  0  0  0  0  0
   17.6241   67.9446    7.6794 C   0  0  2  0  0  0
   16.6732   66.1022    9.0676 C   0  0  0  0  0  0
   14.2042   64.9790    5.0638 C   0  0  0  0  0  0
   12.8286   64.8872    5.3821 C   0  0  0  0  0  0
   11.9889   64.0129    4.6631 C   0  0  0  0  0  0
   12.5316   63.2571    3.6246 C   0  0  0  0  0  0
   13.8672   63.4057    3.2667 C   0  0  0  0  0  0
   14.7004   64.2579    3.9806 C   0  0  0  0  0  0
   19.0288   68.1168    7.0640 C   0  0  0  0  0  0
   12.2818   65.7503    6.4234 C   0  0  0  0  0  0
   11.8670   66.4570    7.2321 N   0  0  0  0  0  0
   10.4951   63.8793    4.9529 C   0  0  0  0  0  0
   19.4811   66.3198    9.1333 H   0  0  0  0  0  0
   19.5335   67.8814    9.9455 H   0  0  0  0  0  0
   18.7897   66.5017   10.7307 H   0  0  0  0  0  0
   15.8818   68.7172    9.6686 H   0  0  0  0  0  0
   16.6510   67.9696   11.0642 H   0  0  0  0  0  0
   17.4663   69.2566   10.2110 H   0  0  0  0  0  0
   14.2673   67.4138    3.7202 H   0  0  0  0  0  0
   14.6664   68.7033    1.6321 H   0  0  0  0  0  0
   18.7354   68.9025    2.3686 H   0  0  0  0  0  0
   18.4885   67.6578    4.4930 H   0  0  0  0  0  0
   17.1888   68.9455    7.6629 H   0  0  0  0  0  0
   15.8639   66.0864    9.7992 H   0  0  0  0  0  0
   17.2475   65.1857    9.2110 H   0  0  0  0  0  0
   11.9079   62.5883    3.0505 H   0  0  0  0  0  0
   14.2637   62.8568    2.4317 H   0  0  0  0  0  0
   15.7446   64.3258    3.7099 H   0  0  0  0  0  0
   18.9987   68.7724    6.1958 H   0  0  0  0  0  0
   19.7157   68.6007    7.7589 H   0  0  0  0  0  0
   19.4692   67.1632    6.7696 H   0  0  0  0  0  0
    9.9834   63.2569    4.2185 H   0  0  0  0  0  0
   10.3340   63.4571    5.9459 H   0  0  0  0  0  0
   10.0157   64.8590    4.9293 H   0  0  0  0  0  0
  1  2  1  0  0  0
  1 27  1  0  0  0
  1 28  1  0  0  0
  1 29  1  0  0  0
  2  3  1  0  0  0
  2 15  1  0  0  0
  2 16  1  0  0  0
  3 30  1  0  0  0
  3 31  1  0  0  0
  3 32  1  0  0  0
  4  5  2  0  0  0
  4  9  1  0  0  0
  4 33  1  0  0  0
  5  6  1  0  0  0
  5 34  1  0  0  0
  6  7  2  0  0  0
  7  8  1  0  0  0
  7 35  1  0  0  0
  8  9  2  0  0  0
  8 36  1  0  0  0
  9 10  1  0  0  0
 10 14  2  0  0  0
 10 12  1  0  0  0
 11 13  1  0  0  0
 11 12  2  0  0  0
 12 17  1  0  0  0
 13 14  1  0  0  0
 13 16  1  0  0  0
 14 15  1  0  0  0
 15 23  1  0  0  0
 15 37  1  0  0  0
 16 38  1  0  0  0
 16 39  1  0  0  0
 17 18  2  0  0  0
 17 22  1  0  0  0
 18 19  1  0  0  0
 18 24  1  0  0  0
 19 20  2  0  0  0
 19 26  1  0  0  0
 20 21  1  0  0  0
 20 40  1  0  0  0
 21 22  2  0  0  0
 21 41  1  0  0  0
 22 42  1  0  0  0
 23 43  1  0  0  0
 23 44  1  0  0  0
 23 45  1  0  0  0
 24 25  3  0  0  0
 26 46  1  0  0  0
 26 47  1  0  0  0
 26 48  1  0  0  0
M  END
> <s_m_entry_id>
34319

> <s_m_entry_name>
dock_pv.62

> <s_m_Source_Path>
/home/csk/Desktop/cluster/DUD-E-result/tgfr1

> <s_m_Source_File>
dock_pv.maegz

> <i_m_Source_File_Index>
62

> <chembl_id>
CHEMBL4289487

> <chembl_pref_name>
None

> <i_lp_mmshare_version>
53161

> <r_lp_tautomer_probability>
1

> <s_lp_Force_Field>
OPLS_2005

> <r_lp_Energy>
42.121333

> <b_lp_Chiralities_Consistent>
1

> <s_lp_Variant>
CHEMBL4439_lig865-2

> <s_i_glide_gridfile>
glide-grid_3hmm

> <i_i_glide_lignum>
1197

> <i_i_glide_rotatable_bonds>
2

> <r_i_docking_score>
-9.44960580247195

> <r_i_glide_ligand_efficiency>
-0.363446377018152

> <r_i_glide_ligand_efficiency_sa>
-1.07670846182384

> <r_i_glide_ligand_efficiency_ln>
-2.21920891602488

> <r_i_glide_gscore>
-9.44960580247195

> <r_i_glide_lipo>
-4.74448458846997

> <r_i_glide_hbond>
-0.270246189601032

> <r_i_glide_metal>
0

> <r_i_glide_rewards>
-2.19546652828164

> <r_i_glide_evdw>
-43.8896675109863

> <r_i_glide_ecoul>
-2.45562100410461

> <r_i_glide_erotb>
0.323418030045699

> <r_i_glide_esite>
0

> <r_i_glide_emodel>
-66.8951280108008

> <r_i_glide_energy>
-46.3452885150909

> <r_i_glide_einternal>
1.08071053028107

> <i_i_glide_confnum>
12

> <i_i_glide_posenum>
282

> <r_i_glide_eff_state_penalty>
0

> <s_user_duplicate_titles>
CHEMBL4439_lig865

> <i_f3d_flags>
0

> <s_m_subgroup_title>
dock_pv

> <s_m_subgroupid>
dock_pv

> <b_m_subgroup_collapsed>
1

$$$$
CHEMBL4439_lig850
                    3D
 Schrodinger Suite 2021-1.
 56 59  0  0  1  0            999 V2000
   10.5479   64.8557    4.5041 C   0  0  0  0  0  0
   11.8511   64.4048    5.2005 C   0  0  0  0  0  0
   11.8306   62.8657    5.1991 C   0  0  0  0  0  0
   15.3029   67.6570    3.6411 C   0  0  0  0  0  0
   16.1904   68.2365    2.7381 C   0  0  0  0  0  0
   17.5266   68.4481    3.0969 C   0  0  0  0  0  0
   17.9556   68.0577    4.3716 C   0  0  0  0  0  0
   17.0689   67.4732    5.2608 C   0  0  0  0  0  0
   15.7398   67.2814    4.9151 C   0  0  0  0  0  0
   14.7821   66.7296    5.9096 C   0  0  0  0  0  0
   13.5375   66.4570    7.7706 N   0  0  0  0  0  0
   14.6790   66.9262    7.3186 C   0  0  0  0  0  0
   13.0356   65.7478    6.7615 N   0  0  0  0  0  0
   13.7687   65.8271    5.6297 C   0  0  0  0  0  0
   13.1363   64.9931    4.5401 C   0  0  1  0  0  0
   11.8485   64.9516    6.6477 C   0  0  0  0  0  0
   15.6363   67.5363    8.2965 C   0  0  0  0  0  0
   16.3534   68.6089    7.8753 N   0  0  0  0  0  0
   17.3988   69.0197    8.6356 C   0  0  0  0  0  0
   17.6981   68.4558    9.8780 C   0  0  0  0  0  0
   16.9054   67.4087   10.3438 C   0  0  0  0  0  0
   15.8751   66.9260    9.5377 C   0  0  0  0  0  0
   18.2683   70.1049    8.0335 C   0  0  0  0  0  0
   14.1155   64.0566    3.8020 C   0  0  0  0  0  0
   18.4838   69.0440    2.1160 C   0  0  0  0  0  0
   19.6875   69.3077    2.6829 O   0  0  0  0  0  0
   18.2087   69.2545    0.9321 O   0  0  0  0  0  0
   20.7773   69.8389    1.9437 C   0  0  0  0  0  0
   22.0132   69.8543    2.8475 C   0  0  0  0  0  0
   10.5630   65.9053    4.2060 H   0  0  0  0  0  0
   10.3469   64.2410    3.6320 H   0  0  0  0  0  0
    9.6892   64.7091    5.1606 H   0  0  0  0  0  0
   12.6670   62.4572    5.7439 H   0  0  0  0  0  0
   10.9243   62.4907    5.6706 H   0  0  0  0  0  0
   11.8663   62.4577    4.1865 H   0  0  0  0  0  0
   14.2692   67.5220    3.3520 H   0  0  0  0  0  0
   15.8236   68.5194    1.7602 H   0  0  0  0  0  0
   18.9820   68.1740    4.6905 H   0  0  0  0  0  0
   17.4467   67.1379    6.2138 H   0  0  0  0  0  0
   12.8363   65.6570    3.7650 H   0  0  0  0  0  0
   11.8668   64.1387    7.3593 H   0  0  0  0  0  0
   11.0004   65.5905    6.8714 H   0  0  0  0  0  0
   18.5279   68.8202   10.4662 H   0  0  0  0  0  0
   17.1105   66.9532   11.3017 H   0  0  0  0  0  0
   15.2974   66.0758    9.8648 H   0  0  0  0  0  0
   19.1949   70.2164    8.5975 H   0  0  0  0  0  0
   18.5480   69.8646    7.0063 H   0  0  0  0  0  0
   17.7448   71.0609    8.0513 H   0  0  0  0  0  0
   14.9782   64.6042    3.4228 H   0  0  0  0  0  0
   14.4890   63.2612    4.4297 H   0  0  0  0  0  0
   13.6323   63.5866    2.9438 H   0  0  0  0  0  0
   20.5554   70.8538    1.6319 H   0  0  0  0  0  0
   20.9656   69.2578    1.0413 H   0  0  0  0  0  0
   22.8790   70.2581    2.3225 H   0  0  0  0  0  0
   21.8514   70.4568    3.7400 H   0  0  0  0  0  0
   22.2643   68.8573    3.1965 H   0  0  0  0  0  0
  1  2  1  0  0  0
  1 30  1  0  0  0
  1 31  1  0  0  0
  1 32  1  0  0  0
  2  3  1  0  0  0
  2 15  1  0  0  0
  2 16  1  0  0  0
  3 33  1  0  0  0
  3 34  1  0  0  0
  3 35  1  0  0  0
  4  5  2  0  0  0
  4  9  1  0  0  0
  4 36  1  0  0  0
  5  6  1  0  0  0
  5 37  1  0  0  0
  6  7  2  0  0  0
  6 25  1  0  0  0
  7  8  1  0  0  0
  7 38  1  0  0  0
  8  9  2  0  0  0
  8 39  1  0  0  0
  9 10  1  0  0  0
 10 14  2  0  0  0
 10 12  1  0  0  0
 11 13  1  0  0  0
 11 12  2  0  0  0
 12 17  1  0  0  0
 13 14  1  0  0  0
 13 16  1  0  0  0
 14 15  1  0  0  0
 15 24  1  0  0  0
 15 40  1  0  0  0
 16 41  1  0  0  0
 16 42  1  0  0  0
 17 18  2  0  0  0
 17 22  1  0  0  0
 18 19  1  0  0  0
 19 20  2  0  0  0
 19 23  1  0  0  0
 20 21  1  0  0  0
 20 43  1  0  0  0
 21 22  2  0  0  0
 21 44  1  0  0  0
 22 45  1  0  0  0
 23 46  1  0  0  0
 23 47  1  0  0  0
 23 48  1  0  0  0
 24 49  1  0  0  0
 24 50  1  0  0  0
 24 51  1  0  0  0
 25 26  1  0  0  0
 25 27  2  0  0  0
 26 28  1  0  0  0
 28 29  1  0  0  0
 28 52  1  0  0  0
 28 53  1  0  0  0
 29 54  1  0  0  0
 29 55  1  0  0  0
 29 56  1  0  0  0
M  END
> <s_m_entry_id>
34320

> <s_m_entry_name>
dock_pv.63

> <s_m_Source_Path>
/home/csk/Desktop/cluster/DUD-E-result/tgfr1

> <s_m_Source_File>
dock_pv.maegz

> <i_m_Source_File_Index>
63

> <chembl_id>
CHEMBL4294411

> <chembl_pref_name>
None

> <i_lp_mmshare_version>
53161

> <r_lp_tautomer_probability>
1

> <s_lp_Force_Field>
OPLS_2005

> <r_lp_Energy>
43.246696

> <b_lp_Chiralities_Consistent>
1

> <s_lp_Variant>
CHEMBL4439_lig850-1

> <s_i_glide_gridfile>
glide-grid_3hmm

> <i_i_glide_lignum>
1170

> <i_i_glide_rotatable_bonds>
5

> <r_i_docking_score>
-9.44149590045472

> <r_i_glide_ligand_efficiency>
-0.325568824153611

> <r_i_glide_ligand_efficiency_sa>
-1.00025057524318

> <r_i_glide_ligand_efficiency_ln>
-2.16186314552544

> <r_i_glide_gscore>
-9.44149590045472

> <r_i_glide_lipo>
-4.81915417756906

> <r_i_glide_hbond>
-0.377485466364898

> <r_i_glide_metal>
0

> <r_i_glide_rewards>
-2.26192808756422

> <r_i_glide_evdw>
-38.3442878723145

> <r_i_glide_ecoul>
-3.86493730545044

> <r_i_glide_erotb>
0.514026820476751

> <r_i_glide_esite>
0

> <r_i_glide_emodel>
-41.4685586678592

> <r_i_glide_energy>
-42.2092251777649

> <r_i_glide_einternal>
2.68073701858521

> <i_i_glide_confnum>
7

> <i_i_glide_posenum>
27

> <r_i_glide_eff_state_penalty>
0

> <s_user_duplicate_titles>
CHEMBL4439_lig850

> <i_f3d_flags>
0

> <s_m_subgroup_title>
dock_pv

> <s_m_subgroupid>
dock_pv

> <b_m_subgroup_collapsed>
1

$$$$
CHEMBL4439_lig978 
                    3D
 Schrodinger Suite 2021-1.
 36 39  0  0  1  0            999 V2000
   15.6692   66.6103    5.4703 C   0  0  0  0  0  0
   14.7038   65.9947    6.2726 C   0  0  0  0  0  0
   14.6807   66.1296    7.6313 N   0  0  0  0  0  0
   16.6517   67.4324    6.0292 C   0  0  0  0  0  0
   16.6654   67.5648    7.4299 C   0  0  0  0  0  0
   15.6534   66.8806    8.1581 C   0  0  0  0  0  0
   15.8672   67.1367    9.4977 N   0  0  0  0  0  0
   16.9497   67.9707    9.6421 C   0  0  0  0  0  0
   17.4717   68.2609    8.3975 C   0  0  0  0  0  0
   17.6249   68.0895    5.2619 N   0  0  0  0  0  0
   17.6776   68.4536    3.9093 C   0  0  0  0  0  0
   18.9030   68.8899    3.3985 C   0  0  0  0  0  0
   18.9731   69.2795    2.0602 C   0  0  0  0  0  0
   17.9033   69.2561    1.2304 N   0  0  0  0  0  0
   16.7147   68.8570    1.7374 C   0  0  0  0  0  0
   16.5591   68.4561    3.0621 C   0  0  0  0  0  0
   13.6069   65.1743    5.6658 C   0  0  0  0  0  0
   12.2979   65.2553    6.1734 C   0  0  0  0  0  0
   11.2636   64.4999    5.6232 C   0  0  0  0  0  0
   11.5096   63.6571    4.5449 C   0  0  0  0  0  0
   12.7980   63.5541    4.0320 C   0  0  0  0  0  0
   13.8351   64.3118    4.5752 C   0  0  0  0  0  0
   15.0671   64.1688    4.0333 F   0  0  0  0  0  0
   15.6572   66.4291    4.4099 H   0  0  0  0  0  0
   15.3250   66.8133   10.2862 H   0  0  0  0  0  0
   17.2597   68.2948   10.6249 H   0  0  0  0  0  0
   18.3253   68.8975    8.2159 H   0  0  0  0  0  0
   18.4363   68.3717    5.7918 H   0  0  0  0  0  0
   19.7860   68.9247    4.0188 H   0  0  0  0  0  0
   19.9014   69.6320    1.6316 H   0  0  0  0  0  0
   15.8697   68.8724    1.0628 H   0  0  0  0  0  0
   15.5704   68.2051    3.4074 H   0  0  0  0  0  0
   12.0739   65.9057    7.0053 H   0  0  0  0  0  0
   10.2671   64.5616    6.0300 H   0  0  0  0  0  0
   10.7062   63.0851    4.1089 H   0  0  0  0  0  0
   12.9929   62.9008    3.1943 H   0  0  0  0  0  0
  1  2  2  0  0  0
  1  4  1  0  0  0
  1 24  1  0  0  0
  2  3  1  0  0  0
  2 17  1  0  0  0
  3  6  2  0  0  0
  4  5  2  0  0  0
  4 10  1  0  0  0
  5  6  1  0  0  0
  5  9  1  0  0  0
  6  7  1  0  0  0
  7  8  1  0  0  0
  7 25  1  0  0  0
  8  9  2  0  0  0
  8 26  1  0  0  0
  9 27  1  0  0  0
 10 11  1  0  0  0
 10 28  1  0  0  0
 11 12  2  0  0  0
 11 16  1  0  0  0
 12 13  1  0  0  0
 12 29  1  0  0  0
 13 14  2  0  0  0
 13 30  1  0  0  0
 14 15  1  0  0  0
 15 16  2  0  0  0
 15 31  1  0  0  0
 16 32  1  0  0  0
 17 18  2  0  0  0
 17 22  1  0  0  0
 18 19  1  0  0  0
 18 33  1  0  0  0
 19 20  2  0  0  0
 19 34  1  0  0  0
 20 21  1  0  0  0
 20 35  1  0  0  0
 21 22  2  0  0  0
 21 36  1  0  0  0
 22 23  1  0  0  0
M  END
> <s_m_entry_id>
34321

> <s_m_entry_name>
dock_pv.64

> <s_m_Source_Path>
/home/csk/Desktop/cluster/DUD-E-result/tgfr1

> <s_m_Source_File>
dock_pv.maegz

> <i_m_Source_File_Index>
64

> <chembl_id>
CHEMBL4576833

> <chembl_pref_name>
None

> <i_lp_mmshare_version>
53161

> <r_lp_tautomer_probability>
0.999999106000799

> <s_lp_Force_Field>
OPLS_2005

> <r_lp_Energy>
20.357131

> <b_lp_Chiralities_Consistent>
1

> <s_lp_Variant>
CHEMBL4439_lig978 -1

> <s_i_glide_gridfile>
glide-grid_3hmm

> <i_i_glide_lignum>
1336

> <i_i_glide_rotatable_bonds>
3

> <r_i_docking_score>
-9.4348532766293

> <r_i_glide_ligand_efficiency>
-0.410211012027361

> <r_i_glide_ligand_efficiency_sa>
-1.16658555065683

> <r_i_glide_ligand_efficiency_ln>
-2.28143307280857

> <r_i_glide_gscore>
-9.4348532766293

> <r_i_glide_lipo>
-4.06935433259458

> <r_i_glide_hbond>
-0.382490580312725

> <r_i_glide_metal>
0

> <r_i_glide_rewards>
-2.96701709430869

> <r_i_glide_evdw>
-45.0090484619141

> <r_i_glide_ecoul>
-2.41926074028015

> <r_i_glide_erotb>
0.597350264724429

> <r_i_glide_esite>
0

> <r_i_glide_emodel>
-73.6841441716866

> <r_i_glide_energy>
-47.4283092021942

> <r_i_glide_einternal>
3.58043456077576

> <i_i_glide_confnum>
21

> <i_i_glide_posenum>
263

> <r_i_glide_eff_state_penalty>
0

> <s_user_duplicate_titles>
CHEMBL4439_lig978 

> <i_f3d_flags>
0

> <s_m_subgroup_title>
dock_pv

> <s_m_subgroupid>
dock_pv

> <b_m_subgroup_collapsed>
1

$$$$
CHEMBL4439_lig946 
                    3D
 Schrodinger Suite 2021-1.
 36 39  0  0  1  0            999 V2000
   15.8993   66.7201    5.6291 C   0  0  0  0  0  0
   14.9184   66.1881    6.4668 C   0  0  0  0  0  0
   14.8924   66.4087    7.8133 N   0  0  0  0  0  0
   16.8796   67.5809    6.1268 C   0  0  0  0  0  0
   16.8928   67.8093    7.5149 C   0  0  0  0  0  0
   15.8725   67.1851    8.2874 C   0  0  0  0  0  0
   16.0791   67.5351    9.6041 N   0  0  0  0  0  0
   17.1679   68.3687    9.6933 C   0  0  0  0  0  0
   17.6995   68.5644    8.4335 C   0  0  0  0  0  0
   17.8409   68.1816    5.3007 N   0  0  0  0  0  0
   17.8287   68.4979    3.9333 C   0  0  0  0  0  0
   19.0218   68.9366    3.3548 C   0  0  0  0  0  0
   19.0226   69.3009    2.0079 C   0  0  0  0  0  0
   17.9127   69.2569    1.2318 N   0  0  0  0  0  0
   16.7547   68.8570    1.8051 C   0  0  0  0  0  0
   16.6721   68.4618    3.1385 C   0  0  0  0  0  0
   13.8123   65.3764    5.8804 C   0  0  0  0  0  0
   14.0854   64.4570    4.8535 C   0  0  0  0  0  0
   13.0662   63.7244    4.2464 C   0  0  0  0  0  0
   11.7475   63.9231    4.6393 C   0  0  0  0  0  0
   11.4564   64.8272    5.6541 C   0  0  0  0  0  0
   12.4740   65.5507    6.2743 C   0  0  0  0  0  0
   12.1417   66.4490    7.2319 F   0  0  0  0  0  0
   10.7471   63.2571    4.0242 F   0  0  0  0  0  0
   15.8901   66.4572    4.5848 H   0  0  0  0  0  0
   15.5291   67.2639   10.4065 H   0  0  0  0  0  0
   17.4740   68.7647   10.6527 H   0  0  0  0  0  0
   18.5588   69.1812    8.2125 H   0  0  0  0  0  0
   18.6735   68.4805    5.7860 H   0  0  0  0  0  0
   19.9334   68.9957    3.9319 H   0  0  0  0  0  0
   19.9251   69.6520    1.5272 H   0  0  0  0  0  0
   15.8750   68.8614    1.1761 H   0  0  0  0  0  0
   15.7020   68.2149    3.5346 H   0  0  0  0  0  0
   15.1000   64.2999    4.5162 H   0  0  0  0  0  0
   13.2914   63.0285    3.4511 H   0  0  0  0  0  0
   10.4314   64.9810    5.9462 H   0  0  0  0  0  0
  1  2  2  0  0  0
  1  4  1  0  0  0
  1 25  1  0  0  0
  2  3  1  0  0  0
  2 17  1  0  0  0
  3  6  2  0  0  0
  4  5  2  0  0  0
  4 10  1  0  0  0
  5  6  1  0  0  0
  5  9  1  0  0  0
  6  7  1  0  0  0
  7  8  1  0  0  0
  7 26  1  0  0  0
  8  9  2  0  0  0
  8 27  1  0  0  0
  9 28  1  0  0  0
 10 11  1  0  0  0
 10 29  1  0  0  0
 11 12  2  0  0  0
 11 16  1  0  0  0
 12 13  1  0  0  0
 12 30  1  0  0  0
 13 14  2  0  0  0
 13 31  1  0  0  0
 14 15  1  0  0  0
 15 16  2  0  0  0
 15 32  1  0  0  0
 16 33  1  0  0  0
 17 18  2  0  0  0
 17 22  1  0  0  0
 18 19  1  0  0  0
 18 34  1  0  0  0
 19 20  2  0  0  0
 19 35  1  0  0  0
 20 21  1  0  0  0
 20 24  1  0  0  0
 21 22  2  0  0  0
 21 36  1  0  0  0
 22 23  1  0  0  0
M  END
> <s_m_entry_id>
34322

> <s_m_entry_name>
dock_pv.65

> <s_m_Source_Path>
/home/csk/Desktop/cluster/DUD-E-result/tgfr1

> <s_m_Source_File>
dock_pv.maegz

> <i_m_Source_File_Index>
65

> <chembl_id>
CHEMBL4446613

> <chembl_pref_name>
None

> <i_lp_mmshare_version>
53161

> <r_lp_tautomer_probability>
0.999999106000799

> <s_lp_Force_Field>
OPLS_2005

> <r_lp_Energy>
19.122893

> <b_lp_Chiralities_Consistent>
1

> <s_lp_Variant>
CHEMBL4439_lig946 -1

> <s_i_glide_gridfile>
glide-grid_3hmm

> <i_i_glide_lignum>
1281

> <i_i_glide_rotatable_bonds>
3

> <r_i_docking_score>
-9.42027137677317

> <r_i_glide_ligand_efficiency>
-0.392511307365549

> <r_i_glide_ligand_efficiency_sa>
-1.13219852757813

> <r_i_glide_ligand_efficiency_ln>
-2.25470320854833

> <r_i_glide_gscore>
-9.42027137677317

> <r_i_glide_lipo>
-3.92535868143848

> <r_i_glide_hbond>
-0.317841193135338

> <r_i_glide_metal>
0

> <r_i_glide_rewards>
-2.91843261033535

> <r_i_glide_evdw>
-45.0164413452148

> <r_i_glide_ecoul>
-3.57760715484619

> <r_i_glide_erotb>
0.539981229164686

> <r_i_glide_esite>
-0.0111569805410136

> <r_i_glide_emodel>
-74.740436084635

> <r_i_glide_energy>
-48.594048500061

> <r_i_glide_einternal>
3.58969020843506

> <i_i_glide_confnum>
18

> <i_i_glide_posenum>
74

> <r_i_glide_eff_state_penalty>
0

> <s_user_duplicate_titles>
CHEMBL4439_lig946 

> <i_f3d_flags>
0

> <s_m_subgroup_title>
dock_pv

> <s_m_subgroupid>
dock_pv

> <b_m_subgroup_collapsed>
1

$$$$
CHEMBL4439_lig233
                    3D
 Schrodinger Suite 2021-1.
 36 39  0  0  1  0            999 V2000
   14.9575   66.0572    7.5469 N   0  0  0  0  0  0
   15.0292   66.0370    6.1847 C   0  0  0  0  0  0
   15.8962   66.7513    5.4334 N   0  0  0  0  0  0
   16.7873   67.5527    6.0510 C   0  0  0  0  0  0
   14.1457   65.0989    5.4192 C   0  0  0  0  0  0
   14.6050   64.4570    4.2566 C   0  0  0  0  0  0
   13.7626   63.5749    3.5842 C   0  0  0  0  0  0
   12.4732   63.3571    4.0605 C   0  0  0  0  0  0
   12.0666   64.0457    5.2032 C   0  0  0  0  0  0
   12.8762   64.9045    5.8805 N   0  0  0  0  0  0
   10.6651   63.8824    5.7448 C   0  0  0  0  0  0
   17.7061   68.2827    5.2889 N   0  0  0  0  0  0
   17.7302   68.6241    3.9276 C   0  0  0  0  0  0
   18.8934   69.2025    3.4111 C   0  0  0  0  0  0
   18.9222   69.5689    2.0649 C   0  0  0  0  0  0
   17.8670   69.3949    1.2323 N   0  0  0  0  0  0
   16.7363   68.8588    1.7430 C   0  0  0  0  0  0
   16.6324   68.4568    3.0712 C   0  0  0  0  0  0
   15.8575   66.8346    8.1613 C   0  0  0  0  0  0
   16.8101   67.6085    7.4486 C   0  0  0  0  0  0
   17.8579   68.5050    8.5444 S   0  0  0  0  0  0
   17.0102   67.8314    9.9159 C   0  0  0  0  0  0
   15.9889   66.9667    9.5693 C   0  0  0  0  0  0
   15.6055   64.6239    3.8848 H   0  0  0  0  0  0
   14.0990   63.0673    2.6913 H   0  0  0  0  0  0
   11.8056   62.6853    3.5397 H   0  0  0  0  0  0
   10.1894   62.9753    5.3739 H   0  0  0  0  0  0
   10.0585   64.7320    5.4340 H   0  0  0  0  0  0
   10.6673   63.8292    6.8312 H   0  0  0  0  0  0
   18.4384   68.6999    5.8421 H   0  0  0  0  0  0
   19.7607   69.3649    4.0340 H   0  0  0  0  0  0
   19.8040   70.0219    1.6308 H   0  0  0  0  0  0
   15.8944   68.7671    1.0712 H   0  0  0  0  0  0
   15.6901   68.0586    3.4083 H   0  0  0  0  0  0
   17.3197   68.1152   10.9126 H   0  0  0  0  0  0
   15.3608   66.4569   10.2824 H   0  0  0  0  0  0
  1  2  2  0  0  0
  1 19  1  0  0  0
  2  5  1  0  0  0
  2  3  1  0  0  0
  3  4  2  0  0  0
  4 12  1  0  0  0
  4 20  1  0  0  0
  5  6  2  0  0  0
  5 10  1  0  0  0
  6  7  1  0  0  0
  6 24  1  0  0  0
  7  8  2  0  0  0
  7 25  1  0  0  0
  8  9  1  0  0  0
  8 26  1  0  0  0
  9 11  1  0  0  0
  9 10  2  0  0  0
 11 27  1  0  0  0
 11 28  1  0  0  0
 11 29  1  0  0  0
 12 13  1  0  0  0
 12 30  1  0  0  0
 13 14  2  0  0  0
 13 18  1  0  0  0
 14 15  1  0  0  0
 14 31  1  0  0  0
 15 16  2  0  0  0
 15 32  1  0  0  0
 16 17  1  0  0  0
 17 18  2  0  0  0
 17 33  1  0  0  0
 18 34  1  0  0  0
 19 20  2  0  0  0
 19 23  1  0  0  0
 20 21  1  0  0  0
 21 22  1  0  0  0
 22 23  2  0  0  0
 22 35  1  0  0  0
 23 36  1  0  0  0
M  END
> <s_m_entry_id>
34323

> <s_m_entry_name>
dock_pv.66

> <s_m_Source_Path>
/home/csk/Desktop/cluster/DUD-E-result/tgfr1

> <s_m_Source_File>
dock_pv.maegz

> <i_m_Source_File_Index>
66

> <chembl_id>
CHEMBL556871

> <chembl_pref_name>
None

> <i_lp_mmshare_version>
53161

> <r_lp_tautomer_probability>
0.999999106000799

> <s_lp_Force_Field>
OPLS_2005

> <r_lp_Energy>
15.354768

> <b_lp_Chiralities_Consistent>
1

> <s_lp_Variant>
CHEMBL4439_lig233-1

> <s_i_glide_gridfile>
glide-grid_3hmm

> <i_i_glide_lignum>
338

> <i_i_glide_rotatable_bonds>
3

> <r_i_docking_score>
-9.40311675162644

> <r_i_glide_ligand_efficiency>
-0.408831163114193

> <r_i_glide_ligand_efficiency_sa>
-1.16266144389959

> <r_i_glide_ligand_efficiency_ln>
-2.27375889329198

> <r_i_glide_gscore>
-9.40311675162644

> <r_i_glide_lipo>
-4.11690974965829

> <r_i_glide_hbond>
-0.387054225466799

> <r_i_glide_metal>
0

> <r_i_glide_rewards>
-2.58647813599092

> <r_i_glide_evdw>
-47.2989730834961

> <r_i_glide_ecoul>
-3.30972456932068

> <r_i_glide_erotb>
0.548732699062472

> <r_i_glide_esite>
0

> <r_i_glide_emodel>
-78.9581286092958

> <r_i_glide_energy>
-50.6086976528168

> <r_i_glide_einternal>
2.49213814735413

> <i_i_glide_confnum>
2

> <i_i_glide_posenum>
200

> <r_i_glide_eff_state_penalty>
0

> <s_user_duplicate_titles>
CHEMBL4439_lig233,566642

> <i_f3d_flags>
0

> <s_m_subgroup_title>
dock_pv

> <s_m_subgroupid>
dock_pv

> <b_m_subgroup_collapsed>
1

$$$$
CHEMBL4439_lig625
                    3D
 Schrodinger Suite 2021-1.
 50 54  0  0  1  0            999 V2000
   17.2180   67.4616   10.4595 C   0  0  0  0  0  0
   15.8690   67.5094    9.7351 C   0  0  0  0  0  0
   18.2664   67.2702    9.8396 O   0  0  0  0  0  0
   17.1456   67.6377   11.7959 N   0  0  0  0  0  0
   18.2369   67.6566   12.6731 C   0  0  0  0  0  0
   19.3805   68.4231   12.4107 C   0  0  0  0  0  0
   20.4499   68.3950   13.3015 C   0  0  0  0  0  0
   20.3732   67.6056   14.4465 C   0  0  0  0  0  0
   19.2303   66.8561   14.7193 C   0  0  0  0  0  0
   18.1512   66.8933   13.8388 C   0  0  0  0  0  0
   15.8795   67.2413    8.2985 N   0  0  0  0  0  0
   15.0693   66.3055    7.7941 N   0  0  0  0  0  0
   15.2184   66.3590    6.4816 C   0  0  0  0  0  0
   16.1352   67.3722    6.1120 C   0  0  0  0  0  0
   16.5407   67.9233    7.3179 C   0  0  0  0  0  0
   14.4689   65.4127    5.5949 C   0  0  0  0  0  0
   15.0262   64.8688    4.4308 C   0  0  0  0  0  0
   14.2668   63.9847    3.6641 C   0  0  0  0  0  0
   12.9739   63.6562    4.0689 C   0  0  0  0  0  0
   12.4772   64.2500    5.2304 C   0  0  0  0  0  0
   13.2024   65.1112    5.9888 N   0  0  0  0  0  0
   11.0735   63.9853    5.7228 C   0  0  0  0  0  0
   17.4231   68.8092    2.2821 C   0  0  0  0  0  0
   16.0981   68.3767    2.4323 C   0  0  0  0  0  0
   15.7020   67.8636    3.6712 C   0  0  0  0  0  0
   16.5774   67.8300    4.7662 C   0  0  0  0  0  0
   17.8839   68.2939    4.6123 C   0  0  0  0  0  0
   18.2668   68.7618    3.3915 N   0  0  0  0  0  0
   19.4670   69.2571    3.0665 N   0  0  0  0  0  0
   19.2882   69.5603    1.7959 C   0  0  0  0  0  0
   18.1198   69.2979    1.2331 N   0  0  0  0  0  0
   15.2124   66.7851   10.2173 H   0  0  0  0  0  0
   15.4671   68.5113    9.8709 H   0  0  0  0  0  0
   16.2293   67.6287   12.2251 H   0  0  0  0  0  0
   19.4475   69.0285   11.5174 H   0  0  0  0  0  0
   21.3387   68.9718   13.0915 H   0  0  0  0  0  0
   21.2123   67.5654   15.1253 H   0  0  0  0  0  0
   19.1870   66.2365   15.6023 H   0  0  0  0  0  0
   17.2692   66.3009   14.0443 H   0  0  0  0  0  0
   17.2113   68.7347    7.5629 H   0  0  0  0  0  0
   16.0216   65.1343    4.1133 H   0  0  0  0  0  0
   14.6736   63.5586    2.7616 H   0  0  0  0  0  0
   12.3704   62.9848    3.4759 H   0  0  0  0  0  0
   10.4205   63.6296    4.9273 H   0  0  0  0  0  0
   11.0733   63.2556    6.5314 H   0  0  0  0  0  0
   10.6664   64.9186    6.1047 H   0  0  0  0  0  0
   15.4045   68.4268    1.6049 H   0  0  0  0  0  0
   14.6784   67.5353    3.7935 H   0  0  0  0  0  0
   18.6225   68.3127    5.3991 H   0  0  0  0  0  0
   20.0940   70.0065    1.2303 H   0  0  0  0  0  0
  1  2  1  0  0  0
  1  3  2  0  0  0
  1  4  1  0  0  0
  2 11  1  0  0  0
  2 32  1  0  0  0
  2 33  1  0  0  0
  4  5  1  0  0  0
  4 34  1  0  0  0
  5  6  1  0  0  0
  5 10  2  0  0  0
  6  7  2  0  0  0
  6 35  1  0  0  0
  7  8  1  0  0  0
  7 36  1  0  0  0
  8  9  2  0  0  0
  8 37  1  0  0  0
  9 10  1  0  0  0
  9 38  1  0  0  0
 10 39  1  0  0  0
 11 12  1  0  0  0
 11 15  1  0  0  0
 12 13  2  0  0  0
 13 14  1  0  0  0
 13 16  1  0  0  0
 14 15  2  0  0  0
 14 26  1  0  0  0
 15 40  1  0  0  0
 16 17  1  0  0  0
 16 21  2  0  0  0
 17 18  2  0  0  0
 17 41  1  0  0  0
 18 19  1  0  0  0
 18 42  1  0  0  0
 19 20  2  0  0  0
 19 43  1  0  0  0
 20 21  1  0  0  0
 20 22  1  0  0  0
 22 44  1  0  0  0
 22 45  1  0  0  0
 22 46  1  0  0  0
 23 24  1  0  0  0
 23 28  1  0  0  0
 23 31  2  0  0  0
 24 25  2  0  0  0
 24 47  1  0  0  0
 25 26  1  0  0  0
 25 48  1  0  0  0
 26 27  2  0  0  0
 27 28  1  0  0  0
 27 49  1  0  0  0
 28 29  1  0  0  0
 29 30  2  0  0  0
 30 31  1  0  0  0
 30 50  1  0  0  0
M  END
> <s_m_entry_id>
34324

> <s_m_entry_name>
dock_pv.67

> <s_m_Source_Path>
/home/csk/Desktop/cluster/DUD-E-result/tgfr1

> <s_m_Source_File>
dock_pv.maegz

> <i_m_Source_File_Index>
67

> <chembl_id>
CHEMBL3261091

> <chembl_pref_name>
None

> <i_lp_mmshare_version>
53161

> <r_lp_tautomer_probability>
1

> <s_lp_Force_Field>
OPLS_2005

> <r_lp_Energy>
27.546956

> <b_lp_Chiralities_Consistent>
1

> <s_lp_Variant>
CHEMBL4439_lig625-1

> <s_i_glide_gridfile>
glide-grid_3hmm

> <i_i_glide_lignum>
843

> <i_i_glide_rotatable_bonds>
6

> <r_i_docking_score>
-9.37813893621182

> <r_i_glide_ligand_efficiency>
-0.302520610845542

> <r_i_glide_ligand_efficiency_sa>
-0.950332392772003

> <r_i_glide_ligand_efficiency_ln>
-2.11505773555807

> <r_i_glide_gscore>
-9.37813893621182

> <r_i_glide_lipo>
-3.46695625368058

> <r_i_glide_hbond>
-0.302861326203429

> <r_i_glide_metal>
0

> <r_i_glide_rewards>
-2.84148568975692

> <r_i_glide_evdw>
-55.8847045898438

> <r_i_glide_ecoul>
-3.64609813690186

> <r_i_glide_erotb>
0.587281799013629

> <r_i_glide_esite>
-0.0129675155570532

> <r_i_glide_emodel>
-89.265998210321

> <r_i_glide_energy>
-59.5308027267456

> <r_i_glide_einternal>
5.32215309143066

> <i_i_glide_confnum>
5

> <i_i_glide_posenum>
7

> <r_i_glide_eff_state_penalty>
0

> <s_user_duplicate_titles>
CHEMBL4439_lig625

> <i_f3d_flags>
0

> <s_m_subgroup_title>
dock_pv

> <s_m_subgroupid>
dock_pv

> <b_m_subgroup_collapsed>
1

$$$$
CHEMBL4439_lig232
                    3D
 Schrodinger Suite 2021-1.
 39 42  0  0  1  0            999 V2000
   15.1550   66.0563    7.6047 N   0  0  0  0  0  0
   15.2040   66.0639    6.2440 C   0  0  0  0  0  0
   16.0544   66.7970    5.4920 N   0  0  0  0  0  0
   16.9487   67.6067    6.1060 C   0  0  0  0  0  0
   14.2981   65.1599    5.4739 C   0  0  0  0  0  0
   14.7408   64.4951    4.3177 C   0  0  0  0  0  0
   13.8637   63.6572    3.6318 C   0  0  0  0  0  0
   12.5578   63.5031    4.0941 C   0  0  0  0  0  0
   12.1719   64.2110    5.2323 C   0  0  0  0  0  0
   13.0163   65.0263    5.9197 N   0  0  0  0  0  0
   10.7607   64.1187    5.7673 C   0  0  0  0  0  0
   17.8243   68.3543    5.3020 N   0  0  0  0  0  0
   17.8042   68.6638    3.9329 C   0  0  0  0  0  0
   18.9460   69.2496    3.3865 C   0  0  0  0  0  0
   18.9390   69.5999    2.0371 C   0  0  0  0  0  0
   17.8662   69.4049    1.2321 N   0  0  0  0  0  0
   16.7552   68.8586    1.7734 C   0  0  0  0  0  0
   16.6889   68.4570    3.1037 C   0  0  0  0  0  0
   16.0742   66.8269    8.1995 C   0  0  0  0  0  0
   17.0240   67.6549    7.5190 C   0  0  0  0  0  0
   17.8707   68.3755    8.4316 C   0  0  0  0  0  0
   17.5545   68.0583    9.7388 C   0  0  0  0  0  0
   16.2671   66.8981    9.9377 S   0  0  0  0  0  0
   18.9571   69.3451    8.0137 C   0  0  0  0  0  0
   15.7513   64.6166    3.9573 H   0  0  0  0  0  0
   14.1875   63.1370    2.7416 H   0  0  0  0  0  0
   11.8651   62.8653    3.5652 H   0  0  0  0  0  0
   10.1729   63.3613    5.2477 H   0  0  0  0  0  0
   10.7648   63.8731    6.8320 H   0  0  0  0  0  0
   10.2671   65.0809    5.6324 H   0  0  0  0  0  0
   18.5612   68.8138    5.8150 H   0  0  0  0  0  0
   19.8251   69.4327    3.9882 H   0  0  0  0  0  0
   19.8082   70.0520    1.5783 H   0  0  0  0  0  0
   15.8991   68.7465    1.1223 H   0  0  0  0  0  0
   15.7569   68.0549    3.4645 H   0  0  0  0  0  0
   18.0289   68.4666   10.6205 H   0  0  0  0  0  0
   18.5600   70.1743    7.4282 H   0  0  0  0  0  0
   19.7278   68.8593    7.4153 H   0  0  0  0  0  0
   19.4656   69.7889    8.8696 H   0  0  0  0  0  0
  1 19  1  0  0  0
  1  2  2  0  0  0
  2  5  1  0  0  0
  2  3  1  0  0  0
  3  4  2  0  0  0
  4 12  1  0  0  0
  4 20  1  0  0  0
  5  6  2  0  0  0
  5 10  1  0  0  0
  6  7  1  0  0  0
  6 25  1  0  0  0
  7  8  2  0  0  0
  7 26  1  0  0  0
  8  9  1  0  0  0
  8 27  1  0  0  0
  9 11  1  0  0  0
  9 10  2  0  0  0
 11 28  1  0  0  0
 11 29  1  0  0  0
 11 30  1  0  0  0
 12 13  1  0  0  0
 12 31  1  0  0  0
 13 14  2  0  0  0
 13 18  1  0  0  0
 14 15  1  0  0  0
 14 32  1  0  0  0
 15 16  2  0  0  0
 15 33  1  0  0  0
 16 17  1  0  0  0
 17 18  2  0  0  0
 17 34  1  0  0  0
 18 35  1  0  0  0
 19 20  2  0  0  0
 19 23  1  0  0  0
 20 21  1  0  0  0
 21 22  2  0  0  0
 21 24  1  0  0  0
 22 23  1  0  0  0
 22 36  1  0  0  0
 24 37  1  0  0  0
 24 38  1  0  0  0
 24 39  1  0  0  0
M  END
> <s_m_entry_id>
34325

> <s_m_entry_name>
dock_pv.68

> <s_m_Source_Path>
/home/csk/Desktop/cluster/DUD-E-result/tgfr1

> <s_m_Source_File>
dock_pv.maegz

> <i_m_Source_File_Index>
68

> <chembl_id>
CHEMBL564250

> <chembl_pref_name>
None

> <i_lp_mmshare_version>
53161

> <r_lp_tautomer_probability>
0.999999106000799

> <s_lp_Force_Field>
OPLS_2005

> <r_lp_Energy>
20.475359

> <b_lp_Chiralities_Consistent>
1

> <s_lp_Variant>
CHEMBL4439_lig232-1

> <s_i_glide_gridfile>
glide-grid_3hmm

> <i_i_glide_lignum>
337

> <i_i_glide_rotatable_bonds>
3

> <r_i_docking_score>
-9.34528845472978

> <r_i_glide_ligand_efficiency>
-0.389387018947074

> <r_i_glide_ligand_efficiency_sa>
-1.12318652032955

> <r_i_glide_ligand_efficiency_ln>
-2.23675635456126

> <r_i_glide_gscore>
-9.34528845472978

> <r_i_glide_lipo>
-4.02274271625202

> <r_i_glide_hbond>
-0.368502902790772

> <r_i_glide_metal>
0

> <r_i_glide_rewards>
-2.50312325808528

> <r_i_glide_evdw>
-48.8795890808105

> <r_i_glide_ecoul>
-3.43717360496521

> <r_i_glide_erotb>
0.508635917183601

> <r_i_glide_esite>
0

> <r_i_glide_emodel>
-80.4682468624414

> <r_i_glide_energy>
-52.3167626857758

> <r_i_glide_einternal>
3.10263299942017

> <i_i_glide_confnum>
13

> <i_i_glide_posenum>
258

> <r_i_glide_eff_state_penalty>
0

> <s_user_duplicate_titles>
CHEMBL4439_lig232,554288

> <i_f3d_flags>
0

> <s_m_subgroup_title>
dock_pv

> <s_m_subgroupid>
dock_pv

> <b_m_subgroup_collapsed>
1

$$$$
CHEMBL4439_lig234
                    3D
 Schrodinger Suite 2021-1.
 40 43  0  0  1  0            999 V2000
   14.8638   66.1905    7.7323 N   0  0  0  0  0  0
   14.8291   66.0575    6.3848 C   0  0  0  0  0  0
   15.7983   66.6315    5.5589 C   0  0  0  0  0  0
   16.8068   67.4325    6.0985 C   0  0  0  0  0  0
   13.6944   65.2607    5.8378 C   0  0  0  0  0  0
   12.4233   65.2567    6.4318 C   0  0  0  0  0  0
   11.4272   64.4475    5.8807 C   0  0  0  0  0  0
   11.6915   63.7023    4.7343 C   0  0  0  0  0  0
   12.9651   63.7959    4.1716 C   0  0  0  0  0  0
   13.9580   64.5428    4.7121 N   0  0  0  0  0  0
   13.2902   63.1126    2.8653 C   0  0  0  0  0  0
   17.7606   68.0573    5.2714 N   0  0  0  0  0  0
   17.7589   68.4335    3.9188 C   0  0  0  0  0  0
   18.9670   68.8561    3.3563 C   0  0  0  0  0  0
   18.9865   69.2576    2.0182 C   0  0  0  0  0  0
   17.8825   69.2569    1.2322 N   0  0  0  0  0  0
   16.7117   68.8718    1.7911 C   0  0  0  0  0  0
   16.6086   68.4572    3.1191 C   0  0  0  0  0  0
   15.8829   66.8846    8.3018 C   0  0  0  0  0  0
   16.8838   67.5439    7.5223 C   0  0  0  0  0  0
   17.8986   68.2716    8.2081 C   0  0  0  0  0  0
   17.9234   68.3094    9.5991 C   0  0  0  0  0  0
   16.9507   67.6554   10.3452 C   0  0  0  0  0  0
   15.9350   66.9474    9.7127 C   0  0  0  0  0  0
   15.7518   66.4363    4.5006 H   0  0  0  0  0  0
   12.2117   65.8410    7.3160 H   0  0  0  0  0  0
   10.4539   64.3979    6.3369 H   0  0  0  0  0  0
   10.9215   63.0985    4.2770 H   0  0  0  0  0  0
   12.3821   62.8506    2.3276 H   0  0  0  0  0  0
   13.8661   62.2100    3.0436 H   0  0  0  0  0  0
   13.8674   63.7776    2.2242 H   0  0  0  0  0  0
   18.6117   68.3125    5.7512 H   0  0  0  0  0  0
   19.8797   68.8711    3.9335 H   0  0  0  0  0  0
   19.9009   69.5948    1.5476 H   0  0  0  0  0  0
   15.8369   68.9051    1.1562 H   0  0  0  0  0  0
   15.6309   68.2203    3.5054 H   0  0  0  0  0  0
   18.6600   68.7974    7.6508 H   0  0  0  0  0  0
   18.7016   68.8571   10.1091 H   0  0  0  0  0  0
   16.9740   67.7071   11.4254 H   0  0  0  0  0  0
   15.1761   66.4562   10.3035 H   0  0  0  0  0  0
  1 19  1  0  0  0
  1  2  2  0  0  0
  2  5  1  0  0  0
  2  3  1  0  0  0
  3  4  2  0  0  0
  3 25  1  0  0  0
  4 12  1  0  0  0
  4 20  1  0  0  0
  5  6  2  0  0  0
  5 10  1  0  0  0
  6  7  1  0  0  0
  6 26  1  0  0  0
  7  8  2  0  0  0
  7 27  1  0  0  0
  8  9  1  0  0  0
  8 28  1  0  0  0
  9 11  1  0  0  0
  9 10  2  0  0  0
 11 29  1  0  0  0
 11 30  1  0  0  0
 11 31  1  0  0  0
 12 13  1  0  0  0
 12 32  1  0  0  0
 13 14  2  0  0  0
 13 18  1  0  0  0
 14 15  1  0  0  0
 14 33  1  0  0  0
 15 16  2  0  0  0
 15 34  1  0  0  0
 16 17  1  0  0  0
 17 18  2  0  0  0
 17 35  1  0  0  0
 18 36  1  0  0  0
 19 20  1  0  0  0
 19 24  2  0  0  0
 20 21  2  0  0  0
 21 22  1  0  0  0
 21 37  1  0  0  0
 22 23  2  0  0  0
 22 38  1  0  0  0
 23 24  1  0  0  0
 23 39  1  0  0  0
 24 40  1  0  0  0
M  END
> <s_m_entry_id>
34326

> <s_m_entry_name>
dock_pv.69

> <s_m_Source_Path>
/home/csk/Desktop/cluster/DUD-E-result/tgfr1

> <s_m_Source_File>
dock_pv.maegz

> <i_m_Source_File_Index>
69

> <chembl_id>
CHEMBL560815

> <chembl_pref_name>
None

> <i_lp_mmshare_version>
53161

> <r_lp_tautomer_probability>
0.999999106000799

> <s_lp_Force_Field>
OPLS_2005

> <r_lp_Energy>
22.44541

> <b_lp_Chiralities_Consistent>
1

> <s_lp_Variant>
CHEMBL4439_lig234-1

> <s_i_glide_gridfile>
glide-grid_3hmm

> <i_i_glide_lignum>
339

> <i_i_glide_rotatable_bonds>
3

> <r_i_docking_score>
-9.30437522820786

> <r_i_glide_ligand_efficiency>
-0.387682301175328

> <r_i_glide_ligand_efficiency_sa>
-1.11826926338717

> <r_i_glide_ligand_efficiency_ln>
-2.22696394206893

> <r_i_glide_gscore>
-9.30437522820786

> <r_i_glide_lipo>
-4.29737939774878

> <r_i_glide_hbond>
-0.369616017613156

> <r_i_glide_metal>
0

> <r_i_glide_rewards>
-2.45699401867161

> <r_i_glide_evdw>
-46.2019538879395

> <r_i_glide_ecoul>
-2.93929314613342

> <r_i_glide_erotb>
0.570605872142673

> <r_i_glide_esite>
0

> <r_i_glide_emodel>
-76.4963260903394

> <r_i_glide_energy>
-49.1412470340729

> <r_i_glide_einternal>
1.63120150566101

> <i_i_glide_confnum>
19

> <i_i_glide_posenum>
269

> <r_i_glide_eff_state_penalty>
0

> <s_user_duplicate_titles>
CHEMBL4439_lig234,559525

> <i_f3d_flags>
0

> <s_m_subgroup_title>
dock_pv

> <s_m_subgroupid>
dock_pv

> <b_m_subgroup_collapsed>
1

$$$$
CHEMBL4439_lig819
                    3D
 Schrodinger Suite 2021-1.
 37 40  0  0  1  0            999 V2000
   16.7373   67.5948    6.0682 C   0  0  0  0  0  0
   14.8727   66.0632    7.5244 N   0  0  0  0  0  0
   14.9971   66.0454    6.1640 C   0  0  0  0  0  0
   15.8726   66.7734    5.4279 N   0  0  0  0  0  0
   15.7434   66.8902    8.1223 C   0  0  0  0  0  0
   16.7169   67.6975    7.4682 C   0  0  0  0  0  0
   17.4247   68.4186    8.4897 C   0  0  0  0  0  0
   16.8704   68.0427    9.6964 C   0  0  0  0  0  0
   15.8703   67.1212    9.4753 N   0  0  0  0  0  0
   14.1598   65.0898    5.3800 C   0  0  0  0  0  0
   12.8911   64.8574    5.8203 N   0  0  0  0  0  0
   12.1225   63.9628    5.1455 C   0  0  0  0  0  0
   12.5790   63.2581    4.0300 C   0  0  0  0  0  0
   13.8647   63.5253    3.5644 C   0  0  0  0  0  0
   14.6606   64.4566    4.2310 C   0  0  0  0  0  0
   17.6765   68.3182    5.3208 N   0  0  0  0  0  0
   17.7669   68.6053    3.9449 C   0  0  0  0  0  0
   18.9756   69.1033    3.4380 C   0  0  0  0  0  0
   19.0617   69.4169    2.0823 C   0  0  0  0  0  0
   18.0143   69.2966    1.2320 N   0  0  0  0  0  0
   16.8380   68.8562    1.7322 C   0  0  0  0  0  0
   16.6844   68.4590    3.0593 C   0  0  0  0  0  0
   10.7107   63.7934    5.6587 C   0  0  0  0  0  0
   20.0527   69.2837    4.2385 F   0  0  0  0  0  0
   18.2262   69.1305    8.3659 H   0  0  0  0  0  0
   17.1074   68.3576   10.7039 H   0  0  0  0  0  0
   15.3267   66.7200   10.2246 H   0  0  0  0  0  0
   11.9472   62.5527    3.5101 H   0  0  0  0  0  0
   14.2393   63.0201    2.6885 H   0  0  0  0  0  0
   15.6635   64.6518    3.8786 H   0  0  0  0  0  0
   18.4341   68.7000    5.8688 H   0  0  0  0  0  0
   19.9788   69.7997    1.6556 H   0  0  0  0  0  0
   16.0077   68.8017    1.0415 H   0  0  0  0  0  0
   15.7146   68.1200    3.3884 H   0  0  0  0  0  0
   10.0790   63.2565    4.9474 H   0  0  0  0  0  0
   10.2671   64.7767    5.8028 H   0  0  0  0  0  0
   10.7020   63.2592    6.6108 H   0  0  0  0  0  0
  1  6  1  0  0  0
  1  4  2  0  0  0
  1 16  1  0  0  0
  2  5  1  0  0  0
  2  3  2  0  0  0
  3  4  1  0  0  0
  3 10  1  0  0  0
  5  6  2  0  0  0
  5  9  1  0  0  0
  6  7  1  0  0  0
  7  8  2  0  0  0
  7 25  1  0  0  0
  8  9  1  0  0  0
  8 26  1  0  0  0
  9 27  1  0  0  0
 10 11  2  0  0  0
 10 15  1  0  0  0
 11 12  1  0  0  0
 12 13  2  0  0  0
 12 23  1  0  0  0
 13 14  1  0  0  0
 13 28  1  0  0  0
 14 15  2  0  0  0
 14 29  1  0  0  0
 15 30  1  0  0  0
 16 17  1  0  0  0
 16 31  1  0  0  0
 17 18  2  0  0  0
 17 22  1  0  0  0
 18 19  1  0  0  0
 18 24  1  0  0  0
 19 20  2  0  0  0
 19 32  1  0  0  0
 20 21  1  0  0  0
 21 22  2  0  0  0
 21 33  1  0  0  0
 22 34  1  0  0  0
 23 35  1  0  0  0
 23 36  1  0  0  0
 23 37  1  0  0  0
M  END
> <s_m_entry_id>
34327

> <s_m_entry_name>
dock_pv.70

> <s_m_Source_Path>
/home/csk/Desktop/cluster/DUD-E-result/tgfr1

> <s_m_Source_File>
dock_pv.maegz

> <i_m_Source_File_Index>
70

> <chembl_id>
CHEMBL4210246

> <chembl_pref_name>
None

> <i_lp_mmshare_version>
53161

> <r_lp_tautomer_probability>
0.999999106000799

> <s_lp_Force_Field>
OPLS_2005

> <r_lp_Energy>
16.481564

> <b_lp_Chiralities_Consistent>
1

> <s_lp_Variant>
CHEMBL4439_lig819-1

> <s_i_glide_gridfile>
glide-grid_3hmm

> <i_i_glide_lignum>
1136

> <i_i_glide_rotatable_bonds>
3

> <r_i_docking_score>
-9.27828274929972

> <r_i_glide_ligand_efficiency>
-0.386595114554155

> <r_i_glide_ligand_efficiency_sa>
-1.11513327451603

> <r_i_glide_ligand_efficiency_ln>
-2.22071881456037

> <r_i_glide_gscore>
-9.27828274929972

> <r_i_glide_lipo>
-3.87310611058279

> <r_i_glide_hbond>
-0.334979233309213

> <r_i_glide_metal>
0

> <r_i_glide_rewards>
-2.9885975705793

> <r_i_glide_evdw>
-47.4643592834473

> <r_i_glide_ecoul>
-1.69522285461426

> <r_i_glide_erotb>
0.545901557536084

> <r_i_glide_esite>
0

> <r_i_glide_emodel>
-76.3049644288905

> <r_i_glide_energy>
-49.1595821380615

> <r_i_glide_einternal>
1.93383228778839

> <i_i_glide_confnum>
8

> <i_i_glide_posenum>
208

> <r_i_glide_eff_state_penalty>
0

> <s_user_duplicate_titles>
CHEMBL4439_lig819

> <i_f3d_flags>
0

> <s_m_subgroup_title>
dock_pv

> <s_m_subgroupid>
dock_pv

> <b_m_subgroup_collapsed>
1

$$$$
CHEMBL4439_lig831
                    3D
 Schrodinger Suite 2021-1.
 37 40  0  0  1  0            999 V2000
   16.9714   67.6871    6.3175 C   0  0  0  0  0  0
   15.1191   66.4579    8.0328 N   0  0  0  0  0  0
   15.0532   66.4181    6.6767 C   0  0  0  0  0  0
   15.9179   67.0039    5.8135 N   0  0  0  0  0  0
   16.1879   67.1341    8.4914 N   0  0  0  0  0  0
   17.1769   67.7772    7.7105 C   0  0  0  0  0  0
   18.1117   68.3568    8.6114 C   0  0  0  0  0  0
   17.6717   68.0572    9.8933 C   0  0  0  0  0  0
   16.4974   67.3166    9.8181 C   0  0  0  0  0  0
   13.9400   65.6349    6.0748 C   0  0  0  0  0  0
   14.2615   64.8597    5.0012 N   0  0  0  0  0  0
   13.2955   64.0978    4.4319 C   0  0  0  0  0  0
   11.9846   64.0624    4.9062 C   0  0  0  0  0  0
   11.6645   64.8559    6.0070 C   0  0  0  0  0  0
   12.6417   65.6566    6.5995 C   0  0  0  0  0  0
   17.8725   68.3138    5.4404 N   0  0  0  0  0  0
   17.8390   68.6150    4.0632 C   0  0  0  0  0  0
   16.6975   68.4565    3.2584 C   0  0  0  0  0  0
   16.7450   68.8565    1.9221 C   0  0  0  0  0  0
   17.8662   69.3408    1.3374 N   0  0  0  0  0  0
   18.9679   69.4822    2.1145 C   0  0  0  0  0  0
   18.9954   69.1425    3.4685 C   0  0  0  0  0  0
   20.1292   69.3327    4.1859 F   0  0  0  0  0  0
   13.7364   63.2940    3.2311 C   0  0  0  0  0  0
   18.9963   68.9336    8.3773 H   0  0  0  0  0  0
   18.1613   68.3651   10.8071 H   0  0  0  0  0  0
   15.8719   66.9242   10.6052 H   0  0  0  0  0  0
   11.2351   63.4450    4.4332 H   0  0  0  0  0  0
   10.6669   64.8459    6.4077 H   0  0  0  0  0  0
   12.3956   66.2677    7.4548 H   0  0  0  0  0  0
   18.7067   68.6513    5.8982 H   0  0  0  0  0  0
   15.7654   68.0795    3.6462 H   0  0  0  0  0  0
   15.8712   68.7734    1.2895 H   0  0  0  0  0  0
   19.8435   69.8949    1.6326 H   0  0  0  0  0  0
   13.0368   62.4943    2.9805 H   0  0  0  0  0  0
   14.7072   62.8570    3.4333 H   0  0  0  0  0  0
   13.8617   63.9481    2.3704 H   0  0  0  0  0  0
  1  6  1  0  0  0
  1  4  2  0  0  0
  1 16  1  0  0  0
  2  5  1  0  0  0
  2  3  2  0  0  0
  3  4  1  0  0  0
  3 10  1  0  0  0
  5  6  1  0  0  0
  5  9  1  0  0  0
  6  7  2  0  0  0
  7  8  1  0  0  0
  7 25  1  0  0  0
  8  9  2  0  0  0
  8 26  1  0  0  0
  9 27  1  0  0  0
 10 11  2  0  0  0
 10 15  1  0  0  0
 11 12  1  0  0  0
 12 13  2  0  0  0
 12 24  1  0  0  0
 13 14  1  0  0  0
 13 28  1  0  0  0
 14 15  2  0  0  0
 14 29  1  0  0  0
 15 30  1  0  0  0
 16 17  1  0  0  0
 16 31  1  0  0  0
 17 18  2  0  0  0
 17 22  1  0  0  0
 18 19  1  0  0  0
 18 32  1  0  0  0
 19 20  2  0  0  0
 19 33  1  0  0  0
 20 21  1  0  0  0
 21 22  2  0  0  0
 21 34  1  0  0  0
 22 23  1  0  0  0
 24 35  1  0  0  0
 24 36  1  0  0  0
 24 37  1  0  0  0
M  END
> <s_m_entry_id>
34328

> <s_m_entry_name>
dock_pv.71

> <s_m_Source_Path>
/home/csk/Desktop/cluster/DUD-E-result/tgfr1

> <s_m_Source_File>
dock_pv.maegz

> <i_m_Source_File_Index>
71

> <chembl_id>
CHEMBL4205457

> <chembl_pref_name>
None

> <i_lp_mmshare_version>
53161

> <r_lp_tautomer_probability>
0.999999106000799

> <s_lp_Force_Field>
OPLS_2005

> <r_lp_Energy>
33.100173

> <b_lp_Chiralities_Consistent>
1

> <s_lp_Variant>
CHEMBL4439_lig831-1

> <s_i_glide_gridfile>
glide-grid_3hmm

> <i_i_glide_lignum>
1149

> <i_i_glide_rotatable_bonds>
3

> <r_i_docking_score>
-9.27336934382239

> <r_i_glide_ligand_efficiency>
-0.386390389325933

> <r_i_glide_ligand_efficiency_sa>
-1.11454274477179

> <r_i_glide_ligand_efficiency_ln>
-2.21954281116816

> <r_i_glide_gscore>
-9.27336934382239

> <r_i_glide_lipo>
-3.60504562746972

> <r_i_glide_hbond>
-0.269156857589932

> <r_i_glide_metal>
0

> <r_i_glide_rewards>
-3.10661134451767

> <r_i_glide_evdw>
-47.7407379150391

> <r_i_glide_ecoul>
-3.0094678401947

> <r_i_glide_erotb>
0.545901557536084

> <r_i_glide_esite>
0

> <r_i_glide_emodel>
-78.1662686221281

> <r_i_glide_energy>
-50.7502057552338

> <r_i_glide_einternal>
2.24336695671082

> <i_i_glide_confnum>
11

> <i_i_glide_posenum>
230

> <r_i_glide_eff_state_penalty>
0

> <s_user_duplicate_titles>
CHEMBL4439_lig831

> <i_f3d_flags>
0

> <s_m_subgroup_title>
dock_pv

> <s_m_subgroupid>
dock_pv

> <b_m_subgroup_collapsed>
1

$$$$
CHEMBL4439_lig664
                    3D
 Schrodinger Suite 2021-1.
 48 52  0  0  1  0            999 V2000
   17.7070   68.4570    4.6344 C   0  0  0  0  0  0
   16.3792   68.0214    4.7188 C   0  0  0  0  0  0
   15.6334   68.0001    3.5189 C   0  0  0  0  0  0
   16.1377   68.4570    2.3009 C   0  0  0  0  0  0
   18.2143   68.8339    3.4238 N   0  0  0  0  0  0
   17.4753   68.8464    2.2452 C   0  0  0  0  0  0
   18.2687   69.2576    1.2343 N   0  0  0  0  0  0
   19.3930   69.5231    1.8766 C   0  0  0  0  0  0
   19.4620   69.2596    3.1694 N   0  0  0  0  0  0
   15.6960   67.5953    6.0078 C   0  0  0  0  0  0
   15.9937   67.4133    7.3956 C   0  0  0  0  0  0
   14.9341   66.9276    8.0444 N   0  0  0  0  0  0
   13.9761   66.7920    7.1766 C   0  0  0  0  0  0
   14.3662   67.2572    5.9664 N   0  0  0  0  0  0
   17.2336   67.6359    8.2282 C   0  0  0  0  0  0
   17.1856   67.7624    9.6281 C   0  0  0  0  0  0
   18.3710   67.9683   10.3381 C   0  0  0  0  0  0
   19.5798   68.0564    9.6479 C   0  0  0  0  0  0
   19.5575   67.9197    8.2591 C   0  0  0  0  0  0
   18.4146   67.6896    7.5666 N   0  0  0  0  0  0
   20.8117   68.0630    7.4204 C   0  0  0  0  0  0
   12.6274   66.1554    7.4558 C   0  0  0  0  0  0
   11.8234   65.7030    6.3319 N   0  0  0  0  0  0
   12.2195   64.7494    5.3847 C   0  0  0  0  0  0
   11.1988   64.1284    4.6672 C   0  0  0  0  0  0
   11.5109   63.2571    3.6321 C   0  0  0  0  0  0
   12.8424   63.0571    3.2804 C   0  0  0  0  0  0
   13.8674   63.6370    4.0131 C   0  0  0  0  0  0
   13.5560   64.4415    5.0987 C   0  0  0  0  0  0
   18.3964   68.5686    5.4436 H   0  0  0  0  0  0
   14.6093   67.6615    3.5099 H   0  0  0  0  0  0
   15.5280   68.4573    1.4084 H   0  0  0  0  0  0
   20.2515   69.9110    1.3447 H   0  0  0  0  0  0
   13.7873   67.2379    5.1392 H   0  0  0  0  0  0
   16.2487   67.7165   10.1635 H   0  0  0  0  0  0
   18.3501   68.0785   11.4120 H   0  0  0  0  0  0
   20.5022   68.2407   10.1788 H   0  0  0  0  0  0
   21.7112   68.0568    8.0361 H   0  0  0  0  0  0
   20.8878   67.2582    6.6888 H   0  0  0  0  0  0
   20.7892   69.0073    6.8750 H   0  0  0  0  0  0
   12.0176   66.8474    8.0292 H   0  0  0  0  0  0
   12.7183   65.2575    8.0320 H   0  0  0  0  0  0
   10.8237   65.7926    6.4639 H   0  0  0  0  0  0
   10.1612   64.3359    4.8858 H   0  0  0  0  0  0
   10.7204   62.7994    3.0572 H   0  0  0  0  0  0
   13.0848   62.4570    2.4192 H   0  0  0  0  0  0
   14.8974   63.4479    3.7477 H   0  0  0  0  0  0
   14.3819   64.8218    5.6702 H   0  0  0  0  0  0
  1  5  1  0  0  0
  1  2  2  0  0  0
  1 30  1  0  0  0
  2  3  1  0  0  0
  2 10  1  0  0  0
  3  4  2  0  0  0
  3 31  1  0  0  0
  4  6  1  0  0  0
  4 32  1  0  0  0
  5  6  1  0  0  0
  5  9  1  0  0  0
  6  7  2  0  0  0
  7  8  1  0  0  0
  8  9  2  0  0  0
  8 33  1  0  0  0
 10 11  2  0  0  0
 10 14  1  0  0  0
 11 15  1  0  0  0
 11 12  1  0  0  0
 12 13  2  0  0  0
 13 14  1  0  0  0
 13 22  1  0  0  0
 14 34  1  0  0  0
 15 16  2  0  0  0
 15 20  1  0  0  0
 16 17  1  0  0  0
 16 35  1  0  0  0
 17 18  2  0  0  0
 17 36  1  0  0  0
 18 19  1  0  0  0
 18 37  1  0  0  0
 19 20  2  0  0  0
 19 21  1  0  0  0
 21 38  1  0  0  0
 21 39  1  0  0  0
 21 40  1  0  0  0
 22 23  1  0  0  0
 22 41  1  0  0  0
 22 42  1  0  0  0
 23 24  1  0  0  0
 23 43  1  0  0  0
 24 25  2  0  0  0
 24 29  1  0  0  0
 25 26  1  0  0  0
 25 44  1  0  0  0
 26 27  2  0  0  0
 26 45  1  0  0  0
 27 28  1  0  0  0
 27 46  1  0  0  0
 28 29  2  0  0  0
 28 47  1  0  0  0
 29 48  1  0  0  0
M  END
> <s_m_entry_id>
34329

> <s_m_entry_name>
dock_pv.72

> <s_m_Source_Path>
/home/csk/Desktop/cluster/DUD-E-result/tgfr1

> <s_m_Source_File>
dock_pv.maegz

> <i_m_Source_File_Index>
72

> <chembl_id>
CHEMBL3260566

> <chembl_pref_name>
None

> <i_lp_mmshare_version>
53161

> <r_lp_tautomer_probability>
0.499999999999999

> <s_lp_Force_Field>
OPLS_2005

> <r_lp_Energy>
17.239891

> <b_lp_Chiralities_Consistent>
1

> <s_lp_Variant>
CHEMBL4439_lig664-2

> <s_i_glide_gridfile>
glide-grid_3hmm

> <i_i_glide_lignum>
917

> <i_i_glide_rotatable_bonds>
5

> <r_i_docking_score>
-9.27220590078203

> <r_i_glide_ligand_efficiency>
-0.319731237958001

> <r_i_glide_ligand_efficiency_sa>
-0.982315660973149

> <r_i_glide_ligand_efficiency_ln>
-2.1231000284244

> <r_i_glide_gscore>
-9.27220590078203

> <r_i_glide_lipo>
-3.92154233235886

> <r_i_glide_hbond>
-0.183072869837758

> <r_i_glide_metal>
0

> <r_i_glide_rewards>
-3.1269573525508

> <r_i_glide_evdw>
-47.8555679321289

> <r_i_glide_ecoul>
-2.04114699363708

> <r_i_glide_erotb>
0.667085717943128

> <r_i_glide_esite>
-0.00876861832573251

> <r_i_glide_emodel>
-79.7955885244487

> <r_i_glide_energy>
-49.896714925766

> <r_i_glide_einternal>
5.07353830337524

> <i_i_glide_confnum>
27

> <i_i_glide_posenum>
30

> <r_i_glide_eff_state_penalty>
0

> <s_user_duplicate_titles>
CHEMBL4439_lig664,CHEMBL4439_lig664

> <i_f3d_flags>
0

> <s_m_subgroup_title>
dock_pv

> <s_m_subgroupid>
dock_pv

> <b_m_subgroup_collapsed>
1

$$$$
CHEMBL4439_lig938 
                    3D
 Schrodinger Suite 2021-1.
 51 54  0  0  1  0            999 V2000
   16.0683   66.7214    6.4699 C   0  0  0  0  0  0
   15.3201   66.4360    5.3210 C   0  0  0  0  0  0
   15.6248   66.9218    4.0873 N   0  0  0  0  0  0
   17.1794   67.5783    6.4077 C   0  0  0  0  0  0
   17.5368   68.0575    5.1298 C   0  0  0  0  0  0
   16.7126   67.6908    4.0299 C   0  0  0  0  0  0
   17.2354   68.2771    2.8989 N   0  0  0  0  0  0
   18.3617   68.9925    3.2289 C   0  0  0  0  0  0
   18.5854   68.8762    4.5890 C   0  0  0  0  0  0
   17.9769   67.9258    7.5193 N   0  0  0  0  0  0
   17.8152   67.7728    8.9137 C   0  0  0  0  0  0
   18.9224   67.8129    9.7964 C   0  0  0  0  0  0
   18.7011   67.5396   11.1517 C   0  0  0  0  0  0
   17.4830   67.2692   11.6745 N   0  0  0  0  0  0
   16.4283   67.3105   10.8326 C   0  0  0  0  0  0
   16.5444   67.5760    9.4723 C   0  0  0  0  0  0
   14.0832   65.6127    5.3836 C   0  0  0  0  0  0
   13.0826   65.9472    6.3064 C   0  0  0  0  0  0
   11.8731   65.2540    6.3320 C   0  0  0  0  0  0
   11.6586   64.1942    5.4546 C   0  0  0  0  0  0
   12.6575   63.8211    4.5586 C   0  0  0  0  0  0
   13.8618   64.5256    4.5179 C   0  0  0  0  0  0
   14.8114   64.1396    3.6332 F   0  0  0  0  0  0
   20.3254   68.1558    9.3810 C   0  0  0  0  0  0
   20.4695   69.3806    8.8479 N   0  0  0  0  0  0
   21.2608   67.3899    9.6218 O   0  0  0  0  0  0
   21.7585   70.0234    8.5686 C   0  0  0  0  0  0
   22.5900   69.3864    7.4359 C   0  0  0  0  0  0
   10.4849   63.5260    5.4764 F   0  0  0  0  0  0
   21.8672   69.2572    6.1747 N   0  0  1  0  0  0
   21.8490   70.5023    5.4314 C   0  0  0  0  0  0
   15.7870   66.2404    7.3903 H   0  0  0  0  0  0
   16.8756   68.2142    1.9576 H   0  0  0  0  0  0
   18.9119   69.5252    2.4639 H   0  0  0  0  0  0
   19.3987   69.3328    5.1296 H   0  0  0  0  0  0
   18.8838   68.2876    7.2574 H   0  0  0  0  0  0
   19.5223   67.5258   11.8569 H   0  0  0  0  0  0
   15.4671   67.1301   11.2811 H   0  0  0  0  0  0
   15.6469   67.6459    8.8831 H   0  0  0  0  0  0
   13.2199   66.7822    6.9771 H   0  0  0  0  0  0
   11.0969   65.5428    7.0252 H   0  0  0  0  0  0
   12.4939   62.9971    3.8797 H   0  0  0  0  0  0
   19.6408   69.9437    8.7274 H   0  0  0  0  0  0
   22.3563   70.0319    9.4825 H   0  0  0  0  0  0
   21.5891   71.0737    8.3454 H   0  0  0  0  0  0
   22.8861   68.3860    7.7529 H   0  0  0  0  0  0
   23.5255   69.9307    7.2883 H   0  0  0  0  0  0
   22.3485   68.5354    5.6324 H   0  0  0  0  0  0
   21.3580   70.3558    4.4691 H   0  0  0  0  0  0
   22.8603   70.8623    5.2329 H   0  0  0  0  0  0
   21.2981   71.2574    5.9844 H   0  0  0  0  0  0
  1  2  2  0  0  0
  1  4  1  0  0  0
  1 32  1  0  0  0
  2  3  1  0  0  0
  2 17  1  0  0  0
  3  6  2  0  0  0
  4  5  2  0  0  0
  4 10  1  0  0  0
  5  6  1  0  0  0
  5  9  1  0  0  0
  6  7  1  0  0  0
  7  8  1  0  0  0
  7 33  1  0  0  0
  8  9  2  0  0  0
  8 34  1  0  0  0
  9 35  1  0  0  0
 10 11  1  0  0  0
 10 36  1  0  0  0
 11 12  2  0  0  0
 11 16  1  0  0  0
 12 13  1  0  0  0
 12 24  1  0  0  0
 13 14  2  0  0  0
 13 37  1  0  0  0
 14 15  1  0  0  0
 15 16  2  0  0  0
 15 38  1  0  0  0
 16 39  1  0  0  0
 17 18  2  0  0  0
 17 22  1  0  0  0
 18 19  1  0  0  0
 18 40  1  0  0  0
 19 20  2  0  0  0
 19 41  1  0  0  0
 20 21  1  0  0  0
 20 29  1  0  0  0
 21 22  2  0  0  0
 21 42  1  0  0  0
 22 23  1  0  0  0
 24 25  1  0  0  0
 24 26  2  0  0  0
 25 27  1  0  0  0
 25 43  1  0  0  0
 27 28  1  0  0  0
 27 44  1  0  0  0
 27 45  1  0  0  0
 28 30  1  0  0  0
 28 46  1  0  0  0
 28 47  1  0  0  0
 30 31  1  0  0  0
 30 48  1  0  0  0
 31 49  1  0  0  0
 31 50  1  0  0  0
 31 51  1  0  0  0
M  END
> <s_m_entry_id>
34330

> <s_m_entry_name>
dock_pv.73

> <s_m_Source_Path>
/home/csk/Desktop/cluster/DUD-E-result/tgfr1

> <s_m_Source_File>
dock_pv.maegz

> <i_m_Source_File_Index>
73

> <chembl_id>
CHEMBL4470980

> <chembl_pref_name>
None

> <i_lp_mmshare_version>
53161

> <r_lp_tautomer_probability>
0.999999106000799

> <s_lp_Force_Field>
OPLS_2005

> <r_lp_Energy>
27.386334

> <b_lp_Chiralities_Consistent>
1

> <s_lp_Variant>
CHEMBL4439_lig938 -1

> <s_i_glide_gridfile>
glide-grid_3hmm

> <i_i_glide_lignum>
1273

> <i_i_glide_rotatable_bonds>
8

> <r_i_docking_score>
-9.27064225470649

> <r_i_glide_ligand_efficiency>
-0.299052975958274

> <r_i_glide_ligand_efficiency_sa>
-0.939439231640049

> <r_i_glide_ligand_efficiency_ln>
-2.09081393950097

> <r_i_glide_gscore>
-9.27064225470649

> <r_i_glide_lipo>
-3.75409007614723

> <r_i_glide_hbond>
-0.481974802742145

> <r_i_glide_metal>
0

> <r_i_glide_rewards>
-2.4014889924322

> <r_i_glide_evdw>
-52.6238594055176

> <r_i_glide_ecoul>
-5.19334125518799

> <r_i_glide_erotb>
0.77710577516917

> <r_i_glide_esite>
0

> <r_i_glide_emodel>
-89.2109642618137

> <r_i_glide_energy>
-57.8172006607056

> <r_i_glide_einternal>
4.53968572616577

> <i_i_glide_confnum>
10

> <i_i_glide_posenum>
78

> <r_i_glide_eff_state_penalty>
0

> <s_user_duplicate_titles>
CHEMBL4439_lig938 

> <i_f3d_flags>
0

> <s_m_subgroup_title>
dock_pv

> <s_m_subgroupid>
dock_pv

> <b_m_subgroup_collapsed>
1

$$$$
CHEMBL4439_lig780
                    3D
 Schrodinger Suite 2021-1.
 48 51  0  0  1  0            999 V2000
   20.4742   69.6571    1.8394 C   0  0  0  0  0  0
   21.5528   69.6569    2.7111 C   0  0  0  0  0  0
   21.3758   69.3293    4.0462 C   0  0  0  0  0  0
   20.1214   68.9665    4.5584 C   0  0  0  0  0  0
   19.1915   69.2576    2.2855 C   0  0  0  0  0  0
   18.9991   68.8859    3.6564 C   0  0  0  0  0  0
   17.6784   68.4593    4.0317 C   0  0  0  0  0  0
   16.6691   68.4619    3.0625 C   0  0  0  0  0  0
   16.9593   68.8572    1.7663 C   0  0  0  0  0  0
   18.1878   69.2438    1.3669 N   0  0  0  0  0  0
   19.9267   68.6905    5.9032 O   0  0  0  0  0  0
   20.9892   68.8706    6.8355 C   0  0  0  0  0  0
   17.3886   68.1158    5.3623 N   0  0  0  0  0  0
   16.3356   67.4356    5.9857 C   0  0  0  0  0  0
   16.0633   67.6493    7.3480 C   0  0  0  0  0  0
   15.0035   66.9443    7.9207 C   0  0  0  0  0  0
   14.2387   66.0640    7.2301 N   0  0  0  0  0  0
   14.5230   65.8365    5.9174 C   0  0  0  0  0  0
   15.5635   66.5126    5.2785 C   0  0  0  0  0  0
   13.6367   64.8832    5.1823 C   0  0  0  0  0  0
   14.1059   64.0946    4.1097 C   0  0  0  0  0  0
   13.2426   63.2566    3.4118 C   0  0  0  0  0  0
   11.9033   63.1870    3.7651 C   0  0  0  0  0  0
   11.4207   63.9281    4.8377 C   0  0  0  0  0  0
   12.2812   64.7735    5.5352 C   0  0  0  0  0  0
    9.9677   63.8220    5.2347 C   0  0  0  0  0  0
   15.4053   64.0985    3.7336 F   0  0  0  0  0  0
   16.8698   68.6165    8.2086 C   0  0  0  0  0  0
   20.6211   69.9431    0.8075 H   0  0  0  0  0  0
   22.5332   69.9415    2.3561 H   0  0  0  0  0  0
   22.2478   69.3677    4.6823 H   0  0  0  0  0  0
   15.6471   68.2188    3.3047 H   0  0  0  0  0  0
   16.1786   68.8814    1.0184 H   0  0  0  0  0  0
   20.6149   68.6905    7.8436 H   0  0  0  0  0  0
   21.8024   68.1672    6.6610 H   0  0  0  0  0  0
   21.3825   69.8879    6.8104 H   0  0  0  0  0  0
   18.1373   68.3910    5.9884 H   0  0  0  0  0  0
   14.7470   67.0848    8.9592 H   0  0  0  0  0  0
   15.7775   66.3143    4.2424 H   0  0  0  0  0  0
   13.6097   62.6678    2.5840 H   0  0  0  0  0  0
   11.2421   62.5387    3.2102 H   0  0  0  0  0  0
   11.8809   65.3617    6.3496 H   0  0  0  0  0  0
    9.4676   62.9953    4.7339 H   0  0  0  0  0  0
    9.4653   64.7542    4.9848 H   0  0  0  0  0  0
    9.8791   63.6573    6.3088 H   0  0  0  0  0  0
   17.9318   68.5540    7.9802 H   0  0  0  0  0  0
   16.5466   69.6414    8.0381 H   0  0  0  0  0  0
   16.7722   68.3886    9.2683 H   0  0  0  0  0  0
  1  2  2  0  0  0
  1  5  1  0  0  0
  1 29  1  0  0  0
  2  3  1  0  0  0
  2 30  1  0  0  0
  3  4  2  0  0  0
  3 31  1  0  0  0
  4  6  1  0  0  0
  4 11  1  0  0  0
  5  6  1  0  0  0
  5 10  2  0  0  0
  6  7  2  0  0  0
  7  8  1  0  0  0
  7 13  1  0  0  0
  8  9  2  0  0  0
  8 32  1  0  0  0
  9 10  1  0  0  0
  9 33  1  0  0  0
 11 12  1  0  0  0
 12 34  1  0  0  0
 12 35  1  0  0  0
 12 36  1  0  0  0
 13 14  1  0  0  0
 13 37  1  0  0  0
 14 15  2  0  0  0
 14 19  1  0  0  0
 15 16  1  0  0  0
 15 28  1  0  0  0
 16 17  2  0  0  0
 16 38  1  0  0  0
 17 18  1  0  0  0
 18 19  2  0  0  0
 18 20  1  0  0  0
 19 39  1  0  0  0
 20 21  2  0  0  0
 20 25  1  0  0  0
 21 22  1  0  0  0
 21 27  1  0  0  0
 22 23  2  0  0  0
 22 40  1  0  0  0
 23 24  1  0  0  0
 23 41  1  0  0  0
 24 25  2  0  0  0
 24 26  1  0  0  0
 25 42  1  0  0  0
 26 43  1  0  0  0
 26 44  1  0  0  0
 26 45  1  0  0  0
 28 46  1  0  0  0
 28 47  1  0  0  0
 28 48  1  0  0  0
M  END
> <s_m_entry_id>
34331

> <s_m_entry_name>
dock_pv.74

> <s_m_Source_Path>
/home/csk/Desktop/cluster/DUD-E-result/tgfr1

> <s_m_Source_File>
dock_pv.maegz

> <i_m_Source_File_Index>
74

> <chembl_id>
CHEMBL4097629

> <chembl_pref_name>
None

> <i_lp_mmshare_version>
53161

> <r_lp_tautomer_probability>
0.999999106000799

> <s_lp_Force_Field>
OPLS_2005

> <r_lp_Energy>
33.972601

> <b_lp_Chiralities_Consistent>
1

> <s_lp_Variant>
CHEMBL4439_lig780-1

> <s_i_glide_gridfile>
glide-grid_3hmm

> <i_i_glide_lignum>
1094

> <i_i_glide_rotatable_bonds>
4

> <r_i_docking_score>
-9.24357446992963

> <r_i_glide_ligand_efficiency>
-0.330127659640344

> <r_i_glide_ligand_efficiency_sa>
-1.00246200946152

> <r_i_glide_ligand_efficiency_ln>
-2.1336883907994

> <r_i_glide_gscore>
-9.24357446992963

> <r_i_glide_lipo>
-4.88917738008676

> <r_i_glide_hbond>
-0.148945838608244

> <r_i_glide_metal>
0

> <r_i_glide_rewards>
-1.68956551957404

> <r_i_glide_evdw>
-50.0558090209961

> <r_i_glide_ecoul>
-2.85900092124939

> <r_i_glide_erotb>
0.415754857576628

> <r_i_glide_esite>
0

> <r_i_glide_emodel>
-81.153091089126

> <r_i_glide_energy>
-52.9148099422455

> <r_i_glide_einternal>
0.816484928131104

> <i_i_glide_confnum>
3

> <i_i_glide_posenum>
360

> <r_i_glide_eff_state_penalty>
0

> <s_user_duplicate_titles>
CHEMBL4439_lig780

> <i_f3d_flags>
0

> <s_m_subgroup_title>
dock_pv

> <s_m_subgroupid>
dock_pv

> <b_m_subgroup_collapsed>
1

$$$$
CHEMBL4439_lig942 
                    3D
 Schrodinger Suite 2021-1.
 47 51  0  0  1  0            999 V2000
   15.7403   66.5633    5.4894 C   0  0  0  0  0  0
   14.7655   65.9386    6.2733 C   0  0  0  0  0  0
   14.7230   66.0570    7.6304 N   0  0  0  0  0  0
   16.6972   67.4032    6.0716 C   0  0  0  0  0  0
   16.6842   67.5209    7.4741 C   0  0  0  0  0  0
   15.6770   66.8127    8.1808 C   0  0  0  0  0  0
   15.8672   67.0513    9.5258 N   0  0  0  0  0  0
   16.9297   67.9049    9.6982 C   0  0  0  0  0  0
   17.4561   68.2228    8.4618 C   0  0  0  0  0  0
   17.6755   68.0962    5.3383 N   0  0  0  0  0  0
   17.7767   68.5151    3.9958 C   0  0  0  0  0  0
   18.9880   69.0410    3.4802 C   0  0  0  0  0  0
   19.0237   69.3639    2.1132 C   0  0  0  0  0  0
   17.9615   69.2664    1.2804 N   0  0  0  0  0  0
   16.7910   68.8571    1.8126 C   0  0  0  0  0  0
   16.6664   68.4586    3.1401 C   0  0  0  0  0  0
   13.6525   65.1577    5.6523 C   0  0  0  0  0  0
   12.3436   65.2880    6.1455 C   0  0  0  0  0  0
   11.2762   64.6316    5.5392 C   0  0  0  0  0  0
   11.4960   63.8262    4.4319 C   0  0  0  0  0  0
   12.7880   63.6443    3.9536 C   0  0  0  0  0  0
   13.8568   64.3112    4.5464 C   0  0  0  0  0  0
   15.0916   64.1137    4.0313 F   0  0  0  0  0  0
   10.4477   63.2570    3.8027 F   0  0  0  0  0  0
   20.2523   69.2509    4.2884 C   0  0  0  0  0  0
   20.1281   69.7663    5.5276 N   0  0  0  0  0  0
   21.3447   69.0006    3.7798 O   0  0  0  0  0  0
   21.2865   70.0442    6.3817 C   0  0  0  0  0  0
   21.1389   70.0569    7.8873 C   0  0  0  0  0  0
   21.8428   68.9088    7.2177 C   0  0  0  0  0  0
   15.7443   66.3839    4.4291 H   0  0  0  0  0  0
   15.3173   66.7104   10.3001 H   0  0  0  0  0  0
   17.2164   68.2264   10.6916 H   0  0  0  0  0  0
   18.2901   68.8815    8.2925 H   0  0  0  0  0  0
   18.4855   68.3398    5.8924 H   0  0  0  0  0  0
   19.9259   69.7437    1.6527 H   0  0  0  0  0  0
   15.9350   68.8443    1.1504 H   0  0  0  0  0  0
   15.6848   68.1824    3.4838 H   0  0  0  0  0  0
   12.1369   65.9305    6.9896 H   0  0  0  0  0  0
   10.2721   64.7637    5.9054 H   0  0  0  0  0  0
   12.9560   63.0150    3.0911 H   0  0  0  0  0  0
   19.2650   70.2374    5.7532 H   0  0  0  0  0  0
   22.0188   70.7194    5.9290 H   0  0  0  0  0  0
   20.1557   69.9098    8.3268 H   0  0  0  0  0  0
   21.7316   70.7799    8.4498 H   0  0  0  0  0  0
   22.9268   68.8192    7.2875 H   0  0  0  0  0  0
   21.3508   67.9399    7.1469 H   0  0  0  0  0  0
  1  2  2  0  0  0
  1  4  1  0  0  0
  1 31  1  0  0  0
  2  3  1  0  0  0
  2 17  1  0  0  0
  3  6  2  0  0  0
  4  5  2  0  0  0
  4 10  1  0  0  0
  5  6  1  0  0  0
  5  9  1  0  0  0
  6  7  1  0  0  0
  7  8  1  0  0  0
  7 32  1  0  0  0
  8  9  2  0  0  0
  8 33  1  0  0  0
  9 34  1  0  0  0
 10 11  1  0  0  0
 10 35  1  0  0  0
 11 12  2  0  0  0
 11 16  1  0  0  0
 12 13  1  0  0  0
 12 25  1  0  0  0
 13 14  2  0  0  0
 13 36  1  0  0  0
 14 15  1  0  0  0
 15 16  2  0  0  0
 15 37  1  0  0  0
 16 38  1  0  0  0
 17 18  2  0  0  0
 17 22  1  0  0  0
 18 19  1  0  0  0
 18 39  1  0  0  0
 19 20  2  0  0  0
 19 40  1  0  0  0
 20 21  1  0  0  0
 20 24  1  0  0  0
 21 22  2  0  0  0
 21 41  1  0  0  0
 22 23  1  0  0  0
 25 26  1  0  0  0
 25 27  2  0  0  0
 26 28  1  0  0  0
 26 42  1  0  0  0
 28 29  1  0  0  0
 28 30  1  0  0  0
 28 43  1  0  0  0
 29 30  1  0  0  0
 29 44  1  0  0  0
 29 45  1  0  0  0
 30 46  1  0  0  0
 30 47  1  0  0  0
M  END
> <s_m_entry_id>
34332

> <s_m_entry_name>
dock_pv.75

> <s_m_Source_Path>
/home/csk/Desktop/cluster/DUD-E-result/tgfr1

> <s_m_Source_File>
dock_pv.maegz

> <i_m_Source_File_Index>
75

> <chembl_id>
CHEMBL4452818

> <chembl_pref_name>
None

> <i_lp_mmshare_version>
53161

> <r_lp_tautomer_probability>
0.999999106000799

> <s_lp_Force_Field>
OPLS_2005

> <r_lp_Energy>
41.331829

> <b_lp_Chiralities_Consistent>
1

> <s_lp_Variant>
CHEMBL4439_lig942 -1

> <s_i_glide_gridfile>
glide-grid_3hmm

> <i_i_glide_lignum>
1277

> <i_i_glide_rotatable_bonds>
6

> <r_i_docking_score>
-9.23947664531933

> <r_i_glide_ligand_efficiency>
-0.307982554843978

> <r_i_glide_ligand_efficiency_sa>
-0.956973404592973

> <r_i_glide_ligand_efficiency_ln>
-2.09930976597781

> <r_i_glide_gscore>
-9.23947664531933

> <r_i_glide_lipo>
-3.94312175281781

> <r_i_glide_hbond>
-0.353719993749429

> <r_i_glide_metal>
0

> <r_i_glide_rewards>
-2.67595541937123

> <r_i_glide_evdw>
-55.7697715759277

> <r_i_glide_ecoul>
-1.30434477329254

> <r_i_glide_erotb>
0.717460815409414

> <r_i_glide_esite>
0

> <r_i_glide_emodel>
-86.9052364083976

> <r_i_glide_energy>
-57.0741163492203

> <r_i_glide_einternal>
5.30045747756958

> <i_i_glide_confnum>
59

> <i_i_glide_posenum>
267

> <r_i_glide_eff_state_penalty>
0

> <s_user_duplicate_titles>
CHEMBL4439_lig942 

> <i_f3d_flags>
0

> <s_m_subgroup_title>
dock_pv

> <s_m_subgroupid>
dock_pv

> <b_m_subgroup_collapsed>
1

$$$$
CHEMBL4439_lig943 
                    3D
 Schrodinger Suite 2021-1.
 36 39  0  0  1  0            999 V2000
   16.0857   66.7695    5.7002 C   0  0  0  0  0  0
   15.1268   66.1813    6.5215 C   0  0  0  0  0  0
   15.1067   66.3384    7.8761 N   0  0  0  0  0  0
   17.0387   67.6451    6.2208 C   0  0  0  0  0  0
   17.0605   67.8118    7.6201 C   0  0  0  0  0  0
   16.0664   67.1229    8.3744 C   0  0  0  0  0  0
   16.2677   67.4219    9.7040 N   0  0  0  0  0  0
   17.3428   68.2683    9.8231 C   0  0  0  0  0  0
   17.8549   68.5430    8.5688 C   0  0  0  0  0  0
   17.9587   68.3127    5.3978 N   0  0  0  0  0  0
   17.9437   68.6033    4.0228 C   0  0  0  0  0  0
   19.1275   69.0584    3.4453 C   0  0  0  0  0  0
   19.1382   69.3668    2.0852 C   0  0  0  0  0  0
   18.0486   69.2569    1.2861 N   0  0  0  0  0  0
   16.8927   68.8570    1.8637 C   0  0  0  0  0  0
   16.8007   68.5145    3.2118 C   0  0  0  0  0  0
   14.0177   65.4028    5.9072 C   0  0  0  0  0  0
   14.2657   64.5376    4.8276 C   0  0  0  0  0  0
   13.2268   63.8530    4.1972 C   0  0  0  0  0  0
   11.9202   64.0112    4.6453 C   0  0  0  0  0  0
   11.6665   64.8708    5.7041 C   0  0  0  0  0  0
   12.6897   65.5763    6.3241 C   0  0  0  0  0  0
   12.3686   66.4557    7.3028 F   0  0  0  0  0  0
   10.8963   63.3634    4.0438 F   0  0  0  0  0  0
   13.5507   62.8571    2.8323 Cl  0  0  0  0  0  0
   16.0727   66.5405    4.6493 H   0  0  0  0  0  0
   15.7299   67.1045   10.4981 H   0  0  0  0  0  0
   17.6488   68.6174   10.8003 H   0  0  0  0  0  0
   18.6960   69.1924    8.3700 H   0  0  0  0  0  0
   18.7792   68.6448    5.8816 H   0  0  0  0  0  0
   20.0304   69.1593    4.0303 H   0  0  0  0  0  0
   20.0524   69.7092    1.6257 H   0  0  0  0  0  0
   16.0160   68.8566    1.2317 H   0  0  0  0  0  0
   15.8309   68.2621    3.6029 H   0  0  0  0  0  0
   15.2706   64.4072    4.4533 H   0  0  0  0  0  0
   10.6657   65.0232    6.0322 H   0  0  0  0  0  0
  1  2  2  0  0  0
  1  4  1  0  0  0
  1 26  1  0  0  0
  2  3  1  0  0  0
  2 17  1  0  0  0
  3  6  2  0  0  0
  4  5  2  0  0  0
  4 10  1  0  0  0
  5  6  1  0  0  0
  5  9  1  0  0  0
  6  7  1  0  0  0
  7  8  1  0  0  0
  7 27  1  0  0  0
  8  9  2  0  0  0
  8 28  1  0  0  0
  9 29  1  0  0  0
 10 11  1  0  0  0
 10 30  1  0  0  0
 11 12  2  0  0  0
 11 16  1  0  0  0
 12 13  1  0  0  0
 12 31  1  0  0  0
 13 14  2  0  0  0
 13 32  1  0  0  0
 14 15  1  0  0  0
 15 16  2  0  0  0
 15 33  1  0  0  0
 16 34  1  0  0  0
 17 18  2  0  0  0
 17 22  1  0  0  0
 18 19  1  0  0  0
 18 35  1  0  0  0
 19 20  2  0  0  0
 19 25  1  0  0  0
 20 21  1  0  0  0
 20 24  1  0  0  0
 21 22  2  0  0  0
 21 36  1  0  0  0
 22 23  1  0  0  0
M  END
> <s_m_entry_id>
34333

> <s_m_entry_name>
dock_pv.76

> <s_m_Source_Path>
/home/csk/Desktop/cluster/DUD-E-result/tgfr1

> <s_m_Source_File>
dock_pv.maegz

> <i_m_Source_File_Index>
76

> <chembl_id>
CHEMBL4437930

> <chembl_pref_name>
None

> <i_lp_mmshare_version>
53161

> <r_lp_tautomer_probability>
0.999999106000799

> <s_lp_Force_Field>
OPLS_2005

> <r_lp_Energy>
18.830656

> <b_lp_Chiralities_Consistent>
1

> <s_lp_Variant>
CHEMBL4439_lig943 -1

> <s_i_glide_gridfile>
glide-grid_3hmm

> <i_i_glide_lignum>
1278

> <i_i_glide_rotatable_bonds>
3

> <r_i_docking_score>
-9.23911724286768

> <r_i_glide_ligand_efficiency>
-0.369564689714707

> <r_i_glide_ligand_efficiency_sa>
-1.08061370698348

> <r_i_glide_ligand_efficiency_ln>
-2.18994766056105

> <r_i_glide_gscore>
-9.23911724286768

> <r_i_glide_lipo>
-3.92589251039629

> <r_i_glide_hbond>
-0.25156995456012

> <r_i_glide_metal>
0

> <r_i_glide_rewards>
-2.68948062962198

> <r_i_glide_evdw>
-48.8095016479492

> <r_i_glide_ecoul>
-2.54194688796997

> <r_i_glide_erotb>
0.451056825239387

> <r_i_glide_esite>
-0.00146385793571922

> <r_i_glide_emodel>
-78.4790994802425

> <r_i_glide_energy>
-51.3514485359192

> <r_i_glide_einternal>
3.45527291297913

> <i_i_glide_confnum>
4

> <i_i_glide_posenum>
258

> <r_i_glide_eff_state_penalty>
0

> <s_user_duplicate_titles>
CHEMBL4439_lig943 

> <i_f3d_flags>
0

> <s_m_subgroup_title>
dock_pv

> <s_m_subgroupid>
dock_pv

> <b_m_subgroup_collapsed>
1

$$$$
CHEMBL4439_lig662
                    3D
 Schrodinger Suite 2021-1.
 47 51  0  0  1  0            999 V2000
   17.5413   68.1825    4.6743 C   0  0  0  0  0  0
   16.2451   67.6993    4.8718 C   0  0  0  0  0  0
   15.3681   67.6505    3.7791 C   0  0  0  0  0  0
   15.7418   68.0937    2.5082 C   0  0  0  0  0  0
   17.8971   68.6167    3.4274 N   0  0  0  0  0  0
   17.0396   68.5872    2.3269 C   0  0  0  0  0  0
   17.7021   69.0806    1.2530 N   0  0  0  0  0  0
   18.8762   69.3733    1.7809 C   0  0  0  0  0  0
   19.0685   69.1566    3.0667 N   0  0  0  0  0  0
   15.7653   67.3467    6.2428 C   0  0  0  0  0  0
   14.7333   66.5343    6.7561 C   0  0  0  0  0  0
   14.6676   66.6229    8.0788 N   0  0  0  0  0  0
   15.6522   67.4020    8.4447 C   0  0  0  0  0  0
   16.3313   67.8884    7.3689 N   0  0  0  0  0  0
   13.7806   65.6277    6.0449 C   0  0  0  0  0  0
   12.4500   65.4613    6.4495 C   0  0  0  0  0  0
   11.6438   64.5498    5.7663 C   0  0  0  0  0  0
   12.1703   63.8347    4.6936 C   0  0  0  0  0  0
   13.4995   64.0698    4.3371 C   0  0  0  0  0  0
   14.3037   64.9382    4.9987 N   0  0  0  0  0  0
   14.1134   63.4122    3.1275 C   0  0  0  0  0  0
   15.9767   67.7986    9.8662 C   0  0  0  0  0  0
   17.3923   67.8011   10.0280 O   0  0  0  0  0  0
   17.9670   67.7487   11.2813 C   0  0  0  0  0  0
   17.3104   67.3474   12.4543 C   0  0  0  0  0  0
   18.0132   67.2565   13.6509 C   0  0  0  0  0  0
   19.3584   67.6175   13.6951 C   0  0  0  0  0  0
   20.0095   68.0572   12.5473 C   0  0  0  0  0  0
   19.3171   68.0999   11.3408 C   0  0  0  0  0  0
   18.2936   68.2749    5.4450 H   0  0  0  0  0  0
   14.3566   67.2995    3.9197 H   0  0  0  0  0  0
   15.0516   68.0570    1.6790 H   0  0  0  0  0  0
   19.6666   69.7926    1.1753 H   0  0  0  0  0  0
   17.1163   68.5241    7.4034 H   0  0  0  0  0  0
   12.0442   66.0155    7.2831 H   0  0  0  0  0  0
   10.6189   64.3979    6.0662 H   0  0  0  0  0  0
   11.5576   63.1414    4.1347 H   0  0  0  0  0  0
   13.6437   62.4563    2.9142 H   0  0  0  0  0  0
   13.9640   64.0562    2.2635 H   0  0  0  0  0  0
   15.1846   63.2585    3.2646 H   0  0  0  0  0  0
   15.4699   67.1235   10.5519 H   0  0  0  0  0  0
   15.6097   68.8090   10.0378 H   0  0  0  0  0  0
   16.2676   67.0666   12.4652 H   0  0  0  0  0  0
   17.5121   66.8985   14.5387 H   0  0  0  0  0  0
   19.9091   67.5391   14.6217 H   0  0  0  0  0  0
   21.0553   68.3302   12.5787 H   0  0  0  0  0  0
   19.8249   68.4123   10.4393 H   0  0  0  0  0  0
  1  5  1  0  0  0
  1  2  2  0  0  0
  1 30  1  0  0  0
  2  3  1  0  0  0
  2 10  1  0  0  0
  3  4  2  0  0  0
  3 31  1  0  0  0
  4  6  1  0  0  0
  4 32  1  0  0  0
  5  6  1  0  0  0
  5  9  1  0  0  0
  6  7  2  0  0  0
  7  8  1  0  0  0
  8  9  2  0  0  0
  8 33  1  0  0  0
 10 11  2  0  0  0
 10 14  1  0  0  0
 11 15  1  0  0  0
 11 12  1  0  0  0
 12 13  2  0  0  0
 13 14  1  0  0  0
 13 22  1  0  0  0
 14 34  1  0  0  0
 15 16  2  0  0  0
 15 20  1  0  0  0
 16 17  1  0  0  0
 16 35  1  0  0  0
 17 18  2  0  0  0
 17 36  1  0  0  0
 18 19  1  0  0  0
 18 37  1  0  0  0
 19 20  2  0  0  0
 19 21  1  0  0  0
 21 38  1  0  0  0
 21 39  1  0  0  0
 21 40  1  0  0  0
 22 23  1  0  0  0
 22 41  1  0  0  0
 22 42  1  0  0  0
 23 24  1  0  0  0
 24 25  2  0  0  0
 24 29  1  0  0  0
 25 26  1  0  0  0
 25 43  1  0  0  0
 26 27  2  0  0  0
 26 44  1  0  0  0
 27 28  1  0  0  0
 27 45  1  0  0  0
 28 29  2  0  0  0
 28 46  1  0  0  0
 29 47  1  0  0  0
M  END
> <s_m_entry_id>
34334

> <s_m_entry_name>
dock_pv.77

> <s_m_Source_Path>
/home/csk/Desktop/cluster/DUD-E-result/tgfr1

> <s_m_Source_File>
dock_pv.maegz

> <i_m_Source_File_Index>
77

> <chembl_id>
CHEMBL3260564

> <chembl_pref_name>
None

> <i_lp_mmshare_version>
53161

> <r_lp_tautomer_probability>
0.499999999999999

> <s_lp_Force_Field>
OPLS_2005

> <r_lp_Energy>
22.640212

> <b_lp_Chiralities_Consistent>
1

> <s_lp_Variant>
CHEMBL4439_lig662-2

> <s_i_glide_gridfile>
glide-grid_3hmm

> <i_i_glide_lignum>
913

> <i_i_glide_rotatable_bonds>
5

> <r_i_docking_score>
-9.23401222240187

> <r_i_glide_ligand_efficiency>
-0.318414214565582

> <r_i_glide_ligand_efficiency_sa>
-0.978269347849339

> <r_i_glide_ligand_efficiency_ln>
-2.11435464458346

> <r_i_glide_gscore>
-9.23401222240187

> <r_i_glide_lipo>
-3.28107954720087

> <r_i_glide_hbond>
-0.281711862201249

> <r_i_glide_metal>
0

> <r_i_glide_rewards>
-3.19638997792349

> <r_i_glide_evdw>
-53.3849906921387

> <r_i_glide_ecoul>
-3.13060665130615

> <r_i_glide_erotb>
0.664009697226607

> <r_i_glide_esite>
0

> <r_i_glide_emodel>
-84.8905402271299

> <r_i_glide_energy>
-56.5155973434448

> <r_i_glide_einternal>
5.51981925964355

> <i_i_glide_confnum>
12

> <i_i_glide_posenum>
128

> <r_i_glide_eff_state_penalty>
0

> <s_user_duplicate_titles>
CHEMBL4439_lig662,CHEMBL4439_lig662

> <i_f3d_flags>
0

> <s_m_subgroup_title>
dock_pv

> <s_m_subgroupid>
dock_pv

> <b_m_subgroup_collapsed>
1

$$$$
CHEMBL4439_lig809
                    3D
 Schrodinger Suite 2021-1.
 51 54  0  0  1  0            999 V2000
   17.8103   68.4571    4.4582 C   0  0  0  0  0  0
   16.9723   68.4474    3.3335 C   0  0  0  0  0  0
   17.4498   68.8479    2.0873 C   0  0  0  0  0  0
   18.7211   69.2558    1.8591 N   0  0  0  0  0  0
   17.3545   68.0999    5.7347 N   0  0  0  0  0  0
   16.2027   67.4451    6.1870 C   0  0  0  0  0  0
   15.6964   67.7412    7.4633 C   0  0  0  0  0  0
   14.5651   67.0510    7.8869 C   0  0  0  0  0  0
   13.9403   66.1182    7.1390 N   0  0  0  0  0  0
   14.4163   65.8332    5.8967 C   0  0  0  0  0  0
   15.5540   66.4820    5.4023 C   0  0  0  0  0  0
   13.5962   64.8621    5.0973 C   0  0  0  0  0  0
   12.2332   64.6912    5.4125 C   0  0  0  0  0  0
   11.4179   63.8210    4.6978 C   0  0  0  0  0  0
   11.9525   63.1148    3.6312 C   0  0  0  0  0  0
   13.2929   63.2570    3.2930 C   0  0  0  0  0  0
   14.1155   64.1128    4.0189 C   0  0  0  0  0  0
   15.4183   64.1709    3.6585 F   0  0  0  0  0  0
   19.1155   68.9318    4.2284 C   0  0  0  0  0  0
   19.5346   69.2813    2.9191 C   0  0  0  0  0  0
   20.9033   69.6569    3.0454 C   0  0  0  0  0  0
   21.2782   69.6315    4.2963 N   0  0  0  0  0  0
   20.2197   69.2220    5.0315 N   0  0  0  0  0  0
    9.9600   63.6656    5.0707 C   0  0  0  0  0  0
   16.3048   68.7961    8.3807 C   0  0  0  0  0  0
   20.3338   69.2942    6.4937 C   0  0  0  0  0  0
   20.2052   67.9759    7.2677 C   0  0  0  0  0  0
   20.0110   68.1065    8.5895 N   0  0  0  0  0  0
   20.2670   66.8877    6.6981 O   0  0  0  0  0  0
   19.7843   67.0022    9.5146 C   0  0  0  0  0  0
   15.9332   68.1710    3.4167 H   0  0  0  0  0  0
   16.7890   68.8507    1.2333 H   0  0  0  0  0  0
   17.9612   68.4070    6.4781 H   0  0  0  0  0  0
   14.1024   67.2647    8.8318 H   0  0  0  0  0  0
   15.9398   66.2492    4.4255 H   0  0  0  0  0  0
   11.7795   65.2482    6.2206 H   0  0  0  0  0  0
   11.3268   62.4571    3.0479 H   0  0  0  0  0  0
   13.6943   62.7035    2.4577 H   0  0  0  0  0  0
   21.5791   69.9793    2.2671 H   0  0  0  0  0  0
    9.4410   64.6007    4.8588 H   0  0  0  0  0  0
    9.4757   62.8571    4.5218 H   0  0  0  0  0  0
    9.8626   63.4542    6.1371 H   0  0  0  0  0  0
   15.9646   68.6835    9.4112 H   0  0  0  0  0  0
   17.3897   68.7157    8.4009 H   0  0  0  0  0  0
   16.0508   69.7989    8.0347 H   0  0  0  0  0  0
   19.5657   69.9892    6.8343 H   0  0  0  0  0  0
   21.2968   69.7372    6.7610 H   0  0  0  0  0  0
   19.9862   69.0349    8.9861 H   0  0  0  0  0  0
   20.1576   67.2636   10.5048 H   0  0  0  0  0  0
   20.2752   66.0804    9.2016 H   0  0  0  0  0  0
   18.7164   66.7983    9.6012 H   0  0  0  0  0  0
  1 19  1  0  0  0
  1  2  2  0  0  0
  1  5  1  0  0  0
  2  3  1  0  0  0
  2 31  1  0  0  0
  3  4  2  0  0  0
  3 32  1  0  0  0
  4 20  1  0  0  0
  5  6  1  0  0  0
  5 33  1  0  0  0
  6  7  2  0  0  0
  6 11  1  0  0  0
  7  8  1  0  0  0
  7 25  1  0  0  0
  8  9  2  0  0  0
  8 34  1  0  0  0
  9 10  1  0  0  0
 10 11  2  0  0  0
 10 12  1  0  0  0
 11 35  1  0  0  0
 12 13  2  0  0  0
 12 17  1  0  0  0
 13 14  1  0  0  0
 13 36  1  0  0  0
 14 15  2  0  0  0
 14 24  1  0  0  0
 15 16  1  0  0  0
 15 37  1  0  0  0
 16 17  2  0  0  0
 16 38  1  0  0  0
 17 18  1  0  0  0
 19 20  2  0  0  0
 19 23  1  0  0  0
 20 21  1  0  0  0
 21 22  2  0  0  0
 21 39  1  0  0  0
 22 23  1  0  0  0
 23 26  1  0  0  0
 24 40  1  0  0  0
 24 41  1  0  0  0
 24 42  1  0  0  0
 25 43  1  0  0  0
 25 44  1  0  0  0
 25 45  1  0  0  0
 26 27  1  0  0  0
 26 46  1  0  0  0
 26 47  1  0  0  0
 27 28  1  0  0  0
 27 29  2  0  0  0
 28 30  1  0  0  0
 28 48  1  0  0  0
 30 49  1  0  0  0
 30 50  1  0  0  0
 30 51  1  0  0  0
M  END
> <s_m_entry_id>
34335

> <s_m_entry_name>
dock_pv.78

> <s_m_Source_Path>
/home/csk/Desktop/cluster/DUD-E-result/tgfr1

> <s_m_Source_File>
dock_pv.maegz

> <i_m_Source_File_Index>
78

> <chembl_id>
CHEMBL4103188

> <chembl_pref_name>
None

> <i_lp_mmshare_version>
53161

> <r_lp_tautomer_probability>
0.999999106000799

> <s_lp_Force_Field>
OPLS_2005

> <r_lp_Energy>
26.748406

> <b_lp_Chiralities_Consistent>
1

> <s_lp_Variant>
CHEMBL4439_lig809-1

> <s_i_glide_gridfile>
glide-grid_3hmm

> <i_i_glide_lignum>
1125

> <i_i_glide_rotatable_bonds>
6

> <r_i_docking_score>
-9.21428387911777

> <r_i_glide_ligand_efficiency>
-0.307142795970592

> <r_i_glide_ligand_efficiency_sa>
-0.954364078527385

> <r_i_glide_ligand_efficiency_ln>
-2.09358569499964

> <r_i_glide_gscore>
-9.21428387911777

> <r_i_glide_lipo>
-4.93673631377836

> <r_i_glide_hbond>
-0.0059809455496789

> <r_i_glide_metal>
0

> <r_i_glide_rewards>
-1.90518629485915

> <r_i_glide_evdw>
-56.0034332275391

> <r_i_glide_ecoul>
-1.11101484298706

> <r_i_glide_erotb>
0.600443562894431

> <r_i_glide_esite>
0

> <r_i_glide_emodel>
-81.5593133720482

> <r_i_glide_energy>
-57.1144480705261

> <r_i_glide_einternal>
10.1635341644287

> <i_i_glide_confnum>
59

> <i_i_glide_posenum>
177

> <r_i_glide_eff_state_penalty>
0

> <s_user_duplicate_titles>
CHEMBL4439_lig809

> <i_f3d_flags>
0

> <s_m_subgroup_title>
dock_pv

> <s_m_subgroupid>
dock_pv

> <b_m_subgroup_collapsed>
1

$$$$
CHEMBL4439_lig199
                    3D
 Schrodinger Suite 2021-1.
 46 49  0  0  1  0            999 V2000
   14.8116   66.3943    6.5816 C   0  0  0  0  0  0
   15.8882   67.2767    6.3278 C   0  0  0  0  0  0
   16.1821   67.8030    7.5814 N   0  0  0  0  0  0
   15.2694   67.2515    8.4319 C   0  0  0  0  0  0
   14.4281   66.4570    7.8473 N   0  0  0  0  0  0
   17.1125   68.8552    7.9739 C   0  0  0  0  0  0
   18.2088   68.4574    8.9432 C   0  0  0  0  0  0
   19.5288   68.3458    8.4983 C   0  0  0  0  0  0
   20.5542   68.1037    9.4085 C   0  0  0  0  0  0
   20.2598   67.9597   10.7638 C   0  0  0  0  0  0
   18.9347   68.0246   11.2190 C   0  0  0  0  0  0
   17.9166   68.2868   10.2983 C   0  0  0  0  0  0
   14.0421   65.4963    5.6575 C   0  0  0  0  0  0
   12.6787   65.2527    5.8813 C   0  0  0  0  0  0
   11.9833   64.3570    5.0743 C   0  0  0  0  0  0
   12.6401   63.7094    4.0333 C   0  0  0  0  0  0
   13.9873   63.9574    3.7875 C   0  0  0  0  0  0
   14.6850   64.8527    4.5964 C   0  0  0  0  0  0
   16.5664   67.6620    5.0342 C   0  0  0  0  0  0
   15.8573   67.7083    3.8282 C   0  0  0  0  0  0
   16.5231   68.2188    2.7125 C   0  0  0  0  0  0
   17.8180   68.6257    2.7518 N   0  0  0  0  0  0
   18.4357   68.5189    3.9518 C   0  0  0  0  0  0
   17.8682   68.0573    5.0924 N   0  0  0  0  0  0
   11.9579   62.8572    3.2415 F   0  0  0  0  0  0
   19.7562   68.9393    4.0304 N   0  0  0  0  0  0
   18.5919   67.8109   12.6686 C   0  0  0  0  0  0
   19.2745   66.8574   13.2977 N   0  0  0  0  0  0
   17.7112   68.4562   13.2321 O   0  0  0  0  0  0
   15.2655   67.5309    9.4725 H   0  0  0  0  0  0
   16.5329   69.6784    8.3921 H   0  0  0  0  0  0
   17.5876   69.2583    7.0975 H   0  0  0  0  0  0
   19.7686   68.4801    7.4537 H   0  0  0  0  0  0
   21.5753   68.0423    9.0652 H   0  0  0  0  0  0
   21.0703   67.7678   11.4522 H   0  0  0  0  0  0
   16.8998   68.3939   10.6467 H   0  0  0  0  0  0
   12.1541   65.7396    6.6904 H   0  0  0  0  0  0
   10.9357   64.1651    5.2541 H   0  0  0  0  0  0
   14.4827   63.4612    2.9663 H   0  0  0  0  0  0
   15.7363   65.0161    4.4120 H   0  0  0  0  0  0
   14.8141   67.4361    3.7729 H   0  0  0  0  0  0
   16.0115   68.3299    1.7665 H   0  0  0  0  0  0
   20.2786   68.7749    4.8773 H   0  0  0  0  0  0
   20.2124   69.2417    3.1836 H   0  0  0  0  0  0
   19.0838   66.6449   14.2646 H   0  0  0  0  0  0
   19.8755   66.2448   12.7506 H   0  0  0  0  0  0
  1 13  1  0  0  0
  1  5  1  0  0  0
  1  2  2  0  0  0
  2  3  1  0  0  0
  2 19  1  0  0  0
  3  4  1  0  0  0
  3  6  1  0  0  0
  4  5  2  0  0  0
  4 30  1  0  0  0
  6  7  1  0  0  0
  6 31  1  0  0  0
  6 32  1  0  0  0
  7  8  2  0  0  0
  7 12  1  0  0  0
  8  9  1  0  0  0
  8 33  1  0  0  0
  9 10  2  0  0  0
  9 34  1  0  0  0
 10 11  1  0  0  0
 10 35  1  0  0  0
 11 12  2  0  0  0
 11 27  1  0  0  0
 12 36  1  0  0  0
 13 18  1  0  0  0
 13 14  2  0  0  0
 14 15  1  0  0  0
 14 37  1  0  0  0
 15 16  2  0  0  0
 15 38  1  0  0  0
 16 17  1  0  0  0
 16 25  1  0  0  0
 17 18  2  0  0  0
 17 39  1  0  0  0
 18 40  1  0  0  0
 19 20  2  0  0  0
 19 24  1  0  0  0
 20 21  1  0  0  0
 20 41  1  0  0  0
 21 22  2  0  0  0
 21 42  1  0  0  0
 22 23  1  0  0  0
 23 24  2  0  0  0
 23 26  1  0  0  0
 26 43  1  0  0  0
 26 44  1  0  0  0
 27 28  1  0  0  0
 27 29  2  0  0  0
 28 45  1  0  0  0
 28 46  1  0  0  0
M  END
> <s_m_entry_id>
34336

> <s_m_entry_name>
dock_pv.79

> <s_m_Source_Path>
/home/csk/Desktop/cluster/DUD-E-result/tgfr1

> <s_m_Source_File>
dock_pv.maegz

> <i_m_Source_File_Index>
79

> <chembl_id>
CHEMBL481347

> <chembl_pref_name>
None

> <i_lp_mmshare_version>
53161

> <r_lp_tautomer_probability>
0.999999987636

> <s_lp_Force_Field>
OPLS_2005

> <r_lp_Energy>
15.697077

> <b_lp_Chiralities_Consistent>
1

> <s_lp_Variant>
CHEMBL4439_lig199-1

> <s_i_glide_gridfile>
glide-grid_3hmm

> <i_i_glide_lignum>
300

> <i_i_glide_rotatable_bonds>
5

> <r_i_docking_score>
-9.20553780021399

> <r_i_glide_ligand_efficiency>
-0.317432337938413

> <r_i_glide_ligand_efficiency_sa>
-0.975252711770329

> <r_i_glide_ligand_efficiency_ln>
-2.10783472395148

> <r_i_glide_gscore>
-9.20553780021399

> <r_i_glide_lipo>
-3.57319917028837

> <r_i_glide_hbond>
-0.416880920479104

> <r_i_glide_metal>
0

> <r_i_glide_rewards>
-2.4143514268289

> <r_i_glide_evdw>
-49.7508773803711

> <r_i_glide_ecoul>
-5.05834913253784

> <r_i_glide_erotb>
0.516625513907811

> <r_i_glide_esite>
-0.0714355576261924

> <r_i_glide_emodel>
-84.2595514772582

> <r_i_glide_energy>
-54.8092265129089

> <r_i_glide_einternal>
4.10401391983032

> <i_i_glide_confnum>
24

> <i_i_glide_posenum>
254

> <r_i_glide_eff_state_penalty>
0

> <s_user_duplicate_titles>
CHEMBL4439_lig199

> <i_f3d_flags>
0

> <s_m_subgroup_title>
dock_pv

> <s_m_subgroupid>
dock_pv

> <b_m_subgroup_collapsed>
1

$$$$
CHEMBL4439_lig955 
                    3D
 Schrodinger Suite 2021-1.
 48 52  0  0  1  0            999 V2000
   19.3965   67.4403    9.7958 C   0  0  0  0  0  0
   18.9626   67.7312   11.0855 C   0  0  0  0  0  0
   17.5917   67.8290   11.3151 C   0  0  0  0  0  0
   16.6677   67.6824   10.3280 N   0  0  0  0  0  0
   17.0925   67.4047    9.0577 C   0  0  0  0  0  0
   18.4565   67.2571    8.7840 C   0  0  0  0  0  0
   15.9595   67.4573    6.6191 C   0  0  0  0  0  0
   16.0013   67.2273    8.0208 C   0  0  0  0  0  0
   14.8218   66.7648    8.4318 N   0  0  0  0  0  0
   14.0188   66.7446    7.4042 C   0  0  0  0  0  0
   14.6440   67.2304    6.3019 N   0  0  0  0  0  0
   12.5597   66.3386    7.4783 C   0  0  0  0  0  0
   11.8880   65.6570    6.3725 N   0  0  0  0  0  0
   12.3542   64.7546    5.3992 C   0  0  0  0  0  0
   13.7032   64.4763    5.1281 C   0  0  0  0  0  0
   14.0569   63.6841    4.0335 C   0  0  0  0  0  0
   13.0708   63.0714    3.2732 C   0  0  0  0  0  0
   11.7322   63.2569    3.5976 C   0  0  0  0  0  0
   11.3724   64.1192    4.6245 C   0  0  0  0  0  0
   17.0667   68.0699   12.7143 C   0  0  0  0  0  0
   16.8354   67.8783    5.5138 C   0  0  0  0  0  0
   16.4847   67.8825    4.1690 C   0  0  0  0  0  0
   18.4741   68.4572    5.7451 S   0  0  0  0  0  0
   18.6412   68.8086    4.0434 C   0  0  0  0  0  0
   17.4724   68.4433    3.3265 C   0  0  0  0  0  0
   17.4659   68.6900    1.9468 C   0  0  0  0  0  0
   18.5116   69.2584    1.3050 N   0  0  0  0  0  0
   19.5929   69.6356    2.0313 C   0  0  0  0  0  0
   19.7374   69.3886    3.3960 C   0  0  0  0  0  0
   10.0545   64.3472    4.8346 F   0  0  0  0  0  0
   20.4496   67.3230    9.5898 H   0  0  0  0  0  0
   19.6759   67.8442   11.8883 H   0  0  0  0  0  0
   18.8050   66.9462    7.8182 H   0  0  0  0  0  0
   14.2276   67.3262    5.3869 H   0  0  0  0  0  0
   11.9656   67.2343    7.6318 H   0  0  0  0  0  0
   12.3845   65.7307    8.3619 H   0  0  0  0  0  0
   10.8791   65.7419    6.3973 H   0  0  0  0  0  0
   14.5047   64.8679    5.7255 H   0  0  0  0  0  0
   15.0982   63.5192    3.7975 H   0  0  0  0  0  0
   13.3444   62.4571    2.4299 H   0  0  0  0  0  0
   10.9643   62.7872    3.0019 H   0  0  0  0  0  0
   17.6930   68.7937   13.2329 H   0  0  0  0  0  0
   16.0512   68.4570   12.7037 H   0  0  0  0  0  0
   17.0638   67.1376   13.2789 H   0  0  0  0  0  0
   15.5345   67.5461    3.7839 H   0  0  0  0  0  0
   16.6011   68.4572    1.3450 H   0  0  0  0  0  0
   20.3951   70.0920    1.4693 H   0  0  0  0  0  0
   20.6357   69.6637    3.9303 H   0  0  0  0  0  0
  1  2  2  0  0  0
  1  6  1  0  0  0
  1 31  1  0  0  0
  2  3  1  0  0  0
  2 32  1  0  0  0
  3  4  2  0  0  0
  3 20  1  0  0  0
  4  5  1  0  0  0
  5  6  2  0  0  0
  5  8  1  0  0  0
  6 33  1  0  0  0
  7  8  2  0  0  0
  7 21  1  0  0  0
  7 11  1  0  0  0
  8  9  1  0  0  0
  9 10  2  0  0  0
 10 11  1  0  0  0
 10 12  1  0  0  0
 11 34  1  0  0  0
 12 13  1  0  0  0
 12 35  1  0  0  0
 12 36  1  0  0  0
 13 14  1  0  0  0
 13 37  1  0  0  0
 14 15  2  0  0  0
 14 19  1  0  0  0
 15 16  1  0  0  0
 15 38  1  0  0  0
 16 17  2  0  0  0
 16 39  1  0  0  0
 17 18  1  0  0  0
 17 40  1  0  0  0
 18 19  2  0  0  0
 18 41  1  0  0  0
 19 30  1  0  0  0
 20 42  1  0  0  0
 20 43  1  0  0  0
 20 44  1  0  0  0
 21 22  2  0  0  0
 21 23  1  0  0  0
 22 25  1  0  0  0
 22 45  1  0  0  0
 23 24  1  0  0  0
 24 25  2  0  0  0
 24 29  1  0  0  0
 25 26  1  0  0  0
 26 27  2  0  0  0
 26 46  1  0  0  0
 27 28  1  0  0  0
 28 29  2  0  0  0
 28 47  1  0  0  0
 29 48  1  0  0  0
M  END
> <s_m_entry_id>
34337

> <s_m_entry_name>
dock_pv.80

> <s_m_Source_Path>
/home/csk/Desktop/cluster/DUD-E-result/tgfr1

> <s_m_Source_File>
dock_pv.maegz

> <i_m_Source_File_Index>
80

> <chembl_id>
CHEMBL4516224

> <chembl_pref_name>
None

> <i_lp_mmshare_version>
53161

> <r_lp_tautomer_probability>
0.499999999999999

> <s_lp_Force_Field>
OPLS_2005

> <r_lp_Energy>
23.723144

> <b_lp_Chiralities_Consistent>
1

> <s_lp_Variant>
CHEMBL4439_lig955 -2

> <s_i_glide_gridfile>
glide-grid_3hmm

> <i_i_glide_lignum>
1298

> <i_i_glide_rotatable_bonds>
5

> <r_i_docking_score>
-9.20524782623459

> <r_i_glide_ligand_efficiency>
-0.30684159420782

> <r_i_glide_ligand_efficiency_sa>
-0.953428174620308

> <r_i_glide_ligand_efficiency_ln>
-2.0915326053289

> <r_i_glide_gscore>
-9.20524782623459

> <r_i_glide_lipo>
-4.59477630621954

> <r_i_glide_hbond>
-0.110582012292104

> <r_i_glide_metal>
0

> <r_i_glide_rewards>
-2.43440703452108

> <r_i_glide_evdw>
-52.3660278320312

> <r_i_glide_ecoul>
-0.127566993236542

> <r_i_glide_erotb>
0.571953967385176

> <r_i_glide_esite>
0

> <r_i_glide_emodel>
-80.32120281881

> <r_i_glide_energy>
-52.4935948252678

> <r_i_glide_einternal>
5.19005489349365

> <i_i_glide_confnum>
92

> <i_i_glide_posenum>
230

> <r_i_glide_eff_state_penalty>
0

> <s_user_duplicate_titles>
CHEMBL4439_lig955 ,CHEMBL4439_lig955 

> <i_f3d_flags>
0

> <s_m_subgroup_title>
dock_pv

> <s_m_subgroupid>
dock_pv

> <b_m_subgroup_collapsed>
1

$$$$
CHEMBL4439_lig695
                    3D
 Schrodinger Suite 2021-1.
 48 52  0  0  1  0            999 V2000
   18.0089   68.4204    4.4897 C   0  0  0  0  0  0
   16.6701   68.0788    4.6891 C   0  0  0  0  0  0
   15.8235   68.0569    3.5613 C   0  0  0  0  0  0
   16.2452   68.4571    2.2951 C   0  0  0  0  0  0
   18.4109   68.8175    3.2515 N   0  0  0  0  0  0
   17.5765   68.8447    2.1387 C   0  0  0  0  0  0
   18.2917   69.2571    1.0760 N   0  0  0  0  0  0
   19.4620   69.5198    1.6322 C   0  0  0  0  0  0
   19.6290   69.2572    2.9130 N   0  0  0  0  0  0
   16.0923   67.7869    6.0470 C   0  0  0  0  0  0
   16.5221   67.6927    7.4026 C   0  0  0  0  0  0
   15.5312   67.2399    8.1688 N   0  0  0  0  0  0
   14.4861   67.1129    7.4007 C   0  0  0  0  0  0
   14.7513   67.5334    6.1443 N   0  0  0  0  0  0
   17.8358   67.9858    8.0851 C   0  0  0  0  0  0
   18.1978   67.3905    9.3055 C   0  0  0  0  0  0
   19.4325   67.7037    9.8788 C   0  0  0  0  0  0
   20.2910   68.5865    9.2233 C   0  0  0  0  0  0
   19.8663   69.1509    8.0197 C   0  0  0  0  0  0
   18.6504   68.8859    7.4787 N   0  0  0  0  0  0
   20.7739   70.0555    7.2071 C   0  0  0  0  0  0
   13.1667   66.5196    7.8274 C   0  0  0  0  0  0
   12.2105   66.0709    6.8220 N   0  0  0  0  0  0
   12.4799   65.1168    5.8297 C   0  0  0  0  0  0
   13.7750   64.7508    5.4433 C   0  0  0  0  0  0
   13.9670   63.9822    4.3091 C   0  0  0  0  0  0
   12.8690   63.4837    3.6306 C   0  0  0  0  0  0
   11.5751   63.7093    4.0872 C   0  0  0  0  0  0
   11.3807   64.5585    5.1726 C   0  0  0  0  0  0
   13.0667   62.8537    2.4604 F   0  0  0  0  0  0
   18.7860   68.4144    5.2250 H   0  0  0  0  0  0
   14.7866   67.7683    3.6498 H   0  0  0  0  0  0
   15.5654   68.4576    1.4549 H   0  0  0  0  0  0
   20.2784   69.9133    1.0418 H   0  0  0  0  0  0
   14.0946   67.5011    5.3783 H   0  0  0  0  0  0
   17.5421   66.6903    9.8012 H   0  0  0  0  0  0
   19.7298   67.2570   10.8163 H   0  0  0  0  0  0
   21.2622   68.8176    9.6351 H   0  0  0  0  0  0
   21.4642   70.6052    7.8495 H   0  0  0  0  0  0
   21.3667   69.4555    6.5131 H   0  0  0  0  0  0
   20.2033   70.7770    6.6200 H   0  0  0  0  0  0
   12.6671   67.2569    8.4323 H   0  0  0  0  0  0
   13.3332   65.6581    8.4326 H   0  0  0  0  0  0
   11.2364   66.1307    7.0937 H   0  0  0  0  0  0
   14.6577   65.0734    5.9638 H   0  0  0  0  0  0
   14.9632   63.7706    3.9501 H   0  0  0  0  0  0
   10.7323   63.3064    3.5453 H   0  0  0  0  0  0
   10.3732   64.8080    5.4721 H   0  0  0  0  0  0
  1  5  1  0  0  0
  1  2  2  0  0  0
  1 31  1  0  0  0
  2  3  1  0  0  0
  2 10  1  0  0  0
  3  4  2  0  0  0
  3 32  1  0  0  0
  4  6  1  0  0  0
  4 33  1  0  0  0
  5  6  1  0  0  0
  5  9  1  0  0  0
  6  7  2  0  0  0
  7  8  1  0  0  0
  8  9  2  0  0  0
  8 34  1  0  0  0
 10 11  2  0  0  0
 10 14  1  0  0  0
 11 15  1  0  0  0
 11 12  1  0  0  0
 12 13  2  0  0  0
 13 14  1  0  0  0
 13 22  1  0  0  0
 14 35  1  0  0  0
 15 16  2  0  0  0
 15 20  1  0  0  0
 16 17  1  0  0  0
 16 36  1  0  0  0
 17 18  2  0  0  0
 17 37  1  0  0  0
 18 19  1  0  0  0
 18 38  1  0  0  0
 19 20  2  0  0  0
 19 21  1  0  0  0
 21 39  1  0  0  0
 21 40  1  0  0  0
 21 41  1  0  0  0
 22 23  1  0  0  0
 22 42  1  0  0  0
 22 43  1  0  0  0
 23 24  1  0  0  0
 23 44  1  0  0  0
 24 25  2  0  0  0
 24 29  1  0  0  0
 25 26  1  0  0  0
 25 45  1  0  0  0
 26 27  2  0  0  0
 26 46  1  0  0  0
 27 28  1  0  0  0
 27 30  1  0  0  0
 28 29  2  0  0  0
 28 47  1  0  0  0
 29 48  1  0  0  0
M  END
> <s_m_entry_id>
34338

> <s_m_entry_name>
dock_pv.81

> <s_m_Source_Path>
/home/csk/Desktop/cluster/DUD-E-result/tgfr1

> <s_m_Source_File>
dock_pv.maegz

> <i_m_Source_File_Index>
81

> <chembl_id>
CHEMBL3260598

> <chembl_pref_name>
None

> <i_lp_mmshare_version>
53161

> <r_lp_tautomer_probability>
0.499999999999999

> <s_lp_Force_Field>
OPLS_2005

> <r_lp_Energy>
16.718903

> <b_lp_Chiralities_Consistent>
1

> <s_lp_Variant>
CHEMBL4439_lig695-2

> <s_i_glide_gridfile>
glide-grid_3hmm

> <i_i_glide_lignum>
979

> <i_i_glide_rotatable_bonds>
5

> <r_i_docking_score>
-9.19123405788584

> <r_i_glide_ligand_efficiency>
-0.306374468596195

> <r_i_glide_ligand_efficiency_sa>
-0.951976706737149

> <r_i_glide_ligand_efficiency_ln>
-2.08834852446783

> <r_i_glide_gscore>
-9.19123405788584

> <r_i_glide_lipo>
-3.63632963390439

> <r_i_glide_hbond>
-0.280489427095716

> <r_i_glide_metal>
0

> <r_i_glide_rewards>
-3.4121125202398

> <r_i_glide_evdw>
-45.2352752685547

> <r_i_glide_ecoul>
-1.25122141838074

> <r_i_glide_erotb>
0.614091747577904

> <r_i_glide_esite>
-0.0269472480389977

> <r_i_glide_emodel>
-74.0562386887868

> <r_i_glide_energy>
-46.4864966869354

> <r_i_glide_einternal>
3.73700213432312

> <i_i_glide_confnum>
16

> <i_i_glide_posenum>
89

> <r_i_glide_eff_state_penalty>
0

> <s_user_duplicate_titles>
CHEMBL4439_lig695,CHEMBL4439_lig695

> <i_f3d_flags>
0

> <s_m_subgroup_title>
dock_pv

> <s_m_subgroupid>
dock_pv

> <b_m_subgroup_collapsed>
1

$$$$
CHEMBL4439_lig224
                    3D
 Schrodinger Suite 2021-1.
 42 45  0  0  1  0            999 V2000
   17.7151   68.2249    9.8427 C   0  0  0  0  0  0
   16.7721   67.4264   10.4814 C   0  0  0  0  0  0
   15.8676   66.6697    9.7397 C   0  0  0  0  0  0
   17.7745   68.2828    8.4533 C   0  0  0  0  0  0
   16.8639   67.5241    7.6678 C   0  0  0  0  0  0
   15.8896   66.7138    8.3264 C   0  0  0  0  0  0
   14.9860   65.9672    7.6294 N   0  0  0  0  0  0
   15.0648   66.0014    6.2711 C   0  0  0  0  0  0
   15.9457   66.7387    5.5621 N   0  0  0  0  0  0
   16.8335   67.4950    6.2433 C   0  0  0  0  0  0
   14.1841   65.1006    5.4678 C   0  0  0  0  0  0
   17.7724   68.2157    5.4920 N   0  0  0  0  0  0
   14.6504   64.4761    4.2973 C   0  0  0  0  0  0
   13.7990   63.6297    3.5905 C   0  0  0  0  0  0
   12.4990   63.4224    4.0486 C   0  0  0  0  0  0
   12.0932   64.0820    5.2085 C   0  0  0  0  0  0
   12.9077   64.9140    5.9106 N   0  0  0  0  0  0
   10.6914   63.9070    5.7500 C   0  0  0  0  0  0
   17.8559   68.5207    4.1257 C   0  0  0  0  0  0
   16.7681   68.4576    3.2412 C   0  0  0  0  0  0
   16.9536   68.8570    1.9170 C   0  0  0  0  0  0
   18.1542   69.2563    1.4290 N   0  0  0  0  0  0
   19.2023   69.2860    2.2923 C   0  0  0  0  0  0
   19.0893   68.9504    3.6399 C   0  0  0  0  0  0
   20.5511   69.6577    1.7086 C   0  0  0  0  0  0
   18.4052   68.8119   10.4309 H   0  0  0  0  0  0
   16.7355   67.3969   11.5605 H   0  0  0  0  0  0
   15.1332   66.0660   10.2503 H   0  0  0  0  0  0
   18.5133   68.9099    7.9766 H   0  0  0  0  0  0
   18.5069   68.6289    6.0438 H   0  0  0  0  0  0
   15.6577   64.6352    3.9444 H   0  0  0  0  0  0
   14.1356   63.1461    2.6854 H   0  0  0  0  0  0
   11.8247   62.7782    3.5043 H   0  0  0  0  0  0
   10.3099   62.9054    5.5468 H   0  0  0  0  0  0
   10.6669   64.0549    6.8318 H   0  0  0  0  0  0
   10.0192   64.6283    5.2832 H   0  0  0  0  0  0
   15.7820   68.1675    3.5672 H   0  0  0  0  0  0
   16.1257   68.8560    1.2220 H   0  0  0  0  0  0
   19.9518   68.9992    4.2875 H   0  0  0  0  0  0
   20.6692   70.7373    1.6349 H   0  0  0  0  0  0
   20.6561   69.2597    0.7072 H   0  0  0  0  0  0
   21.3683   69.2574    2.3106 H   0  0  0  0  0  0
  1  2  2  0  0  0
  1  4  1  0  0  0
  1 26  1  0  0  0
  2  3  1  0  0  0
  2 27  1  0  0  0
  3  6  2  0  0  0
  3 28  1  0  0  0
  4  5  2  0  0  0
  4 29  1  0  0  0
  5  6  1  0  0  0
  5 10  1  0  0  0
  6  7  1  0  0  0
  7  8  2  0  0  0
  8  9  1  0  0  0
  8 11  1  0  0  0
  9 10  2  0  0  0
 10 12  1  0  0  0
 11 13  2  0  0  0
 11 17  1  0  0  0
 12 19  1  0  0  0
 12 30  1  0  0  0
 13 14  1  0  0  0
 13 31  1  0  0  0
 14 15  2  0  0  0
 14 32  1  0  0  0
 15 16  1  0  0  0
 15 33  1  0  0  0
 16 17  2  0  0  0
 16 18  1  0  0  0
 18 34  1  0  0  0
 18 35  1  0  0  0
 18 36  1  0  0  0
 19 20  2  0  0  0
 19 24  1  0  0  0
 20 21  1  0  0  0
 20 37  1  0  0  0
 21 22  2  0  0  0
 21 38  1  0  0  0
 22 23  1  0  0  0
 23 24  2  0  0  0
 23 25  1  0  0  0
 24 39  1  0  0  0
 25 40  1  0  0  0
 25 41  1  0  0  0
 25 42  1  0  0  0
M  END
> <s_m_entry_id>
34339

> <s_m_entry_name>
dock_pv.82

> <s_m_Source_Path>
/home/csk/Desktop/cluster/DUD-E-result/tgfr1

> <s_m_Source_File>
dock_pv.maegz

> <i_m_Source_File_Index>
82

> <chembl_id>
CHEMBL560415

> <chembl_pref_name>
None

> <i_lp_mmshare_version>
53161

> <r_lp_tautomer_probability>
0.999977106282132

> <s_lp_Force_Field>
OPLS_2005

> <r_lp_Energy>
19.214285

> <b_lp_Chiralities_Consistent>
1

> <s_lp_Variant>
CHEMBL4439_lig224-1

> <s_i_glide_gridfile>
glide-grid_3hmm

> <i_i_glide_lignum>
326

> <i_i_glide_rotatable_bonds>
3

> <r_i_docking_score>
-9.19040186450027

> <r_i_glide_ligand_efficiency>
-0.367616074580011

> <r_i_glide_ligand_efficiency_sa>
-1.07491592177079

> <r_i_glide_ligand_efficiency_ln>
-2.17840065600589

> <r_i_glide_gscore>
-9.19040186450027

> <r_i_glide_lipo>
-4.24565040660068

> <r_i_glide_hbond>
-0.186542893780379

> <r_i_glide_metal>
0

> <r_i_glide_rewards>
-2.54375280642851

> <r_i_glide_evdw>
-47.4453392028809

> <r_i_glide_ecoul>
-2.44998812675476

> <r_i_glide_erotb>
0.525309421466554

> <r_i_glide_esite>
0

> <r_i_glide_emodel>
-74.5817957010918

> <r_i_glide_energy>
-49.8953273296356

> <r_i_glide_einternal>
4.8628716468811

> <i_i_glide_confnum>
3

> <i_i_glide_posenum>
254

> <r_i_glide_eff_state_penalty>
0

> <s_user_duplicate_titles>
CHEMBL4439_lig224,559512

> <i_f3d_flags>
0

> <s_m_subgroup_title>
dock_pv

> <s_m_subgroupid>
dock_pv

> <b_m_subgroup_collapsed>
1

$$$$
CHEMBL4439_lig533
                    3D
 Schrodinger Suite 2021-1.
 48 52  0  0  1  0            999 V2000
   11.6870   64.9172    5.8847 C   0  0  0  0  0  0
   12.0687   64.0938    4.8297 C   0  0  0  0  0  0
   13.4038   64.1190    4.4281 C   0  0  0  0  0  0
   14.3475   64.8934    5.0272 N   0  0  0  0  0  0
   13.9571   65.6893    6.0579 C   0  0  0  0  0  0
   12.6309   65.7329    6.5044 C   0  0  0  0  0  0
   15.0320   66.4766    6.7273 C   0  0  0  0  0  0
   17.7434   68.1708    4.6110 C   0  0  0  0  0  0
   16.4648   67.6637    4.8734 C   0  0  0  0  0  0
   15.5217   67.6568    3.8345 C   0  0  0  0  0  0
   15.8153   68.1700    2.5649 C   0  0  0  0  0  0
   18.0151   68.6767    3.3781 N   0  0  0  0  0  0
   17.0978   68.6931    2.3304 C   0  0  0  0  0  0
   17.6962   69.2567    1.2534 N   0  0  0  0  0  0
   18.8893   69.5558    1.7415 C   0  0  0  0  0  0
   19.1599   69.2569    2.9937 N   0  0  0  0  0  0
   16.1200   67.2523    6.2746 C   0  0  0  0  0  0
   15.0679   66.4570    8.4655 S   0  0  0  0  0  0
   16.5236   67.3380    8.4400 C   0  0  0  0  0  0
   16.9029   67.6975    7.2497 N   0  0  0  0  0  0
   13.8704   63.2965    3.2531 C   0  0  0  0  0  0
   17.1301   67.6244    9.6311 N   0  0  0  0  0  0
   17.9797   68.7719    9.8909 C   0  0  0  0  0  0
   19.3418   68.7389    9.2101 C   0  0  0  0  0  0
   19.5293   69.3434    7.9628 C   0  0  0  0  0  0
   20.7992   69.3919    7.3883 C   0  0  0  0  0  0
   21.8931   68.8531    8.0660 C   0  0  0  0  0  0
   21.7113   68.2374    9.3096 C   0  0  0  0  0  0
   20.4323   68.1659    9.8700 C   0  0  0  0  0  0
   22.8472   67.6837   10.0315 C   0  0  0  0  0  0
   23.7474   67.2392   10.6056 N   0  0  0  0  0  0
   10.6670   64.9273    6.2205 H   0  0  0  0  0  0
   11.3445   63.4696    4.3267 H   0  0  0  0  0  0
   12.3337   66.3706    7.3236 H   0  0  0  0  0  0
   18.5407   68.2328    5.3376 H   0  0  0  0  0  0
   14.5209   67.2979    4.0155 H   0  0  0  0  0  0
   15.0692   68.1769    1.7826 H   0  0  0  0  0  0
   19.6436   70.0494    1.1472 H   0  0  0  0  0  0
   13.1748   62.4935    3.0110 H   0  0  0  0  0  0
   13.9677   63.9422    2.3843 H   0  0  0  0  0  0
   14.8400   62.8592    3.4678 H   0  0  0  0  0  0
   16.6740   67.3127   10.4764 H   0  0  0  0  0  0
   18.1211   68.8569   10.9690 H   0  0  0  0  0  0
   17.4251   69.6570    9.5850 H   0  0  0  0  0  0
   18.6956   69.7992    7.4483 H   0  0  0  0  0  0
   20.9416   69.8625    6.4268 H   0  0  0  0  0  0
   22.8741   68.9162    7.6122 H   0  0  0  0  0  0
   20.2831   67.6983   10.8345 H   0  0  0  0  0  0
  1  6  1  0  0  0
  1  2  2  0  0  0
  1 32  1  0  0  0
  2  3  1  0  0  0
  2 33  1  0  0  0
  3 21  1  0  0  0
  3  4  2  0  0  0
  4  5  1  0  0  0
  5  6  2  0  0  0
  5  7  1  0  0  0
  6 34  1  0  0  0
  7 17  2  0  0  0
  7 18  1  0  0  0
  8 12  1  0  0  0
  8  9  2  0  0  0
  8 35  1  0  0  0
  9 17  1  0  0  0
  9 10  1  0  0  0
 10 11  2  0  0  0
 10 36  1  0  0  0
 11 13  1  0  0  0
 11 37  1  0  0  0
 12 16  1  0  0  0
 12 13  1  0  0  0
 13 14  2  0  0  0
 14 15  1  0  0  0
 15 16  2  0  0  0
 15 38  1  0  0  0
 17 20  1  0  0  0
 18 19  1  0  0  0
 19 20  2  0  0  0
 19 22  1  0  0  0
 21 39  1  0  0  0
 21 40  1  0  0  0
 21 41  1  0  0  0
 22 23  1  0  0  0
 22 42  1  0  0  0
 23 24  1  0  0  0
 23 43  1  0  0  0
 23 44  1  0  0  0
 24 25  2  0  0  0
 24 29  1  0  0  0
 25 26  1  0  0  0
 25 45  1  0  0  0
 26 27  2  0  0  0
 26 46  1  0  0  0
 27 28  1  0  0  0
 27 47  1  0  0  0
 28 29  2  0  0  0
 28 30  1  0  0  0
 29 48  1  0  0  0
 30 31  3  0  0  0
M  END
> <s_m_entry_id>
34340

> <s_m_entry_name>
dock_pv.83

> <s_m_Source_Path>
/home/csk/Desktop/cluster/DUD-E-result/tgfr1

> <s_m_Source_File>
dock_pv.maegz

> <i_m_Source_File_Index>
83

> <chembl_id>
CHEMBL2088222

> <chembl_pref_name>
None

> <i_lp_mmshare_version>
53161

> <r_lp_tautomer_probability>
1

> <s_lp_Force_Field>
OPLS_2005

> <r_lp_Energy>
17.192712

> <b_lp_Chiralities_Consistent>
1

> <s_lp_Variant>
CHEMBL4439_lig533-1

> <s_i_glide_gridfile>
glide-grid_3hmm

> <i_i_glide_lignum>
712

> <i_i_glide_rotatable_bonds>
5

> <r_i_docking_score>
-9.1873508366973

> <r_i_glide_ligand_efficiency>
-0.296366156022493

> <r_i_glide_ligand_efficiency_sa>
-0.930998907486991

> <r_i_glide_ligand_efficiency_ln>
-2.07202917216449

> <r_i_glide_gscore>
-9.1873508366973

> <r_i_glide_lipo>
-3.46996485654311

> <r_i_glide_hbond>
-0.280128226307859

> <r_i_glide_metal>
0

> <r_i_glide_rewards>
-2.5960128375526

> <r_i_glide_evdw>
-52.2880859375

> <r_i_glide_ecoul>
-5.18945264816284

> <r_i_glide_erotb>
0.552557089857189

> <r_i_glide_esite>
-0.000979812051496361

> <r_i_glide_emodel>
-82.1151998035828

> <r_i_glide_energy>
-57.4775385856628

> <r_i_glide_einternal>
4.62507724761963

> <i_i_glide_confnum>
40

> <i_i_glide_posenum>
124

> <r_i_glide_eff_state_penalty>
0

> <s_user_duplicate_titles>
CHEMBL4439_lig533

> <i_f3d_flags>
0

> <s_m_subgroup_title>
dock_pv

> <s_m_subgroupid>
dock_pv

> <b_m_subgroup_collapsed>
1

$$$$
CHEMBL4439_lig226
                    3D
 Schrodinger Suite 2021-1.
 38 41  0  0  1  0            999 V2000
   17.7023   68.2675    9.5973 C   0  0  0  0  0  0
   16.7722   67.4610   10.2432 C   0  0  0  0  0  0
   15.8692   66.6989    9.5100 C   0  0  0  0  0  0
   17.7462   68.3349    8.2067 C   0  0  0  0  0  0
   16.8330   67.5698    7.4265 C   0  0  0  0  0  0
   15.8750   66.7462    8.0948 C   0  0  0  0  0  0
   14.9723   65.9905    7.4101 N   0  0  0  0  0  0
   15.0346   66.0244    6.0519 C   0  0  0  0  0  0
   15.8934   66.7805    5.3269 N   0  0  0  0  0  0
   16.7840   67.5498    6.0008 C   0  0  0  0  0  0
   14.1553   65.0840    5.2882 C   0  0  0  0  0  0
   17.7070   68.3036    5.2483 N   0  0  0  0  0  0
   14.6059   64.4395    4.1271 C   0  0  0  0  0  0
   13.7756   63.5098    3.5003 C   0  0  0  0  0  0
   12.5014   63.2591    4.0136 C   0  0  0  0  0  0
   12.0912   63.9753    5.1387 C   0  0  0  0  0  0
   12.8998   64.8612    5.7795 N   0  0  0  0  0  0
   10.6864   63.8353    5.6885 C   0  0  0  0  0  0
   17.7540   68.6510    3.8898 C   0  0  0  0  0  0
   18.9192   69.2447    3.3936 C   0  0  0  0  0  0
   18.9262   69.6002    2.0406 C   0  0  0  0  0  0
   17.8560   69.4044    1.2320 N   0  0  0  0  0  0
   16.7614   68.8572    1.8092 C   0  0  0  0  0  0
   16.6667   68.4480    3.0955 N   0  0  0  0  0  0
   18.3963   68.8546   10.1816 H   0  0  0  0  0  0
   16.7516   67.4261   11.3239 H   0  0  0  0  0  0
   15.1509   66.0782   10.0244 H   0  0  0  0  0  0
   18.4750   68.9696    7.7273 H   0  0  0  0  0  0
   18.4567   68.6953    5.7940 H   0  0  0  0  0  0
   15.5940   64.6282    3.7328 H   0  0  0  0  0  0
   14.1070   62.9968    2.6094 H   0  0  0  0  0  0
   11.8408   62.5641    3.5183 H   0  0  0  0  0  0
   10.2614   62.8595    5.4537 H   0  0  0  0  0  0
   10.0424   64.5956    5.2435 H   0  0  0  0  0  0
   10.6674   63.9543    6.7726 H   0  0  0  0  0  0
   19.7819   69.4180    4.0173 H   0  0  0  0  0  0
   19.7985   70.0543    1.5896 H   0  0  0  0  0  0
   15.8867   68.7186    1.1898 H   0  0  0  0  0  0
  1  2  2  0  0  0
  1  4  1  0  0  0
  1 25  1  0  0  0
  2  3  1  0  0  0
  2 26  1  0  0  0
  3  6  2  0  0  0
  3 27  1  0  0  0
  4  5  2  0  0  0
  4 28  1  0  0  0
  5  6  1  0  0  0
  5 10  1  0  0  0
  6  7  1  0  0  0
  7  8  2  0  0  0
  8  9  1  0  0  0
  8 11  1  0  0  0
  9 10  2  0  0  0
 10 12  1  0  0  0
 11 13  2  0  0  0
 11 17  1  0  0  0
 12 19  1  0  0  0
 12 29  1  0  0  0
 13 14  1  0  0  0
 13 30  1  0  0  0
 14 15  2  0  0  0
 14 31  1  0  0  0
 15 16  1  0  0  0
 15 32  1  0  0  0
 16 17  2  0  0  0
 16 18  1  0  0  0
 18 33  1  0  0  0
 18 34  1  0  0  0
 18 35  1  0  0  0
 19 20  2  0  0  0
 19 24  1  0  0  0
 20 21  1  0  0  0
 20 36  1  0  0  0
 21 22  2  0  0  0
 21 37  1  0  0  0
 22 23  1  0  0  0
 23 24  2  0  0  0
 23 38  1  0  0  0
M  END
> <s_m_entry_id>
34341

> <s_m_entry_name>
dock_pv.84

> <s_m_Source_Path>
/home/csk/Desktop/cluster/DUD-E-result/tgfr1

> <s_m_Source_File>
dock_pv.maegz

> <i_m_Source_File_Index>
84

> <chembl_id>
CHEMBL571452

> <chembl_pref_name>
None

> <i_lp_mmshare_version>
53161

> <r_lp_tautomer_probability>
0.99997758346051

> <s_lp_Force_Field>
OPLS_2005

> <r_lp_Energy>
15.197312

> <b_lp_Chiralities_Consistent>
1

> <s_lp_Variant>
CHEMBL4439_lig226-1

> <s_i_glide_gridfile>
glide-grid_3hmm

> <i_i_glide_lignum>
328

> <i_i_glide_rotatable_bonds>
3

> <r_i_docking_score>
-9.18367472607719

> <r_i_glide_ligand_efficiency>
-0.38265311358655

> <r_i_glide_ligand_efficiency_sa>
-1.10376257612471

> <r_i_glide_ligand_efficiency_ln>
-2.19807477332392

> <r_i_glide_gscore>
-9.18367472607719

> <r_i_glide_lipo>
-3.46856883160144

> <r_i_glide_hbond>
-0.362819080543502

> <r_i_glide_metal>
0

> <r_i_glide_rewards>
-3.06987982796067

> <r_i_glide_evdw>
-48.3584632873535

> <r_i_glide_ecoul>
-2.85865545272827

> <r_i_glide_erotb>
0.564314496305333

> <r_i_glide_esite>
0

> <r_i_glide_emodel>
-78.5922992968067

> <r_i_glide_energy>
-51.2171187400818

> <r_i_glide_einternal>
2.79464197158813

> <i_i_glide_confnum>
3

> <i_i_glide_posenum>
146

> <r_i_glide_eff_state_penalty>
0

> <s_user_duplicate_titles>
CHEMBL4439_lig226,561345

> <i_f3d_flags>
0

> <s_m_subgroup_title>
dock_pv

> <s_m_subgroupid>
dock_pv

> <b_m_subgroup_collapsed>
1

$$$$
CHEMBL4439_lig865
                    3D
 Schrodinger Suite 2021-1.
 48 51  0  0  1  0            999 V2000
   18.8841   67.2011   10.2666 C   0  0  0  0  0  0
   17.5963   67.4148    9.4427 C   0  0  0  0  0  0
   16.6645   68.3891   10.2026 C   0  0  0  0  0  0
   15.7295   67.8071    3.5665 C   0  0  0  0  0  0
   16.1124   68.4570    2.3935 C   0  0  0  0  0  0
   17.3648   68.9328    2.1832 N   0  0  0  0  0  0
   18.2701   68.7710    3.1795 C   0  0  0  0  0  0
   17.9624   68.1454    4.3895 C   0  0  0  0  0  0
   16.6648   67.6579    4.5966 C   0  0  0  0  0  0
   16.2814   67.0001    5.8811 C   0  0  0  0  0  0
   15.2497   65.6526    7.3627 N   0  0  0  0  0  0
   15.2939   65.9945    6.0964 C   0  0  0  0  0  0
   16.2252   66.2956    7.9648 N   0  0  0  0  0  0
   16.8531   67.1842    7.1540 C   0  0  0  0  0  0
   17.9332   67.8666    7.9810 C   0  0  1  0  0  0
   16.8303   66.0969    9.2590 C   0  0  0  0  0  0
   14.3890   65.2087    5.1661 C   0  0  0  0  0  0
   13.0124   64.9986    5.4142 C   0  0  0  0  0  0
   12.2700   64.0658    4.6611 C   0  0  0  0  0  0
   12.9038   63.3735    3.6320 C   0  0  0  0  0  0
   14.2248   63.6570    3.3120 C   0  0  0  0  0  0
   14.9634   64.5620    4.0690 C   0  0  0  0  0  0
   18.0464   69.3910    7.7781 C   0  0  0  0  0  0
   12.3611   65.8011    6.4323 C   0  0  0  0  0  0
   11.8670   66.4568    7.2361 N   0  0  0  0  0  0
   10.7819   63.8076    4.8956 C   0  0  0  0  0  0
   19.5365   66.4591    9.8053 H   0  0  0  0  0  0
   19.4567   68.1250   10.3542 H   0  0  0  0  0  0
   18.6638   66.8580   11.2779 H   0  0  0  0  0  0
   15.8225   68.7265    9.5963 H   0  0  0  0  0  0
   16.2550   67.9428   11.1103 H   0  0  0  0  0  0
   17.2222   69.2570   10.5242 H   0  0  0  0  0  0
   14.7130   67.4599    3.6760 H   0  0  0  0  0  0
   15.4036   68.6001    1.5907 H   0  0  0  0  0  0
   19.2631   69.1529    2.9925 H   0  0  0  0  0  0
   18.7251   68.0366    5.1458 H   0  0  0  0  0  0
   18.8897   67.4325    7.6838 H   0  0  0  0  0  0
   16.0815   65.9080   10.0296 H   0  0  0  0  0  0
   17.4926   65.2314    9.2313 H   0  0  0  0  0  0
   12.3575   62.6644    3.0272 H   0  0  0  0  0  0
   14.6669   63.1628    2.4661 H   0  0  0  0  0  0
   15.9940   64.7393    3.8101 H   0  0  0  0  0  0
   18.3055   69.6459    6.7528 H   0  0  0  0  0  0
   17.1202   69.9079    8.0302 H   0  0  0  0  0  0
   18.8247   69.8073    8.4191 H   0  0  0  0  0  0
   10.3261   63.2570    4.0721 H   0  0  0  0  0  0
   10.6288   63.2578    5.8251 H   0  0  0  0  0  0
   10.2355   64.7485    4.9729 H   0  0  0  0  0  0
  1  2  1  0  0  0
  1 27  1  0  0  0
  1 28  1  0  0  0
  1 29  1  0  0  0
  2  3  1  0  0  0
  2 15  1  0  0  0
  2 16  1  0  0  0
  3 30  1  0  0  0
  3 31  1  0  0  0
  3 32  1  0  0  0
  4  5  2  0  0  0
  4  9  1  0  0  0
  4 33  1  0  0  0
  5  6  1  0  0  0
  5 34  1  0  0  0
  6  7  2  0  0  0
  7  8  1  0  0  0
  7 35  1  0  0  0
  8  9  2  0  0  0
  8 36  1  0  0  0
  9 10  1  0  0  0
 10 14  2  0  0  0
 10 12  1  0  0  0
 11 13  1  0  0  0
 11 12  2  0  0  0
 12 17  1  0  0  0
 13 14  1  0  0  0
 13 16  1  0  0  0
 14 15  1  0  0  0
 15 23  1  0  0  0
 15 37  1  0  0  0
 16 38  1  0  0  0
 16 39  1  0  0  0
 17 18  2  0  0  0
 17 22  1  0  0  0
 18 19  1  0  0  0
 18 24  1  0  0  0
 19 20  2  0  0  0
 19 26  1  0  0  0
 20 21  1  0  0  0
 20 40  1  0  0  0
 21 22  2  0  0  0
 21 41  1  0  0  0
 22 42  1  0  0  0
 23 43  1  0  0  0
 23 44  1  0  0  0
 23 45  1  0  0  0
 24 25  3  0  0  0
 26 46  1  0  0  0
 26 47  1  0  0  0
 26 48  1  0  0  0
M  END
> <s_m_entry_id>
34342

> <s_m_entry_name>
dock_pv.85

> <s_m_Source_Path>
/home/csk/Desktop/cluster/DUD-E-result/tgfr1

> <s_m_Source_File>
dock_pv.maegz

> <i_m_Source_File_Index>
85

> <chembl_id>
CHEMBL4289487

> <chembl_pref_name>
None

> <i_lp_mmshare_version>
53161

> <r_lp_tautomer_probability>
1

> <s_lp_Force_Field>
OPLS_2005

> <r_lp_Energy>
42.121333

> <b_lp_Chiralities_Consistent>
1

> <s_lp_Variant>
CHEMBL4439_lig865-1

> <s_i_glide_gridfile>
glide-grid_3hmm

> <i_i_glide_lignum>
1196

> <i_i_glide_rotatable_bonds>
2

> <r_i_docking_score>
-9.1734639285999

> <r_i_glide_ligand_efficiency>
-0.352825535715381

> <r_i_glide_ligand_efficiency_sa>
-1.04524426125537

> <r_i_glide_ligand_efficiency_ln>
-2.15435790304142

> <r_i_glide_gscore>
-9.1734639285999

> <r_i_glide_lipo>
-4.47477506382349

> <r_i_glide_hbond>
-0.296634744924391

> <r_i_glide_metal>
0

> <r_i_glide_rewards>
-2.13808778290859

> <r_i_glide_evdw>
-45.530647277832

> <r_i_glide_ecoul>
-2.07234668731689

> <r_i_glide_erotb>
0.323418030045699

> <r_i_glide_esite>
0

> <r_i_glide_emodel>
-61.1717146554233

> <r_i_glide_energy>
-47.6029939651489

> <r_i_glide_einternal>
0.240813225507736

> <i_i_glide_confnum>
8

> <i_i_glide_posenum>
283

> <r_i_glide_eff_state_penalty>
0

> <s_user_duplicate_titles>
CHEMBL4439_lig865

> <i_f3d_flags>
0

> <s_m_subgroup_title>
dock_pv

> <s_m_subgroupid>
dock_pv

> <b_m_subgroup_collapsed>
1

$$$$
CHEMBL4439_lig532
                    3D
 Schrodinger Suite 2021-1.
 51 55  0  0  1  0            999 V2000
   14.2659   63.9912    3.6909 C   0  0  0  0  0  0
   12.9718   63.6716    4.1008 C   0  0  0  0  0  0
   12.4591   64.3075    5.2349 C   0  0  0  0  0  0
   13.1797   65.2005    5.9666 N   0  0  0  0  0  0
   14.4456   65.4948    5.5609 C   0  0  0  0  0  0
   15.0145   64.9100    4.4246 C   0  0  0  0  0  0
   15.2317   66.4490    6.4070 C   0  0  0  0  0  0
   17.9869   68.2724    4.5684 C   0  0  0  0  0  0
   16.6655   67.8434    4.7251 C   0  0  0  0  0  0
   15.7873   67.9213    3.6355 C   0  0  0  0  0  0
   16.1878   68.4549    2.4084 C   0  0  0  0  0  0
   18.3697   68.7727    3.3618 N   0  0  0  0  0  0
   17.5171   68.8706    2.2662 C   0  0  0  0  0  0
   18.2162   69.3823    1.2320 N   0  0  0  0  0  0
   19.3926   69.6171    1.7924 C   0  0  0  0  0  0
   19.5757   69.2606    3.0474 N   0  0  0  0  0  0
   16.2006   67.4138    6.0733 C   0  0  0  0  0  0
   15.0338   66.4694    8.1475 S   0  0  0  0  0  0
   16.2400   67.6881    8.2542 C   0  0  0  0  0  0
   16.7237   68.0511    7.1065 N   0  0  0  0  0  0
   11.0476   64.0397    5.7209 C   0  0  0  0  0  0
   16.5791   68.2491    9.4564 N   0  0  0  0  0  0
   17.8203   68.0059   10.1894 C   0  0  0  0  0  0
   19.1376   68.4029    9.5081 C   0  0  0  0  0  0
   19.2174   69.2942    8.4312 C   0  0  0  0  0  0
   20.4542   69.6353    7.8842 C   0  0  0  0  0  0
   21.6278   69.1338    8.4428 C   0  0  0  0  0  0
   21.5815   68.2850    9.5604 C   0  0  0  0  0  0
   20.3232   67.9178   10.0659 C   0  0  0  0  0  0
   22.8690   67.8061   10.1953 C   0  0  0  0  0  0
   22.7908   67.2535   11.4070 N   0  0  0  0  0  0
   23.9507   67.9153    9.6296 O   0  0  0  0  0  0
   14.6832   63.5229    2.8160 H   0  0  0  0  0  0
   12.3803   62.9635    3.5374 H   0  0  0  0  0  0
   16.0139   65.1633    4.1085 H   0  0  0  0  0  0
   18.7324   68.2610    5.3506 H   0  0  0  0  0  0
   14.7589   67.6144    3.7549 H   0  0  0  0  0  0
   15.4922   68.5279    1.5834 H   0  0  0  0  0  0
   20.2009   70.0538    1.2260 H   0  0  0  0  0  0
   10.5599   63.2583    5.1365 H   0  0  0  0  0  0
   11.0538   63.7277    6.7672 H   0  0  0  0  0  0
   10.4503   64.9479    5.6311 H   0  0  0  0  0  0
   15.8265   68.4282   10.1080 H   0  0  0  0  0  0
   17.8624   66.9450   10.4457 H   0  0  0  0  0  0
   17.7610   68.5473   11.1362 H   0  0  0  0  0  0
   18.3318   69.7524    8.0244 H   0  0  0  0  0  0
   20.5053   70.3102    7.0438 H   0  0  0  0  0  0
   22.5748   69.4324    8.0125 H   0  0  0  0  0  0
   20.2462   67.2602   10.9199 H   0  0  0  0  0  0
   23.6414   66.9467   11.8513 H   0  0  0  0  0  0
   21.8973   67.0413   11.8244 H   0  0  0  0  0  0
  1  6  1  0  0  0
  1  2  2  0  0  0
  1 33  1  0  0  0
  2  3  1  0  0  0
  2 34  1  0  0  0
  3 21  1  0  0  0
  3  4  2  0  0  0
  4  5  1  0  0  0
  5  6  2  0  0  0
  5  7  1  0  0  0
  6 35  1  0  0  0
  7 17  2  0  0  0
  7 18  1  0  0  0
  8 12  1  0  0  0
  8  9  2  0  0  0
  8 36  1  0  0  0
  9 17  1  0  0  0
  9 10  1  0  0  0
 10 11  2  0  0  0
 10 37  1  0  0  0
 11 13  1  0  0  0
 11 38  1  0  0  0
 12 16  1  0  0  0
 12 13  1  0  0  0
 13 14  2  0  0  0
 14 15  1  0  0  0
 15 16  2  0  0  0
 15 39  1  0  0  0
 17 20  1  0  0  0
 18 19  1  0  0  0
 19 20  2  0  0  0
 19 22  1  0  0  0
 21 40  1  0  0  0
 21 41  1  0  0  0
 21 42  1  0  0  0
 22 23  1  0  0  0
 22 43  1  0  0  0
 23 24  1  0  0  0
 23 44  1  0  0  0
 23 45  1  0  0  0
 24 25  2  0  0  0
 24 29  1  0  0  0
 25 26  1  0  0  0
 25 46  1  0  0  0
 26 27  2  0  0  0
 26 47  1  0  0  0
 27 28  1  0  0  0
 27 48  1  0  0  0
 28 29  2  0  0  0
 28 30  1  0  0  0
 29 49  1  0  0  0
 30 31  1  0  0  0
 30 32  2  0  0  0
 31 50  1  0  0  0
 31 51  1  0  0  0
M  END
> <s_m_entry_id>
34343

> <s_m_entry_name>
dock_pv.86

> <s_m_Source_Path>
/home/csk/Desktop/cluster/DUD-E-result/tgfr1

> <s_m_Source_File>
dock_pv.maegz

> <i_m_Source_File_Index>
86

> <chembl_id>
CHEMBL2088223

> <chembl_pref_name>
None

> <i_lp_mmshare_version>
53161

> <r_lp_tautomer_probability>
1

> <s_lp_Force_Field>
OPLS_2005

> <r_lp_Energy>
17.323023

> <b_lp_Chiralities_Consistent>
1

> <s_lp_Variant>
CHEMBL4439_lig532-1

> <s_i_glide_gridfile>
glide-grid_3hmm

> <i_i_glide_lignum>
711

> <i_i_glide_rotatable_bonds>
6

> <r_i_docking_score>
-9.16523786194507

> <r_i_glide_ligand_efficiency>
-0.286413683185783

> <r_i_glide_ligand_efficiency_sa>
-0.909306762923926

> <r_i_glide_ligand_efficiency_ln>
-2.05234659223781

> <r_i_glide_gscore>
-9.16523786194507

> <r_i_glide_lipo>
-3.69902258124024

> <r_i_glide_hbond>
-0.290967461772788

> <r_i_glide_metal>
0

> <r_i_glide_rewards>
-2.37944365487389

> <r_i_glide_evdw>
-54.5246734619141

> <r_i_glide_ecoul>
-3.72926783561707

> <r_i_glide_erotb>
0.512377894110644

> <r_i_glide_esite>
-0.0225582097305266

> <r_i_glide_emodel>
-83.5446426251443

> <r_i_glide_energy>
-58.2539412975311

> <r_i_glide_einternal>
10.5902919769287

> <i_i_glide_confnum>
16

> <i_i_glide_posenum>
75

> <r_i_glide_eff_state_penalty>
0

> <s_user_duplicate_titles>
CHEMBL4439_lig532

> <i_f3d_flags>
0

> <s_m_subgroup_title>
dock_pv

> <s_m_subgroupid>
dock_pv

> <b_m_subgroup_collapsed>
1

$$$$
CHEMBL4439_lig774
                    3D
 Schrodinger Suite 2021-1.
 45 48  0  0  1  0            999 V2000
   20.7576   69.6571    1.7442 C   0  0  0  0  0  0
   21.8366   69.7460    2.6113 C   0  0  0  0  0  0
   21.6551   69.5716    3.9751 C   0  0  0  0  0  0
   20.4008   69.2572    4.5204 C   0  0  0  0  0  0
   19.4670   69.3414    2.2338 C   0  0  0  0  0  0
   19.2772   69.0952    3.6338 C   0  0  0  0  0  0
   17.9616   68.6946    4.0464 C   0  0  0  0  0  0
   16.9454   68.6585    3.0864 C   0  0  0  0  0  0
   17.2272   68.9415    1.7605 C   0  0  0  0  0  0
   18.4606   69.2569    1.3224 N   0  0  0  0  0  0
   20.2021   69.1149    5.8869 O   0  0  0  0  0  0
   21.2721   69.3592    6.7969 C   0  0  0  0  0  0
   17.6767   68.3897    5.3898 N   0  0  0  0  0  0
   16.6501   67.6577    6.0116 C   0  0  0  0  0  0
   16.3660   67.8349    7.3784 C   0  0  0  0  0  0
   15.3248   67.0882    7.9385 C   0  0  0  0  0  0
   14.5824   66.1985    7.2313 N   0  0  0  0  0  0
   14.8781   66.0050    5.9147 C   0  0  0  0  0  0
   15.9085   66.7147    5.2931 C   0  0  0  0  0  0
   14.0314   65.0391    5.1528 C   0  0  0  0  0  0
   12.6937   64.8082    5.5117 C   0  0  0  0  0  0
   11.9017   63.9243    4.7810 C   0  0  0  0  0  0
   12.4294   63.2562    3.6822 C   0  0  0  0  0  0
   13.7535   63.4637    3.3143 C   0  0  0  0  0  0
   14.5438   64.3534    4.0358 C   0  0  0  0  0  0
   10.2649   63.6570    5.2319 Cl  0  0  0  0  0  0
   17.1483   68.8027    8.2614 C   0  0  0  0  0  0
   20.8967   69.8354    0.6865 H   0  0  0  0  0  0
   22.8182   69.9840    2.2275 H   0  0  0  0  0  0
   22.5260   69.6782    4.6064 H   0  0  0  0  0  0
   15.9220   68.4525    3.3560 H   0  0  0  0  0  0
   16.4425   68.9186    1.0175 H   0  0  0  0  0  0
   20.9021   69.2620    7.8166 H   0  0  0  0  0  0
   22.0780   68.6369    6.6724 H   0  0  0  0  0  0
   21.6733   70.3687    6.6913 H   0  0  0  0  0  0
   18.4110   68.7026    6.0158 H   0  0  0  0  0  0
   15.0627   67.2046    8.9806 H   0  0  0  0  0  0
   16.1351   66.5233    4.2582 H   0  0  0  0  0  0
   12.2541   65.3220    6.3540 H   0  0  0  0  0  0
   11.8150   62.5770    3.1111 H   0  0  0  0  0  0
   14.1594   62.9451    2.4578 H   0  0  0  0  0  0
   15.5703   64.4870    3.7241 H   0  0  0  0  0  0
   16.8874   69.8361    8.0320 H   0  0  0  0  0  0
   16.9713   68.6264    9.3227 H   0  0  0  0  0  0
   18.2205   68.6864    8.0983 H   0  0  0  0  0  0
  1  2  2  0  0  0
  1  5  1  0  0  0
  1 28  1  0  0  0
  2  3  1  0  0  0
  2 29  1  0  0  0
  3  4  2  0  0  0
  3 30  1  0  0  0
  4  6  1  0  0  0
  4 11  1  0  0  0
  5  6  1  0  0  0
  5 10  2  0  0  0
  6  7  2  0  0  0
  7  8  1  0  0  0
  7 13  1  0  0  0
  8  9  2  0  0  0
  8 31  1  0  0  0
  9 10  1  0  0  0
  9 32  1  0  0  0
 11 12  1  0  0  0
 12 33  1  0  0  0
 12 34  1  0  0  0
 12 35  1  0  0  0
 13 14  1  0  0  0
 13 36  1  0  0  0
 14 15  2  0  0  0
 14 19  1  0  0  0
 15 16  1  0  0  0
 15 27  1  0  0  0
 16 17  2  0  0  0
 16 37  1  0  0  0
 17 18  1  0  0  0
 18 19  2  0  0  0
 18 20  1  0  0  0
 19 38  1  0  0  0
 20 21  2  0  0  0
 20 25  1  0  0  0
 21 22  1  0  0  0
 21 39  1  0  0  0
 22 23  2  0  0  0
 22 26  1  0  0  0
 23 24  1  0  0  0
 23 40  1  0  0  0
 24 25  2  0  0  0
 24 41  1  0  0  0
 25 42  1  0  0  0
 27 43  1  0  0  0
 27 44  1  0  0  0
 27 45  1  0  0  0
M  END
> <s_m_entry_id>
34345

> <s_m_entry_name>
dock_pv.88

> <s_m_Source_Path>
/home/csk/Desktop/cluster/DUD-E-result/tgfr1

> <s_m_Source_File>
dock_pv.maegz

> <i_m_Source_File_Index>
88

> <chembl_id>
CHEMBL4078651

> <chembl_pref_name>
None

> <i_lp_mmshare_version>
53161

> <r_lp_tautomer_probability>
0.999999106000799

> <s_lp_Force_Field>
OPLS_2005

> <r_lp_Energy>
31.567068

> <b_lp_Chiralities_Consistent>
1

> <s_lp_Variant>
CHEMBL4439_lig774-1

> <s_i_glide_gridfile>
glide-grid_3hmm

> <i_i_glide_lignum>
1088

> <i_i_glide_rotatable_bonds>
4

> <r_i_docking_score>
-9.15765929932097

> <r_i_glide_ligand_efficiency>
-0.339172566641518

> <r_i_glide_ligand_efficiency_sa>
-1.0175176988067

> <r_i_glide_ligand_efficiency_ln>
-2.13175210906897

> <r_i_glide_gscore>
-9.15765929932097

> <r_i_glide_lipo>
-4.7467759474353

> <r_i_glide_hbond>
-0.0643314096533694

> <r_i_glide_metal>
0

> <r_i_glide_rewards>
-2.05615669738228

> <r_i_glide_evdw>
-48.599967956543

> <r_i_glide_ecoul>
-1.80905878543854

> <r_i_glide_erotb>
0.410961970792901

> <r_i_glide_esite>
0

> <r_i_glide_emodel>
-75.0676991788736

> <r_i_glide_energy>
-50.4090267419815

> <r_i_glide_einternal>
6.25363206863403

> <i_i_glide_confnum>
13

> <i_i_glide_posenum>
237

> <r_i_glide_eff_state_penalty>
0

> <s_user_duplicate_titles>
CHEMBL4439_lig774

> <i_f3d_flags>
0

> <s_m_subgroup_title>
dock_pv

> <s_m_subgroupid>
dock_pv

> <b_m_subgroup_collapsed>
1

$$$$
CHEMBL4439_lig820
                    3D
 Schrodinger Suite 2021-1.
 36 39  0  0  1  0            999 V2000
   16.9873   67.6902    6.3563 C   0  0  0  0  0  0
   15.0923   66.4651    8.0652 N   0  0  0  0  0  0
   15.0521   66.4139    6.7032 C   0  0  0  0  0  0
   15.9421   66.9885    5.8518 N   0  0  0  0  0  0
   16.1274   67.1459    8.5724 C   0  0  0  0  0  0
   17.0999   67.7728    7.7492 C   0  0  0  0  0  0
   17.9654   68.3602    8.6485 N   0  0  0  0  0  0
   17.4886   68.0604    9.9047 C   0  0  0  0  0  0
   16.3995   67.3326    9.9020 N   0  0  0  0  0  0
   13.9396   65.6406    6.0848 C   0  0  0  0  0  0
   14.2654   64.8743    5.0047 N   0  0  0  0  0  0
   13.3032   64.1088    4.4325 C   0  0  0  0  0  0
   11.9908   64.0680    4.9028 C   0  0  0  0  0  0
   11.6650   64.8549    6.0073 C   0  0  0  0  0  0
   12.6389   65.6569    6.6034 C   0  0  0  0  0  0
   17.9020   68.2934    5.4769 N   0  0  0  0  0  0
   17.8578   68.5983    4.1009 C   0  0  0  0  0  0
   19.0172   69.1008    3.4898 C   0  0  0  0  0  0
   18.9790   69.4300    2.1341 C   0  0  0  0  0  0
   17.8668   69.3011    1.3698 N   0  0  0  0  0  0
   16.7441   68.8413    1.9713 C   0  0  0  0  0  0
   16.7038   68.4570    3.3112 C   0  0  0  0  0  0
   13.7444   63.3038    3.2310 C   0  0  0  0  0  0
   20.1609   69.2761    4.1943 F   0  0  0  0  0  0
   18.0077   68.4333   10.7791 H   0  0  0  0  0  0
   18.7905   68.9202    8.4820 H   0  0  0  0  0  0
   11.2457   63.4486    4.4272 H   0  0  0  0  0  0
   10.6670   64.8362    6.4080 H   0  0  0  0  0  0
   12.3885   66.2584    7.4649 H   0  0  0  0  0  0
   18.7425   68.6260    5.9266 H   0  0  0  0  0  0
   19.8559   69.8209    1.6367 H   0  0  0  0  0  0
   15.8622   68.7663    1.3494 H   0  0  0  0  0  0
   15.7698   68.1019    3.7122 H   0  0  0  0  0  0
   13.0409   62.5075    2.9814 H   0  0  0  0  0  0
   14.7113   62.8571    3.4305 H   0  0  0  0  0  0
   13.8665   63.9574    2.3704 H   0  0  0  0  0  0
  1  4  1  0  0  0
  1 16  1  0  0  0
  1  6  2  0  0  0
  2  5  2  0  0  0
  2  3  1  0  0  0
  3 10  1  0  0  0
  3  4  2  0  0  0
  5  9  1  0  0  0
  5  6  1  0  0  0
  6  7  1  0  0  0
  7 26  1  0  0  0
  7  8  1  0  0  0
  8 25  1  0  0  0
  8  9  2  0  0  0
 10 11  2  0  0  0
 10 15  1  0  0  0
 11 12  1  0  0  0
 12 13  2  0  0  0
 12 23  1  0  0  0
 13 14  1  0  0  0
 13 27  1  0  0  0
 14 15  2  0  0  0
 14 28  1  0  0  0
 15 29  1  0  0  0
 16 17  1  0  0  0
 16 30  1  0  0  0
 17 18  2  0  0  0
 17 22  1  0  0  0
 18 19  1  0  0  0
 18 24  1  0  0  0
 19 20  2  0  0  0
 19 31  1  0  0  0
 20 21  1  0  0  0
 21 22  2  0  0  0
 21 32  1  0  0  0
 22 33  1  0  0  0
 23 34  1  0  0  0
 23 35  1  0  0  0
 23 36  1  0  0  0
M  END
> <s_m_entry_id>
34346

> <s_m_entry_name>
dock_pv.89

> <s_m_Source_Path>
/home/csk/Desktop/cluster/DUD-E-result/tgfr1

> <s_m_Source_File>
dock_pv.maegz

> <i_m_Source_File_Index>
89

> <chembl_id>
CHEMBL4209835

> <chembl_pref_name>
None

> <i_lp_mmshare_version>
53161

> <r_lp_tautomer_probability>
0.0419191630341297

> <s_lp_Force_Field>
OPLS_2005

> <r_lp_Energy>
18.316341

> <b_lp_Chiralities_Consistent>
1

> <s_lp_Variant>
CHEMBL4439_lig820-2

> <s_i_glide_gridfile>
glide-grid_3hmm

> <i_i_glide_lignum>
1138

> <i_i_glide_rotatable_bonds>
3

> <r_i_docking_score>
-9.13954277938952

> <r_i_glide_ligand_efficiency>
-0.380814282474563

> <r_i_glide_ligand_efficiency_sa>
-1.09845846936807

> <r_i_glide_ligand_efficiency_ln>
-2.18751197339848

> <r_i_glide_gscore>
-9.13954277938952

> <r_i_glide_lipo>
-3.17358093636278

> <r_i_glide_hbond>
-0.242068140263611

> <r_i_glide_metal>
0

> <r_i_glide_rewards>
-3.25756513096889

> <r_i_glide_evdw>
-47.8492851257324

> <r_i_glide_ecoul>
-4.11207246780396

> <r_i_glide_erotb>
0.542946554662983

> <r_i_glide_esite>
0

> <r_i_glide_emodel>
-79.6453331592946

> <r_i_glide_energy>
-51.9613575935364

> <r_i_glide_einternal>
1.9512779712677

> <i_i_glide_confnum>
4

> <i_i_glide_posenum>
82

> <r_i_glide_eff_state_penalty>
0

> <s_user_duplicate_titles>
CHEMBL4439_lig820,CHEMBL4439_lig820

> <i_f3d_flags>
0

> <s_m_subgroup_title>
dock_pv

> <s_m_subgroupid>
dock_pv

> <b_m_subgroup_collapsed>
1

$$$$
CHEMBL4439_lig944 
                    3D
 Schrodinger Suite 2021-1.
 36 39  0  0  1  0            999 V2000
   16.0562   66.7757    5.6794 C   0  0  0  0  0  0
   15.0990   66.2166    6.5247 C   0  0  0  0  0  0
   15.0955   66.4159    7.8754 N   0  0  0  0  0  0
   17.0206   67.6573    6.1694 C   0  0  0  0  0  0
   17.0467   67.8785    7.5589 C   0  0  0  0  0  0
   16.0579   67.2179    8.3423 C   0  0  0  0  0  0
   16.2672   67.5708    9.6591 N   0  0  0  0  0  0
   17.3310   68.4368    9.7358 C   0  0  0  0  0  0
   17.8402   68.6545    8.4703 C   0  0  0  0  0  0
   17.9456   68.2941    5.3287 N   0  0  0  0  0  0
   17.9080   68.5839    3.9559 C   0  0  0  0  0  0
   19.0865   69.0221    3.3495 C   0  0  0  0  0  0
   19.0668   69.3400    1.9912 C   0  0  0  0  0  0
   17.9478   69.2572    1.2317 N   0  0  0  0  0  0
   16.8031   68.8571    1.8304 C   0  0  0  0  0  0
   16.7418   68.5119    3.1779 C   0  0  0  0  0  0
   13.9837   65.4105    5.9468 C   0  0  0  0  0  0
   14.2109   64.5613    4.8490 C   0  0  0  0  0  0
   13.1725   63.8309    4.2725 C   0  0  0  0  0  0
   11.8896   63.9115    4.8010 C   0  0  0  0  0  0
   11.6484   64.7527    5.8813 C   0  0  0  0  0  0
   12.6700   65.5184    6.4322 C   0  0  0  0  0  0
   12.3619   66.3713    7.4374 F   0  0  0  0  0  0
   13.4671   62.8570    2.8829 Cl  0  0  0  0  0  0
   16.0369   66.5236    4.6336 H   0  0  0  0  0  0
   15.7378   67.2800   10.4686 H   0  0  0  0  0  0
   17.6373   68.8395   10.6922 H   0  0  0  0  0  0
   18.6740   69.3022    8.2401 H   0  0  0  0  0  0
   18.7774   68.6177    5.7984 H   0  0  0  0  0  0
   20.0052   69.1083    3.9109 H   0  0  0  0  0  0
   19.9605   69.6808    1.4874 H   0  0  0  0  0  0
   15.9132   68.8427    1.2163 H   0  0  0  0  0  0
   15.7790   68.2715    3.5960 H   0  0  0  0  0  0
   15.1997   64.4640    4.4265 H   0  0  0  0  0  0
   11.0822   63.3441    4.3621 H   0  0  0  0  0  0
   10.6668   64.8313    6.3021 H   0  0  0  0  0  0
  1  2  2  0  0  0
  1  4  1  0  0  0
  1 25  1  0  0  0
  2  3  1  0  0  0
  2 17  1  0  0  0
  3  6  2  0  0  0
  4  5  2  0  0  0
  4 10  1  0  0  0
  5  6  1  0  0  0
  5  9  1  0  0  0
  6  7  1  0  0  0
  7  8  1  0  0  0
  7 26  1  0  0  0
  8  9  2  0  0  0
  8 27  1  0  0  0
  9 28  1  0  0  0
 10 11  1  0  0  0
 10 29  1  0  0  0
 11 12  2  0  0  0
 11 16  1  0  0  0
 12 13  1  0  0  0
 12 30  1  0  0  0
 13 14  2  0  0  0
 13 31  1  0  0  0
 14 15  1  0  0  0
 15 16  2  0  0  0
 15 32  1  0  0  0
 16 33  1  0  0  0
 17 18  2  0  0  0
 17 22  1  0  0  0
 18 19  1  0  0  0
 18 34  1  0  0  0
 19 20  2  0  0  0
 19 24  1  0  0  0
 20 21  1  0  0  0
 20 35  1  0  0  0
 21 22  2  0  0  0
 21 36  1  0  0  0
 22 23  1  0  0  0
M  END
> <s_m_entry_id>
34347

> <s_m_entry_name>
dock_pv.90

> <s_m_Source_Path>
/home/csk/Desktop/cluster/DUD-E-result/tgfr1

> <s_m_Source_File>
dock_pv.maegz

> <i_m_Source_File_Index>
90

> <chembl_id>
CHEMBL4447510

> <chembl_pref_name>
None

> <i_lp_mmshare_version>
53161

> <r_lp_tautomer_probability>
0.999999106000799

> <s_lp_Force_Field>
OPLS_2005

> <r_lp_Energy>
19.852298

> <b_lp_Chiralities_Consistent>
1

> <s_lp_Variant>
CHEMBL4439_lig944 -1

> <s_i_glide_gridfile>
glide-grid_3hmm

> <i_i_glide_lignum>
1279

> <i_i_glide_rotatable_bonds>
3

> <r_i_docking_score>
-9.13929767466539

> <r_i_glide_ligand_efficiency>
-0.380804069777724

> <r_i_glide_ligand_efficiency_sa>
-1.09842901085285

> <r_i_glide_ligand_efficiency_ln>
-2.18745330859087

> <r_i_glide_gscore>
-9.13929767466539

> <r_i_glide_lipo>
-4.00327682988243

> <r_i_glide_hbond>
-0.289422474779185

> <r_i_glide_metal>
0

> <r_i_glide_rewards>
-2.54395774578556

> <r_i_glide_evdw>
-47.2450828552246

> <r_i_glide_ecoul>
-2.79010796546936

> <r_i_glide_erotb>
0.494487194270998

> <r_i_glide_esite>
-0.0163574809075779

> <r_i_glide_emodel>
-76.5489499627705

> <r_i_glide_energy>
-50.035190820694

> <r_i_glide_einternal>
3.41323280334473

> <i_i_glide_confnum>
19

> <i_i_glide_posenum>
309

> <r_i_glide_eff_state_penalty>
0

> <s_user_duplicate_titles>
CHEMBL4439_lig944 

> <i_f3d_flags>
0

> <s_m_subgroup_title>
dock_pv

> <s_m_subgroupid>
dock_pv

> <b_m_subgroup_collapsed>
1

$$$$
CHEMBL4439_lig604
                    3D
 Schrodinger Suite 2021-1.
 47 51  0  0  1  0            999 V2000
   17.9623   68.8953    1.8037 N   0  0  0  0  0  0
   19.2465   69.2794    1.9823 C   0  0  0  0  0  0
   19.8696   69.2570    3.2324 C   0  0  0  0  0  0
   19.2389   68.7881    4.3363 N   0  0  0  0  0  0
   17.9500   68.3751    4.1798 C   0  0  0  0  0  0
   17.2354   67.8718    5.2888 C   0  0  0  0  0  0
   15.9003   67.4918    5.1551 C   0  0  0  0  0  0
   15.2878   67.5835    3.9068 C   0  0  0  0  0  0
   15.9604   68.0571    2.7926 C   0  0  0  0  0  0
   17.3037   68.4507    2.9069 C   0  0  0  0  0  0
   14.1282   66.0990    6.4061 N   0  0  0  0  0  0
   13.6045   66.0583    7.6318 N   0  0  0  0  0  0
   14.3039   66.9331    8.4210 N   0  0  0  0  0  0
   15.1805   67.5618    7.6687 C   0  0  0  0  0  0
   15.1240   67.0670    6.3574 C   0  0  0  0  0  0
   13.6460   65.1851    5.4352 C   0  0  0  0  0  0
   14.5161   64.5928    4.5140 C   0  0  0  0  0  0
   14.0035   63.6514    3.6243 C   0  0  0  0  0  0
   12.6567   63.2890    3.6840 C   0  0  0  0  0  0
   11.8431   63.9354    4.6176 C   0  0  0  0  0  0
   12.3192   64.8645    5.4837 N   0  0  0  0  0  0
   10.3562   63.6569    4.7115 C   0  0  0  0  0  0
   16.0036   68.6960    8.2557 C   0  0  0  0  0  0
   17.0548   68.2811    9.2792 C   0  0  0  0  0  0
   16.6657   67.8598   10.5529 C   0  0  0  0  0  0
   17.6236   67.5575   11.5142 C   0  0  0  0  0  0
   18.9747   67.6609   11.1940 C   0  0  0  0  0  0
   19.3752   68.0587    9.9216 C   0  0  0  0  0  0
   18.4146   68.3805    8.9666 C   0  0  0  0  0  0
   19.7681   69.6493    1.1104 H   0  0  0  0  0  0
   20.8924   69.5843    3.3544 H   0  0  0  0  0  0
   17.7394   67.7920    6.2380 H   0  0  0  0  0  0
   14.2670   67.2869    3.7876 H   0  0  0  0  0  0
   15.4594   68.1335    1.8372 H   0  0  0  0  0  0
   15.5661   64.8415    4.4883 H   0  0  0  0  0  0
   14.6516   63.1938    2.8927 H   0  0  0  0  0  0
   12.2548   62.5603    2.9958 H   0  0  0  0  0  0
    9.9905   63.1472    3.8198 H   0  0  0  0  0  0
   10.1418   63.0400    5.5847 H   0  0  0  0  0  0
    9.7968   64.5883    4.8107 H   0  0  0  0  0  0
   15.3299   69.4010    8.7453 H   0  0  0  0  0  0
   16.4810   69.2596    7.4627 H   0  0  0  0  0  0
   15.6205   67.7889   10.8114 H   0  0  0  0  0  0
   17.3170   67.2418   12.5004 H   0  0  0  0  0  0
   19.7210   67.4157   11.9355 H   0  0  0  0  0  0
   20.4255   68.1380    9.6832 H   0  0  0  0  0  0
   18.7368   68.7270    7.9963 H   0  0  0  0  0  0
  1  2  2  0  0  0
  1 10  1  0  0  0
  2  3  1  0  0  0
  2 30  1  0  0  0
  3  4  2  0  0  0
  3 31  1  0  0  0
  4  5  1  0  0  0
  5  6  2  0  0  0
  5 10  1  0  0  0
  6  7  1  0  0  0
  6 32  1  0  0  0
  7  8  2  0  0  0
  7 15  1  0  0  0
  8  9  1  0  0  0
  8 33  1  0  0  0
  9 10  2  0  0  0
  9 34  1  0  0  0
 11 12  1  0  0  0
 11 15  1  0  0  0
 11 16  1  0  0  0
 12 13  2  0  0  0
 13 14  1  0  0  0
 14 15  2  0  0  0
 14 23  1  0  0  0
 16 17  1  0  0  0
 16 21  2  0  0  0
 17 18  2  0  0  0
 17 35  1  0  0  0
 18 19  1  0  0  0
 18 36  1  0  0  0
 19 20  2  0  0  0
 19 37  1  0  0  0
 20 21  1  0  0  0
 20 22  1  0  0  0
 22 38  1  0  0  0
 22 39  1  0  0  0
 22 40  1  0  0  0
 23 24  1  0  0  0
 23 41  1  0  0  0
 23 42  1  0  0  0
 24 25  2  0  0  0
 24 29  1  0  0  0
 25 26  1  0  0  0
 25 43  1  0  0  0
 26 27  2  0  0  0
 26 44  1  0  0  0
 27 28  1  0  0  0
 27 45  1  0  0  0
 28 29  2  0  0  0
 28 46  1  0  0  0
 29 47  1  0  0  0
M  END
> <s_m_entry_id>
34348

> <s_m_entry_name>
dock_pv.91

> <s_m_Source_Path>
/home/csk/Desktop/cluster/DUD-E-result/tgfr1

> <s_m_Source_File>
dock_pv.maegz

> <i_m_Source_File_Index>
91

> <chembl_id>
CHEMBL2325040

> <chembl_pref_name>
None

> <i_lp_mmshare_version>
53161

> <r_lp_tautomer_probability>
1

> <s_lp_Force_Field>
OPLS_2005

> <r_lp_Energy>
25.438363

> <b_lp_Chiralities_Consistent>
1

> <s_lp_Variant>
CHEMBL4439_lig604-1

> <s_i_glide_gridfile>
glide-grid_3hmm

> <i_i_glide_lignum>
820

> <i_i_glide_rotatable_bonds>
4

> <r_i_docking_score>
-9.13702669047077

> <r_i_glide_ligand_efficiency>
-0.315069885878303

> <r_i_glide_ligand_efficiency_sa>
-0.967994510564321

> <r_i_glide_ligand_efficiency_ln>
-2.09214741711213

> <r_i_glide_gscore>
-9.13702669047077

> <r_i_glide_lipo>
-5.04170561302254

> <r_i_glide_hbond>
0

> <r_i_glide_metal>
0

> <r_i_glide_rewards>
-1.67306977094605

> <r_i_glide_evdw>
-51.4441833496094

> <r_i_glide_ecoul>
-2.17328834533691

> <r_i_glide_erotb>
0.541282164131812

> <r_i_glide_esite>
-0.0653310513529865

> <r_i_glide_emodel>
-82.7386919026193

> <r_i_glide_energy>
-53.6174716949463

> <r_i_glide_einternal>
1.56319010257721

> <i_i_glide_confnum>
25

> <i_i_glide_posenum>
140

> <r_i_glide_eff_state_penalty>
0

> <s_user_duplicate_titles>
CHEMBL4439_lig604

> <i_f3d_flags>
0

> <s_m_subgroup_title>
dock_pv

> <s_m_subgroupid>
dock_pv

> <b_m_subgroup_collapsed>
1

$$$$
CHEMBL4439_lig775
                    3D
 Schrodinger Suite 2021-1.
 42 45  0  0  1  0            999 V2000
   20.4670   69.6570    1.8603 C   0  0  0  0  0  0
   21.5314   69.6570    2.7496 C   0  0  0  0  0  0
   21.3368   69.3106    4.0779 C   0  0  0  0  0  0
   20.0769   68.9349    4.5667 C   0  0  0  0  0  0
   19.1785   69.2570    2.2854 C   0  0  0  0  0  0
   18.9668   68.8692    3.6497 C   0  0  0  0  0  0
   17.6408   68.4394    4.0031 C   0  0  0  0  0  0
   16.6485   68.4570    3.0180 C   0  0  0  0  0  0
   16.9567   68.8587    1.7286 C   0  0  0  0  0  0
   18.1905   69.2478    1.3500 N   0  0  0  0  0  0
   19.8638   68.6306    5.9028 O   0  0  0  0  0  0
   20.9191   68.7700    6.8498 C   0  0  0  0  0  0
   17.3274   68.0710    5.3228 N   0  0  0  0  0  0
   16.2558   67.3878    5.9057 C   0  0  0  0  0  0
   15.9904   67.5953    7.2588 C   0  0  0  0  0  0
   14.9157   66.9248    7.8380 C   0  0  0  0  0  0
   14.1336   66.0570    7.1486 N   0  0  0  0  0  0
   14.4184   65.8181    5.8358 C   0  0  0  0  0  0
   15.4670   66.4842    5.1927 C   0  0  0  0  0  0
   13.5342   64.8570    5.1049 C   0  0  0  0  0  0
   14.0130   64.0729    4.0320 C   0  0  0  0  0  0
   13.1527   63.2570    3.3067 C   0  0  0  0  0  0
   11.8133   63.1720    3.6571 C   0  0  0  0  0  0
   11.3329   63.8717    4.7546 C   0  0  0  0  0  0
   12.1798   64.7231    5.4619 C   0  0  0  0  0  0
    9.6940   63.6570    5.2320 Cl  0  0  0  0  0  0
   15.3189   64.0659    3.6799 F   0  0  0  0  0  0
   20.6246   69.9510    0.8320 H   0  0  0  0  0  0
   22.5157   69.9488    2.4120 H   0  0  0  0  0  0
   22.1994   69.3420    4.7268 H   0  0  0  0  0  0
   15.6225   68.2128    3.2414 H   0  0  0  0  0  0
   16.1867   68.8881    0.9696 H   0  0  0  0  0  0
   20.5316   68.5675    7.8480 H   0  0  0  0  0  0
   21.3275   69.7820    6.8569 H   0  0  0  0  0  0
   21.7221   68.0583    6.6632 H   0  0  0  0  0  0
   18.0693   68.3255    5.9661 H   0  0  0  0  0  0
   16.5872   68.2803    7.8435 H   0  0  0  0  0  0
   14.6670   67.0860    8.8752 H   0  0  0  0  0  0
   15.6793   66.2904    4.1553 H   0  0  0  0  0  0
   13.5246   62.6848    2.4695 H   0  0  0  0  0  0
   11.1522   62.5295    3.0958 H   0  0  0  0  0  0
   11.7717   65.2845    6.2909 H   0  0  0  0  0  0
  1  2  2  0  0  0
  1  5  1  0  0  0
  1 28  1  0  0  0
  2  3  1  0  0  0
  2 29  1  0  0  0
  3  4  2  0  0  0
  3 30  1  0  0  0
  4  6  1  0  0  0
  4 11  1  0  0  0
  5  6  1  0  0  0
  5 10  2  0  0  0
  6  7  2  0  0  0
  7  8  1  0  0  0
  7 13  1  0  0  0
  8  9  2  0  0  0
  8 31  1  0  0  0
  9 10  1  0  0  0
  9 32  1  0  0  0
 11 12  1  0  0  0
 12 33  1  0  0  0
 12 34  1  0  0  0
 12 35  1  0  0  0
 13 14  1  0  0  0
 13 36  1  0  0  0
 14 15  2  0  0  0
 14 19  1  0  0  0
 15 16  1  0  0  0
 15 37  1  0  0  0
 16 17  2  0  0  0
 16 38  1  0  0  0
 17 18  1  0  0  0
 18 19  2  0  0  0
 18 20  1  0  0  0
 19 39  1  0  0  0
 20 21  2  0  0  0
 20 25  1  0  0  0
 21 22  1  0  0  0
 21 27  1  0  0  0
 22 23  2  0  0  0
 22 40  1  0  0  0
 23 24  1  0  0  0
 23 41  1  0  0  0
 24 25  2  0  0  0
 24 26  1  0  0  0
 25 42  1  0  0  0
M  END
> <s_m_entry_id>
34349

> <s_m_entry_name>
dock_pv.92

> <s_m_Source_Path>
/home/csk/Desktop/cluster/DUD-E-result/tgfr1

> <s_m_Source_File>
dock_pv.maegz

> <i_m_Source_File_Index>
92

> <chembl_id>
CHEMBL4077722

> <chembl_pref_name>
None

> <i_lp_mmshare_version>
53161

> <r_lp_tautomer_probability>
0.999999106000799

> <s_lp_Force_Field>
OPLS_2005

> <r_lp_Energy>
33.141741

> <b_lp_Chiralities_Consistent>
1

> <s_lp_Variant>
CHEMBL4439_lig775-1

> <s_i_glide_gridfile>
glide-grid_3hmm

> <i_i_glide_lignum>
1089

> <i_i_glide_rotatable_bonds>
4

> <r_i_docking_score>
-9.13523019000428

> <r_i_glide_ligand_efficiency>
-0.338341858889047

> <r_i_glide_ligand_efficiency_sa>
-1.01502557555202

> <r_i_glide_ligand_efficiency_ln>
-2.12653098219281

> <r_i_glide_gscore>
-9.13523019000428

> <r_i_glide_lipo>
-4.5629255576474

> <r_i_glide_hbond>
-0.141640607377029

> <r_i_glide_metal>
0

> <r_i_glide_rewards>
-1.93464527405486

> <r_i_glide_evdw>
-49.0152435302734

> <r_i_glide_ecoul>
-2.99046635627747

> <r_i_glide_erotb>
0.4033133790303

> <r_i_glide_esite>
0

> <r_i_glide_emodel>
-76.3341898150819

> <r_i_glide_energy>
-52.0057098865509

> <r_i_glide_einternal>
8.34443855285645

> <i_i_glide_confnum>
22

> <i_i_glide_posenum>
239

> <r_i_glide_eff_state_penalty>
0

> <s_user_duplicate_titles>
CHEMBL4439_lig775

> <i_f3d_flags>
0

> <s_m_subgroup_title>
dock_pv

> <s_m_subgroupid>
dock_pv

> <b_m_subgroup_collapsed>
1

$$$$
CHEMBL4439_lig534
                    3D
 Schrodinger Suite 2021-1.
 47 51  0  0  1  0            999 V2000
   11.7983   65.3928    6.1695 C   0  0  0  0  0  0
   12.0974   64.5148    5.1297 C   0  0  0  0  0  0
   13.4378   64.3221    4.7914 C   0  0  0  0  0  0
   14.4588   64.9332    5.4500 N   0  0  0  0  0  0
   14.1481   65.7938    6.4588 C   0  0  0  0  0  0
   12.8287   66.0537    6.8394 C   0  0  0  0  0  0
   15.2973   66.5122    7.0784 C   0  0  0  0  0  0
   17.8171   68.1006    4.6464 C   0  0  0  0  0  0
   16.5653   67.6353    5.0717 C   0  0  0  0  0  0
   15.5092   67.6308    4.1486 C   0  0  0  0  0  0
   15.6735   68.0570    2.8291 C   0  0  0  0  0  0
   17.9607   68.5365    3.3636 N   0  0  0  0  0  0
   16.9354   68.5154    2.4216 C   0  0  0  0  0  0
   17.4235   68.9836    1.2455 N   0  0  0  0  0  0
   18.6743   69.2573    1.5692 C   0  0  0  0  0  0
   19.0672   69.0570    2.8119 N   0  0  0  0  0  0
   16.3602   67.2381    6.5076 C   0  0  0  0  0  0
   15.4672   66.5569    8.8210 S   0  0  0  0  0  0
   16.9269   67.4487    8.6317 C   0  0  0  0  0  0
   17.2493   67.6578    7.3887 N   0  0  0  0  0  0
   13.8244   63.4436    3.6192 C   0  0  0  0  0  0
   17.5882   67.9414    9.7338 N   0  0  0  0  0  0
   19.0257   68.1494    9.9483 C   0  0  0  0  0  0
   19.8457   68.7395    8.7943 C   0  0  0  0  0  0
   19.3152   69.6546    7.8764 C   0  0  0  0  0  0
   20.0718   70.0573    6.7799 C   0  0  0  0  0  0
   21.4031   69.6702    6.6733 C   0  0  0  0  0  0
   21.9749   68.8570    7.6447 C   0  0  0  0  0  0
   21.1934   68.3803    8.6951 C   0  0  0  0  0  0
   10.7694   65.5841    6.4315 H   0  0  0  0  0  0
   11.3065   64.0209    4.5849 H   0  0  0  0  0  0
   12.6049   66.7570    7.6269 H   0  0  0  0  0  0
   18.6934   68.1615    5.2756 H   0  0  0  0  0  0
   14.5205   67.3277    4.4496 H   0  0  0  0  0  0
   14.8457   68.0505    2.1346 H   0  0  0  0  0  0
   19.3616   69.6558    0.8347 H   0  0  0  0  0  0
   13.0260   62.7508    3.3543 H   0  0  0  0  0  0
   14.0432   64.0575    2.7452 H   0  0  0  0  0  0
   14.7085   62.8571    3.8508 H   0  0  0  0  0  0
   17.0956   67.9472   10.6144 H   0  0  0  0  0  0
   19.4509   67.1835   10.2243 H   0  0  0  0  0  0
   19.1472   68.7979   10.8167 H   0  0  0  0  0  0
   18.2950   69.9968    7.9723 H   0  0  0  0  0  0
   19.6356   70.7056    6.0341 H   0  0  0  0  0  0
   22.0034   70.0068    5.8403 H   0  0  0  0  0  0
   23.0129   68.5696    7.5605 H   0  0  0  0  0  0
   21.6357   67.7157    9.4226 H   0  0  0  0  0  0
  1  6  1  0  0  0
  1  2  2  0  0  0
  1 30  1  0  0  0
  2  3  1  0  0  0
  2 31  1  0  0  0
  3  4  2  0  0  0
  3 21  1  0  0  0
  4  5  1  0  0  0
  5  6  2  0  0  0
  5  7  1  0  0  0
  6 32  1  0  0  0
  7 17  2  0  0  0
  7 18  1  0  0  0
  8 12  1  0  0  0
  8  9  2  0  0  0
  8 33  1  0  0  0
  9 17  1  0  0  0
  9 10  1  0  0  0
 10 11  2  0  0  0
 10 34  1  0  0  0
 11 13  1  0  0  0
 11 35  1  0  0  0
 12 16  1  0  0  0
 12 13  1  0  0  0
 13 14  2  0  0  0
 14 15  1  0  0  0
 15 16  2  0  0  0
 15 36  1  0  0  0
 17 20  1  0  0  0
 18 19  1  0  0  0
 19 20  2  0  0  0
 19 22  1  0  0  0
 21 37  1  0  0  0
 21 38  1  0  0  0
 21 39  1  0  0  0
 22 23  1  0  0  0
 22 40  1  0  0  0
 23 24  1  0  0  0
 23 41  1  0  0  0
 23 42  1  0  0  0
 24 25  2  0  0  0
 24 29  1  0  0  0
 25 26  1  0  0  0
 25 43  1  0  0  0
 26 27  2  0  0  0
 26 44  1  0  0  0
 27 28  1  0  0  0
 27 45  1  0  0  0
 28 29  2  0  0  0
 28 46  1  0  0  0
 29 47  1  0  0  0
M  END
> <s_m_entry_id>
34350

> <s_m_entry_name>
dock_pv.93

> <s_m_Source_Path>
/home/csk/Desktop/cluster/DUD-E-result/tgfr1

> <s_m_Source_File>
dock_pv.maegz

> <i_m_Source_File_Index>
93

> <chembl_id>
CHEMBL2088221

> <chembl_pref_name>
None

> <i_lp_mmshare_version>
53161

> <r_lp_tautomer_probability>
1

> <s_lp_Force_Field>
OPLS_2005

> <r_lp_Energy>
16.022528

> <b_lp_Chiralities_Consistent>
1

> <s_lp_Variant>
CHEMBL4439_lig534-1

> <s_i_glide_gridfile>
glide-grid_3hmm

> <i_i_glide_lignum>
713

> <i_i_glide_rotatable_bonds>
5

> <r_i_docking_score>
-9.12983747001507

> <r_i_glide_ligand_efficiency>
-0.314821981724657

> <r_i_glide_ligand_efficiency_sa>
-0.967232870462774

> <r_i_glide_ligand_efficiency_ln>
-2.09050126793067

> <r_i_glide_gscore>
-9.12983747001507

> <r_i_glide_lipo>
-3.38592555759911

> <r_i_glide_hbond>
-0.191116228057267

> <r_i_glide_metal>
0

> <r_i_glide_rewards>
-2.97457306986149

> <r_i_glide_evdw>
-53.5023078918457

> <r_i_glide_ecoul>
-3.46537208557129

> <r_i_glide_erotb>
0.616698592930783

> <r_i_glide_esite>
0

> <r_i_glide_emodel>
-85.0100594651243

> <r_i_glide_energy>
-56.967679977417

> <r_i_glide_einternal>
7.29947757720947

> <i_i_glide_confnum>
67

> <i_i_glide_posenum>
166

> <r_i_glide_eff_state_penalty>
0

> <s_user_duplicate_titles>
CHEMBL4439_lig534

> <i_f3d_flags>
0

> <s_m_subgroup_title>
dock_pv

> <s_m_subgroupid>
dock_pv

> <b_m_subgroup_collapsed>
1

$$$$
CHEMBL4439_lig828
                    3D
 Schrodinger Suite 2021-1.
 34 37  0  0  1  0            999 V2000
   16.8205   67.5569    6.1094 C   0  0  0  0  0  0
   15.0456   66.1003    7.7123 N   0  0  0  0  0  0
   15.0197   66.0988    6.3525 C   0  0  0  0  0  0
   15.8628   66.7807    5.5385 N   0  0  0  0  0  0
   16.0102   66.8828    8.2301 N   0  0  0  0  0  0
   16.9485   67.6512    7.5071 C   0  0  0  0  0  0
   17.7711   68.3214    8.4521 C   0  0  0  0  0  0
   17.3174   67.9513    9.7092 C   0  0  0  0  0  0
   16.2520   67.0678    9.5720 C   0  0  0  0  0  0
   13.9932   65.2460    5.6778 C   0  0  0  0  0  0
   12.7361   65.2607    6.2102 N   0  0  0  0  0  0
   11.7798   64.4787    5.6420 C   0  0  0  0  0  0
   12.0287   63.6580    4.5417 C   0  0  0  0  0  0
   13.3102   63.6567    3.9916 C   0  0  0  0  0  0
   14.3002   64.4645    4.5524 C   0  0  0  0  0  0
   17.7258   68.2632    5.3055 N   0  0  0  0  0  0
   17.7425   68.5930    3.9388 C   0  0  0  0  0  0
   16.6267   68.4529    3.1029 C   0  0  0  0  0  0
   16.7208   68.8570    1.7724 C   0  0  0  0  0  0
   17.8656   69.3353    1.2318 N   0  0  0  0  0  0
   18.9422   69.4697    2.0395 C   0  0  0  0  0  0
   18.9211   69.1201    3.3904 C   0  0  0  0  0  0
   20.0314   69.2967    4.1481 F   0  0  0  0  0  0
   18.5886   69.0023    8.2640 H   0  0  0  0  0  0
   17.7267   68.3011   10.6478 H   0  0  0  0  0  0
   15.6501   66.5855   10.3279 H   0  0  0  0  0  0
   10.8007   64.5132    6.0982 H   0  0  0  0  0  0
   11.2449   63.0489    4.1161 H   0  0  0  0  0  0
   13.5278   63.0457    3.1268 H   0  0  0  0  0  0
   15.2934   64.4692    4.1310 H   0  0  0  0  0  0
   18.5160   68.6307    5.8148 H   0  0  0  0  0  0
   15.6811   68.0832    3.4649 H   0  0  0  0  0  0
   15.8675   68.7937    1.1118 H   0  0  0  0  0  0
   19.8346   69.8812    1.5877 H   0  0  0  0  0  0
  1  6  1  0  0  0
  1  4  2  0  0  0
  1 16  1  0  0  0
  2  5  1  0  0  0
  2  3  2  0  0  0
  3  4  1  0  0  0
  3 10  1  0  0  0
  5  6  1  0  0  0
  5  9  1  0  0  0
  6  7  2  0  0  0
  7  8  1  0  0  0
  7 24  1  0  0  0
  8  9  2  0  0  0
  8 25  1  0  0  0
  9 26  1  0  0  0
 10 11  2  0  0  0
 10 15  1  0  0  0
 11 12  1  0  0  0
 12 13  2  0  0  0
 12 27  1  0  0  0
 13 14  1  0  0  0
 13 28  1  0  0  0
 14 15  2  0  0  0
 14 29  1  0  0  0
 15 30  1  0  0  0
 16 17  1  0  0  0
 16 31  1  0  0  0
 17 18  2  0  0  0
 17 22  1  0  0  0
 18 19  1  0  0  0
 18 32  1  0  0  0
 19 20  2  0  0  0
 19 33  1  0  0  0
 20 21  1  0  0  0
 21 22  2  0  0  0
 21 34  1  0  0  0
 22 23  1  0  0  0
M  END
> <s_m_entry_id>
34351

> <s_m_entry_name>
dock_pv.94

> <s_m_Source_Path>
/home/csk/Desktop/cluster/DUD-E-result/tgfr1

> <s_m_Source_File>
dock_pv.maegz

> <i_m_Source_File_Index>
94

> <chembl_id>
CHEMBL4204772

> <chembl_pref_name>
None

> <i_lp_mmshare_version>
53161

> <r_lp_tautomer_probability>
0.999999106000799

> <s_lp_Force_Field>
OPLS_2005

> <r_lp_Energy>
33.455177

> <b_lp_Chiralities_Consistent>
1

> <s_lp_Variant>
CHEMBL4439_lig828-1

> <s_i_glide_gridfile>
glide-grid_3hmm

> <i_i_glide_lignum>
1146

> <i_i_glide_rotatable_bonds>
3

> <r_i_docking_score>
-9.12434358514486

> <r_i_glide_ligand_efficiency>
-0.396710590658472

> <r_i_glide_ligand_efficiency_sa>
-1.12819214815189

> <r_i_glide_ligand_efficiency_ln>
-2.20634901386141

> <r_i_glide_gscore>
-9.12434358514486

> <r_i_glide_lipo>
-3.52066682390367

> <r_i_glide_hbond>
-0.38652976203006

> <r_i_glide_metal>
0

> <r_i_glide_rewards>
-3.05223091498087

> <r_i_glide_evdw>
-45.4411163330078

> <r_i_glide_ecoul>
-3.22313356399536

> <r_i_glide_erotb>
0.590609767019433

> <r_i_glide_esite>
0

> <r_i_glide_emodel>
-74.7563108658701

> <r_i_glide_energy>
-48.6642498970032

> <r_i_glide_einternal>
2.27321457862854

> <i_i_glide_confnum>
11

> <i_i_glide_posenum>
256

> <r_i_glide_eff_state_penalty>
0

> <s_user_duplicate_titles>
CHEMBL4439_lig828

> <i_f3d_flags>
0

> <s_m_subgroup_title>
dock_pv

> <s_m_subgroupid>
dock_pv

> <b_m_subgroup_collapsed>
1

$$$$
CHEMBL4439_lig124
                    3D
 Schrodinger Suite 2021-1.
 37 40  0  0  1  0            999 V2000
   10.6429   63.2598    4.6971 F   0  0  0  0  0  0
   11.7977   63.9024    4.9647 C   0  0  0  0  0  0
   12.9172   63.6879    4.1664 C   0  0  0  0  0  0
   14.0764   64.4238    4.4038 C   0  0  0  0  0  0
   14.1246   65.3569    5.4485 C   0  0  0  0  0  0
   13.0038   65.5221    6.2674 C   0  0  0  0  0  0
   11.8486   64.7948    6.0284 C   0  0  0  0  0  0
   15.3117   66.2237    5.6468 C   0  0  0  0  0  0
   15.9233   66.8703    4.5675 C   0  0  0  0  0  0
   16.9314   67.8210    4.7897 C   0  0  0  0  0  0
   17.2992   68.0548    6.1233 C   0  0  0  0  0  0
   16.6783   67.3483    7.1524 C   0  0  0  0  0  0
   15.6951   66.4454    6.9327 N   0  0  0  0  0  0
   17.4914   68.5592    3.5973 C   0  0  0  0  0  0
   16.7821   68.7347    2.3899 C   0  0  0  0  0  0
   17.4383   69.3764    1.4638 N   0  0  0  0  0  0
   18.5986   69.6540    2.0435 N   0  0  0  0  0  0
   18.7260   69.1971    3.3359 C   0  0  0  0  0  0
   19.9974   69.4599    4.0838 C   0  0  0  0  0  0
   21.2386   69.4729    3.4321 C   0  0  0  0  0  0
   22.3832   69.7894    4.1631 C   0  0  0  0  0  0
   22.2692   70.0807    5.5221 C   0  0  0  0  0  0
   21.0061   70.0468    6.1063 C   0  0  0  0  0  0
   19.8855   69.7529    5.4035 N   0  0  0  0  0  0
   12.8717   62.9916    3.3420 H   0  0  0  0  0  0
   14.9304   64.2821    3.7571 H   0  0  0  0  0  0
   13.0100   66.2451    7.0694 H   0  0  0  0  0  0
   10.9865   64.9466    6.6541 H   0  0  0  0  0  0
   15.5686   66.6643    3.5712 H   0  0  0  0  0  0
   18.0115   68.8016    6.4041 H   0  0  0  0  0  0
   16.9455   67.5272    8.1834 H   0  0  0  0  0  0
   15.7759   68.3970    2.1903 H   0  0  0  0  0  0
   19.3067   70.1898    1.5577 H   0  0  0  0  0  0
   21.3236   69.2554    2.3780 H   0  0  0  0  0  0
   23.3531   69.8078    3.6865 H   0  0  0  0  0  0
   23.1437   70.3380    6.1057 H   0  0  0  0  0  0
   20.8795   70.2537    7.1583 H   0  0  0  0  0  0
  1  2  1  0  0  0
  2  3  2  0  0  0
  2  7  1  0  0  0
  3  4  1  0  0  0
  3 25  1  0  0  0
  4  5  2  0  0  0
  4 26  1  0  0  0
  5  6  1  0  0  0
  5  8  1  0  0  0
  6  7  2  0  0  0
  6 27  1  0  0  0
  7 28  1  0  0  0
  8  9  2  0  0  0
  8 13  1  0  0  0
  9 10  1  0  0  0
  9 29  1  0  0  0
 10 11  2  0  0  0
 10 14  1  0  0  0
 11 12  1  0  0  0
 11 30  1  0  0  0
 12 13  2  0  0  0
 12 31  1  0  0  0
 14 18  2  0  0  0
 14 15  1  0  0  0
 15 32  1  0  0  0
 15 16  2  0  0  0
 16 17  1  0  0  0
 17 33  1  0  0  0
 17 18  1  0  0  0
 18 19  1  0  0  0
 19 20  2  0  0  0
 19 24  1  0  0  0
 20 21  1  0  0  0
 20 34  1  0  0  0
 21 22  2  0  0  0
 21 35  1  0  0  0
 22 23  1  0  0  0
 22 36  1  0  0  0
 23 24  2  0  0  0
 23 37  1  0  0  0
M  END
> <s_m_entry_id>
34352

> <s_m_entry_name>
dock_pv.95

> <s_m_Source_Path>
/home/csk/Desktop/cluster/DUD-E-result/tgfr1

> <s_m_Source_File>
dock_pv.maegz

> <i_m_Source_File_Index>
95

> <chembl_id>
CHEMBL381948

> <chembl_pref_name>
GW680975X

> <i_lp_mmshare_version>
53161

> <r_lp_tautomer_probability>
0.5

> <s_lp_Force_Field>
OPLS_2005

> <r_lp_Energy>
18.405312

> <b_lp_Chiralities_Consistent>
1

> <s_lp_Variant>
CHEMBL4439_lig124-2

> <s_i_glide_gridfile>
glide-grid_3hmm

> <i_i_glide_lignum>
185

> <i_i_glide_rotatable_bonds>
3

> <r_i_docking_score>
-9.10501376116555

> <r_i_glide_ligand_efficiency>
-0.379375573381898

> <r_i_glide_ligand_efficiency_sa>
-1.09430851423108

> <r_i_glide_ligand_efficiency_ln>
-2.17924759490408

> <r_i_glide_gscore>
-9.10501376116555

> <r_i_glide_lipo>
-3.68174321919419

> <r_i_glide_hbond>
-0.325805880475712

> <r_i_glide_metal>
0

> <r_i_glide_rewards>
-2.80796921427009

> <r_i_glide_evdw>
-44.6309700012207

> <r_i_glide_ecoul>
-4.10692024230957

> <r_i_glide_erotb>
0.558091089181914

> <r_i_glide_esite>
0

> <r_i_glide_emodel>
-74.8240346732292

> <r_i_glide_energy>
-48.7378902435303

> <r_i_glide_einternal>
2.607506275177

> <i_i_glide_confnum>
2

> <i_i_glide_posenum>
296

> <r_i_glide_eff_state_penalty>
0

> <s_user_duplicate_titles>
CHEMBL4439_lig124,CHEMBL4439_lig124,342913

> <i_f3d_flags>
0

> <s_m_subgroup_title>
dock_pv

> <s_m_subgroupid>
dock_pv

> <b_m_subgroup_collapsed>
1

$$$$
CHEMBL4439_lig581
                    3D
 Schrodinger Suite 2021-1.
 46 49  0  0  1  0            999 V2000
   14.4101   64.4570    4.4320 S   0  0  0  0  0  0
   13.8048   65.3599    5.7899 C   0  0  0  0  0  0
   12.5282   65.1690    6.0320 N   0  0  0  0  0  0
   11.9783   64.2923    5.2085 C   0  0  0  0  0  0
   12.8372   63.7452    4.2605 C   0  0  0  0  0  0
   10.5069   64.0102    5.3963 C   0  0  0  0  0  0
   14.6557   66.2338    6.6039 C   0  0  0  0  0  0
   15.5753   67.1976    6.1775 C   0  0  0  0  0  0
   16.0361   67.7398    7.3425 N   0  0  0  0  0  0
   15.5435   67.0022    8.3695 C   0  0  0  0  0  0
   14.6670   66.1332    7.9307 N   0  0  0  0  0  0
   16.0889   67.6570    4.8666 C   0  0  0  0  0  0
   15.2864   67.6570    3.7246 C   0  0  0  0  0  0
   15.7615   68.1261    2.5027 C   0  0  0  0  0  0
   17.4089   68.1138    4.8131 C   0  0  0  0  0  0
   17.8945   68.5788    3.5965 C   0  0  0  0  0  0
   17.0905   68.5624    2.4293 C   0  0  0  0  0  0
   17.7211   68.9741    1.2999 N   0  0  0  0  0  0
   18.9527   69.3041    1.5641 C   0  0  0  0  0  0
   19.4634   69.2570    3.2319 S   0  0  0  0  0  0
   16.0279   67.1703    9.8013 C   0  0  0  0  0  0
   17.5640   67.0113    9.9679 C   0  0  0  0  0  0
   18.4048   68.0921    9.2387 C   0  0  0  0  0  0
   19.8752   68.1444    9.6578 C   0  0  0  0  0  0
   20.2716   69.2570   10.2905 N   0  0  0  0  0  0
   21.6354   69.5287   10.7290 C   0  0  0  0  0  0
   20.6291   67.2171    9.3677 O   0  0  0  0  0  0
   12.6247   63.0297    3.4794 H   0  0  0  0  0  0
   10.1445   63.2570    4.6975 H   0  0  0  0  0  0
   10.2829   63.6495    6.4013 H   0  0  0  0  0  0
    9.9048   64.9030    5.2276 H   0  0  0  0  0  0
   16.7287   68.4690    7.4208 H   0  0  0  0  0  0
   14.2670   67.3115    3.7872 H   0  0  0  0  0  0
   15.1232   68.1274    1.6320 H   0  0  0  0  0  0
   18.0489   68.1150    5.6830 H   0  0  0  0  0  0
   19.6346   69.6570    0.8033 H   0  0  0  0  0  0
   15.5269   66.4568   10.4580 H   0  0  0  0  0  0
   15.7397   68.1536   10.1753 H   0  0  0  0  0  0
   17.8702   66.0183    9.6320 H   0  0  0  0  0  0
   17.7876   67.0440   11.0362 H   0  0  0  0  0  0
   17.9482   69.0733    9.3821 H   0  0  0  0  0  0
   18.4210   67.9097    8.1663 H   0  0  0  0  0  0
   19.5887   69.9950   10.4320 H   0  0  0  0  0  0
   21.6210   69.9993   11.7117 H   0  0  0  0  0  0
   22.1212   70.2129   10.0328 H   0  0  0  0  0  0
   22.2419   68.6243   10.7985 H   0  0  0  0  0  0
  1  2  1  0  0  0
  1  5  1  0  0  0
  2  3  2  0  0  0
  2  7  1  0  0  0
  3  4  1  0  0  0
  4  5  2  0  0  0
  4  6  1  0  0  0
  5 28  1  0  0  0
  6 29  1  0  0  0
  6 30  1  0  0  0
  6 31  1  0  0  0
  7  8  2  0  0  0
  7 11  1  0  0  0
  8  9  1  0  0  0
  8 12  1  0  0  0
  9 10  1  0  0  0
  9 32  1  0  0  0
 10 11  2  0  0  0
 10 21  1  0  0  0
 12 13  2  0  0  0
 12 15  1  0  0  0
 13 14  1  0  0  0
 13 33  1  0  0  0
 14 17  2  0  0  0
 14 34  1  0  0  0
 15 16  2  0  0  0
 15 35  1  0  0  0
 16 17  1  0  0  0
 16 20  1  0  0  0
 17 18  1  0  0  0
 18 19  2  0  0  0
 19 20  1  0  0  0
 19 36  1  0  0  0
 21 22  1  0  0  0
 21 37  1  0  0  0
 21 38  1  0  0  0
 22 23  1  0  0  0
 22 39  1  0  0  0
 22 40  1  0  0  0
 23 24  1  0  0  0
 23 41  1  0  0  0
 23 42  1  0  0  0
 24 25  1  0  0  0
 24 27  2  0  0  0
 25 26  1  0  0  0
 25 43  1  0  0  0
 26 44  1  0  0  0
 26 45  1  0  0  0
 26 46  1  0  0  0
M  END
> <s_m_entry_id>
34353

> <s_m_entry_name>
dock_pv.96

> <s_m_Source_Path>
/home/csk/Desktop/cluster/DUD-E-result/tgfr1

> <s_m_Source_File>
dock_pv.maegz

> <i_m_Source_File_Index>
96

> <chembl_id>
CHEMBL2208009

> <chembl_pref_name>
None

> <i_lp_mmshare_version>
53161

> <r_lp_tautomer_probability>
0.499999999999999

> <s_lp_Force_Field>
OPLS_2005

> <r_lp_Energy>
7.685756

> <b_lp_Chiralities_Consistent>
1

> <s_lp_Variant>
CHEMBL4439_lig581-1

> <s_i_glide_gridfile>
glide-grid_3hmm

> <i_i_glide_lignum>
775

> <i_i_glide_rotatable_bonds>
7

> <r_i_docking_score>
-9.10124505598873

> <r_i_glide_ligand_efficiency>
-0.337083150221805

> <r_i_glide_ligand_efficiency_sa>
-1.01124944955444

> <r_i_glide_ligand_efficiency_ln>
-2.11861980328272

> <r_i_glide_gscore>
-9.10124505598873

> <r_i_glide_lipo>
-4.04249667667178

> <r_i_glide_hbond>
-0.630995498519358

> <r_i_glide_metal>
0

> <r_i_glide_rewards>
-1.67386289869344

> <r_i_glide_evdw>
-47.7584228515625

> <r_i_glide_ecoul>
-7.39496040344238

> <r_i_glide_erotb>
0.743275220990324

> <r_i_glide_esite>
0

> <r_i_glide_emodel>
-82.5306247668664

> <r_i_glide_energy>
-55.1533832550049

> <r_i_glide_einternal>
5.97815465927124

> <i_i_glide_confnum>
51

> <i_i_glide_posenum>
190

> <r_i_glide_eff_state_penalty>
0

> <s_user_duplicate_titles>
CHEMBL4439_lig581,CHEMBL4439_lig581

> <i_f3d_flags>
0

> <s_m_subgroup_title>
dock_pv

> <s_m_subgroupid>
dock_pv

> <b_m_subgroup_collapsed>
1

$$$$
CHEMBL4439_lig30
                    3D
 Schrodinger Suite 2021-1.
 48 51  0  0  1  0            999 V2000
   20.1000   66.9579    9.5854 C   0  0  0  0  0  0
   18.6540   67.4761    9.4280 C   0  0  0  0  0  0
   18.4114   68.5254   10.5282 C   0  0  0  0  0  0
   15.6705   67.6571    3.9886 C   0  0  0  0  0  0
   15.9366   68.1902    2.7294 C   0  0  0  0  0  0
   17.2075   68.6769    2.4357 C   0  0  0  0  0  0
   18.2260   68.5958    3.3733 C   0  0  0  0  0  0
   17.9571   68.0593    4.6247 C   0  0  0  0  0  0
   16.6707   67.6215    4.9666 C   0  0  0  0  0  0
   16.4094   67.1311    6.3645 C   0  0  0  0  0  0
   15.5250   66.0482    8.1591 N   0  0  0  0  0  0
   15.3560   66.3240    6.8820 C   0  0  0  0  0  0
   16.6817   66.6071    8.4884 N   0  0  0  0  0  0
   17.2110   67.3540    7.4855 C   0  0  0  0  0  0
   18.4926   67.9955    7.9661 C   0  0  1  0  0  0
   17.5704   66.3830    9.6080 C   0  0  0  0  0  0
   14.1964   65.6984    6.1887 C   0  0  0  0  0  0
   14.4943   64.9252    5.1100 N   0  0  0  0  0  0
   13.4683   64.3317    4.4467 C   0  0  0  0  0  0
   12.1345   64.4629    4.8410 C   0  0  0  0  0  0
   11.8464   65.2532    5.9554 C   0  0  0  0  0  0
   12.8855   65.8808    6.6434 C   0  0  0  0  0  0
   13.8453   63.5075    3.2334 C   0  0  0  0  0  0
   18.5295   69.5286    7.7728 C   0  0  0  0  0  0
   17.4681   69.2594    1.2289 O   0  0  0  0  0  0
   20.2596   66.0082    9.0773 H   0  0  0  0  0  0
   20.8186   67.6662    9.1694 H   0  0  0  0  0  0
   20.3740   66.8571   10.6282 H   0  0  0  0  0  0
   17.4613   69.0426   10.3912 H   0  0  0  0  0  0
   18.3958   68.0772   11.5226 H   0  0  0  0  0  0
   19.2171   69.2567   10.5402 H   0  0  0  0  0  0
   14.6643   67.3397    4.2041 H   0  0  0  0  0  0
   15.1496   68.2541    1.9914 H   0  0  0  0  0  0
   19.2202   68.9510    3.1458 H   0  0  0  0  0  0
   18.7733   68.0034    5.3219 H   0  0  0  0  0  0
   19.2970   67.5861    7.3533 H   0  0  0  0  0  0
   17.0213   66.4532   10.5487 H   0  0  0  0  0  0
   17.9894   65.3780    9.5512 H   0  0  0  0  0  0
   11.3423   63.9792    4.2885 H   0  0  0  0  0  0
   10.8249   65.3845    6.2783 H   0  0  0  0  0  0
   12.6748   66.4958    7.5058 H   0  0  0  0  0  0
   13.1159   63.6346    2.4345 H   0  0  0  0  0  0
   14.8233   63.7837    2.8382 H   0  0  0  0  0  0
   13.8656   62.4562    3.5020 H   0  0  0  0  0  0
   18.5948   69.8052    6.7222 H   0  0  0  0  0  0
   17.6454   70.0120    8.1900 H   0  0  0  0  0  0
   19.4021   69.9636    8.2602 H   0  0  0  0  0  0
   18.3274   69.6912    1.2291 H   0  0  0  0  0  0
  1  2  1  0  0  0
  1 26  1  0  0  0
  1 27  1  0  0  0
  1 28  1  0  0  0
  2  3  1  0  0  0
  2 15  1  0  0  0
  2 16  1  0  0  0
  3 29  1  0  0  0
  3 30  1  0  0  0
  3 31  1  0  0  0
  4  5  2  0  0  0
  4  9  1  0  0  0
  4 32  1  0  0  0
  5  6  1  0  0  0
  5 33  1  0  0  0
  6  7  2  0  0  0
  6 25  1  0  0  0
  7  8  1  0  0  0
  7 34  1  0  0  0
  8  9  2  0  0  0
  8 35  1  0  0  0
  9 10  1  0  0  0
 10 14  2  0  0  0
 10 12  1  0  0  0
 11 13  1  0  0  0
 11 12  2  0  0  0
 12 17  1  0  0  0
 13 14  1  0  0  0
 13 16  1  0  0  0
 14 15  1  0  0  0
 15 24  1  0  0  0
 15 36  1  0  0  0
 16 37  1  0  0  0
 16 38  1  0  0  0
 17 18  2  0  0  0
 17 22  1  0  0  0
 18 19  1  0  0  0
 19 20  2  0  0  0
 19 23  1  0  0  0
 20 21  1  0  0  0
 20 39  1  0  0  0
 21 22  2  0  0  0
 21 40  1  0  0  0
 22 41  1  0  0  0
 23 42  1  0  0  0
 23 43  1  0  0  0
 23 44  1  0  0  0
 24 45  1  0  0  0
 24 46  1  0  0  0
 24 47  1  0  0  0
 25 48  1  0  0  0
M  END
> <s_m_entry_id>
34354

> <s_m_entry_name>
dock_pv.97

> <s_m_Source_Path>
/home/csk/Desktop/cluster/DUD-E-result/tgfr1

> <s_m_Source_File>
dock_pv.maegz

> <i_m_Source_File_Index>
97

> <chembl_id>
CHEMBL4277021

> <chembl_pref_name>
None

> <i_lp_mmshare_version>
53161

> <r_lp_tautomer_probability>
0.999999999997365

> <s_lp_Force_Field>
OPLS_2005

> <r_lp_Energy>
38.986851

> <b_lp_Chiralities_Consistent>
1

> <s_lp_Variant>
CHEMBL4439_lig30-1

> <s_i_glide_gridfile>
glide-grid_3hmm

> <i_i_glide_lignum>
37

> <i_i_glide_rotatable_bonds>
3

> <r_i_docking_score>
-9.09697644940404

> <r_i_glide_ligand_efficiency>
-0.363879057976162

> <r_i_glide_ligand_efficiency_sa>
-1.06398881894487

> <r_i_glide_ligand_efficiency_ln>
-2.15625603289432

> <r_i_glide_gscore>
-9.09697644940404

> <r_i_glide_lipo>
-4.163287751985

> <r_i_glide_hbond>
-0.395346384024623

> <r_i_glide_metal>
0

> <r_i_glide_rewards>
-2.20661263355559

> <r_i_glide_evdw>
-42.378849029541

> <r_i_glide_ecoul>
-3.67899823188782

> <r_i_glide_erotb>
0.339062506421398

> <r_i_glide_esite>
0

> <r_i_glide_emodel>
-65.6527842845669

> <r_i_glide_energy>
-46.0578472614288

> <r_i_glide_einternal>
4.97039842605591

> <i_i_glide_confnum>
5

> <i_i_glide_posenum>
159

> <r_i_glide_eff_state_penalty>
0

> <s_user_duplicate_titles>
CHEMBL4439_lig30,CHEMBL4439_lig860

> <i_f3d_flags>
0

> <s_m_subgroup_title>
dock_pv

> <s_m_subgroupid>
dock_pv

> <b_m_subgroup_collapsed>
1

$$$$
CHEMBL4439_lig596
                    3D
 Schrodinger Suite 2021-1.
 42 45  0  0  1  0            999 V2000
   16.2660   66.4434    9.3969 S   0  0  0  0  0  0
   15.9252   67.2469    7.8894 C   0  0  0  0  0  0
   16.6270   68.3364    7.7065 N   0  0  0  0  0  0
   17.5344   68.5264    8.6444 C   0  0  0  0  0  0
   17.4934   67.6294    9.7049 C   0  0  0  0  0  0
   18.5052   69.6576    8.4193 C   0  0  0  0  0  0
   14.9847   66.7147    6.8961 C   0  0  0  0  0  0
   15.0286   66.8078    5.4895 C   0  0  0  0  0  0
   13.9513   66.0559    5.1099 N   0  0  0  0  0  0
   13.2689   65.6724    6.2194 C   0  0  0  0  0  0
   13.8992   66.0572    7.2975 N   0  0  0  0  0  0
   15.8815   67.4932    4.4645 C   0  0  0  0  0  0
   15.2937   67.7975    3.2290 C   0  0  0  0  0  0
   15.9831   68.4570    2.2163 C   0  0  0  0  0  0
   17.2085   67.8659    4.7076 C   0  0  0  0  0  0
   17.9068   68.5540    3.7064 C   0  0  0  0  0  0
   17.3087   68.8223    2.4494 C   0  0  0  0  0  0
   18.1115   69.4211    1.5361 N   0  0  0  0  0  0
   19.2862   69.6570    2.0424 C   0  0  0  0  0  0
   19.5311   69.2277    3.7184 S   0  0  0  0  0  0
   11.9128   64.9826    6.1692 C   0  0  0  0  0  0
   11.5693   64.3172    4.8096 C   0  0  0  0  0  0
   10.1206   63.8038    4.7909 C   0  0  0  0  0  0
   12.5520   63.1909    4.4384 C   0  0  0  0  0  0
   18.1177   67.5884   10.5855 H   0  0  0  0  0  0
   19.2833   69.6670    9.1836 H   0  0  0  0  0  0
   19.0150   69.5718    7.4584 H   0  0  0  0  0  0
   18.0082   70.6286    8.4318 H   0  0  0  0  0  0
   13.6548   65.8890    4.1582 H   0  0  0  0  0  0
   14.2676   67.5304    3.0263 H   0  0  0  0  0  0
   15.5040   68.6712    1.2710 H   0  0  0  0  0  0
   17.7026   67.6253    5.6342 H   0  0  0  0  0  0
   20.0885   70.0992    1.4698 H   0  0  0  0  0  0
   11.1354   65.7094    6.4102 H   0  0  0  0  0  0
   11.8369   64.2331    6.9545 H   0  0  0  0  0  0
   11.6325   65.0787    4.0327 H   0  0  0  0  0  0
    9.9167   63.1417    5.6324 H   0  0  0  0  0  0
    9.9033   63.2563    3.8731 H   0  0  0  0  0  0
    9.4161   64.6338    4.8343 H   0  0  0  0  0  0
   12.6034   62.4568    5.2377 H   0  0  0  0  0  0
   12.2500   62.6786    3.5239 H   0  0  0  0  0  0
   13.5656   63.5575    4.2722 H   0  0  0  0  0  0
  1  2  1  0  0  0
  1  5  1  0  0  0
  2  3  2  0  0  0
  2  7  1  0  0  0
  3  4  1  0  0  0
  4  5  2  0  0  0
  4  6  1  0  0  0
  5 25  1  0  0  0
  6 26  1  0  0  0
  6 27  1  0  0  0
  6 28  1  0  0  0
  7  8  2  0  0  0
  7 11  1  0  0  0
  8  9  1  0  0  0
  8 12  1  0  0  0
  9 10  1  0  0  0
  9 29  1  0  0  0
 10 11  2  0  0  0
 10 21  1  0  0  0
 12 13  2  0  0  0
 12 15  1  0  0  0
 13 14  1  0  0  0
 13 30  1  0  0  0
 14 17  2  0  0  0
 14 31  1  0  0  0
 15 16  2  0  0  0
 15 32  1  0  0  0
 16 17  1  0  0  0
 16 20  1  0  0  0
 17 18  1  0  0  0
 18 19  2  0  0  0
 19 20  1  0  0  0
 19 33  1  0  0  0
 21 22  1  0  0  0
 21 34  1  0  0  0
 21 35  1  0  0  0
 22 23  1  0  0  0
 22 24  1  0  0  0
 22 36  1  0  0  0
 23 37  1  0  0  0
 23 38  1  0  0  0
 23 39  1  0  0  0
 24 40  1  0  0  0
 24 41  1  0  0  0
 24 42  1  0  0  0
M  END
> <s_m_entry_id>
34356

> <s_m_entry_name>
dock_pv.99

> <s_m_Source_Path>
/home/csk/Desktop/cluster/DUD-E-result/tgfr1

> <s_m_Source_File>
dock_pv.maegz

> <i_m_Source_File_Index>
99

> <chembl_id>
CHEMBL2207993

> <chembl_pref_name>
None

> <i_lp_mmshare_version>
53161

> <r_lp_tautomer_probability>
0.499999999999999

> <s_lp_Force_Field>
OPLS_2005

> <r_lp_Energy>
8.892897

> <b_lp_Chiralities_Consistent>
1

> <s_lp_Variant>
CHEMBL4439_lig596-1

> <s_i_glide_gridfile>
glide-grid_3hmm

> <i_i_glide_lignum>
805

> <i_i_glide_rotatable_bonds>
4

> <r_i_docking_score>
-9.09668848754891

> <r_i_glide_ligand_efficiency>
-0.379028686981204

> <r_i_glide_ligand_efficiency_sa>
-1.09330792070745

> <r_i_glide_ligand_efficiency_ln>
-2.17725497490571

> <r_i_glide_gscore>
-9.09668848754891

> <r_i_glide_lipo>
-4.25316953508981

> <r_i_glide_hbond>
-0.113055328620492

> <r_i_glide_metal>
0

> <r_i_glide_rewards>
-2.25631807958018

> <r_i_glide_evdw>
-44.834098815918

> <r_i_glide_ecoul>
-4.59089756011963

> <r_i_glide_erotb>
0.456194030555413

> <r_i_glide_esite>
0

> <r_i_glide_emodel>
-74.6646706737027

> <r_i_glide_energy>
-49.4249963760376

> <r_i_glide_einternal>
1.32392156124115

> <i_i_glide_confnum>
2

> <i_i_glide_posenum>
93

> <r_i_glide_eff_state_penalty>
0

> <s_user_duplicate_titles>
CHEMBL4439_lig596,CHEMBL4439_lig596

> <i_f3d_flags>
0

> <s_m_subgroup_title>
dock_pv

> <s_m_subgroupid>
dock_pv

> <b_m_subgroup_collapsed>
1

$$$$
CHEMBL4439_lig945 
                    3D
 Schrodinger Suite 2021-1.
 38 41  0  0  1  0            999 V2000
   15.8345   66.4020    5.2130 C   0  0  0  0  0  0
   14.8358   65.6988    5.8900 C   0  0  0  0  0  0
   14.6533   65.7985    7.2370 N   0  0  0  0  0  0
   16.6652   67.3002    5.8915 C   0  0  0  0  0  0
   16.5140   67.3996    7.2853 C   0  0  0  0  0  0
   15.4919   66.6150    7.8804 C   0  0  0  0  0  0
   15.5236   66.8570    9.2357 N   0  0  0  0  0  0
   16.5070   67.7746    9.5200 C   0  0  0  0  0  0
   17.1412   68.1375    8.3490 C   0  0  0  0  0  0
   17.6409   68.0573    5.2315 N   0  0  0  0  0  0
   17.7310   68.4564    3.8934 C   0  0  0  0  0  0
   16.6347   68.4551    3.0201 C   0  0  0  0  0  0
   16.8193   68.8572    1.7022 C   0  0  0  0  0  0
   18.0213   69.2572    1.2315 N   0  0  0  0  0  0
   19.0668   69.2998    2.0900 C   0  0  0  0  0  0
   18.9639   68.9115    3.4248 C   0  0  0  0  0  0
   13.9088   64.7981    5.1440 C   0  0  0  0  0  0
   14.3428   64.0569    4.0319 C   0  0  0  0  0  0
   13.4303   63.2575    3.3444 C   0  0  0  0  0  0
   12.1002   63.2384    3.7569 C   0  0  0  0  0  0
   11.7342   63.9809    4.8773 C   0  0  0  0  0  0
   12.6125   64.7522    5.5690 N   0  0  0  0  0  0
   10.3066   63.9791    5.3762 C   0  0  0  0  0  0
   15.9602   66.2448    4.1550 H   0  0  0  0  0  0
   14.9243   66.4707    9.9490 H   0  0  0  0  0  0
   16.6644   68.1013   10.5393 H   0  0  0  0  0  0
   17.9510   68.8485    8.2749 H   0  0  0  0  0  0
   18.4044   68.3611    5.8158 H   0  0  0  0  0  0
   15.6421   68.1870    3.3434 H   0  0  0  0  0  0
   15.9917   68.8705    1.0070 H   0  0  0  0  0  0
   20.0026   69.6558    1.6838 H   0  0  0  0  0  0
   19.8295   68.9470    4.0707 H   0  0  0  0  0  0
   15.3708   64.0891    3.7032 H   0  0  0  0  0  0
   13.7408   62.6921    2.4794 H   0  0  0  0  0  0
   11.3730   62.6479    3.2178 H   0  0  0  0  0  0
    9.6898   63.2560    4.8423 H   0  0  0  0  0  0
    9.8692   64.9670    5.2318 H   0  0  0  0  0  0
   10.2702   63.7255    6.4357 H   0  0  0  0  0  0
  1  2  2  0  0  0
  1  4  1  0  0  0
  1 24  1  0  0  0
  2  3  1  0  0  0
  2 17  1  0  0  0
  3  6  2  0  0  0
  4  5  2  0  0  0
  4 10  1  0  0  0
  5  6  1  0  0  0
  5  9  1  0  0  0
  6  7  1  0  0  0
  7  8  1  0  0  0
  7 25  1  0  0  0
  8  9  2  0  0  0
  8 26  1  0  0  0
  9 27  1  0  0  0
 10 11  1  0  0  0
 10 28  1  0  0  0
 11 12  2  0  0  0
 11 16  1  0  0  0
 12 13  1  0  0  0
 12 29  1  0  0  0
 13 14  2  0  0  0
 13 30  1  0  0  0
 14 15  1  0  0  0
 15 16  2  0  0  0
 15 31  1  0  0  0
 16 32  1  0  0  0
 17 18  2  0  0  0
 17 22  1  0  0  0
 18 19  1  0  0  0
 18 33  1  0  0  0
 19 20  2  0  0  0
 19 34  1  0  0  0
 20 21  1  0  0  0
 20 35  1  0  0  0
 21 22  2  0  0  0
 21 23  1  0  0  0
 23 36  1  0  0  0
 23 37  1  0  0  0
 23 38  1  0  0  0
M  END
> <s_m_entry_id>
34357

> <s_m_entry_name>
dock_pv.100

> <s_m_Source_Path>
/home/csk/Desktop/cluster/DUD-E-result/tgfr1

> <s_m_Source_File>
dock_pv.maegz

> <i_m_Source_File_Index>
100

> <chembl_id>
CHEMBL4572312

> <chembl_pref_name>
None

> <i_lp_mmshare_version>
53161

> <r_lp_tautomer_probability>
0.999999106000799

> <s_lp_Force_Field>
OPLS_2005

> <r_lp_Energy>
17.512277

> <b_lp_Chiralities_Consistent>
1

> <s_lp_Variant>
CHEMBL4439_lig945 -1

> <s_i_glide_gridfile>
glide-grid_3hmm

> <i_i_glide_lignum>
1280

> <i_i_glide_rotatable_bonds>
3

> <r_i_docking_score>
-9.08599661626812

> <r_i_glide_ligand_efficiency>
-0.395043331142092

> <r_i_glide_ligand_efficiency_sa>
-1.12345068387137

> <r_i_glide_ligand_efficiency_ln>
-2.19707636907593

> <r_i_glide_gscore>
-9.08599661626812

> <r_i_glide_lipo>
-4.31643075291263

> <r_i_glide_hbond>
-0.31124303915659

> <r_i_glide_metal>
0

> <r_i_glide_rewards>
-2.55522232456126

> <r_i_glide_evdw>
-46.9706764221191

> <r_i_glide_ecoul>
-1.08192479610443

> <r_i_glide_erotb>
0.607722040883985

> <r_i_glide_esite>
0

> <r_i_glide_emodel>
-73.9523997801431

> <r_i_glide_energy>
-48.0526012182236

> <r_i_glide_einternal>
2.23104095458984

> <i_i_glide_confnum>
8

> <i_i_glide_posenum>
146

> <r_i_glide_eff_state_penalty>
0

> <s_user_duplicate_titles>
CHEMBL4439_lig945 

> <i_f3d_flags>
0

> <s_m_subgroup_title>
dock_pv

> <s_m_subgroupid>
dock_pv

> <b_m_subgroup_collapsed>
1

$$$$
CHEMBL4439_lig621
                    3D
 Schrodinger Suite 2021-1.
 43 46  0  0  1  0            999 V2000
   15.9251   66.8903    8.2994 C   0  0  0  0  0  0
   16.2551   66.9278    9.7202 C   0  0  0  0  0  0
   16.9795   68.0272   10.0336 O   0  0  0  0  0  0
   15.9002   66.0512   10.5139 O   0  0  0  0  0  0
   17.5226   68.2017   11.3385 C   0  0  0  0  0  0
   17.5723   68.0571    4.5503 C   0  0  0  0  0  0
   16.2567   67.6337    4.8052 C   0  0  0  0  0  0
   15.2881   67.6570    3.7783 C   0  0  0  0  0  0
   15.6241   68.0853    2.4904 C   0  0  0  0  0  0
   17.8733   68.4620    3.2635 C   0  0  0  0  0  0
   16.9412   68.4677    2.2678 C   0  0  0  0  0  0
   17.5285   68.8739    1.1146 O   0  0  0  0  0  0
   18.7672   69.3926    1.5150 C   0  0  0  0  0  0
   19.0671   68.8610    2.7712 O   0  0  0  0  0  0
   15.9297   67.1825    6.0969 N   0  0  0  0  0  0
   15.0753   66.1674    6.4888 C   0  0  0  0  0  0
   15.0574   66.0362    7.7955 N   0  0  0  0  0  0
   16.4462   67.6669    7.2767 C   0  0  0  0  0  0
   14.2813   65.2659    5.5890 C   0  0  0  0  0  0
   14.8327   64.6425    4.4621 C   0  0  0  0  0  0
   14.0354   63.7815    3.7058 C   0  0  0  0  0  0
   12.7127   63.5543    4.0880 C   0  0  0  0  0  0
   12.2296   64.2164    5.2190 C   0  0  0  0  0  0
   12.9903   65.0604    5.9649 N   0  0  0  0  0  0
   10.7986   64.0481    5.6798 C   0  0  0  0  0  0
   18.9833   67.7357   11.3514 C   0  0  0  0  0  0
   17.4789   69.2579   11.5952 H   0  0  0  0  0  0
   16.9374   67.6776   12.0975 H   0  0  0  0  0  0
   18.3415   68.0462    5.3103 H   0  0  0  0  0  0
   14.2674   67.3558    3.9668 H   0  0  0  0  0  0
   14.8884   68.0970    1.6976 H   0  0  0  0  0  0
   18.6709   70.4665    1.6321 H   0  0  0  0  0  0
   19.5559   69.2013    0.7888 H   0  0  0  0  0  0
   17.1646   68.4716    7.2875 H   0  0  0  0  0  0
   15.8592   64.8138    4.1786 H   0  0  0  0  0  0
   14.4381   63.2905    2.8321 H   0  0  0  0  0  0
   12.0805   62.8916    3.5112 H   0  0  0  0  0  0
   10.2855   63.2586    5.1302 H   0  0  0  0  0  0
   10.7568   63.8048    6.7434 H   0  0  0  0  0  0
   10.2672   64.9866    5.5181 H   0  0  0  0  0  0
   19.4110   67.7913   12.3527 H   0  0  0  0  0  0
   19.0668   66.7084   10.9996 H   0  0  0  0  0  0
   19.5929   68.3539   10.6941 H   0  0  0  0  0  0
  1  2  1  0  0  0
  1 17  1  0  0  0
  1 18  2  0  0  0
  2  3  1  0  0  0
  2  4  2  0  0  0
  3  5  1  0  0  0
  5 26  1  0  0  0
  5 27  1  0  0  0
  5 28  1  0  0  0
  6 10  1  0  0  0
  6  7  2  0  0  0
  6 29  1  0  0  0
  7  8  1  0  0  0
  7 15  1  0  0  0
  8  9  2  0  0  0
  8 30  1  0  0  0
  9 11  1  0  0  0
  9 31  1  0  0  0
 10 11  2  0  0  0
 10 14  1  0  0  0
 11 12  1  0  0  0
 12 13  1  0  0  0
 13 14  1  0  0  0
 13 32  1  0  0  0
 13 33  1  0  0  0
 15 16  1  0  0  0
 15 18  1  0  0  0
 16 17  2  0  0  0
 16 19  1  0  0  0
 18 34  1  0  0  0
 19 20  2  0  0  0
 19 24  1  0  0  0
 20 21  1  0  0  0
 20 35  1  0  0  0
 21 22  2  0  0  0
 21 36  1  0  0  0
 22 23  1  0  0  0
 22 37  1  0  0  0
 23 24  2  0  0  0
 23 25  1  0  0  0
 25 38  1  0  0  0
 25 39  1  0  0  0
 25 40  1  0  0  0
 26 41  1  0  0  0
 26 42  1  0  0  0
 26 43  1  0  0  0
M  END
> <s_m_entry_id>
34358

> <s_m_entry_name>
dock_pv.101

> <s_m_Source_Path>
/home/csk/Desktop/cluster/DUD-E-result/tgfr1

> <s_m_Source_File>
dock_pv.maegz

> <i_m_Source_File_Index>
101

> <chembl_id>
CHEMBL2435043

> <chembl_pref_name>
None

> <i_lp_mmshare_version>
53161

> <r_lp_tautomer_probability>
1

> <s_lp_Force_Field>
OPLS_2005

> <r_lp_Energy>
32.211131

> <b_lp_Chiralities_Consistent>
1

> <s_lp_Variant>
CHEMBL4439_lig621-1

> <s_i_glide_gridfile>
glide-grid_3hmm

> <i_i_glide_lignum>
837

> <i_i_glide_rotatable_bonds>
5

> <r_i_docking_score>
-9.08538894780524

> <r_i_glide_ligand_efficiency>
-0.349438036454048

> <r_i_glide_ligand_efficiency_sa>
-1.03520880802284

> <r_i_glide_ligand_efficiency_ln>
-2.13367378279938

> <r_i_glide_gscore>
-9.08538894780524

> <r_i_glide_lipo>
-3.89130518003824

> <r_i_glide_hbond>
-0.347728352200033

> <r_i_glide_metal>
0

> <r_i_glide_rewards>
-2.3588092796267

> <r_i_glide_evdw>
-47.2740783691406

> <r_i_glide_ecoul>
-4.94534015655518

> <r_i_glide_erotb>
0.617958806000043

> <r_i_glide_esite>
0

> <r_i_glide_emodel>
-77.700846056395

> <r_i_glide_energy>
-52.2194185256958

> <r_i_glide_einternal>
3.12692213058472

> <i_i_glide_confnum>
3

> <i_i_glide_posenum>
12

> <r_i_glide_eff_state_penalty>
0

> <s_user_duplicate_titles>
CHEMBL4439_lig621

> <i_f3d_flags>
0

> <s_m_subgroup_title>
dock_pv

> <s_m_subgroupid>
dock_pv

> <b_m_subgroup_collapsed>
1

$$$$
CHEMBL4439_lig810
                    3D
 Schrodinger Suite 2021-1.
 44 47  0  0  1  0            999 V2000
   18.1580   68.6792    4.2398 C   0  0  0  0  0  0
   17.0675   68.6363    3.3595 C   0  0  0  0  0  0
   17.2440   68.9181    2.0068 C   0  0  0  0  0  0
   18.4306   69.2568    1.4481 N   0  0  0  0  0  0
   18.0673   68.3980    5.6155 N   0  0  0  0  0  0
   17.0666   67.8152    6.4153 C   0  0  0  0  0  0
   17.0527   68.0359    7.8048 C   0  0  0  0  0  0
   16.0374   67.4399    8.5608 C   0  0  0  0  0  0
   15.0667   66.6624    8.0199 N   0  0  0  0  0  0
   15.0848   66.4411    6.6770 C   0  0  0  0  0  0
   16.0872   66.9808    5.8665 C   0  0  0  0  0  0
   13.9825   65.6142    6.0959 C   0  0  0  0  0  0
   14.2400   64.7715    5.0023 C   0  0  0  0  0  0
   13.2316   63.9918    4.4318 C   0  0  0  0  0  0
   11.9400   64.0440    4.9476 C   0  0  0  0  0  0
   11.6639   64.8739    6.0273 C   0  0  0  0  0  0
   12.6668   65.6575    6.5928 C   0  0  0  0  0  0
   12.3380   66.4571    7.6318 F   0  0  0  0  0  0
   19.3920   69.0786    3.6888 C   0  0  0  0  0  0
   19.4663   69.3421    2.2860 C   0  0  0  0  0  0
   20.8285   69.6628    2.0560 C   0  0  0  0  0  0
   21.4158   69.6565    3.3011 N   0  0  0  0  0  0
   20.6045   69.2632    4.3051 N   0  0  0  0  0  0
   13.5296   63.0953    3.2476 C   0  0  0  0  0  0
   22.8038   69.9513    3.6085 C   0  0  0  0  0  0
   18.0962   68.9006    8.5029 C   0  0  0  0  0  0
   16.0664   68.4381    3.7007 H   0  0  0  0  0  0
   16.3994   68.8902    1.3334 H   0  0  0  0  0  0
   18.8894   68.6810    6.1279 H   0  0  0  0  0  0
   15.9812   67.5876    9.6297 H   0  0  0  0  0  0
   16.1029   66.7325    4.8202 H   0  0  0  0  0  0
   15.2373   64.7026    4.5925 H   0  0  0  0  0  0
   11.1502   63.4480    4.5137 H   0  0  0  0  0  0
   10.6671   64.9131    6.4316 H   0  0  0  0  0  0
   21.3920   69.9360    1.1771 H   0  0  0  0  0  0
   12.7984   63.2457    2.4524 H   0  0  0  0  0  0
   13.4663   62.0571    3.5595 H   0  0  0  0  0  0
   14.5191   63.2833    2.8310 H   0  0  0  0  0  0
   23.2202   70.6103    2.8449 H   0  0  0  0  0  0
   22.8801   70.4458    4.5795 H   0  0  0  0  0  0
   23.3728   69.0219    3.6326 H   0  0  0  0  0  0
   18.0044   69.9407    8.1871 H   0  0  0  0  0  0
   18.0072   68.8559    9.5896 H   0  0  0  0  0  0
   19.1019   68.5672    8.2460 H   0  0  0  0  0  0
  1 19  1  0  0  0
  1  2  2  0  0  0
  1  5  1  0  0  0
  2  3  1  0  0  0
  2 27  1  0  0  0
  3  4  2  0  0  0
  3 28  1  0  0  0
  4 20  1  0  0  0
  5  6  1  0  0  0
  5 29  1  0  0  0
  6  7  2  0  0  0
  6 11  1  0  0  0
  7  8  1  0  0  0
  7 26  1  0  0  0
  8  9  2  0  0  0
  8 30  1  0  0  0
  9 10  1  0  0  0
 10 11  2  0  0  0
 10 12  1  0  0  0
 11 31  1  0  0  0
 12 13  2  0  0  0
 12 17  1  0  0  0
 13 14  1  0  0  0
 13 32  1  0  0  0
 14 15  2  0  0  0
 14 24  1  0  0  0
 15 16  1  0  0  0
 15 33  1  0  0  0
 16 17  2  0  0  0
 16 34  1  0  0  0
 17 18  1  0  0  0
 19 20  1  0  0  0
 19 23  2  0  0  0
 20 21  2  0  0  0
 21 22  1  0  0  0
 21 35  1  0  0  0
 22 23  1  0  0  0
 22 25  1  0  0  0
 24 36  1  0  0  0
 24 37  1  0  0  0
 24 38  1  0  0  0
 25 39  1  0  0  0
 25 40  1  0  0  0
 25 41  1  0  0  0
 26 42  1  0  0  0
 26 43  1  0  0  0
 26 44  1  0  0  0
M  END
> <s_m_entry_id>
34359

> <s_m_entry_name>
dock_pv.102

> <s_m_Source_Path>
/home/csk/Desktop/cluster/DUD-E-result/tgfr1

> <s_m_Source_File>
dock_pv.maegz

> <i_m_Source_File_Index>
102

> <chembl_id>
CHEMBL4085263

> <chembl_pref_name>
None

> <i_lp_mmshare_version>
53161

> <r_lp_tautomer_probability>
0.999999106000799

> <s_lp_Force_Field>
OPLS_2005

> <r_lp_Energy>
33.255292

> <b_lp_Chiralities_Consistent>
1

> <s_lp_Variant>
CHEMBL4439_lig810-1

> <s_i_glide_gridfile>
glide-grid_3hmm

> <i_i_glide_lignum>
1126

> <i_i_glide_rotatable_bonds>
3

> <r_i_docking_score>
-9.08229298267377

> <r_i_glide_ligand_efficiency>
-0.349318960872068

> <r_i_glide_ligand_efficiency_sa>
-1.03485604707976

> <r_i_glide_ligand_efficiency_ln>
-2.13294670554694

> <r_i_glide_gscore>
-9.08229298267377

> <r_i_glide_lipo>
-4.33745689468275

> <r_i_glide_hbond>
0

> <r_i_glide_metal>
0

> <r_i_glide_rewards>
-2.26540057276562

> <r_i_glide_evdw>
-46.9872589111328

> <r_i_glide_ecoul>
-3.81725597381592

> <r_i_glide_erotb>
0.472918570157358

> <r_i_glide_esite>
-0.0304027437537246

> <r_i_glide_emodel>
-75.4795889987317

> <r_i_glide_energy>
-50.8045148849487

> <r_i_glide_einternal>
6.86977195739746

> <i_i_glide_confnum>
22

> <i_i_glide_posenum>
174

> <r_i_glide_eff_state_penalty>
0

> <s_user_duplicate_titles>
CHEMBL4439_lig810

> <i_f3d_flags>
0

> <s_m_subgroup_title>
dock_pv

> <s_m_subgroupid>
dock_pv

> <b_m_subgroup_collapsed>
1

$$$$
CHEMBL4439_lig868
                    3D
 Schrodinger Suite 2021-1.
 47 50  0  0  1  0            999 V2000
   20.4588   67.3028    7.7512 C   0  0  0  0  0  0
   19.4764   68.4760    7.9863 C   0  0  0  0  0  0
   20.1376   69.5151    8.9121 C   0  0  0  0  0  0
   18.2714   68.2298    3.1432 C   0  0  0  0  0  0
   18.2673   68.8073    1.8739 C   0  0  0  0  0  0
   17.1293   69.1504    1.2319 N   0  0  0  0  0  0
   15.9555   68.8568    1.8372 C   0  0  0  0  0  0
   15.8781   68.2723    3.1042 C   0  0  0  0  0  0
   17.0614   68.0299    3.8084 C   0  0  0  0  0  0
   17.0390   67.6572    5.2538 C   0  0  0  0  0  0
   16.3731   66.7643    7.2370 N   0  0  0  0  0  0
   16.1422   66.7844    5.9371 C   0  0  0  0  0  0
   17.4149   67.5712    7.4162 N   0  0  0  0  0  0
   17.8577   68.1614    6.2714 C   0  0  0  0  0  0
   18.9883   69.1159    6.6548 C   0  0  2  0  0  0
   18.1543   67.9557    8.5998 C   0  0  0  0  0  0
   15.0667   65.9063    5.3714 C   0  0  0  0  0  0
   13.8986   65.8410    6.0700 N   0  0  0  0  0  0
   12.9138   65.0303    5.6016 C   0  0  0  0  0  0
   13.0663   64.2264    4.4693 C   0  0  0  0  0  0
   14.2673   64.2956    3.7645 C   0  0  0  0  0  0
   15.2742   65.1541    4.2101 C   0  0  0  0  0  0
   11.6186   65.0421    6.3831 C   0  0  0  0  0  0
   20.0587   69.4284    5.5797 C   0  0  0  0  0  0
   21.0019   70.3818    6.0361 O   0  0  0  0  0  0
   20.0809   66.5822    7.0246 H   0  0  0  0  0  0
   21.4097   67.6710    7.3678 H   0  0  0  0  0  0
   20.6668   66.7628    8.6765 H   0  0  0  0  0  0
   19.6030   70.4572    8.8395 H   0  0  0  0  0  0
   20.1394   69.1966    9.9557 H   0  0  0  0  0  0
   21.1712   69.7193    8.6301 H   0  0  0  0  0  0
   19.2061   67.9683    3.6083 H   0  0  0  0  0  0
   19.1914   69.0165    1.3550 H   0  0  0  0  0  0
   15.0657   69.1248    1.2921 H   0  0  0  0  0  0
   14.9140   68.0998    3.5602 H   0  0  0  0  0  0
   18.5288   70.0761    6.8910 H   0  0  0  0  0  0
   17.6097   68.7387    9.1316 H   0  0  0  0  0  0
   18.2972   67.1173    9.2823 H   0  0  0  0  0  0
   12.2664   63.5879    4.1242 H   0  0  0  0  0  0
   14.4083   63.7042    2.8691 H   0  0  0  0  0  0
   16.2041   65.2203    3.6637 H   0  0  0  0  0  0
   10.7789   64.7198    5.7668 H   0  0  0  0  0  0
   11.6997   64.3635    7.2281 H   0  0  0  0  0  0
   11.3891   66.0377    6.7612 H   0  0  0  0  0  0
   19.5888   69.8675    4.7002 H   0  0  0  0  0  0
   20.5856   68.5265    5.2640 H   0  0  0  0  0  0
   21.8515   70.2073    5.6190 H   0  0  0  0  0  0
  1  2  1  0  0  0
  1 26  1  0  0  0
  1 27  1  0  0  0
  1 28  1  0  0  0
  2  3  1  0  0  0
  2 15  1  0  0  0
  2 16  1  0  0  0
  3 29  1  0  0  0
  3 30  1  0  0  0
  3 31  1  0  0  0
  4  5  2  0  0  0
  4  9  1  0  0  0
  4 32  1  0  0  0
  5  6  1  0  0  0
  5 33  1  0  0  0
  6  7  2  0  0  0
  7  8  1  0  0  0
  7 34  1  0  0  0
  8  9  2  0  0  0
  8 35  1  0  0  0
  9 10  1  0  0  0
 10 14  2  0  0  0
 10 12  1  0  0  0
 11 13  1  0  0  0
 11 12  2  0  0  0
 12 17  1  0  0  0
 13 14  1  0  0  0
 13 16  1  0  0  0
 14 15  1  0  0  0
 15 24  1  0  0  0
 15 36  1  0  0  0
 16 37  1  0  0  0
 16 38  1  0  0  0
 17 18  2  0  0  0
 17 22  1  0  0  0
 18 19  1  0  0  0
 19 20  2  0  0  0
 19 23  1  0  0  0
 20 21  1  0  0  0
 20 39  1  0  0  0
 21 22  2  0  0  0
 21 40  1  0  0  0
 22 41  1  0  0  0
 23 42  1  0  0  0
 23 43  1  0  0  0
 23 44  1  0  0  0
 24 25  1  0  0  0
 24 45  1  0  0  0
 24 46  1  0  0  0
 25 47  1  0  0  0
M  END
> <s_m_entry_id>
34360

> <s_m_entry_name>
dock_pv.103

> <s_m_Source_Path>
/home/csk/Desktop/cluster/DUD-E-result/tgfr1

> <s_m_Source_File>
dock_pv.maegz

> <i_m_Source_File_Index>
103

> <chembl_id>
CHEMBL4282287

> <chembl_pref_name>
None

> <i_lp_mmshare_version>
53161

> <r_lp_tautomer_probability>
1

> <s_lp_Force_Field>
OPLS_2005

> <r_lp_Energy>
39.275701

> <b_lp_Chiralities_Consistent>
1

> <s_lp_Variant>
CHEMBL4439_lig868-2

> <s_i_glide_gridfile>
glide-grid_3hmm

> <i_i_glide_lignum>
1203

> <i_i_glide_rotatable_bonds>
4

> <r_i_docking_score>
-9.07504956543928

> <r_i_glide_ligand_efficiency>
-0.363001982617571

> <r_i_glide_ligand_efficiency_sa>
-1.06142423504135

> <r_i_glide_ligand_efficiency_ln>
-2.15105870429898

> <r_i_glide_gscore>
-9.07504956543928

> <r_i_glide_lipo>
-4.06877899841523

> <r_i_glide_hbond>
-0.342683234947498

> <r_i_glide_metal>
0

> <r_i_glide_rewards>
-2.3948216135958

> <r_i_glide_evdw>
-38.3642959594727

> <r_i_glide_ecoul>
-5.70992422103882

> <r_i_glide_erotb>
0.505937712648705

> <r_i_glide_esite>
0

> <r_i_glide_emodel>
-64.3067348046561

> <r_i_glide_energy>
-44.0742201805115

> <r_i_glide_einternal>
3.21394896507263

> <i_i_glide_confnum>
34

> <i_i_glide_posenum>
308

> <r_i_glide_eff_state_penalty>
0

> <s_user_duplicate_titles>
CHEMBL4439_lig868

> <i_f3d_flags>
0

> <s_m_subgroup_title>
dock_pv

> <s_m_subgroupid>
dock_pv

> <b_m_subgroup_collapsed>
1

$$$$
CHEMBL4439_lig123
                    3D
 Schrodinger Suite 2021-1.
 46 49  0  0  1  0            999 V2000
   11.8319   62.9790    3.4903 C   0  0  0  0  0  0
   11.5900   63.3842    4.9575 C   0  0  0  0  0  0
   10.0989   63.6845    5.2049 C   0  0  0  0  0  0
   12.5647   64.4569    5.4742 C   0  0  0  0  0  0
   13.8940   64.4570    5.0451 C   0  0  0  0  0  0
   14.8374   65.2739    5.6543 C   0  0  0  0  0  0
   14.4817   66.1436    6.6948 C   0  0  0  0  0  0
   13.1284   66.1916    7.0635 C   0  0  0  0  0  0
   12.1855   65.3650    6.4635 C   0  0  0  0  0  0
   15.5045   67.0191    7.3636 C   0  0  0  0  0  0
   16.8079   67.1633    6.8682 C   0  0  0  0  0  0
   17.6251   68.1923    7.3351 C   0  0  0  0  0  0
   17.1866   68.9492    8.4237 C   0  0  0  0  0  0
   15.9224   68.6895    8.9470 C   0  0  0  0  0  0
   15.0832   67.7634    8.4259 N   0  0  0  0  0  0
   18.9233   68.5075    6.6754 C   0  0  0  0  0  0
   20.1188   68.6283    7.3702 C   0  0  0  0  0  0
   21.0670   68.9143    6.4380 N   0  0  0  0  0  0
   20.5671   69.0053    5.2119 N   0  0  0  0  0  0
   19.2661   68.7705    5.3092 C   0  0  0  0  0  0
   18.4235   68.8167    4.0411 C   0  0  0  0  0  0
   17.0670   68.4587    3.9657 C   0  0  0  0  0  0
   16.4099   68.4570    2.7393 C   0  0  0  0  0  0
   17.0906   68.8775    1.6037 C   0  0  0  0  0  0
   18.4241   69.2570    1.7294 C   0  0  0  0  0  0
   19.0793   69.2327    2.9154 N   0  0  0  0  0  0
   12.7070   62.3378    3.3954 H   0  0  0  0  0  0
   12.0019   63.8329    2.8482 H   0  0  0  0  0  0
   10.9763   62.4569    3.0696 H   0  0  0  0  0  0
   11.8141   62.5030    5.5631 H   0  0  0  0  0  0
    9.8657   63.6569    6.2690 H   0  0  0  0  0  0
    9.8098   64.6571    4.8047 H   0  0  0  0  0  0
    9.4651   62.9300    4.7423 H   0  0  0  0  0  0
   14.2286   63.7760    4.2775 H   0  0  0  0  0  0
   15.8530   65.1885    5.3047 H   0  0  0  0  0  0
   12.7909   66.8572    7.8447 H   0  0  0  0  0  0
   11.1693   65.4114    6.8265 H   0  0  0  0  0  0
   17.1667   66.5698    6.0453 H   0  0  0  0  0  0
   17.8005   69.7382    8.8314 H   0  0  0  0  0  0
   15.5441   69.2569    9.7798 H   0  0  0  0  0  0
   20.3709   68.5222    8.4159 H   0  0  0  0  0  0
   22.0548   69.0317    6.6193 H   0  0  0  0  0  0
   16.4673   68.2305    4.8179 H   0  0  0  0  0  0
   15.3657   68.1881    2.6787 H   0  0  0  0  0  0
   16.5759   68.9246    0.6605 H   0  0  0  0  0  0
   18.9928   69.6034    0.8765 H   0  0  0  0  0  0
  1  2  1  0  0  0
  1 27  1  0  0  0
  1 28  1  0  0  0
  1 29  1  0  0  0
  2  3  1  0  0  0
  2  4  1  0  0  0
  2 30  1  0  0  0
  3 31  1  0  0  0
  3 32  1  0  0  0
  3 33  1  0  0  0
  4  5  2  0  0  0
  4  9  1  0  0  0
  5  6  1  0  0  0
  5 34  1  0  0  0
  6  7  2  0  0  0
  6 35  1  0  0  0
  7  8  1  0  0  0
  7 10  1  0  0  0
  8  9  2  0  0  0
  8 36  1  0  0  0
  9 37  1  0  0  0
 10 11  2  0  0  0
 10 15  1  0  0  0
 11 12  1  0  0  0
 11 38  1  0  0  0
 12 13  2  0  0  0
 12 16  1  0  0  0
 13 14  1  0  0  0
 13 39  1  0  0  0
 14 15  2  0  0  0
 14 40  1  0  0  0
 16 17  2  0  0  0
 16 20  1  0  0  0
 17 18  1  0  0  0
 17 41  1  0  0  0
 18 19  1  0  0  0
 18 42  1  0  0  0
 19 20  2  0  0  0
 20 21  1  0  0  0
 21 22  2  0  0  0
 21 26  1  0  0  0
 22 23  1  0  0  0
 22 43  1  0  0  0
 23 24  2  0  0  0
 23 44  1  0  0  0
 24 25  1  0  0  0
 24 45  1  0  0  0
 25 26  2  0  0  0
 25 46  1  0  0  0
M  END
> <s_m_entry_id>
34361

> <s_m_entry_name>
dock_pv.104

> <s_m_Source_Path>
/home/csk/Desktop/cluster/DUD-E-result/tgfr1

> <s_m_Source_File>
dock_pv.maegz

> <i_m_Source_File_Index>
104

> <chembl_id>
CHEMBL206544

> <chembl_pref_name>
GW682841X

> <i_lp_mmshare_version>
53161

> <r_lp_tautomer_probability>
0.5

> <s_lp_Force_Field>
OPLS_2005

> <r_lp_Energy>
21.502702

> <b_lp_Chiralities_Consistent>
1

> <s_lp_Variant>
CHEMBL4439_lig123-1

> <s_i_glide_gridfile>
glide-grid_3hmm

> <i_i_glide_lignum>
182

> <i_i_glide_rotatable_bonds>
4

> <r_i_docking_score>
-9.07313797726112

> <r_i_glide_ligand_efficiency>
-0.348966845279274

> <r_i_glide_ligand_efficiency_sa>
-1.03381290602162

> <r_i_glide_ligand_efficiency_ln>
-2.13079668256581

> <r_i_glide_gscore>
-9.07313797726112

> <r_i_glide_lipo>
-5.18974557050247

> <r_i_glide_hbond>
0

> <r_i_glide_metal>
0

> <r_i_glide_rewards>
-1.58228589224848

> <r_i_glide_evdw>
-48.667106628418

> <r_i_glide_ecoul>
-2.38656449317932

> <r_i_glide_erotb>
0.490233490887621

> <r_i_glide_esite>
0

> <r_i_glide_emodel>
-76.5013481760821

> <r_i_glide_energy>
-51.0536711215973

> <r_i_glide_einternal>
3.20348858833313

> <i_i_glide_confnum>
17

> <i_i_glide_posenum>
28

> <r_i_glide_eff_state_penalty>
0

> <s_user_duplicate_titles>
CHEMBL4439_lig123,CHEMBL4439_lig123,342918

> <i_f3d_flags>
0

> <s_m_subgroup_title>
dock_pv

> <s_m_subgroupid>
dock_pv

> <b_m_subgroup_collapsed>
1

$$$$
CHEMBL4439_lig835
                    3D
 Schrodinger Suite 2021-1.
 37 40  0  0  1  0            999 V2000
   16.9820   67.6680    6.3271 C   0  0  0  0  0  0
   15.1179   66.4565    8.0433 N   0  0  0  0  0  0
   15.0535   66.4132    6.6858 C   0  0  0  0  0  0
   15.9279   66.9838    5.8252 N   0  0  0  0  0  0
   16.1882   67.1341    8.5000 N   0  0  0  0  0  0
   17.1810   67.7735    7.7195 C   0  0  0  0  0  0
   18.1118   68.3603    8.6200 C   0  0  0  0  0  0
   17.6716   68.0593    9.9020 C   0  0  0  0  0  0
   16.4983   67.3186    9.8276 C   0  0  0  0  0  0
   13.9377   65.6360    6.0827 C   0  0  0  0  0  0
   14.2547   64.8694    5.0009 N   0  0  0  0  0  0
   13.2902   64.1096    4.4321 C   0  0  0  0  0  0
   11.9843   64.0571    4.9213 C   0  0  0  0  0  0
   11.6666   64.8427    6.0306 C   0  0  0  0  0  0
   12.6427   65.6539    6.6145 C   0  0  0  0  0  0
   17.8911   68.2721    5.4426 N   0  0  0  0  0  0
   17.8428   68.5599    4.0646 C   0  0  0  0  0  0
   19.0106   69.0350    3.4610 C   0  0  0  0  0  0
   18.9838   69.3768    2.1052 C   0  0  0  0  0  0
   17.8675   69.2864    1.3414 N   0  0  0  0  0  0
   16.7338   68.8553    1.9379 C   0  0  0  0  0  0
   16.6848   68.4552    3.2758 C   0  0  0  0  0  0
   13.7151   63.3541    3.1939 C   0  0  0  0  0  0
   18.9934   68.9377    8.3882 H   0  0  0  0  0  0
   18.1606   68.3680   10.8158 H   0  0  0  0  0  0
   15.8706   66.9239   10.6135 H   0  0  0  0  0  0
   11.2337   63.4404    4.4469 H   0  0  0  0  0  0
   10.6674   64.8203    6.4318 H   0  0  0  0  0  0
   12.3954   66.2603    7.4756 H   0  0  0  0  0  0
   18.7100   68.6325    5.9035 H   0  0  0  0  0  0
   19.9266   69.1364    4.0209 H   0  0  0  0  0  0
   19.8715   69.7453    1.6090 H   0  0  0  0  0  0
   15.8514   68.8062    1.3141 H   0  0  0  0  0  0
   15.7401   68.1189    3.6749 H   0  0  0  0  0  0
   12.9852   62.6028    2.8917 H   0  0  0  0  0  0
   14.6641   62.8572    3.3714 H   0  0  0  0  0  0
   13.8648   64.0563    2.3723 H   0  0  0  0  0  0
  1  6  1  0  0  0
  1  4  2  0  0  0
  1 16  1  0  0  0
  2  5  1  0  0  0
  2  3  2  0  0  0
  3  4  1  0  0  0
  3 10  1  0  0  0
  5  6  1  0  0  0
  5  9  1  0  0  0
  6  7  2  0  0  0
  7  8  1  0  0  0
  7 24  1  0  0  0
  8  9  2  0  0  0
  8 25  1  0  0  0
  9 26  1  0  0  0
 10 11  2  0  0  0
 10 15  1  0  0  0
 11 12  1  0  0  0
 12 13  2  0  0  0
 12 23  1  0  0  0
 13 14  1  0  0  0
 13 27  1  0  0  0
 14 15  2  0  0  0
 14 28  1  0  0  0
 15 29  1  0  0  0
 16 17  1  0  0  0
 16 30  1  0  0  0
 17 18  2  0  0  0
 17 22  1  0  0  0
 18 19  1  0  0  0
 18 31  1  0  0  0
 19 20  2  0  0  0
 19 32  1  0  0  0
 20 21  1  0  0  0
 21 22  2  0  0  0
 21 33  1  0  0  0
 22 34  1  0  0  0
 23 35  1  0  0  0
 23 36  1  0  0  0
 23 37  1  0  0  0
M  END
> <s_m_entry_id>
34362

> <s_m_entry_name>
dock_pv.105

> <s_m_Source_Path>
/home/csk/Desktop/cluster/DUD-E-result/tgfr1

> <s_m_Source_File>
dock_pv.maegz

> <i_m_Source_File_Index>
105

> <chembl_id>
CHEMBL4206793

> <chembl_pref_name>
None

> <i_lp_mmshare_version>
53161

> <r_lp_tautomer_probability>
0.999999106000799

> <s_lp_Force_Field>
OPLS_2005

> <r_lp_Energy>
31.740972

> <b_lp_Chiralities_Consistent>
1

> <s_lp_Variant>
CHEMBL4439_lig835-1

> <s_i_glide_gridfile>
glide-grid_3hmm

> <i_i_glide_lignum>
1153

> <i_i_glide_rotatable_bonds>
3

> <r_i_docking_score>
-9.04994812612522

> <r_i_glide_ligand_efficiency>
-0.393476005483705

> <r_i_glide_ligand_efficiency_sa>
-1.11899341818947

> <r_i_glide_ligand_efficiency_ln>
-2.18835951728974

> <r_i_glide_gscore>
-9.04994812612522

> <r_i_glide_lipo>
-3.58463902302354

> <r_i_glide_hbond>
-0.251623848613658

> <r_i_glide_metal>
0

> <r_i_glide_rewards>
-2.98308788652033

> <r_i_glide_evdw>
-47.0551490783691

> <r_i_glide_ecoul>
-3.21392178535461

> <r_i_glide_erotb>
0.60424835375396

> <r_i_glide_esite>
0

> <r_i_glide_emodel>
-76.7917712505406

> <r_i_glide_energy>
-50.2690708637238

> <r_i_glide_einternal>
2.21598720550537

> <i_i_glide_confnum>
5

> <i_i_glide_posenum>
354

> <r_i_glide_eff_state_penalty>
0

> <s_user_duplicate_titles>
CHEMBL4439_lig835

> <i_f3d_flags>
0

> <s_m_subgroup_title>
dock_pv

> <s_m_subgroupid>
dock_pv

> <b_m_subgroup_collapsed>
1

$$$$
CHEMBL4439_lig778
                    3D
 Schrodinger Suite 2021-1.
 49 53  0  0  1  0            999 V2000
   20.4725   69.6570    1.8737 C   0  0  0  0  0  0
   21.5444   69.6570    2.7541 C   0  0  0  0  0  0
   21.3590   69.3236    4.0872 C   0  0  0  0  0  0
   20.1025   68.9534    4.5888 C   0  0  0  0  0  0
   19.1880   69.2571    2.3112 C   0  0  0  0  0  0
   18.9870   68.8755    3.6790 C   0  0  0  0  0  0
   17.6659   68.4390    4.0430 C   0  0  0  0  0  0
   16.6654   68.4572    3.0672 C   0  0  0  0  0  0
   16.9616   68.8592    1.7749 C   0  0  0  0  0  0
   18.1925   69.2450    1.3841 N   0  0  0  0  0  0
   19.8982   68.6677    5.9307 O   0  0  0  0  0  0
   20.9544   68.8434    6.8709 C   0  0  0  0  0  0
   17.3737   68.0570    5.3637 N   0  0  0  0  0  0
   16.3552   67.3115    5.9777 C   0  0  0  0  0  0
   16.2014   67.3620    7.3742 C   0  0  0  0  0  0
   15.1660   66.6222    7.9491 C   0  0  0  0  0  0
   14.3293   65.8347    7.2298 N   0  0  0  0  0  0
   14.5242   65.7309    5.8866 C   0  0  0  0  0  0
   15.5194   66.4679    5.2415 C   0  0  0  0  0  0
   13.6195   64.8125    5.1304 C   0  0  0  0  0  0
   14.0860   64.0589    4.0320 C   0  0  0  0  0  0
   13.2181   63.2570    3.2984 C   0  0  0  0  0  0
   11.8797   63.1728    3.6555 C   0  0  0  0  0  0
   11.4085   63.8584    4.7659 C   0  0  0  0  0  0
   12.2662   64.6850    5.4911 C   0  0  0  0  0  0
    9.7650   63.6570    5.2320 Cl  0  0  0  0  0  0
   15.3894   64.0661    3.6680 F   0  0  0  0  0  0
   17.1483   68.1698    8.2563 C   0  0  0  0  0  0
   16.9781   69.6570    8.4352 C   0  0  0  0  0  0
   16.7694   68.7322    9.6110 C   0  0  0  0  0  0
   20.6215   69.9450    0.8420 H   0  0  0  0  0  0
   22.5264   69.9449    2.4069 H   0  0  0  0  0  0
   22.2263   69.3606    4.7295 H   0  0  0  0  0  0
   15.6395   68.2239    3.2994 H   0  0  0  0  0  0
   16.1845   68.8909    1.0234 H   0  0  0  0  0  0
   20.5741   68.6579    7.8752 H   0  0  0  0  0  0
   21.3468   69.8616    6.8541 H   0  0  0  0  0  0
   21.7687   68.1410    6.6974 H   0  0  0  0  0  0
   18.1190   68.3283    5.9962 H   0  0  0  0  0  0
   15.0008   66.6418    9.0158 H   0  0  0  0  0  0
   15.6569   66.3502    4.1810 H   0  0  0  0  0  0
   13.5816   62.7028    2.4457 H   0  0  0  0  0  0
   11.2107   62.5481    3.0835 H   0  0  0  0  0  0
   11.8708   65.2314    6.3361 H   0  0  0  0  0  0
   18.1787   67.8177    8.1851 H   0  0  0  0  0  0
   17.8662   70.2899    8.4063 H   0  0  0  0  0  0
   16.0976   70.1535    8.0296 H   0  0  0  0  0  0
   15.7585   68.5940    9.9929 H   0  0  0  0  0  0
   17.5139   68.7223   10.4078 H   0  0  0  0  0  0
  1  2  2  0  0  0
  1  5  1  0  0  0
  1 31  1  0  0  0
  2  3  1  0  0  0
  2 32  1  0  0  0
  3  4  2  0  0  0
  3 33  1  0  0  0
  4  6  1  0  0  0
  4 11  1  0  0  0
  5  6  1  0  0  0
  5 10  2  0  0  0
  6  7  2  0  0  0
  7  8  1  0  0  0
  7 13  1  0  0  0
  8  9  2  0  0  0
  8 34  1  0  0  0
  9 10  1  0  0  0
  9 35  1  0  0  0
 11 12  1  0  0  0
 12 36  1  0  0  0
 12 37  1  0  0  0
 12 38  1  0  0  0
 13 14  1  0  0  0
 13 39  1  0  0  0
 14 15  2  0  0  0
 14 19  1  0  0  0
 15 16  1  0  0  0
 15 28  1  0  0  0
 16 17  2  0  0  0
 16 40  1  0  0  0
 17 18  1  0  0  0
 18 19  2  0  0  0
 18 20  1  0  0  0
 19 41  1  0  0  0
 20 21  2  0  0  0
 20 25  1  0  0  0
 21 22  1  0  0  0
 21 27  1  0  0  0
 22 23  2  0  0  0
 22 42  1  0  0  0
 23 24  1  0  0  0
 23 43  1  0  0  0
 24 25  2  0  0  0
 24 26  1  0  0  0
 25 44  1  0  0  0
 28 29  1  0  0  0
 28 30  1  0  0  0
 28 45  1  0  0  0
 29 30  1  0  0  0
 29 46  1  0  0  0
 29 47  1  0  0  0
 30 48  1  0  0  0
 30 49  1  0  0  0
M  END
> <s_m_entry_id>
34363

> <s_m_entry_name>
dock_pv.106

> <s_m_Source_Path>
/home/csk/Desktop/cluster/DUD-E-result/tgfr1

> <s_m_Source_File>
dock_pv.maegz

> <i_m_Source_File_Index>
106

> <chembl_id>
CHEMBL4094260

> <chembl_pref_name>
None

> <i_lp_mmshare_version>
53161

> <r_lp_tautomer_probability>
0.999999106000799

> <s_lp_Force_Field>
OPLS_2005

> <r_lp_Energy>
40.566305

> <b_lp_Chiralities_Consistent>
1

> <s_lp_Variant>
CHEMBL4439_lig778-1

> <s_i_glide_gridfile>
glide-grid_3hmm

> <i_i_glide_lignum>
1092

> <i_i_glide_rotatable_bonds>
5

> <r_i_docking_score>
-9.04461077288081

> <r_i_glide_ligand_efficiency>
-0.301487025762694

> <r_i_glide_ligand_efficiency_sa>
-0.936790285511121

> <r_i_glide_ligand_efficiency_ln>
-2.05503411652604

> <r_i_glide_gscore>
-9.04461077288081

> <r_i_glide_lipo>
-4.83052798928598

> <r_i_glide_hbond>
-0.171721763760334

> <r_i_glide_metal>
0

> <r_i_glide_rewards>
-1.41202657089133

> <r_i_glide_evdw>
-52.6090965270996

> <r_i_glide_ecoul>
-2.99221849441528

> <r_i_glide_erotb>
0.448953151574106

> <r_i_glide_esite>
0

> <r_i_glide_emodel>
-81.727053689475

> <r_i_glide_energy>
-55.6013150215149

> <r_i_glide_einternal>
6.06956434249878

> <i_i_glide_confnum>
75

> <i_i_glide_posenum>
385

> <r_i_glide_eff_state_penalty>
0

> <s_user_duplicate_titles>
CHEMBL4439_lig778

> <i_f3d_flags>
0

> <s_m_subgroup_title>
dock_pv

> <s_m_subgroupid>
dock_pv

> <b_m_subgroup_collapsed>
1

$$$$
CHEMBL4439_lig472
                    3D
 Schrodinger Suite 2021-1.
 47 51  0  0  1  0            999 V2000
   17.8663   68.0596    4.4966 C   0  0  0  0  0  0
   16.6355   67.5540    4.9233 C   0  0  0  0  0  0
   15.5497   67.5792    4.0365 C   0  0  0  0  0  0
   15.6777   68.0571    2.7311 C   0  0  0  0  0  0
   17.9747   68.5349    3.2302 N   0  0  0  0  0  0
   16.9306   68.5318    2.3144 C   0  0  0  0  0  0
   17.4012   69.0222    1.1471 N   0  0  0  0  0  0
   18.6650   69.2588    1.4381 C   0  0  0  0  0  0
   19.0670   69.0701    2.6751 N   0  0  0  0  0  0
   16.5152   67.1301    6.3469 C   0  0  0  0  0  0
   15.4715   66.5410    7.0817 C   0  0  0  0  0  0
   15.6878   66.6526    8.3801 N   0  0  0  0  0  0
   16.9363   67.1606    8.5250 N   0  0  0  0  0  0
   17.5087   67.2578    7.2873 C   0  0  0  0  0  0
   17.4648   67.5206    9.7969 C   0  0  0  0  0  0
   16.6675   67.2571   11.2317 S   0  0  0  0  0  0
   18.6776   68.1564    9.8980 N   0  0  0  0  0  0
   19.6053   68.6346    8.9634 C   0  0  0  0  0  0
   20.9012   68.1149    9.0062 C   0  0  0  0  0  0
   21.8652   68.5695    8.1053 C   0  0  0  0  0  0
   21.5350   69.5236    7.1438 C   0  0  0  0  0  0
   20.2473   70.0565    7.1098 C   0  0  0  0  0  0
   19.2951   69.6556    8.0492 C   0  0  0  0  0  0
   14.2361   65.9034    6.5522 C   0  0  0  0  0  0
   12.9720   66.2124    7.0537 C   0  0  0  0  0  0
   11.8588   65.6512    6.4322 C   0  0  0  0  0  0
   12.0208   64.7913    5.3459 C   0  0  0  0  0  0
   13.3183   64.5136    4.9134 C   0  0  0  0  0  0
   14.4173   65.0416    5.5122 N   0  0  0  0  0  0
   13.5800   63.6270    3.7125 C   0  0  0  0  0  0
   18.0629   70.2129    8.0320 F   0  0  0  0  0  0
   18.7607   68.1248    5.0954 H   0  0  0  0  0  0
   14.5708   67.2615    4.3540 H   0  0  0  0  0  0
   14.8361   68.0655    2.0539 H   0  0  0  0  0  0
   19.3432   69.6569    0.6960 H   0  0  0  0  0  0
   18.5336   67.5259    7.1399 H   0  0  0  0  0  0
   18.9595   68.3475   10.8483 H   0  0  0  0  0  0
   21.1626   67.3604    9.7351 H   0  0  0  0  0  0
   22.8696   68.1716    8.1357 H   0  0  0  0  0  0
   22.2820   69.8547    6.4350 H   0  0  0  0  0  0
   19.9905   70.8028    6.3729 H   0  0  0  0  0  0
   12.8519   66.8940    7.8821 H   0  0  0  0  0  0
   10.8719   65.9023    6.7840 H   0  0  0  0  0  0
   11.1606   64.3677    4.8486 H   0  0  0  0  0  0
   12.6643   63.1718    3.3331 H   0  0  0  0  0  0
   14.0292   64.2042    2.9038 H   0  0  0  0  0  0
   14.2698   62.8311    3.9796 H   0  0  0  0  0  0
  1  2  2  0  0  0
  1  5  1  0  0  0
  1 32  1  0  0  0
  2 10  1  0  0  0
  2  3  1  0  0  0
  3  4  2  0  0  0
  3 33  1  0  0  0
  4  6  1  0  0  0
  4 34  1  0  0  0
  5  9  1  0  0  0
  5  6  1  0  0  0
  6  7  2  0  0  0
  7  8  1  0  0  0
  8  9  2  0  0  0
  8 35  1  0  0  0
 10 11  1  0  0  0
 10 14  2  0  0  0
 11 12  2  0  0  0
 11 24  1  0  0  0
 12 13  1  0  0  0
 13 15  1  0  0  0
 13 14  1  0  0  0
 14 36  1  0  0  0
 15 16  2  0  0  0
 15 17  1  0  0  0
 17 18  1  0  0  0
 17 37  1  0  0  0
 18 19  2  0  0  0
 18 23  1  0  0  0
 19 20  1  0  0  0
 19 38  1  0  0  0
 20 21  2  0  0  0
 20 39  1  0  0  0
 21 22  1  0  0  0
 21 40  1  0  0  0
 22 23  2  0  0  0
 22 41  1  0  0  0
 23 31  1  0  0  0
 24 25  2  0  0  0
 24 29  1  0  0  0
 25 26  1  0  0  0
 25 42  1  0  0  0
 26 27  2  0  0  0
 26 43  1  0  0  0
 27 28  1  0  0  0
 27 44  1  0  0  0
 28 29  2  0  0  0
 28 30  1  0  0  0
 30 45  1  0  0  0
 30 46  1  0  0  0
 30 47  1  0  0  0
M  END
> <s_m_entry_id>
34364

> <s_m_entry_name>
dock_pv.107

> <s_m_Source_Path>
/home/csk/Desktop/cluster/DUD-E-result/tgfr1

> <s_m_Source_File>
dock_pv.maegz

> <i_m_Source_File_Index>
107

> <chembl_id>
CHEMBL1835534

> <chembl_pref_name>
None

> <i_lp_mmshare_version>
53161

> <r_lp_tautomer_probability>
1

> <s_lp_Force_Field>
OPLS_2005

> <r_lp_Energy>
29.15161

> <b_lp_Chiralities_Consistent>
1

> <s_lp_Variant>
CHEMBL4439_lig472-1

> <s_i_glide_gridfile>
glide-grid_3hmm

> <i_i_glide_lignum>
618

> <i_i_glide_rotatable_bonds>
5

> <r_i_docking_score>
-9.03983682415158

> <r_i_glide_ligand_efficiency>
-0.291607639488761

> <r_i_glide_ligand_efficiency_sa>
-0.916050595730948

> <r_i_glide_ligand_efficiency_ln>
-2.03876024157387

> <r_i_glide_gscore>
-9.03983682415158

> <r_i_glide_lipo>
-3.14036783817235

> <r_i_glide_hbond>
-0.273849132933781

> <r_i_glide_metal>
0

> <r_i_glide_rewards>
-2.96407711402424

> <r_i_glide_evdw>
-50.4371452331543

> <r_i_glide_ecoul>
-4.4178295135498

> <r_i_glide_erotb>
0.538710007556539

> <r_i_glide_esite>
-0.015721057887558

> <r_i_glide_emodel>
-80.1777081893913

> <r_i_glide_energy>
-54.8549747467041

> <r_i_glide_einternal>
9.84309577941895

> <i_i_glide_confnum>
55

> <i_i_glide_posenum>
12

> <r_i_glide_eff_state_penalty>
0

> <s_user_duplicate_titles>
CHEMBL4439_lig472

> <i_f3d_flags>
0

> <s_m_subgroup_title>
dock_pv

> <s_m_subgroupid>
dock_pv

> <b_m_subgroup_collapsed>
1

$$$$
CHEMBL4439_lig869
                    3D
 Schrodinger Suite 2021-1.
 42 45  0  0  1  0            999 V2000
   18.8697   67.6835    9.7708 C   0  0  0  0  0  0
   17.5878   67.7061    8.9125 C   0  0  0  0  0  0
   16.6665   68.8551    9.3637 C   0  0  0  0  0  0
   15.3111   67.6720    3.3950 C   0  0  0  0  0  0
   15.5071   68.4568    2.2607 C   0  0  0  0  0  0
   16.7128   68.9703    1.9068 N   0  0  0  0  0  0
   17.7594   68.7359    2.7366 C   0  0  0  0  0  0
   17.6340   68.0135    3.9249 C   0  0  0  0  0  0
   16.3852   67.4721    4.2636 C   0  0  0  0  0  0
   16.1553   66.7857    5.5636 C   0  0  0  0  0  0
   15.2640   65.5210    7.2123 N   0  0  0  0  0  0
   15.2217   65.7733    5.9198 C   0  0  0  0  0  0
   16.2245   66.2834    7.7040 N   0  0  0  0  0  0
   16.8195   67.0497    6.7560 C   0  0  0  0  0  0
   17.9080   67.8635    7.4052 C   0  0  0  0  0  0
   16.8120   66.3783    9.0210 C   0  0  0  0  0  0
   14.2385   64.9832    5.0925 C   0  0  0  0  0  0
   12.8679   64.8867    5.4132 C   0  0  0  0  0  0
   12.0290   64.0131    4.7135 C   0  0  0  0  0  0
   12.5358   63.2572    3.6599 C   0  0  0  0  0  0
   13.8672   63.4059    3.2847 C   0  0  0  0  0  0
   14.7150   64.2552    3.9985 C   0  0  0  0  0  0
   12.2953   65.7475    6.4321 C   0  0  0  0  0  0
   11.8671   66.4563    7.2323 N   0  0  0  0  0  0
   19.5448   66.8818    9.4682 H   0  0  0  0  0  0
   19.4190   68.6226    9.6874 H   0  0  0  0  0  0
   18.6406   67.5316   10.8262 H   0  0  0  0  0  0
   15.7231   68.8734    8.8153 H   0  0  0  0  0  0
   16.4284   68.7828   10.4249 H   0  0  0  0  0  0
   17.1506   69.8139    9.2004 H   0  0  0  0  0  0
   14.3249   67.2996    3.6255 H   0  0  0  0  0  0
   14.6665   68.6931    1.6321 H   0  0  0  0  0  0
   18.7087   69.1619    2.4453 H   0  0  0  0  0  0
   18.4893   67.8854    4.5711 H   0  0  0  0  0  0
   17.9043   68.9081    7.0918 H   0  0  0  0  0  0
   18.8894   67.4650    7.1440 H   0  0  0  0  0  0
   16.0517   66.3856    9.8038 H   0  0  0  0  0  0
   17.4671   65.5247    9.2008 H   0  0  0  0  0  0
   10.9792   63.9315    4.9613 H   0  0  0  0  0  0
   11.8880   62.5959    3.1040 H   0  0  0  0  0  0
   14.2469   62.8570    2.4377 H   0  0  0  0  0  0
   15.7542   64.3243    3.7112 H   0  0  0  0  0  0
  1  2  1  0  0  0
  1 25  1  0  0  0
  1 26  1  0  0  0
  1 27  1  0  0  0
  2  3  1  0  0  0
  2 15  1  0  0  0
  2 16  1  0  0  0
  3 28  1  0  0  0
  3 29  1  0  0  0
  3 30  1  0  0  0
  4  5  2  0  0  0
  4  9  1  0  0  0
  4 31  1  0  0  0
  5  6  1  0  0  0
  5 32  1  0  0  0
  6  7  2  0  0  0
  7  8  1  0  0  0
  7 33  1  0  0  0
  8  9  2  0  0  0
  8 34  1  0  0  0
  9 10  1  0  0  0
 10 14  2  0  0  0
 10 12  1  0  0  0
 11 13  1  0  0  0
 11 12  2  0  0  0
 12 17  1  0  0  0
 13 14  1  0  0  0
 13 16  1  0  0  0
 14 15  1  0  0  0
 15 35  1  0  0  0
 15 36  1  0  0  0
 16 37  1  0  0  0
 16 38  1  0  0  0
 17 18  2  0  0  0
 17 22  1  0  0  0
 18 19  1  0  0  0
 18 23  1  0  0  0
 19 20  2  0  0  0
 19 39  1  0  0  0
 20 21  1  0  0  0
 20 40  1  0  0  0
 21 22  2  0  0  0
 21 41  1  0  0  0
 22 42  1  0  0  0
 23 24  3  0  0  0
M  END
> <s_m_entry_id>
34365

> <s_m_entry_name>
dock_pv.108

> <s_m_Source_Path>
/home/csk/Desktop/cluster/DUD-E-result/tgfr1

> <s_m_Source_File>
dock_pv.maegz

> <i_m_Source_File_Index>
108

> <chembl_id>
CHEMBL4277755

> <chembl_pref_name>
None

> <i_lp_mmshare_version>
53161

> <r_lp_tautomer_probability>
1

> <s_lp_Force_Field>
OPLS_2005

> <r_lp_Energy>
36.713757

> <b_lp_Chiralities_Consistent>
1

> <s_lp_Variant>
CHEMBL4439_lig869-1

> <s_i_glide_gridfile>
glide-grid_3hmm

> <i_i_glide_lignum>
1204

> <i_i_glide_rotatable_bonds>
2

> <r_i_docking_score>
-9.03038045723662

> <r_i_glide_ligand_efficiency>
-0.376265852384859

> <r_i_glide_ligand_efficiency_sa>
-1.08533852669707

> <r_i_glide_ligand_efficiency_ln>
-2.16138442057473

> <r_i_glide_gscore>
-9.03038045723662

> <r_i_glide_lipo>
-4.32518116821165

> <r_i_glide_hbond>
-0.266965028235428

> <r_i_glide_metal>
0

> <r_i_glide_rewards>
-2.31430675211322

> <r_i_glide_evdw>
-42.8261222839355

> <r_i_glide_ecoul>
-2.39164924621582

> <r_i_glide_erotb>
0.376125992452832

> <r_i_glide_esite>
0

> <r_i_glide_emodel>
-60.2374273598412

> <r_i_glide_energy>
-45.2177715301514

> <r_i_glide_einternal>
1.17012882232666

> <i_i_glide_confnum>
12

> <i_i_glide_posenum>
324

> <r_i_glide_eff_state_penalty>
0

> <s_user_duplicate_titles>
CHEMBL4439_lig869

> <i_f3d_flags>
0

> <s_m_subgroup_title>
dock_pv

> <s_m_subgroupid>
dock_pv

> <b_m_subgroup_collapsed>
1

$$$$
CHEMBL4439_lig773
                    3D
 Schrodinger Suite 2021-1.
 42 45  0  0  1  0            999 V2000
   20.7437   69.6643    1.6596 C   0  0  0  0  0  0
   21.8351   69.7892    2.5061 C   0  0  0  0  0  0
   21.6791   69.6336    3.8764 C   0  0  0  0  0  0
   20.4381   69.3069    4.4498 C   0  0  0  0  0  0
   19.4646   69.3513    2.1788 C   0  0  0  0  0  0
   19.2992   69.1249    3.5866 C   0  0  0  0  0  0
   17.9911   68.7190    4.0241 C   0  0  0  0  0  0
   16.9590   68.6716    3.0787 C   0  0  0  0  0  0
   17.2173   68.9439    1.7454 C   0  0  0  0  0  0
   18.4426   69.2567    1.2856 N   0  0  0  0  0  0
   20.2672   69.1823    5.8191 O   0  0  0  0  0  0
   21.3412   69.5013    6.7018 C   0  0  0  0  0  0
   17.7183   68.4145    5.3710 N   0  0  0  0  0  0
   16.6836   67.6827    5.9799 C   0  0  0  0  0  0
   16.3982   67.8995    7.3307 C   0  0  0  0  0  0
   15.3389   67.2014    7.9139 C   0  0  0  0  0  0
   14.5836   66.3045    7.2310 N   0  0  0  0  0  0
   14.8850   66.0607    5.9225 C   0  0  0  0  0  0
   15.9333   66.7311    5.2836 C   0  0  0  0  0  0
   14.0338   65.0785    5.1840 C   0  0  0  0  0  0
   12.6904   64.8545    5.5362 C   0  0  0  0  0  0
   11.9087   63.9454    4.8200 C   0  0  0  0  0  0
   12.4496   63.2564    3.7399 C   0  0  0  0  0  0
   13.7743   63.4618    3.3772 C   0  0  0  0  0  0
   14.5567   64.3664    4.0896 C   0  0  0  0  0  0
   10.2670   63.6576    5.2480 Cl  0  0  0  0  0  0
   20.8612   69.8264    0.5979 H   0  0  0  0  0  0
   22.8039   70.0371    2.1009 H   0  0  0  0  0  0
   22.5608   69.7649    4.4852 H   0  0  0  0  0  0
   15.9415   68.4570    3.3627 H   0  0  0  0  0  0
   16.4201   68.9096    1.0188 H   0  0  0  0  0  0
   21.0146   69.3690    7.7317 H   0  0  0  0  0  0
   21.6564   70.5404    6.5892 H   0  0  0  0  0  0
   22.2036   68.8553    6.5465 H   0  0  0  0  0  0
   18.4511   68.7329    5.9933 H   0  0  0  0  0  0
   16.9645   68.6140    7.9082 H   0  0  0  0  0  0
   15.0754   67.3671    8.9492 H   0  0  0  0  0  0
   16.1655   66.5131    4.2559 H   0  0  0  0  0  0
   12.2419   65.3855    6.3633 H   0  0  0  0  0  0
   11.8407   62.5629    3.1784 H   0  0  0  0  0  0
   14.1888   62.9247    2.5356 H   0  0  0  0  0  0
   15.5835   64.4901    3.7827 H   0  0  0  0  0  0
  1  2  2  0  0  0
  1  5  1  0  0  0
  1 27  1  0  0  0
  2  3  1  0  0  0
  2 28  1  0  0  0
  3  4  2  0  0  0
  3 29  1  0  0  0
  4  6  1  0  0  0
  4 11  1  0  0  0
  5  6  1  0  0  0
  5 10  2  0  0  0
  6  7  2  0  0  0
  7  8  1  0  0  0
  7 13  1  0  0  0
  8  9  2  0  0  0
  8 30  1  0  0  0
  9 10  1  0  0  0
  9 31  1  0  0  0
 11 12  1  0  0  0
 12 32  1  0  0  0
 12 33  1  0  0  0
 12 34  1  0  0  0
 13 14  1  0  0  0
 13 35  1  0  0  0
 14 15  2  0  0  0
 14 19  1  0  0  0
 15 16  1  0  0  0
 15 36  1  0  0  0
 16 17  2  0  0  0
 16 37  1  0  0  0
 17 18  1  0  0  0
 18 19  2  0  0  0
 18 20  1  0  0  0
 19 38  1  0  0  0
 20 21  2  0  0  0
 20 25  1  0  0  0
 21 22  1  0  0  0
 21 39  1  0  0  0
 22 23  2  0  0  0
 22 26  1  0  0  0
 23 24  1  0  0  0
 23 40  1  0  0  0
 24 25  2  0  0  0
 24 41  1  0  0  0
 25 42  1  0  0  0
M  END
> <s_m_entry_id>
34366

> <s_m_entry_name>
dock_pv.109

> <s_m_Source_Path>
/home/csk/Desktop/cluster/DUD-E-result/tgfr1

> <s_m_Source_File>
dock_pv.maegz

> <i_m_Source_File_Index>
109

> <chembl_id>
CHEMBL4096668

> <chembl_pref_name>
None

> <i_lp_mmshare_version>
53161

> <r_lp_tautomer_probability>
0.999999106000799

> <s_lp_Force_Field>
OPLS_2005

> <r_lp_Energy>
31.542871

> <b_lp_Chiralities_Consistent>
1

> <s_lp_Variant>
CHEMBL4439_lig773-1

> <s_i_glide_gridfile>
glide-grid_3hmm

> <i_i_glide_lignum>
1087

> <i_i_glide_rotatable_bonds>
4

> <r_i_docking_score>
-9.02985447179524

> <r_i_glide_ligand_efficiency>
-0.347302095069048

> <r_i_glide_ligand_efficiency_sa>
-1.0288810900743

> <r_i_glide_ligand_efficiency_ln>
-2.12063169333191

> <r_i_glide_gscore>
-9.02985447179524

> <r_i_glide_lipo>
-4.60228127766913

> <r_i_glide_hbond>
-0.0945198640131036

> <r_i_glide_metal>
0

> <r_i_glide_rewards>
-2.14898425233751

> <r_i_glide_evdw>
-47.1820640563965

> <r_i_glide_ecoul>
-1.76549994945526

> <r_i_glide_erotb>
0.439859117462619

> <r_i_glide_esite>
0

> <r_i_glide_emodel>
-75.273838948742

> <r_i_glide_energy>
-48.9475640058517

> <r_i_glide_einternal>
0.820985913276672

> <i_i_glide_confnum>
13

> <i_i_glide_posenum>
291

> <r_i_glide_eff_state_penalty>
0

> <s_user_duplicate_titles>
CHEMBL4439_lig773

> <i_f3d_flags>
0

> <s_m_subgroup_title>
dock_pv

> <s_m_subgroupid>
dock_pv

> <b_m_subgroup_collapsed>
1

$$$$
CHEMBL4439_lig257
                    3D
 Schrodinger Suite 2021-1.
 38 41  0  0  1  0            999 V2000
   16.1051   67.2061    6.0147 C   0  0  0  0  0  0
   15.1123   66.2284    6.3156 C   0  0  0  0  0  0
   14.9709   66.0572    7.6192 N   0  0  0  0  0  0
   16.5691   67.5927    7.2659 C   0  0  0  0  0  0
   15.8538   66.8821    8.1792 N   0  0  0  0  0  0
   16.2985   67.0664    9.5453 C   0  0  0  0  0  0
   17.0574   68.3940    9.4319 C   0  0  0  0  0  0
   17.5526   68.4831    7.9846 C   0  0  0  0  0  0
   16.5835   67.7366    4.6981 C   0  0  0  0  0  0
   15.7006   67.8705    3.6220 C   0  0  0  0  0  0
   16.1262   68.4562    2.4317 C   0  0  0  0  0  0
   17.4507   68.8553    2.2921 C   0  0  0  0  0  0
   18.3459   68.7095    3.3475 C   0  0  0  0  0  0
   17.9098   68.1595    4.5506 C   0  0  0  0  0  0
   14.3568   65.3443    5.3723 C   0  0  0  0  0  0
   13.0364   65.1050    5.6224 N   0  0  0  0  0  0
   12.3756   64.2264    4.8100 C   0  0  0  0  0  0
   13.0219   63.5099    3.7991 C   0  0  0  0  0  0
   14.3625   63.7776    3.5555 C   0  0  0  0  0  0
   15.0321   64.7272    4.3188 C   0  0  0  0  0  0
   10.8707   64.0997    5.0120 C   0  0  0  0  0  0
   10.3091   63.2577    4.1429 F   0  0  0  0  0  0
   10.6232   63.6570    6.2423 F   0  0  0  0  0  0
   10.2956   65.2872    4.8318 F   0  0  0  0  0  0
   17.8695   69.3761    1.1187 F   0  0  0  0  0  0
   16.9614   66.2502    9.8371 H   0  0  0  0  0  0
   15.4669   67.1156   10.2461 H   0  0  0  0  0  0
   17.8722   68.4733   10.1540 H   0  0  0  0  0  0
   16.3759   69.2241    9.6334 H   0  0  0  0  0  0
   18.5761   68.1189    7.8847 H   0  0  0  0  0  0
   17.5403   69.5149    7.6324 H   0  0  0  0  0  0
   14.6680   67.5685    3.7183 H   0  0  0  0  0  0
   15.4353   68.5774    1.6104 H   0  0  0  0  0  0
   19.3725   69.0238    3.2320 H   0  0  0  0  0  0
   18.6100   68.0614    5.3668 H   0  0  0  0  0  0
   12.4942   62.8052    3.1715 H   0  0  0  0  0  0
   14.8788   63.2593    2.7667 H   0  0  0  0  0  0
   16.0607   64.9596    4.1025 H   0  0  0  0  0  0
  1  9  1  0  0  0
  1  4  2  0  0  0
  1  2  1  0  0  0
  2  3  2  0  0  0
  2 15  1  0  0  0
  3  5  1  0  0  0
  4  8  1  0  0  0
  4  5  1  0  0  0
  5  6  1  0  0  0
  6  7  1  0  0  0
  6 26  1  0  0  0
  6 27  1  0  0  0
  7  8  1  0  0  0
  7 28  1  0  0  0
  7 29  1  0  0  0
  8 30  1  0  0  0
  8 31  1  0  0  0
  9 14  1  0  0  0
  9 10  2  0  0  0
 10 11  1  0  0  0
 10 32  1  0  0  0
 11 12  2  0  0  0
 11 33  1  0  0  0
 12 13  1  0  0  0
 12 25  1  0  0  0
 13 14  2  0  0  0
 13 34  1  0  0  0
 14 35  1  0  0  0
 15 16  2  0  0  0
 15 20  1  0  0  0
 16 17  1  0  0  0
 17 18  2  0  0  0
 17 21  1  0  0  0
 18 19  1  0  0  0
 18 36  1  0  0  0
 19 20  2  0  0  0
 19 37  1  0  0  0
 20 38  1  0  0  0
 21 22  1  0  0  0
 21 23  1  0  0  0
 21 24  1  0  0  0
M  END
> <s_m_entry_id>
34367

> <s_m_entry_name>
dock_pv.110

> <s_m_Source_Path>
/home/csk/Desktop/cluster/DUD-E-result/tgfr1

> <s_m_Source_File>
dock_pv.maegz

> <i_m_Source_File_Index>
110

> <chembl_id>
CHEMBL333798

> <chembl_pref_name>
None

> <i_lp_mmshare_version>
53161

> <r_lp_tautomer_probability>
1

> <s_lp_Force_Field>
OPLS_2005

> <r_lp_Energy>
39.36517

> <b_lp_Chiralities_Consistent>
1

> <s_lp_Variant>
CHEMBL4439_lig257-1

> <s_i_glide_gridfile>
glide-grid_3hmm

> <i_i_glide_lignum>
363

> <i_i_glide_rotatable_bonds>
3

> <r_i_docking_score>
-9.0143730054752

> <r_i_glide_ligand_efficiency>
-0.360574920219008

> <r_i_glide_ligand_efficiency_sa>
-1.05432746154382

> <r_i_glide_ligand_efficiency_ln>
-2.13667654125772

> <r_i_glide_gscore>
-9.0143730054752

> <r_i_glide_lipo>
-4.33705562455649

> <r_i_glide_hbond>
-0.0857108776077189

> <r_i_glide_metal>
0

> <r_i_glide_rewards>
-2.45496864920488

> <r_i_glide_evdw>
-43.9802169799805

> <r_i_glide_ecoul>
-1.68689286708832

> <r_i_glide_erotb>
0.315406924956161

> <r_i_glide_esite>
0

> <r_i_glide_emodel>
-66.6952245303208

> <r_i_glide_energy>
-45.6671098470688

> <r_i_glide_einternal>
2.27701854705811

> <i_i_glide_confnum>
10

> <i_i_glide_posenum>
97

> <r_i_glide_eff_state_penalty>
0

> <s_user_duplicate_titles>
CHEMBL4439_lig257,197477

> <i_f3d_flags>
0

> <s_m_subgroup_title>
dock_pv

> <s_m_subgroupid>
dock_pv

> <b_m_subgroup_collapsed>
1

$$$$
CHEMBL4439_lig223
                    3D
 Schrodinger Suite 2021-1.
 39 42  0  0  1  0            999 V2000
   13.7206   63.3576    3.2015 C   0  0  0  0  0  0
   13.2911   64.1252    4.4319 C   0  0  0  0  0  0
   11.9835   64.0731    4.9154 C   0  0  0  0  0  0
   11.6639   64.8534    6.0277 C   0  0  0  0  0  0
   12.6379   65.6570    6.6193 C   0  0  0  0  0  0
   13.9305   65.6570    6.0841 C   0  0  0  0  0  0
   14.2529   64.8945    5.0008 N   0  0  0  0  0  0
   15.0457   66.4356    6.6895 C   0  0  0  0  0  0
   15.9212   67.0140    5.8347 N   0  0  0  0  0  0
   16.9919   67.6466    6.3608 C   0  0  0  0  0  0
   17.8535   68.5298    4.0862 C   0  0  0  0  0  0
   19.0273   68.9751    3.4737 C   0  0  0  0  0  0
   18.9949   69.3211    2.1209 C   0  0  0  0  0  0
   17.8698   69.2633    1.3669 N   0  0  0  0  0  0
   16.7313   68.8546    1.9757 C   0  0  0  0  0  0
   16.6851   68.4570    3.3107 C   0  0  0  0  0  0
   17.2172   67.6885    7.7700 C   0  0  0  0  0  0
   18.3411   68.2871    8.4011 C   0  0  0  0  0  0
   18.4580   68.2577    9.7880 C   0  0  0  0  0  0
   17.4785   67.6602   10.5763 C   0  0  0  0  0  0
   16.3622   67.0683    9.9901 C   0  0  0  0  0  0
   16.2180   67.0671    8.5842 C   0  0  0  0  0  0
   15.1266   66.4563    8.0435 N   0  0  0  0  0  0
   17.9061   68.2300    5.4627 N   0  0  0  0  0  0
   12.9831   62.6123    2.9023 H   0  0  0  0  0  0
   14.6669   62.8573    3.3809 H   0  0  0  0  0  0
   13.8673   64.0547    2.3768 H   0  0  0  0  0  0
   11.2342   63.4566    4.4383 H   0  0  0  0  0  0
   10.6670   64.8268    6.4313 H   0  0  0  0  0  0
   12.3896   66.2548    7.4830 H   0  0  0  0  0  0
   19.9511   69.0481    4.0267 H   0  0  0  0  0  0
   19.8845   69.6672    1.6150 H   0  0  0  0  0  0
   15.8397   68.8304    1.3608 H   0  0  0  0  0  0
   15.7358   68.1493    3.7150 H   0  0  0  0  0  0
   19.1071   68.7654    7.8110 H   0  0  0  0  0  0
   19.3127   68.7226   10.2595 H   0  0  0  0  0  0
   17.5818   67.6623   11.6500 H   0  0  0  0  0  0
   15.6040   66.6074   10.6080 H   0  0  0  0  0  0
   18.7602   68.5373    5.9050 H   0  0  0  0  0  0
  1  2  1  0  0  0
  1 25  1  0  0  0
  1 26  1  0  0  0
  1 27  1  0  0  0
  2  3  2  0  0  0
  2  7  1  0  0  0
  3  4  1  0  0  0
  3 28  1  0  0  0
  4  5  2  0  0  0
  4 29  1  0  0  0
  5  6  1  0  0  0
  5 30  1  0  0  0
  6  7  2  0  0  0
  6  8  1  0  0  0
  8  9  2  0  0  0
  8 23  1  0  0  0
  9 10  1  0  0  0
 10 17  2  0  0  0
 10 24  1  0  0  0
 11 12  2  0  0  0
 11 16  1  0  0  0
 11 24  1  0  0  0
 12 13  1  0  0  0
 12 31  1  0  0  0
 13 14  2  0  0  0
 13 32  1  0  0  0
 14 15  1  0  0  0
 15 16  2  0  0  0
 15 33  1  0  0  0
 16 34  1  0  0  0
 17 18  1  0  0  0
 17 22  1  0  0  0
 18 19  2  0  0  0
 18 35  1  0  0  0
 19 20  1  0  0  0
 19 36  1  0  0  0
 20 21  2  0  0  0
 20 37  1  0  0  0
 21 22  1  0  0  0
 21 38  1  0  0  0
 22 23  2  0  0  0
 24 39  1  0  0  0
M  END
> <s_m_entry_id>
34368

> <s_m_entry_name>
dock_pv.111

> <s_m_Source_Path>
/home/csk/Desktop/cluster/DUD-E-result/tgfr1

> <s_m_Source_File>
dock_pv.maegz

> <i_m_Source_File_Index>
111

> <chembl_id>
CHEMBL570533

> <chembl_pref_name>
None

> <i_lp_mmshare_version>
53161

> <r_lp_tautomer_probability>
0.999977106282132

> <s_lp_Force_Field>
OPLS_2005

> <r_lp_Energy>
18.575795

> <b_lp_Chiralities_Consistent>
1

> <s_lp_Variant>
CHEMBL4439_lig223-1

> <s_i_glide_gridfile>
glide-grid_3hmm

> <i_i_glide_lignum>
325

> <i_i_glide_rotatable_bonds>
3

> <r_i_docking_score>
-8.98143118946414

> <r_i_glide_ligand_efficiency>
-0.374226299561006

> <r_i_glide_ligand_efficiency_sa>
-1.07945543833566

> <r_i_glide_ligand_efficiency_ln>
-2.14966861466124

> <r_i_glide_gscore>
-8.98143118946414

> <r_i_glide_lipo>
-3.89077995125015

> <r_i_glide_hbond>
-0.223986393749616

> <r_i_glide_metal>
0

> <r_i_glide_rewards>
-2.5965903980035

> <r_i_glide_evdw>
-48.1415977478027

> <r_i_glide_ecoul>
-2.86961054801941

> <r_i_glide_erotb>
0.56744702313218

> <r_i_glide_esite>
0

> <r_i_glide_emodel>
-77.6427403886956

> <r_i_glide_energy>
-51.0112082958221

> <r_i_glide_einternal>
1.92860615253448

> <i_i_glide_confnum>
1

> <i_i_glide_posenum>
210

> <r_i_glide_eff_state_penalty>
0

> <s_user_duplicate_titles>
CHEMBL4439_lig223,563075

> <i_f3d_flags>
0

> <s_m_subgroup_title>
dock_pv

> <s_m_subgroupid>
dock_pv

> <b_m_subgroup_collapsed>
1

$$$$
CHEMBL4439_lig220
                    3D
 Schrodinger Suite 2021-1.
 37 40  0  0  1  0            999 V2000
   17.7823   68.2679    9.6339 C   0  0  0  0  0  0
   16.8313   67.5336   10.3334 C   0  0  0  0  0  0
   15.8690   66.7942    9.6521 C   0  0  0  0  0  0
   17.7929   68.2756    8.2420 C   0  0  0  0  0  0
   16.8238   67.5285    7.5150 C   0  0  0  0  0  0
   15.8417   66.7850    8.2394 C   0  0  0  0  0  0
   14.8772   66.0602    7.6065 N   0  0  0  0  0  0
   14.9029   66.0501    6.2475 C   0  0  0  0  0  0
   15.7950   66.7117    5.4694 N   0  0  0  0  0  0
   16.7396   67.4559    6.0915 C   0  0  0  0  0  0
   13.8974   65.1964    5.5456 C   0  0  0  0  0  0
   12.5866   65.0722    6.0320 C   0  0  0  0  0  0
   11.6678   64.2393    5.3979 C   0  0  0  0  0  0
   12.0525   63.5253    4.2667 C   0  0  0  0  0  0
   13.3423   63.6478    3.7576 C   0  0  0  0  0  0
   14.2555   64.4835    4.3915 C   0  0  0  0  0  0
   17.6784   68.1297    5.2899 N   0  0  0  0  0  0
   17.7068   68.4764    3.9290 C   0  0  0  0  0  0
   18.9154   68.9241    3.3901 C   0  0  0  0  0  0
   18.9604   69.2974    2.0458 C   0  0  0  0  0  0
   17.8767   69.2579    1.2324 N   0  0  0  0  0  0
   16.7033   68.8569    1.7709 C   0  0  0  0  0  0
   16.5777   68.4504    3.0994 C   0  0  0  0  0  0
   18.5182   68.8452   10.1764 H   0  0  0  0  0  0
   16.8362   67.5465   11.4140 H   0  0  0  0  0  0
   15.1303   66.2368   10.2100 H   0  0  0  0  0  0
   18.5364   68.8599    7.7191 H   0  0  0  0  0  0
   12.2752   65.6137    6.9125 H   0  0  0  0  0  0
   10.6653   64.1456    5.7865 H   0  0  0  0  0  0
   11.3469   62.8771    3.7697 H   0  0  0  0  0  0
   13.6294   63.1023    2.8722 H   0  0  0  0  0  0
   15.2571   64.5597    3.9893 H   0  0  0  0  0  0
   18.4660   68.4886    5.8059 H   0  0  0  0  0  0
   19.8106   68.9774    3.9932 H   0  0  0  0  0  0
   19.8786   69.6488    1.5958 H   0  0  0  0  0  0
   15.8506   68.8542    1.1096 H   0  0  0  0  0  0
   15.6082   68.1503    3.4637 H   0  0  0  0  0  0
  1  2  2  0  0  0
  1  4  1  0  0  0
  1 24  1  0  0  0
  2  3  1  0  0  0
  2 25  1  0  0  0
  3  6  2  0  0  0
  3 26  1  0  0  0
  4  5  2  0  0  0
  4 27  1  0  0  0
  5  6  1  0  0  0
  5 10  1  0  0  0
  6  7  1  0  0  0
  7  8  2  0  0  0
  8 11  1  0  0  0
  8  9  1  0  0  0
  9 10  2  0  0  0
 10 17  1  0  0  0
 11 12  2  0  0  0
 11 16  1  0  0  0
 12 13  1  0  0  0
 12 28  1  0  0  0
 13 14  2  0  0  0
 13 29  1  0  0  0
 14 15  1  0  0  0
 14 30  1  0  0  0
 15 16  2  0  0  0
 15 31  1  0  0  0
 16 32  1  0  0  0
 17 18  1  0  0  0
 17 33  1  0  0  0
 18 19  2  0  0  0
 18 23  1  0  0  0
 19 20  1  0  0  0
 19 34  1  0  0  0
 20 21  2  0  0  0
 20 35  1  0  0  0
 21 22  1  0  0  0
 22 23  2  0  0  0
 22 36  1  0  0  0
 23 37  1  0  0  0
M  END
> <s_m_entry_id>
34369

> <s_m_entry_name>
dock_pv.112

> <s_m_Source_Path>
/home/csk/Desktop/cluster/DUD-E-result/tgfr1

> <s_m_Source_File>
dock_pv.maegz

> <i_m_Source_File_Index>
112

> <chembl_id>
CHEMBL564660

> <chembl_pref_name>
None

> <i_lp_mmshare_version>
53161

> <r_lp_tautomer_probability>
0.999977106282132

> <s_lp_Force_Field>
OPLS_2005

> <r_lp_Energy>
20.406593

> <b_lp_Chiralities_Consistent>
1

> <s_lp_Variant>
CHEMBL4439_lig220-1

> <s_i_glide_gridfile>
glide-grid_3hmm

> <i_i_glide_lignum>
322

> <i_i_glide_rotatable_bonds>
3

> <r_i_docking_score>
-8.97037140409135

> <r_i_glide_ligand_efficiency>
-0.390016148003972

> <r_i_glide_ligand_efficiency_sa>
-1.10915404375815

> <r_i_glide_ligand_efficiency_ln>
-2.16911714434013

> <r_i_glide_gscore>
-8.97037140409135

> <r_i_glide_lipo>
-3.83384241480205

> <r_i_glide_hbond>
-0.369638356445166

> <r_i_glide_metal>
0

> <r_i_glide_rewards>
-2.68243412314978

> <r_i_glide_evdw>
-45.5792846679688

> <r_i_glide_ecoul>
-2.826416015625

> <r_i_glide_erotb>
0.618470126047828

> <r_i_glide_esite>
0

> <r_i_glide_emodel>
-73.1777137220017

> <r_i_glide_energy>
-48.4057006835938

> <r_i_glide_einternal>
3.34508442878723

> <i_i_glide_confnum>
5

> <i_i_glide_posenum>
28

> <r_i_glide_eff_state_penalty>
0

> <s_user_duplicate_titles>
CHEMBL4439_lig220,559511

> <i_f3d_flags>
0

> <s_m_subgroup_title>
dock_pv

> <s_m_subgroupid>
dock_pv

> <b_m_subgroup_collapsed>
1

$$$$
CHEMBL4439_lig46
                    3D
 Schrodinger Suite 2021-1.
 46 50  0  0  1  0            999 V2000
   15.0716   67.5840    6.5017 C   0  0  0  0  0  0
   16.2999   67.7205    7.1392 C   0  0  0  0  0  0
   16.0663   67.1039    8.4046 C   0  0  0  0  0  0
   14.2991   66.7735    7.2799 N   0  0  0  0  0  0
   14.9020   66.4803    8.4323 N   0  0  0  0  0  0
   12.9799   66.2209    6.9683 C   0  0  0  0  0  0
   12.9001   65.1924    5.8338 C   0  0  0  0  0  0
   14.0063   64.8248    5.0523 C   0  0  0  0  0  0
   13.8665   63.8793    4.0353 C   0  0  0  0  0  0
   12.6284   63.2823    3.8100 C   0  0  0  0  0  0
   11.5201   63.6568    4.5659 C   0  0  0  0  0  0
   11.6582   64.6060    5.5748 C   0  0  0  0  0  0
   16.9320   67.1116    9.6306 C   0  0  0  0  0  0
   18.3229   66.9679    9.5863 C   0  0  0  0  0  0
   19.0660   67.2706   10.7265 C   0  0  0  0  0  0
   18.4142   67.6262   11.9090 C   0  0  0  0  0  0
   17.0235   67.6552   11.9043 C   0  0  0  0  0  0
   16.2846   67.4069   10.7928 N   0  0  0  0  0  0
   17.5246   68.4214    6.6016 C   0  0  0  0  0  0
   19.9334   69.6926    5.7897 N   0  0  0  0  0  0
   19.5387   69.6679    7.0788 C   0  0  0  0  0  0
   18.3399   69.1163    7.5028 C   0  0  0  0  0  0
   19.1157   69.1351    4.8601 C   0  0  0  0  0  0
   17.9034   68.4538    5.2085 C   0  0  0  0  0  0
   17.1513   67.8717    4.1465 C   0  0  0  0  0  0
   17.5150   68.0696    2.8191 C   0  0  0  0  0  0
   18.6615   68.7838    2.4977 C   0  0  0  0  0  0
   19.4914   69.2592    3.5035 C   0  0  0  0  0  0
   14.6956   67.9270    5.5502 H   0  0  0  0  0  0
   12.3230   67.0529    6.7299 H   0  0  0  0  0  0
   12.5609   65.7765    7.8729 H   0  0  0  0  0  0
   14.9816   65.2533    5.2220 H   0  0  0  0  0  0
   14.7190   63.5979    3.4343 H   0  0  0  0  0  0
   12.5231   62.5490    3.0241 H   0  0  0  0  0  0
   10.5512   63.2249    4.3675 H   0  0  0  0  0  0
   10.7921   64.8867    6.1559 H   0  0  0  0  0  0
   18.8326   66.7441    8.6630 H   0  0  0  0  0  0
   20.1456   67.2549   10.6937 H   0  0  0  0  0  0
   18.9777   67.8530   12.8016 H   0  0  0  0  0  0
   16.4676   67.9044   12.7975 H   0  0  0  0  0  0
   20.1967   70.1472    7.7876 H   0  0  0  0  0  0
   18.0636   69.2321    8.5390 H   0  0  0  0  0  0
   16.2746   67.2804    4.3401 H   0  0  0  0  0  0
   16.9029   67.6573    2.0325 H   0  0  0  0  0  0
   18.9386   68.9234    1.4628 H   0  0  0  0  0  0
   20.4114   69.7683    3.2500 H   0  0  0  0  0  0
  1  4  1  0  0  0
  1  2  2  0  0  0
  1 29  1  0  0  0
  2 19  1  0  0  0
  2  3  1  0  0  0
  3 13  1  0  0  0
  3  5  2  0  0  0
  4  5  1  0  0  0
  4  6  1  0  0  0
  6  7  1  0  0  0
  6 30  1  0  0  0
  6 31  1  0  0  0
  7  8  2  0  0  0
  7 12  1  0  0  0
  8  9  1  0  0  0
  8 32  1  0  0  0
  9 10  2  0  0  0
  9 33  1  0  0  0
 10 11  1  0  0  0
 10 34  1  0  0  0
 11 12  2  0  0  0
 11 35  1  0  0  0
 12 36  1  0  0  0
 13 14  2  0  0  0
 13 18  1  0  0  0
 14 15  1  0  0  0
 14 37  1  0  0  0
 15 16  2  0  0  0
 15 38  1  0  0  0
 16 17  1  0  0  0
 16 39  1  0  0  0
 17 18  2  0  0  0
 17 40  1  0  0  0
 19 24  2  0  0  0
 19 22  1  0  0  0
 20 23  2  0  0  0
 20 21  1  0  0  0
 21 22  2  0  0  0
 21 41  1  0  0  0
 22 42  1  0  0  0
 23 24  1  0  0  0
 23 28  1  0  0  0
 24 25  1  0  0  0
 25 26  2  0  0  0
 25 43  1  0  0  0
 26 27  1  0  0  0
 26 44  1  0  0  0
 27 28  2  0  0  0
 27 45  1  0  0  0
 28 46  1  0  0  0
M  END
> <s_m_entry_id>
34370

> <s_m_entry_name>
dock_pv.113

> <s_m_Source_Path>
/home/csk/Desktop/cluster/DUD-E-result/tgfr1

> <s_m_Source_File>
dock_pv.maegz

> <i_m_Source_File_Index>
113

> <chembl_id>
CHEMBL126180

> <chembl_pref_name>
None

> <i_lp_mmshare_version>
53161

> <r_lp_tautomer_probability>
1

> <s_lp_Force_Field>
OPLS_2005

> <r_lp_Energy>
25.673721

> <b_lp_Chiralities_Consistent>
1

> <s_lp_Variant>
CHEMBL4439_lig46-1

> <s_i_glide_gridfile>
glide-grid_3hmm

> <i_i_glide_lignum>
64

> <i_i_glide_rotatable_bonds>
4

> <r_i_docking_score>
-8.96156407605179

> <r_i_glide_ligand_efficiency>
-0.320055859858992

> <r_i_glide_ligand_efficiency_sa>
-0.9718780933525

> <r_i_glide_ligand_efficiency_ln>
-2.06859211170743

> <r_i_glide_gscore>
-8.96156407605179

> <r_i_glide_lipo>
-5.12975799605123

> <r_i_glide_hbond>
-0.138419457071556

> <r_i_glide_metal>
0

> <r_i_glide_rewards>
-1.69693580066712

> <r_i_glide_evdw>
-49.3495826721191

> <r_i_glide_ecoul>
-0.758083045482635

> <r_i_glide_erotb>
0.584740768166472

> <r_i_glide_esite>
0

> <r_i_glide_emodel>
-72.5187669055346

> <r_i_glide_energy>
-50.1076657176018

> <r_i_glide_einternal>
10.443922996521

> <i_i_glide_confnum>
3

> <i_i_glide_posenum>
240

> <r_i_glide_eff_state_penalty>
0

> <s_user_duplicate_titles>
CHEMBL4439_lig46,211868

> <i_f3d_flags>
0

> <s_m_subgroup_title>
dock_pv

> <s_m_subgroupid>
dock_pv

> <b_m_subgroup_collapsed>
1

$$$$
CHEMBL4439_lig227
                    3D
 Schrodinger Suite 2021-1.
 43 47  0  0  1  0            999 V2000
   14.3036   63.9657    3.7402 C   0  0  0  0  0  0
   13.8363   64.7337    4.9616 C   0  0  0  0  0  0
   12.4800   64.8570    5.2667 C   0  0  0  0  0  0
   12.1153   65.5705    6.4097 C   0  0  0  0  0  0
   13.1064   66.1309    7.2180 C   0  0  0  0  0  0
   14.4518   65.9591    6.8626 C   0  0  0  0  0  0
   14.8115   65.2624    5.7441 N   0  0  0  0  0  0
   15.5645   66.5073    7.6949 C   0  0  0  0  0  0
   16.6044   67.0448    7.0312 N   0  0  0  0  0  0
   17.6014   67.6196    7.7382 C   0  0  0  0  0  0
   18.6376   68.2379    7.0104 N   0  0  0  0  0  0
   18.7784   68.5486    5.6460 C   0  0  0  0  0  0
   20.0317   68.9901    5.2017 C   0  0  0  0  0  0
   20.2731   69.3377    3.8700 C   0  0  0  0  0  0
   19.1865   69.2523    2.9915 C   0  0  0  0  0  0
   19.0371   69.5151    1.6453 N   0  0  0  0  0  0
   17.7866   69.2567    1.2204 N   0  0  0  0  0  0
   17.1034   68.8482    2.2493 C   0  0  0  0  0  0
   17.9150   68.8093    3.4100 C   0  0  0  0  0  0
   17.7115   68.4596    4.7395 C   0  0  0  0  0  0
   17.6131   67.5849    9.1625 C   0  0  0  0  0  0
   18.6450   68.1035    9.9933 C   0  0  0  0  0  0
   18.5351   68.0237   11.3801 C   0  0  0  0  0  0
   17.4235   67.4301   11.9688 C   0  0  0  0  0  0
   16.4047   66.9005   11.1804 C   0  0  0  0  0  0
   16.4759   66.9727    9.7751 C   0  0  0  0  0  0
   15.4481   66.4551    9.0437 N   0  0  0  0  0  0
   13.5898   64.0523    2.9212 H   0  0  0  0  0  0
   14.4053   62.9086    3.9802 H   0  0  0  0  0  0
   15.2658   64.3296    3.3796 H   0  0  0  0  0  0
   11.7276   64.4198    4.6269 H   0  0  0  0  0  0
   11.0725   65.6871    6.6680 H   0  0  0  0  0  0
   12.8317   66.6911    8.1006 H   0  0  0  0  0  0
   19.4037   68.5490    7.5840 H   0  0  0  0  0  0
   20.8535   69.0586    5.9025 H   0  0  0  0  0  0
   21.2474   69.6751    3.5460 H   0  0  0  0  0  0
   19.7220   69.8880    1.0011 H   0  0  0  0  0  0
   16.0609   68.5789    2.1750 H   0  0  0  0  0  0
   16.7123   68.1771    5.0202 H   0  0  0  0  0  0
   19.5121   68.5766    9.5525 H   0  0  0  0  0  0
   19.3223   68.4272   12.0006 H   0  0  0  0  0  0
   17.3475   67.3735   13.0465 H   0  0  0  0  0  0
   15.5460   66.4299   11.6305 H   0  0  0  0  0  0
  1  2  1  0  0  0
  1 28  1  0  0  0
  1 29  1  0  0  0
  1 30  1  0  0  0
  2  3  2  0  0  0
  2  7  1  0  0  0
  3  4  1  0  0  0
  3 31  1  0  0  0
  4  5  2  0  0  0
  4 32  1  0  0  0
  5  6  1  0  0  0
  5 33  1  0  0  0
  6  7  2  0  0  0
  6  8  1  0  0  0
  8  9  2  0  0  0
  8 27  1  0  0  0
  9 10  1  0  0  0
 10 11  1  0  0  0
 10 21  2  0  0  0
 11 12  1  0  0  0
 11 34  1  0  0  0
 12 13  2  0  0  0
 12 20  1  0  0  0
 13 14  1  0  0  0
 13 35  1  0  0  0
 14 15  2  0  0  0
 14 36  1  0  0  0
 15 16  1  0  0  0
 15 19  1  0  0  0
 16 17  1  0  0  0
 16 37  1  0  0  0
 17 18  2  0  0  0
 18 19  1  0  0  0
 18 38  1  0  0  0
 19 20  2  0  0  0
 20 39  1  0  0  0
 21 22  1  0  0  0
 21 26  1  0  0  0
 22 23  2  0  0  0
 22 40  1  0  0  0
 23 24  1  0  0  0
 23 41  1  0  0  0
 24 25  2  0  0  0
 24 42  1  0  0  0
 25 26  1  0  0  0
 25 43  1  0  0  0
 26 27  2  0  0  0
M  END
> <s_m_entry_id>
34371

> <s_m_entry_name>
dock_pv.114

> <s_m_Source_Path>
/home/csk/Desktop/cluster/DUD-E-result/tgfr1

> <s_m_Source_File>
dock_pv.maegz

> <i_m_Source_File_Index>
114

> <chembl_id>
CHEMBL537968

> <chembl_pref_name>
None

> <i_lp_mmshare_version>
53161

> <r_lp_tautomer_probability>
0.983149239377218

> <s_lp_Force_Field>
OPLS_2005

> <r_lp_Energy>
23.117394

> <b_lp_Chiralities_Consistent>
1

> <s_lp_Variant>
CHEMBL4439_lig227-1

> <s_i_glide_gridfile>
glide-grid_3hmm

> <i_i_glide_lignum>
329

> <i_i_glide_rotatable_bonds>
3

> <r_i_docking_score>
-8.95574792234416

> <r_i_glide_ligand_efficiency>
-0.331694367494228

> <r_i_glide_ligand_efficiency_sa>
-0.995083101389474

> <r_i_glide_ligand_efficiency_ln>
-2.08475046927798

> <r_i_glide_gscore>
-8.95574792234416

> <r_i_glide_lipo>
-3.61070204566713

> <r_i_glide_hbond>
-0.469745184894273

> <r_i_glide_metal>
0

> <r_i_glide_rewards>
-2.1761298561978

> <r_i_glide_evdw>
-48.7271308898926

> <r_i_glide_ecoul>
-4.7609076499939

> <r_i_glide_erotb>
0.46104839423149

> <r_i_glide_esite>
-0.00972653782273803

> <r_i_glide_emodel>
-81.3882609010638

> <r_i_glide_energy>
-53.4880385398865

> <r_i_glide_einternal>
3.71373891830444

> <i_i_glide_confnum>
4

> <i_i_glide_posenum>
54

> <r_i_glide_eff_state_penalty>
0

> <s_user_duplicate_titles>
CHEMBL4439_lig227,554282

> <i_f3d_flags>
0

> <s_m_subgroup_title>
dock_pv

> <s_m_subgroupid>
dock_pv

> <b_m_subgroup_collapsed>
1

$$$$
CHEMBL4439_lig781
                    3D
 Schrodinger Suite 2021-1.
 44 47  0  0  1  0            999 V2000
   20.4742   69.6570    1.8304 C   0  0  0  0  0  0
   21.5463   69.6570    2.7100 C   0  0  0  0  0  0
   21.3609   69.3210    4.0421 C   0  0  0  0  0  0
   20.1036   68.9529    4.5437 C   0  0  0  0  0  0
   19.1895   69.2571    2.2668 C   0  0  0  0  0  0
   18.9875   68.8785    3.6351 C   0  0  0  0  0  0
   17.6643   68.4509    4.0008 C   0  0  0  0  0  0
   16.6666   68.4572    3.0209 C   0  0  0  0  0  0
   16.9638   68.8586    1.7286 C   0  0  0  0  0  0
   18.1943   69.2466    1.3392 N   0  0  0  0  0  0
   19.8989   68.6635    5.8844 O   0  0  0  0  0  0
   20.9530   68.8425    6.8263 C   0  0  0  0  0  0
   17.3557   68.0968    5.3258 N   0  0  0  0  0  0
   16.2894   67.4077    5.9130 C   0  0  0  0  0  0
   16.0135   67.6229    7.2631 C   0  0  0  0  0  0
   14.9453   66.9415    7.8428 C   0  0  0  0  0  0
   14.1788   66.0572    7.1570 N   0  0  0  0  0  0
   14.4680   65.8185    5.8437 C   0  0  0  0  0  0
   15.5162   66.4881    5.2041 C   0  0  0  0  0  0
   13.6109   64.8389    5.1046 C   0  0  0  0  0  0
   12.3040   64.7665    5.4961 N   0  0  0  0  0  0
   11.4630   63.9534    4.8083 C   0  0  0  0  0  0
   11.8676   63.2124    3.7031 C   0  0  0  0  0  0
   13.2042   63.2566    3.3243 C   0  0  0  0  0  0
   14.0930   64.0603    4.0322 C   0  0  0  0  0  0
   15.3960   64.0570    3.6686 F   0  0  0  0  0  0
   10.0354   63.8894    5.2958 C   0  0  0  0  0  0
   20.6235   69.9478    0.8002 H   0  0  0  0  0  0
   22.5283   69.9457    2.3631 H   0  0  0  0  0  0
   22.2283   69.3560    4.6845 H   0  0  0  0  0  0
   15.6426   68.2117    3.2521 H   0  0  0  0  0  0
   16.1880   68.8840    0.9753 H   0  0  0  0  0  0
   20.5734   68.6446    7.8287 H   0  0  0  0  0  0
   21.7758   68.1514    6.6487 H   0  0  0  0  0  0
   21.3340   69.8650    6.8168 H   0  0  0  0  0  0
   18.0965   68.3610    5.9663 H   0  0  0  0  0  0
   16.5977   68.3212    7.8451 H   0  0  0  0  0  0
   14.6864   67.1071    8.8769 H   0  0  0  0  0  0
   15.7382   66.2863    4.1700 H   0  0  0  0  0  0
   11.1695   62.5920    3.1618 H   0  0  0  0  0  0
   13.5466   62.6739    2.4820 H   0  0  0  0  0  0
    9.4674   63.1184    4.7780 H   0  0  0  0  0  0
    9.5480   64.8464    5.1153 H   0  0  0  0  0  0
   10.0043   63.6565    6.3616 H   0  0  0  0  0  0
  1  2  2  0  0  0
  1  5  1  0  0  0
  1 28  1  0  0  0
  2  3  1  0  0  0
  2 29  1  0  0  0
  3  4  2  0  0  0
  3 30  1  0  0  0
  4  6  1  0  0  0
  4 11  1  0  0  0
  5  6  1  0  0  0
  5 10  2  0  0  0
  6  7  2  0  0  0
  7  8  1  0  0  0
  7 13  1  0  0  0
  8  9  2  0  0  0
  8 31  1  0  0  0
  9 10  1  0  0  0
  9 32  1  0  0  0
 11 12  1  0  0  0
 12 33  1  0  0  0
 12 34  1  0  0  0
 12 35  1  0  0  0
 13 14  1  0  0  0
 13 36  1  0  0  0
 14 15  2  0  0  0
 14 19  1  0  0  0
 15 16  1  0  0  0
 15 37  1  0  0  0
 16 17  2  0  0  0
 16 38  1  0  0  0
 17 18  1  0  0  0
 18 19  2  0  0  0
 18 20  1  0  0  0
 19 39  1  0  0  0
 20 21  2  0  0  0
 20 25  1  0  0  0
 21 22  1  0  0  0
 22 23  2  0  0  0
 22 27  1  0  0  0
 23 24  1  0  0  0
 23 40  1  0  0  0
 24 25  2  0  0  0
 24 41  1  0  0  0
 25 26  1  0  0  0
 27 42  1  0  0  0
 27 43  1  0  0  0
 27 44  1  0  0  0
M  END
> <s_m_entry_id>
34372

> <s_m_entry_name>
dock_pv.115

> <s_m_Source_Path>
/home/csk/Desktop/cluster/DUD-E-result/tgfr1

> <s_m_Source_File>
dock_pv.maegz

> <i_m_Source_File_Index>
115

> <chembl_id>
CHEMBL4100266

> <chembl_pref_name>
None

> <i_lp_mmshare_version>
53161

> <r_lp_tautomer_probability>
0.999999106000799

> <s_lp_Force_Field>
OPLS_2005

> <r_lp_Energy>
34.977659

> <b_lp_Chiralities_Consistent>
1

> <s_lp_Variant>
CHEMBL4439_lig781-1

> <s_i_glide_gridfile>
glide-grid_3hmm

> <i_i_glide_lignum>
1095

> <i_i_glide_rotatable_bonds>
4

> <r_i_docking_score>
-8.94390324879616

> <r_i_glide_ligand_efficiency>
-0.331255675881339

> <r_i_glide_ligand_efficiency_sa>
-0.993767026552254

> <r_i_glide_ligand_efficiency_ln>
-2.08199322455071

> <r_i_glide_gscore>
-8.94390324879616

> <r_i_glide_lipo>
-4.37230837429034

> <r_i_glide_hbond>
-0.149322290949226

> <r_i_glide_metal>
0

> <r_i_glide_rewards>
-1.98593356085548

> <r_i_glide_evdw>
-48.9717636108398

> <r_i_glide_ecoul>
-2.87165379524231

> <r_i_glide_erotb>
0.442997227127223

> <r_i_glide_esite>
0

> <r_i_glide_emodel>
-76.3753854933268

> <r_i_glide_energy>
-51.8434174060822

> <r_i_glide_einternal>
5.7108154296875

> <i_i_glide_confnum>
21

> <i_i_glide_posenum>
289

> <r_i_glide_eff_state_penalty>
0

> <s_user_duplicate_titles>
CHEMBL4439_lig781

> <i_f3d_flags>
0

> <s_m_subgroup_title>
dock_pv

> <s_m_subgroupid>
dock_pv

> <b_m_subgroup_collapsed>
1

$$$$
CHEMBL4439_lig522
                    3D
 Schrodinger Suite 2021-1.
 40 43  0  0  1  0            999 V2000
   20.1289   68.8074    5.8711 N   0  0  0  0  0  0
   18.8457   68.4726    5.6143 N   0  0  0  0  0  0
   18.2196   67.9924    6.7702 C   0  0  0  0  0  0
   19.1875   68.0812    7.7608 C   0  0  0  0  0  0
   20.3296   68.5733    7.1411 C   0  0  0  0  0  0
   18.3404   68.6701    4.2863 C   0  0  0  0  0  0
   17.0409   68.3491    4.0591 N   0  0  0  0  0  0
   16.5275   68.4571    2.8128 C   0  0  0  0  0  0
   17.2740   68.9313    1.7377 C   0  0  0  0  0  0
   18.6026   69.2910    1.9631 C   0  0  0  0  0  0
   19.1466   69.1630    3.2437 C   0  0  0  0  0  0
   15.0911   67.9901    2.6530 C   0  0  0  0  0  0
   16.8099   67.5154    6.9291 C   0  0  0  0  0  0
   16.2736   66.5080    6.1176 C   0  0  0  0  0  0
   14.6656   67.7195    8.0321 C   0  0  0  0  0  0
   16.0026   68.0980    7.9097 C   0  0  0  0  0  0
   14.1217   66.7757    7.1627 C   0  0  0  0  0  0
   14.9281   66.1610    6.2127 C   0  0  0  0  0  0
   14.3071   65.1734    5.2425 C   0  0  0  0  0  0
   12.9471   64.9652    5.4607 N   0  0  0  0  0  0
   12.2382   65.6326    6.4447 C   0  0  0  0  0  0
   12.7670   66.4570    7.2730 N   0  0  0  0  0  0
   14.9870   64.6567    4.3509 O   0  0  0  0  0  0
   12.2499   64.0719    4.6564 C   0  0  0  0  0  0
   12.6669   63.0321    3.9046 C   0  0  0  0  0  0
   19.0800   67.8124    8.8016 H   0  0  0  0  0  0
   21.2859   68.7640    7.6084 H   0  0  0  0  0  0
   16.8359   69.0076    0.7573 H   0  0  0  0  0  0
   19.2145   69.6569    1.1506 H   0  0  0  0  0  0
   20.1823   69.4263    3.4027 H   0  0  0  0  0  0
   14.7027   68.1931    1.6569 H   0  0  0  0  0  0
   15.0262   66.9166    2.8323 H   0  0  0  0  0  0
   14.4312   68.4570    3.3761 H   0  0  0  0  0  0
   16.8891   66.0579    5.3583 H   0  0  0  0  0  0
   14.0385   68.2033    8.7638 H   0  0  0  0  0  0
   16.4056   68.8663    8.5559 H   0  0  0  0  0  0
   11.1732   65.4262    6.5364 H   0  0  0  0  0  0
   11.1810   64.2569    4.6616 H   0  0  0  0  0  0
   13.6978   62.7236    3.8273 H   0  0  0  0  0  0
   11.9478   62.4572    3.3390 H   0  0  0  0  0  0
  1  5  2  0  0  0
  1  2  1  0  0  0
  2  6  1  0  0  0
  2  3  1  0  0  0
  3 13  1  0  0  0
  3  4  2  0  0  0
  4  5  1  0  0  0
  4 26  1  0  0  0
  5 27  1  0  0  0
  6  7  2  0  0  0
  6 11  1  0  0  0
  7  8  1  0  0  0
  8 12  1  0  0  0
  8  9  2  0  0  0
  9 10  1  0  0  0
  9 28  1  0  0  0
 10 11  2  0  0  0
 10 29  1  0  0  0
 11 30  1  0  0  0
 12 31  1  0  0  0
 12 32  1  0  0  0
 12 33  1  0  0  0
 13 14  2  0  0  0
 13 16  1  0  0  0
 14 18  1  0  0  0
 14 34  1  0  0  0
 15 17  1  0  0  0
 15 16  2  0  0  0
 15 35  1  0  0  0
 16 36  1  0  0  0
 17 18  2  0  0  0
 17 22  1  0  0  0
 18 19  1  0  0  0
 19 20  1  0  0  0
 19 23  2  0  0  0
 20 21  1  0  0  0
 20 24  1  0  0  0
 21 22  2  0  0  0
 21 37  1  0  0  0
 24 25  2  0  0  0
 24 38  1  0  0  0
 25 39  1  0  0  0
 25 40  1  0  0  0
M  END
> <s_m_entry_id>
34373

> <s_m_entry_name>
dock_pv.116

> <s_m_Source_Path>
/home/csk/Desktop/cluster/DUD-E-result/tgfr1

> <s_m_Source_File>
dock_pv.maegz

> <i_m_Source_File_Index>
116

> <chembl_id>
CHEMBL2024685

> <chembl_pref_name>
None

> <i_lp_mmshare_version>
53161

> <r_lp_tautomer_probability>
1

> <s_lp_Force_Field>
OPLS_2005

> <r_lp_Energy>
32.419197

> <b_lp_Chiralities_Consistent>
1

> <s_lp_Variant>
CHEMBL4439_lig522-1

> <s_i_glide_gridfile>
glide-grid_3hmm

> <i_i_glide_lignum>
697

> <i_i_glide_rotatable_bonds>
3

> <r_i_docking_score>
-8.94085050828055

> <r_i_glide_ligand_efficiency>
-0.357634020331222

> <r_i_glide_ligand_efficiency_sa>
-1.04572821811485

> <r_i_glide_ligand_efficiency_ln>
-2.11924950613114

> <r_i_glide_gscore>
-8.94085050828055

> <r_i_glide_lipo>
-4.08904239586097

> <r_i_glide_hbond>
0

> <r_i_glide_metal>
0

> <r_i_glide_rewards>
-2.66995887332658

> <r_i_glide_evdw>
-49.8745422363281

> <r_i_glide_ecoul>
-1.38590478897095

> <r_i_glide_erotb>
0.519763591069042

> <r_i_glide_esite>
0

> <r_i_glide_emodel>
-78.7804801082381

> <r_i_glide_energy>
-51.2604470252991

> <r_i_glide_einternal>
0.751143872737885

> <i_i_glide_confnum>
10

> <i_i_glide_posenum>
156

> <r_i_glide_eff_state_penalty>
0

> <s_user_duplicate_titles>
CHEMBL4439_lig522

> <i_f3d_flags>
0

> <s_m_subgroup_title>
dock_pv

> <s_m_subgroupid>
dock_pv

> <b_m_subgroup_collapsed>
1

$$$$
CHEMBL4439_lig572
                    3D
 Schrodinger Suite 2021-1.
 41 44  0  0  1  0            999 V2000
   12.2060   65.6570    6.5248 S   0  0  0  0  0  0
   13.9131   65.6388    6.2384 C   0  0  0  0  0  0
   14.2825   64.8583    5.2489 N   0  0  0  0  0  0
   13.2595   64.2553    4.6674 C   0  0  0  0  0  0
   12.0152   64.5280    5.2234 C   0  0  0  0  0  0
   13.5689   63.3784    3.4780 C   0  0  0  0  0  0
   14.8364   66.4768    6.9962 C   0  0  0  0  0  0
   15.8241   67.3100    6.4658 C   0  0  0  0  0  0
   16.3850   67.8836    7.5704 N   0  0  0  0  0  0
   15.7735   67.3650    8.6705 C   0  0  0  0  0  0
   14.8162   66.5342    8.3268 N   0  0  0  0  0  0
   16.2662   67.6593    5.0944 C   0  0  0  0  0  0
   15.3727   67.6460    4.0200 C   0  0  0  0  0  0
   15.7542   68.0618    2.7470 C   0  0  0  0  0  0
   17.5837   68.0863    4.9188 C   0  0  0  0  0  0
   17.9632   68.5359    3.6575 C   0  0  0  0  0  0
   17.0713   68.4932    2.5567 C   0  0  0  0  0  0
   17.6024   68.8951    1.3733 N   0  0  0  0  0  0
   18.8419   69.2578    1.5344 C   0  0  0  0  0  0
   19.4727   69.2569    3.1625 S   0  0  0  0  0  0
   16.1758   67.7404   10.0910 C   0  0  0  0  0  0
   17.4999   68.3720   10.1793 N   0  0  0  0  0  0
   18.6679   67.6557    9.9742 C   0  0  0  0  0  0
   19.7182   68.4663   10.1732 O   0  0  0  0  0  0
   18.7373   66.4744    9.6324 O   0  0  0  0  0  0
   21.0448   67.9966    9.9857 C   0  0  0  0  0  0
   11.0424   64.1651    4.9264 H   0  0  0  0  0  0
   12.6737   62.9084    3.0692 H   0  0  0  0  0  0
   14.0229   63.9462    2.6648 H   0  0  0  0  0  0
   14.2586   62.5805    3.7366 H   0  0  0  0  0  0
   17.1398   68.5530    7.5772 H   0  0  0  0  0  0
   14.3494   67.3390    4.1745 H   0  0  0  0  0  0
   15.0516   68.0586    1.9260 H   0  0  0  0  0  0
   18.2864   68.1166    5.7386 H   0  0  0  0  0  0
   19.4508   69.6424    0.7270 H   0  0  0  0  0  0
   16.1355   66.8723   10.7534 H   0  0  0  0  0  0
   15.4675   68.4573   10.4918 H   0  0  0  0  0  0
   17.5847   69.3420   10.4608 H   0  0  0  0  0  0
   21.7453   68.8283   10.0710 H   0  0  0  0  0  0
   21.1732   67.5479    8.9987 H   0  0  0  0  0  0
   21.3042   67.2567   10.7432 H   0  0  0  0  0  0
  1  2  1  0  0  0
  1  5  1  0  0  0
  2  3  2  0  0  0
  2  7  1  0  0  0
  3  4  1  0  0  0
  4  5  2  0  0  0
  4  6  1  0  0  0
  5 27  1  0  0  0
  6 28  1  0  0  0
  6 29  1  0  0  0
  6 30  1  0  0  0
  7  8  2  0  0  0
  7 11  1  0  0  0
  8  9  1  0  0  0
  8 12  1  0  0  0
  9 10  1  0  0  0
  9 31  1  0  0  0
 10 11  2  0  0  0
 10 21  1  0  0  0
 12 13  2  0  0  0
 12 15  1  0  0  0
 13 14  1  0  0  0
 13 32  1  0  0  0
 14 17  2  0  0  0
 14 33  1  0  0  0
 15 16  2  0  0  0
 15 34  1  0  0  0
 16 17  1  0  0  0
 16 20  1  0  0  0
 17 18  1  0  0  0
 18 19  2  0  0  0
 19 20  1  0  0  0
 19 35  1  0  0  0
 21 22  1  0  0  0
 21 36  1  0  0  0
 21 37  1  0  0  0
 22 23  1  0  0  0
 22 38  1  0  0  0
 23 24  1  0  0  0
 23 25  2  0  0  0
 24 26  1  0  0  0
 26 39  1  0  0  0
 26 40  1  0  0  0
 26 41  1  0  0  0
M  END
> <s_m_entry_id>
34374

> <s_m_entry_name>
dock_pv.117

> <s_m_Source_Path>
/home/csk/Desktop/cluster/DUD-E-result/tgfr1

> <s_m_Source_File>
dock_pv.maegz

> <i_m_Source_File_Index>
117

> <chembl_id>
CHEMBL2208018

> <chembl_pref_name>
None

> <i_lp_mmshare_version>
53161

> <r_lp_tautomer_probability>
0.499999999999999

> <s_lp_Force_Field>
OPLS_2005

> <r_lp_Energy>
3.336314

> <b_lp_Chiralities_Consistent>
1

> <s_lp_Variant>
CHEMBL4439_lig572-1

> <s_i_glide_gridfile>
glide-grid_3hmm

> <i_i_glide_lignum>
757

> <i_i_glide_rotatable_bonds>
6

> <r_i_docking_score>
-8.93291947996998

> <r_i_glide_ligand_efficiency>
-0.343573826152692

> <r_i_glide_ligand_efficiency_sa>
-1.01783610807962

> <r_i_glide_ligand_efficiency_ln>
-2.0978668285714

> <r_i_glide_gscore>
-8.93291947996998

> <r_i_glide_lipo>
-3.68666876579575

> <r_i_glide_hbond>
-0.501997295484809

> <r_i_glide_metal>
0

> <r_i_glide_rewards>
-2.32551559824783

> <r_i_glide_evdw>
-47.9145240783691

> <r_i_glide_ecoul>
-4.51757764816284

> <r_i_glide_erotb>
0.6546250307013

> <r_i_glide_esite>
0

> <r_i_glide_emodel>
-75.8654293969647

> <r_i_glide_energy>
-52.432101726532

> <r_i_glide_einternal>
6.03380489349365

> <i_i_glide_confnum>
39

> <i_i_glide_posenum>
188

> <r_i_glide_eff_state_penalty>
0

> <s_user_duplicate_titles>
CHEMBL4439_lig572,CHEMBL4439_lig572

> <i_f3d_flags>
0

> <s_m_subgroup_title>
dock_pv

> <s_m_subgroupid>
dock_pv

> <b_m_subgroup_collapsed>
1

$$$$
CHEMBL4439_lig133
                    3D
 Schrodinger Suite 2021-1.
 37 40  0  0  1  0            999 V2000
   17.3885   68.3545    3.7936 C   0  0  0  0  0  0
   18.6604   68.9620    3.6429 C   0  0  0  0  0  0
   18.6697   69.3555    2.3227 N   0  0  0  0  0  0
   17.5726   69.0742    1.6323 N   0  0  0  0  0  0
   16.8135   68.4796    2.5101 C   0  0  0  0  0  0
   19.8530   69.2624    4.5156 C   0  0  0  0  0  0
   21.0884   69.6570    3.9748 C   0  0  0  0  0  0
   22.1152   70.0570    4.8341 C   0  0  0  0  0  0
   21.9046   70.0331    6.2117 C   0  0  0  0  0  0
   20.6726   69.5855    6.6845 C   0  0  0  0  0  0
   19.6656   69.2045    5.8583 N   0  0  0  0  0  0
   16.6681   67.6955    4.9461 C   0  0  0  0  0  0
   15.7231   66.7008    4.6529 C   0  0  0  0  0  0
   14.9583   66.1210    5.6725 C   0  0  0  0  0  0
   15.1444   66.4517    6.9788 N   0  0  0  0  0  0
   16.0591   67.4069    7.2701 C   0  0  0  0  0  0
   16.8128   68.0569    6.2927 C   0  0  0  0  0  0
   13.8478   65.1769    5.3582 C   0  0  0  0  0  0
   12.5985   65.2568    6.0035 C   0  0  0  0  0  0
   11.5552   64.4111    5.6310 C   0  0  0  0  0  0
   12.9684   63.3693    3.9805 C   0  0  0  0  0  0
   14.0127   64.2152    4.3486 C   0  0  0  0  0  0
   11.7333   63.4829    4.6103 C   0  0  0  0  0  0
   12.3686   66.1689    6.9777 F   0  0  0  0  0  0
   19.4378   69.8491    1.8900 H   0  0  0  0  0  0
   15.8255   68.1476    2.2248 H   0  0  0  0  0  0
   21.2543   69.6877    2.9087 H   0  0  0  0  0  0
   23.0681   70.3809    4.4402 H   0  0  0  0  0  0
   22.6897   70.3379    6.8897 H   0  0  0  0  0  0
   20.4734   69.5336    7.7450 H   0  0  0  0  0  0
   15.5404   66.4080    3.6319 H   0  0  0  0  0  0
   16.1577   67.6772    8.3112 H   0  0  0  0  0  0
   17.4548   68.8569    6.6048 H   0  0  0  0  0  0
   10.6016   64.4871    6.1268 H   0  0  0  0  0  0
   13.1093   62.6462    3.1892 H   0  0  0  0  0  0
   14.9567   64.1231    3.8311 H   0  0  0  0  0  0
   10.9109   62.8573    4.3042 H   0  0  0  0  0  0
  1  2  2  0  0  0
  1  5  1  0  0  0
  1 12  1  0  0  0
  2  3  1  0  0  0
  2  6  1  0  0  0
  3  4  1  0  0  0
  3 25  1  0  0  0
  4  5  2  0  0  0
  5 26  1  0  0  0
  6  7  2  0  0  0
  6 11  1  0  0  0
  7  8  1  0  0  0
  7 27  1  0  0  0
  8  9  2  0  0  0
  8 28  1  0  0  0
  9 10  1  0  0  0
  9 29  1  0  0  0
 10 11  2  0  0  0
 10 30  1  0  0  0
 12 13  2  0  0  0
 12 17  1  0  0  0
 13 14  1  0  0  0
 13 31  1  0  0  0
 14 15  2  0  0  0
 14 18  1  0  0  0
 15 16  1  0  0  0
 16 17  2  0  0  0
 16 32  1  0  0  0
 17 33  1  0  0  0
 18 19  2  0  0  0
 18 22  1  0  0  0
 19 20  1  0  0  0
 19 24  1  0  0  0
 20 23  2  0  0  0
 20 34  1  0  0  0
 21 23  1  0  0  0
 21 22  2  0  0  0
 21 35  1  0  0  0
 22 36  1  0  0  0
 23 37  1  0  0  0
M  END
> <s_m_entry_id>
34375

> <s_m_entry_name>
dock_pv.118

> <s_m_Source_Path>
/home/csk/Desktop/cluster/DUD-E-result/tgfr1

> <s_m_Source_File>
dock_pv.maegz

> <i_m_Source_File_Index>
118

> <chembl_id>
CHEMBL205427

> <chembl_pref_name>
None

> <i_lp_mmshare_version>
53161

> <r_lp_tautomer_probability>
0.5

> <s_lp_Force_Field>
OPLS_2005

> <r_lp_Energy>
19.269793

> <b_lp_Chiralities_Consistent>
1

> <s_lp_Variant>
CHEMBL4439_lig133-2

> <s_i_glide_gridfile>
glide-grid_3hmm

> <i_i_glide_lignum>
203

> <i_i_glide_rotatable_bonds>
3

> <r_i_docking_score>
-8.92173169439651

> <r_i_glide_ligand_efficiency>
-0.371738820599854

> <r_i_glide_ligand_efficiency_sa>
-1.07228030741752

> <r_i_glide_ligand_efficiency_ln>
-2.13537978606023

> <r_i_glide_gscore>
-8.92173169439651

> <r_i_glide_lipo>
-3.99902028074779

> <r_i_glide_hbond>
0

> <r_i_glide_metal>
0

> <r_i_glide_rewards>
-2.59407331009687

> <r_i_glide_evdw>
-47.9921455383301

> <r_i_glide_ecoul>
-3.24747943878174

> <r_i_glide_erotb>
0.558091089181914

> <r_i_glide_esite>
0

> <r_i_glide_emodel>
-78.3584597043225

> <r_i_glide_energy>
-51.2396249771118

> <r_i_glide_einternal>
1.58707165718079

> <i_i_glide_confnum>
13

> <i_i_glide_posenum>
345

> <r_i_glide_eff_state_penalty>
0

> <s_user_duplicate_titles>
CHEMBL4439_lig133,CHEMBL4439_lig133,343426

> <i_f3d_flags>
0

> <s_m_subgroup_title>
dock_pv

> <s_m_subgroupid>
dock_pv

> <b_m_subgroup_collapsed>
1

$$$$
CHEMBL4439_lig793
                    3D
 Schrodinger Suite 2021-1.
 48 51  0  0  1  0            999 V2000
   17.8570   68.4566    4.5439 C   0  0  0  0  0  0
   17.1583   68.4187    3.3296 C   0  0  0  0  0  0
   17.7789   68.8354    2.1522 C   0  0  0  0  0  0
   19.0669   69.2570    2.0802 N   0  0  0  0  0  0
   17.3124   68.0571    5.7670 N   0  0  0  0  0  0
   16.1432   67.4078    6.1706 C   0  0  0  0  0  0
   15.6904   67.6434    7.4774 C   0  0  0  0  0  0
   14.5328   66.9945    7.8807 C   0  0  0  0  0  0
   13.8465   66.1331    7.1129 N   0  0  0  0  0  0
   14.2853   65.8869    5.8544 C   0  0  0  0  0  0
   15.4347   66.5160    5.3491 C   0  0  0  0  0  0
   13.4168   64.9520    5.0784 C   0  0  0  0  0  0
   12.0353   64.9026    5.3523 C   0  0  0  0  0  0
   11.1877   64.0613    4.6495 C   0  0  0  0  0  0
   11.7042   63.2529    3.6529 C   0  0  0  0  0  0
   13.0678   63.2570    3.3730 C   0  0  0  0  0  0
   13.9220   64.1011    4.0776 C   0  0  0  0  0  0
   15.2410   64.0655    3.7816 F   0  0  0  0  0  0
   19.1585   68.9764    4.4760 C   0  0  0  0  0  0
   19.7464   69.2930    3.2318 C   0  0  0  0  0  0
   21.0930   69.6481    3.5374 C   0  0  0  0  0  0
   21.2825   69.6880    4.8320 N   0  0  0  0  0  0
   20.1127   69.3530    5.4161 N   0  0  0  0  0  0
   19.9597   69.5269    6.8661 C   0  0  0  0  0  0
    9.8671   64.0345    4.9246 F   0  0  0  0  0  0
   16.3905   68.5908    8.4500 C   0  0  0  0  0  0
   20.5563   68.4071    7.7424 C   0  0  2  0  0  0
   22.0675   68.5517    7.9782 C   0  0  0  0  0  0
   20.2670   67.1414    7.1957 O   0  0  0  0  0  0
   16.1273   68.1077    3.2871 H   0  0  0  0  0  0
   17.2310   68.8358    1.2228 H   0  0  0  0  0  0
   17.9047   68.2952    6.5476 H   0  0  0  0  0  0
   14.0979   67.1714    8.8320 H   0  0  0  0  0  0
   15.7784   66.3005    4.3518 H   0  0  0  0  0  0
   11.5940   65.5333    6.1111 H   0  0  0  0  0  0
   11.0279   62.6234    3.1053 H   0  0  0  0  0  0
   13.4660   62.6266    2.5938 H   0  0  0  0  0  0
   21.8800   69.9248    2.8512 H   0  0  0  0  0  0
   18.9047   69.6730    7.0904 H   0  0  0  0  0  0
   20.4299   70.4659    7.1405 H   0  0  0  0  0  0
   15.8726   68.6594    9.4078 H   0  0  0  0  0  0
   17.4090   68.2512    8.6413 H   0  0  0  0  0  0
   16.4508   69.5958    8.0315 H   0  0  0  0  0  0
   20.0681   68.4493    8.7179 H   0  0  0  0  0  0
   22.3034   69.5308    8.3965 H   0  0  0  0  0  0
   22.6373   68.4573    7.0550 H   0  0  0  0  0  0
   22.4330   67.8108    8.6898 H   0  0  0  0  0  0
   20.6375   67.1133    6.3081 H   0  0  0  0  0  0
  1 19  2  0  0  0
  1  2  1  0  0  0
  1  5  1  0  0  0
  2  3  2  0  0  0
  2 30  1  0  0  0
  3  4  1  0  0  0
  3 31  1  0  0  0
  4 20  2  0  0  0
  5  6  1  0  0  0
  5 32  1  0  0  0
  6  7  2  0  0  0
  6 11  1  0  0  0
  7  8  1  0  0  0
  7 26  1  0  0  0
  8  9  2  0  0  0
  8 33  1  0  0  0
  9 10  1  0  0  0
 10 11  2  0  0  0
 10 12  1  0  0  0
 11 34  1  0  0  0
 12 13  2  0  0  0
 12 17  1  0  0  0
 13 14  1  0  0  0
 13 35  1  0  0  0
 14 15  2  0  0  0
 14 25  1  0  0  0
 15 16  1  0  0  0
 15 36  1  0  0  0
 16 17  2  0  0  0
 16 37  1  0  0  0
 17 18  1  0  0  0
 19 20  1  0  0  0
 19 23  1  0  0  0
 20 21  1  0  0  0
 21 22  2  0  0  0
 21 38  1  0  0  0
 22 23  1  0  0  0
 23 24  1  0  0  0
 24 27  1  0  0  0
 24 39  1  0  0  0
 24 40  1  0  0  0
 26 41  1  0  0  0
 26 42  1  0  0  0
 26 43  1  0  0  0
 27 28  1  0  0  0
 27 29  1  0  0  0
 27 44  1  0  0  0
 28 45  1  0  0  0
 28 46  1  0  0  0
 28 47  1  0  0  0
 29 48  1  0  0  0
M  END
> <s_m_entry_id>
34376

> <s_m_entry_name>
dock_pv.119

> <s_m_Source_Path>
/home/csk/Desktop/cluster/DUD-E-result/tgfr1

> <s_m_Source_File>
dock_pv.maegz

> <i_m_Source_File_Index>
119

> <chembl_id>
CHEMBL4085333

> <chembl_pref_name>
None

> <i_lp_mmshare_version>
53161

> <r_lp_tautomer_probability>
0.999999106000799

> <s_lp_Force_Field>
OPLS_2005

> <r_lp_Energy>
26.742471

> <b_lp_Chiralities_Consistent>
1

> <s_lp_Variant>
CHEMBL4439_lig793-1

> <s_i_glide_gridfile>
glide-grid_3hmm

> <i_i_glide_lignum>
1107

> <i_i_glide_rotatable_bonds>
6

> <r_i_docking_score>
-8.9214999072611

> <r_i_glide_ligand_efficiency>
-0.30763792783659

> <r_i_glide_ligand_efficiency_sa>
-0.945161180850604

> <r_i_glide_ligand_efficiency_ln>
-2.04279724904478

> <r_i_glide_gscore>
-8.9214999072611

> <r_i_glide_lipo>
-4.41891117172024

> <r_i_glide_hbond>
0

> <r_i_glide_metal>
0

> <r_i_glide_rewards>
-2.34468394915772

> <r_i_glide_evdw>
-50.897876739502

> <r_i_glide_ecoul>
-1.58916771411896

> <r_i_glide_erotb>
0.625364207709802

> <r_i_glide_esite>
0

> <r_i_glide_emodel>
-73.2764565326016

> <r_i_glide_energy>
-52.4870444536209

> <r_i_glide_einternal>
7.5280294418335

> <i_i_glide_confnum>
79

> <i_i_glide_posenum>
57

> <r_i_glide_eff_state_penalty>
0

> <s_user_duplicate_titles>
CHEMBL4439_lig793

> <i_f3d_flags>
0

> <s_m_subgroup_title>
dock_pv

> <s_m_subgroupid>
dock_pv

> <b_m_subgroup_collapsed>
1

$$$$
CHEMBL4439_lig788
                    3D
 Schrodinger Suite 2021-1.
 47 50  0  0  1  0            999 V2000
   20.4638   69.6570    1.8534 C   0  0  0  0  0  0
   21.5443   69.6570    2.7229 C   0  0  0  0  0  0
   21.3721   69.3192    4.0562 C   0  0  0  0  0  0
   20.1209   68.9450    4.5687 C   0  0  0  0  0  0
   19.1832   69.2579    2.3020 C   0  0  0  0  0  0
   18.9961   68.8703    3.6700 C   0  0  0  0  0  0
   17.6778   68.4362    4.0456 C   0  0  0  0  0  0
   16.6668   68.4571    3.0792 C   0  0  0  0  0  0
   16.9508   68.8653    1.7861 C   0  0  0  0  0  0
   18.1782   69.2519    1.3850 N   0  0  0  0  0  0
   19.9318   68.6515    5.9109 O   0  0  0  0  0  0
   20.9905   68.8509    6.8444 C   0  0  0  0  0  0
   17.3888   68.0621    5.3695 N   0  0  0  0  0  0
   16.3180   67.3896    5.9743 C   0  0  0  0  0  0
   16.0270   67.6003    7.3331 C   0  0  0  0  0  0
   14.9408   66.9173    7.8817 C   0  0  0  0  0  0
   14.1710   66.0557    7.1739 N   0  0  0  0  0  0
   14.4786   65.8174    5.8660 C   0  0  0  0  0  0
   15.5457   66.4768    5.2515 C   0  0  0  0  0  0
   13.6192   64.8483    5.1109 C   0  0  0  0  0  0
   12.3133   64.7766    5.5061 N   0  0  0  0  0  0
   11.4684   63.9618    4.8265 C   0  0  0  0  0  0
   11.8661   63.2155    3.7231 C   0  0  0  0  0  0
   13.2005   63.2572    3.3370 C   0  0  0  0  0  0
   14.0932   64.0688    4.0334 C   0  0  0  0  0  0
   10.0470   63.8958    5.3301 C   0  0  0  0  0  0
   16.8423   68.5397    8.2171 C   0  0  0  0  0  0
   15.3920   64.0588    3.6546 F   0  0  0  0  0  0
   20.6028   69.9489    0.8219 H   0  0  0  0  0  0
   22.5224   69.9472    2.3667 H   0  0  0  0  0  0
   22.2454   69.3555    4.6902 H   0  0  0  0  0  0
   15.6453   68.2107    3.3201 H   0  0  0  0  0  0
   16.1675   68.8974    1.0411 H   0  0  0  0  0  0
   20.6242   68.6409    7.8492 H   0  0  0  0  0  0
   21.8303   68.1819    6.6593 H   0  0  0  0  0  0
   21.3466   69.8822    6.8351 H   0  0  0  0  0  0
   18.1324   68.3299    6.0047 H   0  0  0  0  0  0
   14.6674   67.0606    8.9152 H   0  0  0  0  0  0
   15.7824   66.2730    4.2211 H   0  0  0  0  0  0
   11.1649   62.5910    3.1907 H   0  0  0  0  0  0
   13.5377   62.6699    2.4957 H   0  0  0  0  0  0
    9.4672   63.1335    4.8126 H   0  0  0  0  0  0
    9.5618   64.8557    5.1667 H   0  0  0  0  0  0
   10.0292   63.6569    6.3944 H   0  0  0  0  0  0
   17.9098   68.4220    8.0274 H   0  0  0  0  0  0
   16.5772   69.5798    8.0275 H   0  0  0  0  0  0
   16.6924   68.3288    9.2768 H   0  0  0  0  0  0
  1  2  2  0  0  0
  1  5  1  0  0  0
  1 29  1  0  0  0
  2  3  1  0  0  0
  2 30  1  0  0  0
  3  4  2  0  0  0
  3 31  1  0  0  0
  4  6  1  0  0  0
  4 11  1  0  0  0
  5  6  1  0  0  0
  5 10  2  0  0  0
  6  7  2  0  0  0
  7  8  1  0  0  0
  7 13  1  0  0  0
  8  9  2  0  0  0
  8 32  1  0  0  0
  9 10  1  0  0  0
  9 33  1  0  0  0
 11 12  1  0  0  0
 12 34  1  0  0  0
 12 35  1  0  0  0
 12 36  1  0  0  0
 13 14  1  0  0  0
 13 37  1  0  0  0
 14 15  2  0  0  0
 14 19  1  0  0  0
 15 16  1  0  0  0
 15 27  1  0  0  0
 16 17  2  0  0  0
 16 38  1  0  0  0
 17 18  1  0  0  0
 18 19  2  0  0  0
 18 20  1  0  0  0
 19 39  1  0  0  0
 20 21  2  0  0  0
 20 25  1  0  0  0
 21 22  1  0  0  0
 22 23  2  0  0  0
 22 26  1  0  0  0
 23 24  1  0  0  0
 23 40  1  0  0  0
 24 25  2  0  0  0
 24 41  1  0  0  0
 25 28  1  0  0  0
 26 42  1  0  0  0
 26 43  1  0  0  0
 26 44  1  0  0  0
 27 45  1  0  0  0
 27 46  1  0  0  0
 27 47  1  0  0  0
M  END
> <s_m_entry_id>
34377

> <s_m_entry_name>
dock_pv.120

> <s_m_Source_Path>
/home/csk/Desktop/cluster/DUD-E-result/tgfr1

> <s_m_Source_File>
dock_pv.maegz

> <i_m_Source_File_Index>
120

> <chembl_id>
CHEMBL4094958

> <chembl_pref_name>
None

> <i_lp_mmshare_version>
53161

> <r_lp_tautomer_probability>
0.999999106000799

> <s_lp_Force_Field>
OPLS_2005

> <r_lp_Energy>
34.836774

> <b_lp_Chiralities_Consistent>
1

> <s_lp_Variant>
CHEMBL4439_lig788-1

> <s_i_glide_gridfile>
glide-grid_3hmm

> <i_i_glide_lignum>
1102

> <i_i_glide_rotatable_bonds>
4

> <r_i_docking_score>
-8.90603663466282

> <r_i_glide_ligand_efficiency>
-0.318072736952244

> <r_i_glide_ligand_efficiency_sa>
-0.965856164210681

> <r_i_glide_ligand_efficiency_ln>
-2.05577474787834

> <r_i_glide_gscore>
-8.90603663466282

> <r_i_glide_lipo>
-4.54747438338208

> <r_i_glide_hbond>
-0.12843049526634

> <r_i_glide_metal>
0

> <r_i_glide_rewards>
-1.69618706974856

> <r_i_glide_evdw>
-50.4961853027344

> <r_i_glide_ecoul>
-2.81953001022339

> <r_i_glide_erotb>
0.413794080404382

> <r_i_glide_esite>
0

> <r_i_glide_emodel>
-81.3230208936695

> <r_i_glide_energy>
-53.3157153129578

> <r_i_glide_einternal>
0.352235019207001

> <i_i_glide_confnum>
18

> <i_i_glide_posenum>
292

> <r_i_glide_eff_state_penalty>
0

> <s_user_duplicate_titles>
CHEMBL4439_lig788

> <i_f3d_flags>
0

> <s_m_subgroup_title>
dock_pv

> <s_m_subgroupid>
dock_pv

> <b_m_subgroup_collapsed>
1

$$$$
CHEMBL4439_lig834
                    3D
 Schrodinger Suite 2021-1.
 34 37  0  0  1  0            999 V2000
   16.8590   67.5958    6.1394 C   0  0  0  0  0  0
   15.0453   66.2551    7.7989 N   0  0  0  0  0  0
   15.0232   66.1896    6.4373 C   0  0  0  0  0  0
   15.8824   66.8197    5.5988 N   0  0  0  0  0  0
   16.0280   67.0340    8.2849 N   0  0  0  0  0  0
   16.9885   67.7431    7.5330 C   0  0  0  0  0  0
   17.8275   68.4313    8.4522 C   0  0  0  0  0  0
   17.3567   68.1301    9.7218 C   0  0  0  0  0  0
   16.2670   67.2762    9.6173 C   0  0  0  0  0  0
   13.9789   65.3293    5.7955 C   0  0  0  0  0  0
   12.7492   65.3202    6.3859 N   0  0  0  0  0  0
   11.7740   64.5489    5.8422 C   0  0  0  0  0  0
   11.9733   63.7617    4.7076 C   0  0  0  0  0  0
   13.2293   63.7792    4.0987 C   0  0  0  0  0  0
   14.2420   64.5779    4.6381 C   0  0  0  0  0  0
   17.7778   68.2522    5.3082 N   0  0  0  0  0  0
   17.7762   68.5631    3.9404 C   0  0  0  0  0  0
   18.9553   69.0646    3.3840 C   0  0  0  0  0  0
   18.9666   69.4149    2.0317 C   0  0  0  0  0  0
   17.8771   69.3056    1.2322 N   0  0  0  0  0  0
   16.7293   68.8571    1.7890 C   0  0  0  0  0  0
   16.6425   68.4570    3.1227 C   0  0  0  0  0  0
   18.6649   69.0808    8.2366 H   0  0  0  0  0  0
   17.7739   68.5124   10.6432 H   0  0  0  0  0  0
   15.6466   66.8509   10.3925 H   0  0  0  0  0  0
   10.8187   64.5647    6.3456 H   0  0  0  0  0  0
   11.1717   63.1634    4.3005 H   0  0  0  0  0  0
   13.4118   63.1943    3.2078 H   0  0  0  0  0  0
   15.2168   64.6012    4.1699 H   0  0  0  0  0  0
   18.5466   68.6579    5.8165 H   0  0  0  0  0  0
   19.8515   69.1771    3.9776 H   0  0  0  0  0  0
   19.8630   69.8000    1.5672 H   0  0  0  0  0  0
   15.8663   68.8124    1.1381 H   0  0  0  0  0  0
   15.6937   68.1129    3.4983 H   0  0  0  0  0  0
  1  6  1  0  0  0
  1  4  2  0  0  0
  1 16  1  0  0  0
  2  5  1  0  0  0
  2  3  2  0  0  0
  3  4  1  0  0  0
  3 10  1  0  0  0
  5  6  1  0  0  0
  5  9  1  0  0  0
  6  7  2  0  0  0
  7  8  1  0  0  0
  7 23  1  0  0  0
  8  9  2  0  0  0
  8 24  1  0  0  0
  9 25  1  0  0  0
 10 11  2  0  0  0
 10 15  1  0  0  0
 11 12  1  0  0  0
 12 13  2  0  0  0
 12 26  1  0  0  0
 13 14  1  0  0  0
 13 27  1  0  0  0
 14 15  2  0  0  0
 14 28  1  0  0  0
 15 29  1  0  0  0
 16 17  1  0  0  0
 16 30  1  0  0  0
 17 18  2  0  0  0
 17 22  1  0  0  0
 18 19  1  0  0  0
 18 31  1  0  0  0
 19 20  2  0  0  0
 19 32  1  0  0  0
 20 21  1  0  0  0
 21 22  2  0  0  0
 21 33  1  0  0  0
 22 34  1  0  0  0
M  END
> <s_m_entry_id>
34378

> <s_m_entry_name>
dock_pv.121

> <s_m_Source_Path>
/home/csk/Desktop/cluster/DUD-E-result/tgfr1

> <s_m_Source_File>
dock_pv.maegz

> <i_m_Source_File_Index>
121

> <chembl_id>
CHEMBL4205311

> <chembl_pref_name>
None

> <i_lp_mmshare_version>
53161

> <r_lp_tautomer_probability>
0.999999106000799

> <s_lp_Force_Field>
OPLS_2005

> <r_lp_Energy>
31.921194

> <b_lp_Chiralities_Consistent>
1

> <s_lp_Variant>
CHEMBL4439_lig834-1

> <s_i_glide_gridfile>
glide-grid_3hmm

> <i_i_glide_lignum>
1152

> <i_i_glide_rotatable_bonds>
3

> <r_i_docking_score>
-8.90173571108894

> <r_i_glide_ligand_efficiency>
-0.404624350504043

> <r_i_glide_ligand_efficiency_sa>
-1.13377334308504

> <r_i_glide_ligand_efficiency_ln>
-2.17590890648948

> <r_i_glide_gscore>
-8.90173571108894

> <r_i_glide_lipo>
-3.47001023433896

> <r_i_glide_hbond>
-0.354965091041538

> <r_i_glide_metal>
0

> <r_i_glide_rewards>
-2.97544122112472

> <r_i_glide_evdw>
-43.9009552001953

> <r_i_glide_ecoul>
-3.75204157829285

> <r_i_glide_erotb>
0.65653483216998

> <r_i_glide_esite>
0

> <r_i_glide_emodel>
-72.3027044194273

> <r_i_glide_energy>
-47.6529967784882

> <r_i_glide_einternal>
2.94025421142578

> <i_i_glide_confnum>
11

> <i_i_glide_posenum>
218

> <r_i_glide_eff_state_penalty>
0

> <s_user_duplicate_titles>
CHEMBL4439_lig834

> <i_f3d_flags>
0

> <s_m_subgroup_title>
dock_pv

> <s_m_subgroupid>
dock_pv

> <b_m_subgroup_collapsed>
1

$$$$
CHEMBL4439_lig886 
                    3D
 Schrodinger Suite 2021-1.
 42 46  0  0  1  0            999 V2000
   16.3845   67.3761    5.1713 N   0  0  0  0  0  0
   15.8695   66.9387    6.2939 C   0  0  0  0  0  0
   16.5987   67.4051    7.4111 C   0  0  0  0  0  0
   16.3433   67.0939    8.8004 C   0  0  0  0  0  0
   16.6691   68.0470    9.6731 N   0  0  0  0  0  0
   15.8669   66.0198    9.1592 O   0  0  0  0  0  0
   14.6137   66.1416    6.1974 C   0  0  0  0  0  0
   14.5186   65.1632    5.2014 C   0  0  0  0  0  0
   12.2840   65.8102    6.8306 C   0  0  0  0  0  0
   13.5170   66.4368    7.0131 C   0  0  0  0  0  0
   12.1720   64.8752    5.7939 C   0  0  0  0  0  0
   13.2903   64.5369    4.9893 C   0  0  0  0  0  0
   13.0618   63.6057    4.0312 N   0  0  0  0  0  0
   11.8109   63.2567    4.0246 C   0  0  0  0  0  0
   10.7742   63.9733    5.2304 S   0  0  0  0  0  0
   18.0719   68.8480    4.3846 C   0  0  0  0  0  0
   19.5011   69.3965    4.5572 C   0  0  2  0  0  0
   20.5582   68.2986    4.6800 C   0  0  2  0  0  0
   17.4694   68.0812    5.4783 N   0  0  0  0  0  0
   17.6546   68.1422    6.8501 C   0  0  0  0  0  0
   18.6754   68.7960    7.5141 N   0  0  0  0  0  0
   19.9410   69.2105    6.9141 C   0  0  1  0  0  0
   20.6748   68.0597    6.2076 C   0  0  0  0  0  0
   19.7691   70.2395    5.8101 C   0  0  0  0  0  0
   19.6931   70.0071    3.6733 H   0  0  0  0  0  0
   20.5757   69.6337    7.6951 H   0  0  0  0  0  0
   21.7561   68.8572    4.1699 O   0  0  0  0  0  0
   16.5202   67.8833   10.6570 H   0  0  0  0  0  0
   17.0079   68.9422    9.3525 H   0  0  0  0  0  0
   15.3604   64.9338    4.5654 H   0  0  0  0  0  0
   11.4340   66.0604    7.4441 H   0  0  0  0  0  0
   13.6122   67.1942    7.7785 H   0  0  0  0  0  0
   11.4207   62.5477    3.3096 H   0  0  0  0  0  0
   18.0528   68.2195    3.4912 H   0  0  0  0  0  0
   17.3830   69.6571    4.1591 H   0  0  0  0  0  0
   20.2869   67.3713    4.1732 H   0  0  0  0  0  0
   18.8122   68.4281    8.4450 H   0  0  0  0  0  0
   20.2360   67.0951    6.4692 H   0  0  0  0  0  0
   21.7129   68.0415    6.5387 H   0  0  0  0  0  0
   20.7156   70.7694    5.6835 H   0  0  0  0  0  0
   19.0518   71.0156    6.0325 H   0  0  0  0  0  0
   22.4665   68.2154    4.3187 H   0  0  0  0  0  0
  1 19  1  0  0  0
  1  2  2  0  0  0
  2  3  1  0  0  0
  2  7  1  0  0  0
  3 20  2  0  0  0
  3  4  1  0  0  0
  4  5  1  0  0  0
  4  6  2  0  0  0
  5 28  1  0  0  0
  5 29  1  0  0  0
  7  8  2  0  0  0
  7 10  1  0  0  0
  8 12  1  0  0  0
  8 30  1  0  0  0
  9 11  1  0  0  0
  9 10  2  0  0  0
  9 31  1  0  0  0
 10 32  1  0  0  0
 11 12  2  0  0  0
 11 15  1  0  0  0
 12 13  1  0  0  0
 13 14  2  0  0  0
 14 15  1  0  0  0
 14 33  1  0  0  0
 16 17  1  0  0  0
 16 19  1  0  0  0
 16 34  1  0  0  0
 16 35  1  0  0  0
 17 18  1  0  0  0
 17 24  1  0  0  0
 17 25  1  0  0  0
 18 23  1  0  0  0
 18 27  1  0  0  0
 18 36  1  0  0  0
 19 20  1  0  0  0
 20 21  1  0  0  0
 21 22  1  0  0  0
 21 37  1  0  0  0
 22 23  1  0  0  0
 22 24  1  0  0  0
 22 26  1  0  0  0
 23 38  1  0  0  0
 23 39  1  0  0  0
 24 40  1  0  0  0
 24 41  1  0  0  0
 27 42  1  0  0  0
M  END
> <s_m_entry_id>
34379

> <s_m_entry_name>
dock_pv.122

> <s_m_Source_Path>
/home/csk/Desktop/cluster/DUD-E-result/tgfr1

> <s_m_Source_File>
dock_pv.maegz

> <i_m_Source_File_Index>
122

> <chembl_id>
CHEMBL4583311

> <chembl_pref_name>
None

> <i_lp_mmshare_version>
53161

> <r_lp_tautomer_probability>
1

> <s_lp_Force_Field>
OPLS_2005

> <r_lp_Energy>
44.346727

> <b_lp_Chiralities_Consistent>
1

> <s_lp_Variant>
CHEMBL4439_lig886 -1

> <s_i_glide_gridfile>
glide-grid_3hmm

> <i_i_glide_lignum>
1221

> <i_i_glide_rotatable_bonds>
3

> <r_i_docking_score>
-8.89102309738716

> <r_i_glide_ligand_efficiency>
-0.355640923895486

> <r_i_glide_ligand_efficiency_sa>
-1.03990036878904

> <r_i_glide_ligand_efficiency_ln>
-2.1074389165424

> <r_i_glide_gscore>
-8.89102309738716

> <r_i_glide_lipo>
-3.35212822122615

> <r_i_glide_hbond>
-0.394496052585108

> <r_i_glide_metal>
0

> <r_i_glide_rewards>
-1.9377039940177

> <r_i_glide_evdw>
-46.2471389770508

> <r_i_glide_ecoul>
-6.97134590148926

> <r_i_glide_erotb>
0.151364004517723

> <r_i_glide_esite>
0

> <r_i_glide_emodel>
-73.3355003787077

> <r_i_glide_energy>
-53.21848487854

> <r_i_glide_einternal>
2.97472953796387

> <i_i_glide_confnum>
1

> <i_i_glide_posenum>
141

> <r_i_glide_eff_state_penalty>
0

> <s_user_duplicate_titles>
CHEMBL4439_lig886 

> <i_f3d_flags>
0

> <s_m_subgroup_title>
dock_pv

> <s_m_subgroupid>
dock_pv

> <b_m_subgroup_collapsed>
1

$$$$
CHEMBL4439_lig212
                    3D
 Schrodinger Suite 2021-1.
 46 49  0  0  1  0            999 V2000
   16.0764   67.3826    6.1724 C   0  0  0  0  0  0
   15.0370   66.4619    6.4525 C   0  0  0  0  0  0
   14.7381   66.4584    7.7412 N   0  0  0  0  0  0
   15.5269   67.3237    8.2948 C   0  0  0  0  0  0
   16.4023   67.9113    7.4200 N   0  0  0  0  0  0
   16.6893   67.8054    4.8606 C   0  0  0  0  0  0
   18.0593   68.0571    4.7291 C   0  0  0  0  0  0
   18.5890   68.5132    3.5239 C   0  0  0  0  0  0
   17.7490   68.7165    2.4320 C   0  0  0  0  0  0
   16.3878   68.4552    2.5358 C   0  0  0  0  0  0
   15.8674   67.9812    3.7398 C   0  0  0  0  0  0
   14.2900   65.5228    5.5485 C   0  0  0  0  0  0
   14.8750   64.9361    4.4216 C   0  0  0  0  0  0
   14.1082   64.0060    3.7142 C   0  0  0  0  0  0
   12.8522   63.6555    4.0967 N   0  0  0  0  0  0
   12.3668   64.2807    5.1952 C   0  0  0  0  0  0
   13.0204   65.2061    5.9347 N   0  0  0  0  0  0
   18.2570   69.1607    1.2599 F   0  0  0  0  0  0
   17.3594   68.9580    7.7924 C   0  0  0  0  0  0
   18.4052   68.5516    8.8259 C   0  0  0  0  0  0
   18.0527   68.3870   10.1727 C   0  0  0  0  0  0
   19.0122   68.0555   11.1370 C   0  0  0  0  0  0
   20.3516   67.9401   10.7369 C   0  0  0  0  0  0
   20.7133   68.1028    9.4008 C   0  0  0  0  0  0
   19.7421   68.3988    8.4475 C   0  0  0  0  0  0
   11.0992   63.9129    5.6329 N   0  0  0  0  0  0
   18.5943   67.8204   12.5702 C   0  0  0  0  0  0
   19.2372   66.8574   13.2320 N   0  0  0  0  0  0
   17.6871   68.4554   13.0982 O   0  0  0  0  0  0
   15.5211   67.5964    9.3391 H   0  0  0  0  0  0
   18.7274   67.8900    5.5609 H   0  0  0  0  0  0
   19.6485   68.7103    3.4340 H   0  0  0  0  0  0
   15.7383   68.6117    1.6844 H   0  0  0  0  0  0
   14.8051   67.7865    3.8079 H   0  0  0  0  0  0
   15.8791   65.1765    4.1110 H   0  0  0  0  0  0
   14.4974   63.5164    2.8320 H   0  0  0  0  0  0
   16.7900   69.8047    8.1724 H   0  0  0  0  0  0
   17.8684   69.3264    6.9108 H   0  0  0  0  0  0
   17.0272   68.5381   10.4783 H   0  0  0  0  0  0
   21.1218   67.7031   11.4567 H   0  0  0  0  0  0
   21.7495   68.0086    9.1060 H   0  0  0  0  0  0
   20.0437   68.5337    7.4191 H   0  0  0  0  0  0
   10.7383   64.3176    6.4862 H   0  0  0  0  0  0
   10.5685   63.2524    5.0882 H   0  0  0  0  0  0
   18.9804   66.6366   14.1801 H   0  0  0  0  0  0
   19.8670   66.2443   12.7205 H   0  0  0  0  0  0
  1  5  1  0  0  0
  1  6  1  0  0  0
  1  2  2  0  0  0
  2 12  1  0  0  0
  2  3  1  0  0  0
  3  4  2  0  0  0
  4  5  1  0  0  0
  4 30  1  0  0  0
  5 19  1  0  0  0
  6  7  2  0  0  0
  6 11  1  0  0  0
  7  8  1  0  0  0
  7 31  1  0  0  0
  8  9  2  0  0  0
  8 32  1  0  0  0
  9 10  1  0  0  0
  9 18  1  0  0  0
 10 11  2  0  0  0
 10 33  1  0  0  0
 11 34  1  0  0  0
 12 13  2  0  0  0
 12 17  1  0  0  0
 13 14  1  0  0  0
 13 35  1  0  0  0
 14 15  2  0  0  0
 14 36  1  0  0  0
 15 16  1  0  0  0
 16 17  2  0  0  0
 16 26  1  0  0  0
 19 20  1  0  0  0
 19 37  1  0  0  0
 19 38  1  0  0  0
 20 21  2  0  0  0
 20 25  1  0  0  0
 21 22  1  0  0  0
 21 39  1  0  0  0
 22 23  2  0  0  0
 22 27  1  0  0  0
 23 24  1  0  0  0
 23 40  1  0  0  0
 24 25  2  0  0  0
 24 41  1  0  0  0
 25 42  1  0  0  0
 26 43  1  0  0  0
 26 44  1  0  0  0
 27 28  1  0  0  0
 27 29  2  0  0  0
 28 45  1  0  0  0
 28 46  1  0  0  0
M  END
> <s_m_entry_id>
34380

> <s_m_entry_name>
dock_pv.123

> <s_m_Source_Path>
/home/csk/Desktop/cluster/DUD-E-result/tgfr1

> <s_m_Source_File>
dock_pv.maegz

> <i_m_Source_File_Index>
123

> <chembl_id>
CHEMBL492858

> <chembl_pref_name>
None

> <i_lp_mmshare_version>
53161

> <r_lp_tautomer_probability>
0.999999987636

> <s_lp_Force_Field>
OPLS_2005

> <r_lp_Energy>
18.510089

> <b_lp_Chiralities_Consistent>
1

> <s_lp_Variant>
CHEMBL4439_lig212-1

> <s_i_glide_gridfile>
glide-grid_3hmm

> <i_i_glide_lignum>
313

> <i_i_glide_rotatable_bonds>
5

> <r_i_docking_score>
-8.86548267455635

> <r_i_glide_ligand_efficiency>
-0.305706299122633

> <r_i_glide_ligand_efficiency_sa>
-0.939226605458397

> <r_i_glide_ligand_efficiency_ln>
-2.02997072322985

> <r_i_glide_gscore>
-8.86548267455635

> <r_i_glide_lipo>
-3.79203925002723

> <r_i_glide_hbond>
-0.360715685922706

> <r_i_glide_metal>
0

> <r_i_glide_rewards>
-1.88680133522142

> <r_i_glide_evdw>
-50.532642364502

> <r_i_glide_ecoul>
-5.010169506073

> <r_i_glide_erotb>
0.516625513907811

> <r_i_glide_esite>
-0.0643943731567579

> <r_i_glide_emodel>
-84.7348474479006

> <r_i_glide_energy>
-55.542811870575

> <r_i_glide_einternal>
2.53279685974121

> <i_i_glide_confnum>
24

> <i_i_glide_posenum>
358

> <r_i_glide_eff_state_penalty>
0

> <s_user_duplicate_titles>
CHEMBL4439_lig212

> <i_f3d_flags>
0

> <s_m_subgroup_title>
dock_pv

> <s_m_subgroupid>
dock_pv

> <b_m_subgroup_collapsed>
1

$$$$
CHEMBL4439_lig767
                    3D
 Schrodinger Suite 2021-1.
 36 39  0  0  1  0            999 V2000
   11.0692   64.7917    5.9314 C   0  0  0  0  0  0
   12.5406   64.9202    5.6320 C   0  0  0  0  0  0
   13.1168   64.2844    4.5314 C   0  0  0  0  0  0
   14.4806   64.4589    4.3111 C   0  0  0  0  0  0
   15.2195   65.2426    5.1980 C   0  0  0  0  0  0
   14.5837   65.8540    6.2819 C   0  0  0  0  0  0
   13.2467   65.6943    6.4968 N   0  0  0  0  0  0
   15.3235   66.6185    7.2311 N   0  0  0  0  0  0
   15.0254   66.4570    8.5302 N   0  0  0  0  0  0
   15.8677   67.2005    9.1873 C   0  0  0  0  0  0
   16.7438   67.8993    8.3626 C   0  0  0  0  0  0
   17.8326   68.8352    8.8320 C   0  0  0  0  0  0
   16.3769   67.5171    7.0617 C   0  0  0  0  0  0
   16.9355   67.9540    5.7649 C   0  0  0  0  0  0
   16.2670   68.0569    4.5572 C   0  0  0  0  0  0
   17.0813   68.4985    3.4874 C   0  0  0  0  0  0
   16.7793   68.7001    2.1323 C   0  0  0  0  0  0
   17.7047   69.1032    1.2321 N   0  0  0  0  0  0
   18.9598   69.3554    1.6661 C   0  0  0  0  0  0
   19.3675   69.2570    2.9952 C   0  0  0  0  0  0
   18.4093   68.7857    3.9046 C   0  0  0  0  0  0
   18.6176   68.4570    5.6116 S   0  0  0  0  0  0
   10.5178   64.3460    5.1023 H   0  0  0  0  0  0
   10.9140   64.1807    6.8223 H   0  0  0  0  0  0
   10.6670   65.7868    6.1093 H   0  0  0  0  0  0
   12.5249   63.6857    3.8540 H   0  0  0  0  0  0
   14.9606   63.9885    3.4647 H   0  0  0  0  0  0
   16.2670   65.3802    5.0360 H   0  0  0  0  0  0
   15.8556   67.2485   10.2674 H   0  0  0  0  0  0
   17.9027   68.8679    9.9198 H   0  0  0  0  0  0
   18.8120   68.5283    8.4685 H   0  0  0  0  0  0
   17.6815   69.8493    8.4608 H   0  0  0  0  0  0
   15.2222   67.8224    4.4271 H   0  0  0  0  0  0
   15.7871   68.5123    1.7489 H   0  0  0  0  0  0
   19.6645   69.6572    0.9044 H   0  0  0  0  0  0
   20.3831   69.4722    3.2955 H   0  0  0  0  0  0
  1  2  1  0  0  0
  1 23  1  0  0  0
  1 24  1  0  0  0
  1 25  1  0  0  0
  2  3  2  0  0  0
  2  7  1  0  0  0
  3  4  1  0  0  0
  3 26  1  0  0  0
  4  5  2  0  0  0
  4 27  1  0  0  0
  5  6  1  0  0  0
  5 28  1  0  0  0
  6  7  2  0  0  0
  6  8  1  0  0  0
  8  9  1  0  0  0
  8 13  1  0  0  0
  9 10  2  0  0  0
 10 11  1  0  0  0
 10 29  1  0  0  0
 11 12  1  0  0  0
 11 13  2  0  0  0
 12 30  1  0  0  0
 12 31  1  0  0  0
 12 32  1  0  0  0
 13 14  1  0  0  0
 14 15  2  0  0  0
 14 22  1  0  0  0
 15 16  1  0  0  0
 15 33  1  0  0  0
 16 17  2  0  0  0
 16 21  1  0  0  0
 17 18  1  0  0  0
 17 34  1  0  0  0
 18 19  2  0  0  0
 19 20  1  0  0  0
 19 35  1  0  0  0
 20 21  2  0  0  0
 20 36  1  0  0  0
 21 22  1  0  0  0
M  END
> <s_m_entry_id>
34381

> <s_m_entry_name>
dock_pv.124

> <s_m_Source_Path>
/home/csk/Desktop/cluster/DUD-E-result/tgfr1

> <s_m_Source_File>
dock_pv.maegz

> <i_m_Source_File_Index>
124

> <chembl_id>
CHEMBL3640035

> <chembl_pref_name>
None

> <i_lp_mmshare_version>
53161

> <r_lp_tautomer_probability>
1

> <s_lp_Force_Field>
OPLS_2005

> <r_lp_Energy>
11.812597

> <b_lp_Chiralities_Consistent>
1

> <s_lp_Variant>
CHEMBL4439_lig767-1

> <s_i_glide_gridfile>
glide-grid_3hmm

> <i_i_glide_lignum>
1081

> <i_i_glide_rotatable_bonds>
2

> <r_i_docking_score>
-8.86441195444209

> <r_i_glide_ligand_efficiency>
-0.402927816111004

> <r_i_glide_ligand_efficiency_sa>
-1.12901958699483

> <r_i_glide_ligand_efficiency_ln>
-2.16678561894789

> <r_i_glide_gscore>
-8.86441195444209

> <r_i_glide_lipo>
-3.59162698508004

> <r_i_glide_hbond>
-0.373773676885294

> <r_i_glide_metal>
0

> <r_i_glide_rewards>
-2.77432193650861

> <r_i_glide_evdw>
-40.5765800476074

> <r_i_glide_ecoul>
-3.26266837120056

> <r_i_glide_erotb>
0.393539902092311

> <r_i_glide_esite>
0

> <r_i_glide_emodel>
-67.6282310251454

> <r_i_glide_energy>
-43.839248418808

> <r_i_glide_einternal>
1.59797012805939

> <i_i_glide_confnum>
5

> <i_i_glide_posenum>
226

> <r_i_glide_eff_state_penalty>
0

> <s_user_duplicate_titles>
CHEMBL4439_lig767

> <i_f3d_flags>
0

> <s_m_subgroup_title>
dock_pv

> <s_m_subgroupid>
dock_pv

> <b_m_subgroup_collapsed>
1

$$$$
CHEMBL4439_lig289
                    3D
 Schrodinger Suite 2021-1.
 39 42  0  0  1  0            999 V2000
   16.6345   67.3735    6.5468 C   0  0  0  0  0  0
   15.5792   66.6469    7.1794 C   0  0  0  0  0  0
   15.6914   66.6335    8.4946 N   0  0  0  0  0  0
   16.8610   67.7086    5.0920 C   0  0  0  0  0  0
   17.2970   68.4839    2.4325 C   0  0  0  0  0  0
   18.3449   68.5219    3.3446 C   0  0  0  0  0  0
   18.1257   68.1379    4.6649 C   0  0  0  0  0  0
   14.4181   65.9386    6.5724 C   0  0  0  0  0  0
   16.0357   68.0570    2.8325 C   0  0  0  0  0  0
   15.8234   67.6575    4.1501 C   0  0  0  0  0  0
   17.4316   67.7542    7.6281 C   0  0  0  0  0  0
   16.8175   67.2877    8.7514 N   0  0  0  0  0  0
   17.4516   67.6765    9.9920 C   0  0  0  0  0  0
   18.8479   68.0679    9.4991 C   0  0  0  0  0  0
   18.6878   68.4902    8.0334 C   0  0  0  0  0  0
   13.1178   66.1002    7.0618 C   0  0  0  0  0  0
   12.0747   65.4310    6.4246 C   0  0  0  0  0  0
   12.3429   64.6414    5.3039 C   0  0  0  0  0  0
   13.6710   64.5259    4.8717 C   0  0  0  0  0  0
   14.6994   65.1384    5.5121 N   0  0  0  0  0  0
   14.0899   63.7076    3.6596 C   0  0  0  0  0  0
   17.5026   68.8725    1.1540 F   0  0  0  0  0  0
   13.0305   63.2569    2.8472 O   0  0  0  0  0  0
   19.3222   68.8576    3.0299 H   0  0  0  0  0  0
   18.9556   68.1839    5.3503 H   0  0  0  0  0  0
   15.2209   68.0534    2.1231 H   0  0  0  0  0  0
   14.8185   67.3934    4.4336 H   0  0  0  0  0  0
   17.4748   66.8560   10.7096 H   0  0  0  0  0  0
   16.9275   68.5259   10.4328 H   0  0  0  0  0  0
   19.5117   67.2025    9.5627 H   0  0  0  0  0  0
   19.2945   68.8555   10.1076 H   0  0  0  0  0  0
   19.5706   68.1994    7.4644 H   0  0  0  0  0  0
   18.5747   69.5703    7.9303 H   0  0  0  0  0  0
   12.9183   66.7373    7.9111 H   0  0  0  0  0  0
   11.0669   65.5394    6.7904 H   0  0  0  0  0  0
   11.5386   64.1343    4.7905 H   0  0  0  0  0  0
   14.6593   62.8572    4.0205 H   0  0  0  0  0  0
   14.7658   64.2885    3.0330 H   0  0  0  0  0  0
   12.6658   64.0352    2.4040 H   0  0  0  0  0  0
  1  4  1  0  0  0
  1 11  2  0  0  0
  1  2  1  0  0  0
  2  3  2  0  0  0
  2  8  1  0  0  0
  3 12  1  0  0  0
  4  7  1  0  0  0
  4 10  2  0  0  0
  5  9  2  0  0  0
  5  6  1  0  0  0
  5 22  1  0  0  0
  6  7  2  0  0  0
  6 24  1  0  0  0
  7 25  1  0  0  0
  8 16  2  0  0  0
  8 20  1  0  0  0
  9 10  1  0  0  0
  9 26  1  0  0  0
 10 27  1  0  0  0
 11 12  1  0  0  0
 11 15  1  0  0  0
 12 13  1  0  0  0
 13 14  1  0  0  0
 13 28  1  0  0  0
 13 29  1  0  0  0
 14 15  1  0  0  0
 14 30  1  0  0  0
 14 31  1  0  0  0
 15 32  1  0  0  0
 15 33  1  0  0  0
 16 17  1  0  0  0
 16 34  1  0  0  0
 17 18  2  0  0  0
 17 35  1  0  0  0
 18 19  1  0  0  0
 18 36  1  0  0  0
 19 20  2  0  0  0
 19 21  1  0  0  0
 21 23  1  0  0  0
 21 37  1  0  0  0
 21 38  1  0  0  0
 23 39  1  0  0  0
M  END
> <s_m_entry_id>
34382

> <s_m_entry_name>
dock_pv.125

> <s_m_Source_Path>
/home/csk/Desktop/cluster/DUD-E-result/tgfr1

> <s_m_Source_File>
dock_pv.maegz

> <i_m_Source_File_Index>
125

> <chembl_id>
CHEMBL122414

> <chembl_pref_name>
None

> <i_lp_mmshare_version>
53161

> <r_lp_tautomer_probability>
1

> <s_lp_Force_Field>
OPLS_2005

> <r_lp_Energy>
36.653396

> <b_lp_Chiralities_Consistent>
1

> <s_lp_Variant>
CHEMBL4439_lig289-1

> <s_i_glide_gridfile>
glide-grid_3hmm

> <i_i_glide_lignum>
406

> <i_i_glide_rotatable_bonds>
4

> <r_i_docking_score>
-8.85836453045767

> <r_i_glide_ligand_efficiency>
-0.385146283932942

> <r_i_glide_ligand_efficiency_sa>
-1.09530479814466

> <r_i_glide_ligand_efficiency_ln>
-2.14203286667332

> <r_i_glide_gscore>
-8.85836453045767

> <r_i_glide_lipo>
-3.92644493089419

> <r_i_glide_hbond>
-0.32

> <r_i_glide_metal>
0

> <r_i_glide_rewards>
-2.08950097203878

> <r_i_glide_evdw>
-43.2056465148926

> <r_i_glide_ecoul>
-6.28398275375366

> <r_i_glide_erotb>
0.580461111282982

> <r_i_glide_esite>
0

> <r_i_glide_emodel>
-74.3990766824395

> <r_i_glide_energy>
-49.4896292686462

> <r_i_glide_einternal>
3.87271690368652

> <i_i_glide_confnum>
7

> <i_i_glide_posenum>
389

> <r_i_glide_eff_state_penalty>
0

> <s_user_duplicate_titles>
CHEMBL4439_lig289

> <i_f3d_flags>
0

> <s_m_subgroup_title>
dock_pv

> <s_m_subgroupid>
dock_pv

> <b_m_subgroup_collapsed>
1

$$$$
CHEMBL4439_lig433
                    3D
 Schrodinger Suite 2021-1.
 58 62  0  0  1  0            999 V2000
   19.0644   69.2578    2.5304 C   0  0  0  0  0  0
   17.8078   68.9509    2.0005 C   0  0  0  0  0  0
   16.8127   68.5165    2.8794 C   0  0  0  0  0  0
   17.0219   68.4041    4.2071 N   0  0  0  0  0  0
   18.2488   68.6553    4.7210 C   0  0  0  0  0  0
   19.2996   69.0968    3.9001 C   0  0  0  0  0  0
   18.3601   68.4474    6.2066 C   0  0  0  0  0  0
   19.4219   68.9086    6.8454 N   0  0  0  0  0  0
   19.2543   68.6042    8.1371 N   0  0  0  0  0  0
   18.0361   68.0136    8.3497 C   0  0  0  0  0  0
   17.4387   67.8376    7.1134 C   0  0  0  0  0  0
   16.1077   67.1722    6.9074 C   0  0  0  0  0  0
   15.0622   67.4466    7.7941 C   0  0  0  0  0  0
   13.8091   66.8555    7.6370 C   0  0  0  0  0  0
   15.8913   66.2640    5.8660 C   0  0  0  0  0  0
   14.6362   65.6575    5.6704 C   0  0  0  0  0  0
   13.5665   65.9676    6.5627 C   0  0  0  0  0  0
   12.3349   65.4059    6.3921 N   0  0  0  0  0  0
   12.1781   64.5429    5.3515 C   0  0  0  0  0  0
   13.2373   64.2242    4.4908 C   0  0  0  0  0  0
   14.4644   64.7829    4.6400 N   0  0  0  0  0  0
   15.4114   68.1493    2.4323 C   0  0  0  0  0  0
   20.2105   69.1378    9.1149 C   0  0  0  0  0  0
   20.3290   68.3442   10.4276 C   0  0  0  0  0  0
   19.2829   68.4571   11.2760 N   0  0  0  0  0  0
   19.0544   67.8104   12.5009 C   0  0  0  0  0  0
   20.0783   67.3782   13.3547 C   0  0  0  0  0  0
   19.7634   66.6946   14.5268 C   0  0  0  0  0  0
   18.4309   66.4569   14.8530 C   0  0  0  0  0  0
   17.4079   66.9255   14.0319 C   0  0  0  0  0  0
   17.7188   67.6129   12.8627 C   0  0  0  0  0  0
   21.3307   67.6578   10.6184 O   0  0  0  0  0  0
   10.7972   63.9373    5.1799 C   0  0  0  0  0  0
   13.0950   63.2294    3.3496 C   0  0  0  0  0  0
   19.8556   69.6077    1.8804 H   0  0  0  0  0  0
   17.6162   69.0515    0.9439 H   0  0  0  0  0  0
   20.2754   69.3080    4.3130 H   0  0  0  0  0  0
   17.7015   67.7482    9.3397 H   0  0  0  0  0  0
   15.2139   68.1421    8.6059 H   0  0  0  0  0  0
   13.0131   67.0852    8.3256 H   0  0  0  0  0  0
   16.6676   66.0403    5.1590 H   0  0  0  0  0  0
   15.3328   68.1246    1.3503 H   0  0  0  0  0  0
   15.1280   67.1742    2.8316 H   0  0  0  0  0  0
   14.6752   68.8568    2.8025 H   0  0  0  0  0  0
   19.9361   70.1710    9.3202 H   0  0  0  0  0  0
   21.1980   69.1828    8.6461 H   0  0  0  0  0  0
   18.5386   69.0684   10.9700 H   0  0  0  0  0  0
   21.1168   67.5346   13.1038 H   0  0  0  0  0  0
   20.5535   66.3300   15.1673 H   0  0  0  0  0  0
   18.1887   65.9030   15.7471 H   0  0  0  0  0  0
   16.3728   66.7485   14.2917 H   0  0  0  0  0  0
   16.9140   67.9555   12.2282 H   0  0  0  0  0  0
   10.3173   64.3365    4.2839 H   0  0  0  0  0  0
   10.8734   62.8571    5.0809 H   0  0  0  0  0  0
   10.1499   64.1333    6.0314 H   0  0  0  0  0  0
   13.0939   62.2116    3.7418 H   0  0  0  0  0  0
   12.1594   63.3828    2.8125 H   0  0  0  0  0  0
   13.9037   63.3175    2.6209 H   0  0  0  0  0  0
  1  6  1  0  0  0
  1  2  2  0  0  0
  1 35  1  0  0  0
  2  3  1  0  0  0
  2 36  1  0  0  0
  3  4  2  0  0  0
  3 22  1  0  0  0
  4  5  1  0  0  0
  5  7  1  0  0  0
  5  6  2  0  0  0
  6 37  1  0  0  0
  7 11  1  0  0  0
  7  8  2  0  0  0
  8  9  1  0  0  0
  9 10  1  0  0  0
  9 23  1  0  0  0
 10 11  2  0  0  0
 10 38  1  0  0  0
 11 12  1  0  0  0
 12 13  2  0  0  0
 12 15  1  0  0  0
 13 14  1  0  0  0
 13 39  1  0  0  0
 14 17  2  0  0  0
 14 40  1  0  0  0
 15 16  2  0  0  0
 15 41  1  0  0  0
 16 17  1  0  0  0
 16 21  1  0  0  0
 17 18  1  0  0  0
 18 19  2  0  0  0
 19 20  1  0  0  0
 19 33  1  0  0  0
 20 21  2  0  0  0
 20 34  1  0  0  0
 22 42  1  0  0  0
 22 43  1  0  0  0
 22 44  1  0  0  0
 23 24  1  0  0  0
 23 45  1  0  0  0
 23 46  1  0  0  0
 24 25  1  0  0  0
 24 32  2  0  0  0
 25 26  1  0  0  0
 25 47  1  0  0  0
 26 27  2  0  0  0
 26 31  1  0  0  0
 27 28  1  0  0  0
 27 48  1  0  0  0
 28 29  2  0  0  0
 28 49  1  0  0  0
 29 30  1  0  0  0
 29 50  1  0  0  0
 30 31  2  0  0  0
 30 51  1  0  0  0
 31 52  1  0  0  0
 33 53  1  0  0  0
 33 54  1  0  0  0
 33 55  1  0  0  0
 34 56  1  0  0  0
 34 57  1  0  0  0
 34 58  1  0  0  0
M  END
> <s_m_entry_id>
34383

> <s_m_entry_name>
dock_pv.126

> <s_m_Source_Path>
/home/csk/Desktop/cluster/DUD-E-result/tgfr1

> <s_m_Source_File>
dock_pv.maegz

> <i_m_Source_File_Index>
126

> <chembl_id>
CHEMBL1824227

> <chembl_pref_name>
None

> <i_lp_mmshare_version>
53161

> <r_lp_tautomer_probability>
1

> <s_lp_Force_Field>
OPLS_2005

> <r_lp_Energy>
35.937039

> <b_lp_Chiralities_Consistent>
1

> <s_lp_Variant>
CHEMBL4439_lig433-1

> <s_i_glide_gridfile>
glide-grid_3hmm

> <i_i_glide_lignum>
573

> <i_i_glide_rotatable_bonds>
6

> <r_i_docking_score>
-8.84707960104042

> <r_i_glide_ligand_efficiency>
-0.260208223560012

> <r_i_glide_ligand_efficiency_sa>
-0.84297363084359

> <r_i_glide_ligand_efficiency_ln>
-1.95456803604716

> <r_i_glide_gscore>
-8.84707960104042

> <r_i_glide_lipo>
-4.63666999435653

> <r_i_glide_hbond>
-0.172532933953118

> <r_i_glide_metal>
0

> <r_i_glide_rewards>
-1.01129566877561

> <r_i_glide_evdw>
-61.3184585571289

> <r_i_glide_ecoul>
-3.02212882041931

> <r_i_glide_erotb>
0.497924461464061

> <r_i_glide_esite>
-0.00526321449989088

> <r_i_glide_emodel>
-94.3643100308243

> <r_i_glide_energy>
-64.3405873775482

> <r_i_glide_einternal>
7.17749738693237

> <i_i_glide_confnum>
25

> <i_i_glide_posenum>
86

> <r_i_glide_eff_state_penalty>
0

> <s_user_duplicate_titles>
CHEMBL4439_lig433

> <i_f3d_flags>
0

> <s_m_subgroup_title>
dock_pv

> <s_m_subgroupid>
dock_pv

> <b_m_subgroup_collapsed>
1

$$$$
CHEMBL4439_lig529
                    3D
 Schrodinger Suite 2021-1.
 42 45  0  0  1  0            999 V2000
   20.3068   68.9389    5.4536 N   0  0  0  0  0  0
   19.0130   68.5696    5.3228 N   0  0  0  0  0  0
   18.5175   68.0584    6.5290 C   0  0  0  0  0  0
   19.5834   68.1511    7.4138 C   0  0  0  0  0  0
   20.6438   68.6851    6.6905 C   0  0  0  0  0  0
   18.3770   68.7564    4.0547 C   0  0  0  0  0  0
   17.0664   68.4124    3.9620 N   0  0  0  0  0  0
   16.4383   68.4575    2.7694 C   0  0  0  0  0  0
   17.0696   68.9228    1.6221 C   0  0  0  0  0  0
   18.4067   69.3082    1.7027 C   0  0  0  0  0  0
   19.0705   69.2383    2.9290 C   0  0  0  0  0  0
   14.9890   68.0142    2.7701 C   0  0  0  0  0  0
   17.1359   67.5687    6.8276 C   0  0  0  0  0  0
   16.4893   66.6079    6.0413 C   0  0  0  0  0  0
   15.1471   67.7308    8.1974 C   0  0  0  0  0  0
   16.4614   68.1045    7.9255 C   0  0  0  0  0  0
   14.4840   66.8261    7.3646 C   0  0  0  0  0  0
   15.1609   66.2660    6.2858 C   0  0  0  0  0  0
   14.4120   65.3437    5.3485 C   0  0  0  0  0  0
   13.0876   65.1754    5.6984 N   0  0  0  0  0  0
   12.5123   65.7198    6.8274 C   0  0  0  0  0  0
   13.1601   66.4613    7.6486 N   0  0  0  0  0  0
   14.9397   64.8264    4.3601 O   0  0  0  0  0  0
   12.2311   64.4397    4.7449 C   0  0  0  0  0  0
   12.4564   62.9181    4.7095 C   0  0  0  0  0  0
   19.5867   67.8649    8.4558 H   0  0  0  0  0  0
   21.6410   68.8899    7.0550 H   0  0  0  0  0  0
   16.5273   68.9817    0.6929 H   0  0  0  0  0  0
   18.9330   69.6572    0.8271 H   0  0  0  0  0  0
   20.1118   69.5208    2.9829 H   0  0  0  0  0  0
   14.4757   68.3414    1.8684 H   0  0  0  0  0  0
   14.9235   66.9295    2.8321 H   0  0  0  0  0  0
   14.4566   68.4205    3.6292 H   0  0  0  0  0  0
   16.9902   66.1994    5.1802 H   0  0  0  0  0  0
   14.6662   68.1885    9.0395 H   0  0  0  0  0  0
   16.9474   68.8337    8.5573 H   0  0  0  0  0  0
   11.4680   65.4845    7.0232 H   0  0  0  0  0  0
   12.3852   64.8424    3.7436 H   0  0  0  0  0  0
   11.1755   64.6244    4.9573 H   0  0  0  0  0  0
   11.7869   62.4579    3.9826 H   0  0  0  0  0  0
   12.2619   62.4631    5.6796 H   0  0  0  0  0  0
   13.4694   62.6613    4.4008 H   0  0  0  0  0  0
  1  5  2  0  0  0
  1  2  1  0  0  0
  2  6  1  0  0  0
  2  3  1  0  0  0
  3 13  1  0  0  0
  3  4  2  0  0  0
  4  5  1  0  0  0
  4 26  1  0  0  0
  5 27  1  0  0  0
  6  7  2  0  0  0
  6 11  1  0  0  0
  7  8  1  0  0  0
  8 12  1  0  0  0
  8  9  2  0  0  0
  9 10  1  0  0  0
  9 28  1  0  0  0
 10 11  2  0  0  0
 10 29  1  0  0  0
 11 30  1  0  0  0
 12 31  1  0  0  0
 12 32  1  0  0  0
 12 33  1  0  0  0
 13 14  2  0  0  0
 13 16  1  0  0  0
 14 18  1  0  0  0
 14 34  1  0  0  0
 15 17  1  0  0  0
 15 16  2  0  0  0
 15 35  1  0  0  0
 16 36  1  0  0  0
 17 18  2  0  0  0
 17 22  1  0  0  0
 18 19  1  0  0  0
 19 20  1  0  0  0
 19 23  2  0  0  0
 20 21  1  0  0  0
 20 24  1  0  0  0
 21 22  2  0  0  0
 21 37  1  0  0  0
 24 25  1  0  0  0
 24 38  1  0  0  0
 24 39  1  0  0  0
 25 40  1  0  0  0
 25 41  1  0  0  0
 25 42  1  0  0  0
M  END
> <s_m_entry_id>
34384

> <s_m_entry_name>
dock_pv.127

> <s_m_Source_Path>
/home/csk/Desktop/cluster/DUD-E-result/tgfr1

> <s_m_Source_File>
dock_pv.maegz

> <i_m_Source_File_Index>
127

> <chembl_id>
CHEMBL2024692

> <chembl_pref_name>
None

> <i_lp_mmshare_version>
53161

> <r_lp_tautomer_probability>
1

> <s_lp_Force_Field>
OPLS_2005

> <r_lp_Energy>
24.278097

> <b_lp_Chiralities_Consistent>
1

> <s_lp_Variant>
CHEMBL4439_lig529-1

> <s_i_glide_gridfile>
glide-grid_3hmm

> <i_i_glide_lignum>
707

> <i_i_glide_rotatable_bonds>
3

> <r_i_docking_score>
-8.83525596440312

> <r_i_glide_ligand_efficiency>
-0.353410238576125

> <r_i_glide_ligand_efficiency_sa>
-1.03337780535386

> <r_i_glide_ligand_efficiency_ln>
-2.09422043481906

> <r_i_glide_gscore>
-8.83525596440312

> <r_i_glide_lipo>
-3.92735523777191

> <r_i_glide_hbond>
-0.00302803417052953

> <r_i_glide_metal>
0

> <r_i_glide_rewards>
-2.58809962082777

> <r_i_glide_evdw>
-44.9160842895508

> <r_i_glide_ecoul>
-2.75840330123901

> <r_i_glide_erotb>
0.342791638030479

> <r_i_glide_esite>
0

> <r_i_glide_emodel>
-73.9908934684839

> <r_i_glide_energy>
-47.6744875907898

> <r_i_glide_einternal>
0.357361197471619

> <i_i_glide_confnum>
6

> <i_i_glide_posenum>
22

> <r_i_glide_eff_state_penalty>
0

> <s_user_duplicate_titles>
CHEMBL4439_lig529

> <i_f3d_flags>
0

> <s_m_subgroup_title>
dock_pv

> <s_m_subgroupid>
dock_pv

> <b_m_subgroup_collapsed>
1

$$$$
CHEMBL4439_lig271
                    3D
 Schrodinger Suite 2021-1.
 46 50  0  0  1  0            999 V2000
   16.2262   67.3315    6.0805 C   0  0  0  0  0  0
   15.3475   66.2643    6.4343 C   0  0  0  0  0  0
   15.3077   66.0669    7.7421 N   0  0  0  0  0  0
   14.5467   65.3674    5.5459 C   0  0  0  0  0  0
   15.0669   64.8522    4.3584 C   0  0  0  0  0  0
   14.2896   63.9663    3.6154 C   0  0  0  0  0  0
   13.0135   63.6219    4.0518 C   0  0  0  0  0  0
   12.5429   64.1999    5.2321 C   0  0  0  0  0  0
   13.2904   65.0593    5.9756 N   0  0  0  0  0  0
   16.6597   67.8283    4.7234 C   0  0  0  0  0  0
   17.3098   68.8999    2.1721 N   0  0  0  0  0  0
   16.0681   68.4567    2.4597 C   0  0  0  0  0  0
   15.7162   67.9109    3.6907 C   0  0  0  0  0  0
   16.5544   67.8833    7.3195 C   0  0  0  0  0  0
   16.0432   67.0454    8.2627 N   0  0  0  0  0  0
   16.3365   67.4279    9.6293 C   0  0  0  0  0  0
   17.4444   68.4668    9.4302 C   0  0  0  0  0  0
   17.2612   69.0250    8.0183 C   0  0  0  0  0  0
   18.2628   68.8010    3.1366 C   0  0  0  0  0  0
   17.9982   68.2551    4.4335 C   0  0  0  0  0  0
   19.0883   68.1520    5.3469 C   0  0  0  0  0  0
   20.3512   68.6296    5.0138 C   0  0  0  0  0  0
   20.5811   69.1999    3.7692 C   0  0  0  0  0  0
   19.5591   69.2607    2.8284 C   0  0  0  0  0  0
   11.1757   63.8413    5.7924 C   0  0  0  0  0  0
   10.0230   64.1473    4.8261 C   0  0  0  0  0  0
   16.0553   65.1254    4.0251 H   0  0  0  0  0  0
   14.6668   63.5476    2.6954 H   0  0  0  0  0  0
   12.4091   62.9305    3.4832 H   0  0  0  0  0  0
   15.3347   68.5426    1.6693 H   0  0  0  0  0  0
   14.6932   67.6037    3.8549 H   0  0  0  0  0  0
   16.6667   66.5759   10.2251 H   0  0  0  0  0  0
   15.4671   67.8806   10.0999 H   0  0  0  0  0  0
   18.4213   67.9860    9.5145 H   0  0  0  0  0  0
   17.4090   69.2563   10.1810 H   0  0  0  0  0  0
   18.2200   69.3121    7.5909 H   0  0  0  0  0  0
   16.6425   69.9220    8.0321 H   0  0  0  0  0  0
   18.9503   67.6757    6.3043 H   0  0  0  0  0  0
   21.1661   68.5428    5.7189 H   0  0  0  0  0  0
   21.5687   69.5613    3.5203 H   0  0  0  0  0  0
   19.7531   69.6814    1.8508 H   0  0  0  0  0  0
   11.0103   64.3572    6.7399 H   0  0  0  0  0  0
   11.1808   62.7797    6.0313 H   0  0  0  0  0  0
    9.0714   63.8160    5.2392 H   0  0  0  0  0  0
    9.9495   65.2173    4.6251 H   0  0  0  0  0  0
   10.1533   63.6376    3.8708 H   0  0  0  0  0  0
  1 10  1  0  0  0
  1 14  2  0  0  0
  1  2  1  0  0  0
  2  4  1  0  0  0
  2  3  2  0  0  0
  3 15  1  0  0  0
  4  9  1  0  0  0
  4  5  2  0  0  0
  5  6  1  0  0  0
  5 27  1  0  0  0
  6  7  2  0  0  0
  6 28  1  0  0  0
  7  8  1  0  0  0
  7 29  1  0  0  0
  8  9  2  0  0  0
  8 25  1  0  0  0
 10 13  1  0  0  0
 10 20  2  0  0  0
 11 12  1  0  0  0
 11 19  2  0  0  0
 12 13  2  0  0  0
 12 30  1  0  0  0
 13 31  1  0  0  0
 14 15  1  0  0  0
 14 18  1  0  0  0
 15 16  1  0  0  0
 16 17  1  0  0  0
 16 32  1  0  0  0
 16 33  1  0  0  0
 17 18  1  0  0  0
 17 34  1  0  0  0
 17 35  1  0  0  0
 18 36  1  0  0  0
 18 37  1  0  0  0
 19 20  1  0  0  0
 19 24  1  0  0  0
 20 21  1  0  0  0
 21 22  2  0  0  0
 21 38  1  0  0  0
 22 23  1  0  0  0
 22 39  1  0  0  0
 23 24  2  0  0  0
 23 40  1  0  0  0
 24 41  1  0  0  0
 25 26  1  0  0  0
 25 42  1  0  0  0
 25 43  1  0  0  0
 26 44  1  0  0  0
 26 45  1  0  0  0
 26 46  1  0  0  0
M  END
> <s_m_entry_id>
34385

> <s_m_entry_name>
dock_pv.128

> <s_m_Source_Path>
/home/csk/Desktop/cluster/DUD-E-result/tgfr1

> <s_m_Source_File>
dock_pv.maegz

> <i_m_Source_File_Index>
128

> <chembl_id>
CHEMBL122583

> <chembl_pref_name>
None

> <i_lp_mmshare_version>
53161

> <r_lp_tautomer_probability>
1

> <s_lp_Force_Field>
OPLS_2005

> <r_lp_Energy>
36.959843

> <b_lp_Chiralities_Consistent>
1

> <s_lp_Variant>
CHEMBL4439_lig271-1

> <s_i_glide_gridfile>
glide-grid_3hmm

> <i_i_glide_lignum>
384

> <i_i_glide_rotatable_bonds>
3

> <r_i_docking_score>
-8.81053977712317

> <r_i_glide_ligand_efficiency>
-0.338866914504737

> <r_i_glide_ligand_efficiency_sa>
-1.00389190084336

> <r_i_glide_ligand_efficiency_ln>
-2.06912635691838

> <r_i_glide_gscore>
-8.81053977712317

> <r_i_glide_lipo>
-4.8001102076585

> <r_i_glide_hbond>
-0.0483067566240145

> <r_i_glide_metal>
0

> <r_i_glide_rewards>
-1.64410815403416

> <r_i_glide_evdw>
-45.3865623474121

> <r_i_glide_ecoul>
-2.50339245796204

> <r_i_glide_erotb>
0.326822327258414

> <r_i_glide_esite>
0

> <r_i_glide_emodel>
-71.936799357258

> <r_i_glide_energy>
-47.8899548053741

> <r_i_glide_einternal>
3.47023558616638

> <i_i_glide_confnum>
5

> <i_i_glide_posenum>
228

> <r_i_glide_eff_state_penalty>
0

> <s_user_duplicate_titles>
CHEMBL4439_lig271,197279

> <i_f3d_flags>
0

> <s_m_subgroup_title>
dock_pv

> <s_m_subgroupid>
dock_pv

> <b_m_subgroup_collapsed>
1

$$$$
CHEMBL4439_lig282
                    3D
 Schrodinger Suite 2021-1.
 38 41  0  0  1  0            999 V2000
   16.0569   67.2742    6.5683 C   0  0  0  0  0  0
   14.9464   66.5006    7.0255 C   0  0  0  0  0  0
   14.8863   66.4568    8.3432 N   0  0  0  0  0  0
   13.9397   65.7113    6.2492 C   0  0  0  0  0  0
   12.5831   65.6567    6.5969 C   0  0  0  0  0  0
   11.7239   64.8586    5.8363 C   0  0  0  0  0  0
   12.2272   64.1484    4.7458 C   0  0  0  0  0  0
   13.5874   64.2644    4.4519 C   0  0  0  0  0  0
   14.4397   65.0108    5.1972 N   0  0  0  0  0  0
   16.4804   67.6543    5.1761 C   0  0  0  0  0  0
   17.2783   68.4619    2.5991 C   0  0  0  0  0  0
   18.1954   68.4651    3.6496 C   0  0  0  0  0  0
   17.7988   68.0576    4.9239 C   0  0  0  0  0  0
   15.9660   68.0570    2.8321 C   0  0  0  0  0  0
   15.5732   67.6570    4.1082 C   0  0  0  0  0  0
   16.7122   67.6087    7.7519 C   0  0  0  0  0  0
   15.9718   67.0893    8.7680 N   0  0  0  0  0  0
   16.5843   67.1970   10.0741 C   0  0  0  0  0  0
   17.5925   68.3185    9.8294 C   0  0  0  0  0  0
   17.9175   68.3076    8.3305 C   0  0  0  0  0  0
   14.1992   63.6007    3.2383 C   0  0  0  0  0  0
   19.4672   68.8748    3.4440 F   0  0  0  0  0  0
   17.6516   68.8574    1.3597 F   0  0  0  0  0  0
   12.1991   66.2103    7.4412 H   0  0  0  0  0  0
   10.6737   64.8005    6.0814 H   0  0  0  0  0  0
   11.5735   63.5494    4.1283 H   0  0  0  0  0  0
   18.5319   68.0697    5.7146 H   0  0  0  0  0  0
   15.2477   68.0654    2.0250 H   0  0  0  0  0  0
   14.5402   67.3902    4.2609 H   0  0  0  0  0  0
   17.0785   66.2613   10.3337 H   0  0  0  0  0  0
   15.8618   67.4478   10.8512 H   0  0  0  0  0  0
   18.4841   68.2316   10.4520 H   0  0  0  0  0  0
   17.1115   69.2575   10.0915 H   0  0  0  0  0  0
   18.8396   67.7625    8.1234 H   0  0  0  0  0  0
   18.0487   69.3219    7.9511 H   0  0  0  0  0  0
   13.6073   62.7515    2.8951 H   0  0  0  0  0  0
   14.2668   64.3263    2.4317 H   0  0  0  0  0  0
   15.2090   63.2570    3.4574 H   0  0  0  0  0  0
  1 10  1  0  0  0
  1 16  2  0  0  0
  1  2  1  0  0  0
  2  3  2  0  0  0
  2  4  1  0  0  0
  3 17  1  0  0  0
  4  5  2  0  0  0
  4  9  1  0  0  0
  5  6  1  0  0  0
  5 24  1  0  0  0
  6  7  2  0  0  0
  6 25  1  0  0  0
  7  8  1  0  0  0
  7 26  1  0  0  0
  8  9  2  0  0  0
  8 21  1  0  0  0
 10 13  1  0  0  0
 10 15  2  0  0  0
 11 14  2  0  0  0
 11 12  1  0  0  0
 11 23  1  0  0  0
 12 13  2  0  0  0
 12 22  1  0  0  0
 13 27  1  0  0  0
 14 15  1  0  0  0
 14 28  1  0  0  0
 15 29  1  0  0  0
 16 17  1  0  0  0
 16 20  1  0  0  0
 17 18  1  0  0  0
 18 19  1  0  0  0
 18 30  1  0  0  0
 18 31  1  0  0  0
 19 20  1  0  0  0
 19 32  1  0  0  0
 19 33  1  0  0  0
 20 34  1  0  0  0
 20 35  1  0  0  0
 21 36  1  0  0  0
 21 37  1  0  0  0
 21 38  1  0  0  0
M  END
> <s_m_entry_id>
34387

> <s_m_entry_name>
dock_pv.130

> <s_m_Source_Path>
/home/csk/Desktop/cluster/DUD-E-result/tgfr1

> <s_m_Source_File>
dock_pv.maegz

> <i_m_Source_File_Index>
130

> <chembl_id>
CHEMBL120718

> <chembl_pref_name>
None

> <i_lp_mmshare_version>
53161

> <r_lp_tautomer_probability>
1

> <s_lp_Force_Field>
OPLS_2005

> <r_lp_Energy>
36.850557

> <b_lp_Chiralities_Consistent>
1

> <s_lp_Variant>
CHEMBL4439_lig282-1

> <s_i_glide_gridfile>
glide-grid_3hmm

> <i_i_glide_lignum>
399

> <i_i_glide_rotatable_bonds>
2

> <r_i_docking_score>
-8.78145778969381

> <r_i_glide_ligand_efficiency>
-0.381802512595383

> <r_i_glide_ligand_efficiency_sa>
-1.08579555725954

> <r_i_glide_ligand_efficiency_ln>
-2.12343611940485

> <r_i_glide_gscore>
-8.78145778969381

> <r_i_glide_lipo>
-3.98597566555049

> <r_i_glide_hbond>
-0.136416765888955

> <r_i_glide_metal>
0

> <r_i_glide_rewards>
-2.66493197445863

> <r_i_glide_evdw>
-42.1739883422852

> <r_i_glide_ecoul>
-1.78714668750763

> <r_i_glide_erotb>
0.382638036444657

> <r_i_glide_esite>
0

> <r_i_glide_emodel>
-65.6479803660369

> <r_i_glide_energy>
-43.9611350297928

> <r_i_glide_einternal>
2.65896940231323

> <i_i_glide_confnum>
8

> <i_i_glide_posenum>
235

> <r_i_glide_eff_state_penalty>
0

> <s_user_duplicate_titles>
CHEMBL4439_lig282,197478

> <i_f3d_flags>
0

> <s_m_subgroup_title>
dock_pv

> <s_m_subgroupid>
dock_pv

> <b_m_subgroup_collapsed>
1

$$$$
CHEMBL4439_lig863
                    3D
 Schrodinger Suite 2021-1.
 45 48  0  0  1  0            999 V2000
   18.8756   67.2566   10.2632 C   0  0  0  0  0  0
   17.6256   67.4217    9.3763 C   0  0  0  0  0  0
   16.6676   68.4399   10.0319 C   0  0  0  0  0  0
   15.6983   67.8189    3.5556 C   0  0  0  0  0  0
   16.0544   68.4566    2.3686 C   0  0  0  0  0  0
   17.3131   68.8894    2.1073 N   0  0  0  0  0  0
   18.2539   68.6903    3.0642 C   0  0  0  0  0  0
   17.9745   68.0703    4.2839 C   0  0  0  0  0  0
   16.6693   67.6332    4.5449 C   0  0  0  0  0  0
   16.3123   66.9751    5.8373 C   0  0  0  0  0  0
   15.2754   65.6436    7.3369 N   0  0  0  0  0  0
   15.3194   65.9810    6.0689 C   0  0  0  0  0  0
   16.2659   66.2740    7.9259 N   0  0  0  0  0  0
   16.9132   67.1352    7.0973 C   0  0  0  0  0  0
   18.0247   67.7814    7.9080 C   0  0  1  0  0  0
   16.8567   66.1019    9.2326 C   0  0  0  0  0  0
   14.4072   65.2057    5.1466 C   0  0  0  0  0  0
   13.0367   65.0041    5.4181 C   0  0  0  0  0  0
   12.2888   64.0794    4.6819 C   0  0  0  0  0  0
   12.8835   63.3844    3.6327 C   0  0  0  0  0  0
   14.2040   63.6571    3.2902 C   0  0  0  0  0  0
   14.9620   64.5549    4.0393 C   0  0  0  0  0  0
   18.2667   69.2759    7.6330 C   0  0  0  0  0  0
   12.3706   65.7996    6.4326 C   0  0  0  0  0  0
   11.8671   66.4568    7.2321 N   0  0  0  0  0  0
   19.5747   66.5389    9.8333 H   0  0  0  0  0  0
   19.4124   68.1984   10.3840 H   0  0  0  0  0  0
   18.6160   66.8920   11.2582 H   0  0  0  0  0  0
   15.9210   68.8325    9.3396 H   0  0  0  0  0  0
   16.1346   68.0197   10.8858 H   0  0  0  0  0  0
   17.2421   69.2589   10.4313 H   0  0  0  0  0  0
   14.6765   67.5066    3.7080 H   0  0  0  0  0  0
   15.3147   68.6307    1.6010 H   0  0  0  0  0  0
   19.2518   69.0358    2.8358 H   0  0  0  0  0  0
   18.7645   67.9222    5.0043 H   0  0  0  0  0  0
   18.9512   67.2626    7.6537 H   0  0  0  0  0  0
   16.1013   65.9356   10.0021 H   0  0  0  0  0  0
   17.5186   65.2353    9.2320 H   0  0  0  0  0  0
   11.2423   63.9108    4.8977 H   0  0  0  0  0  0
   12.3071   62.6828    3.0476 H   0  0  0  0  0  0
   14.6417   63.1617    2.4412 H   0  0  0  0  0  0
   15.9921   64.7215    3.7676 H   0  0  0  0  0  0
   18.6263   69.4586    6.6222 H   0  0  0  0  0  0
   17.3604   69.8620    7.7735 H   0  0  0  0  0  0
   19.0155   69.6779    8.3161 H   0  0  0  0  0  0
  1  2  1  0  0  0
  1 26  1  0  0  0
  1 27  1  0  0  0
  1 28  1  0  0  0
  2  3  1  0  0  0
  2 15  1  0  0  0
  2 16  1  0  0  0
  3 29  1  0  0  0
  3 30  1  0  0  0
  3 31  1  0  0  0
  4  5  2  0  0  0
  4  9  1  0  0  0
  4 32  1  0  0  0
  5  6  1  0  0  0
  5 33  1  0  0  0
  6  7  2  0  0  0
  7  8  1  0  0  0
  7 34  1  0  0  0
  8  9  2  0  0  0
  8 35  1  0  0  0
  9 10  1  0  0  0
 10 14  2  0  0  0
 10 12  1  0  0  0
 11 13  1  0  0  0
 11 12  2  0  0  0
 12 17  1  0  0  0
 13 14  1  0  0  0
 13 16  1  0  0  0
 14 15  1  0  0  0
 15 23  1  0  0  0
 15 36  1  0  0  0
 16 37  1  0  0  0
 16 38  1  0  0  0
 17 18  2  0  0  0
 17 22  1  0  0  0
 18 19  1  0  0  0
 18 24  1  0  0  0
 19 20  2  0  0  0
 19 39  1  0  0  0
 20 21  1  0  0  0
 20 40  1  0  0  0
 21 22  2  0  0  0
 21 41  1  0  0  0
 22 42  1  0  0  0
 23 43  1  0  0  0
 23 44  1  0  0  0
 23 45  1  0  0  0
 24 25  3  0  0  0
M  END
> <s_m_entry_id>
34388

> <s_m_entry_name>
dock_pv.131

> <s_m_Source_Path>
/home/csk/Desktop/cluster/DUD-E-result/tgfr1

> <s_m_Source_File>
dock_pv.maegz

> <i_m_Source_File_Index>
131

> <chembl_id>
CHEMBL4287261

> <chembl_pref_name>
None

> <i_lp_mmshare_version>
53161

> <r_lp_tautomer_probability>
1

> <s_lp_Force_Field>
OPLS_2005

> <r_lp_Energy>
40.574379

> <b_lp_Chiralities_Consistent>
1

> <s_lp_Variant>
CHEMBL4439_lig863-1

> <s_i_glide_gridfile>
glide-grid_3hmm

> <i_i_glide_lignum>
1192

> <i_i_glide_rotatable_bonds>
2

> <r_i_docking_score>
-8.77545650782326

> <r_i_glide_ligand_efficiency>
-0.35101826031293

> <r_i_glide_ligand_efficiency_sa>
-1.02638361849036

> <r_i_glide_ligand_efficiency_ln>
-2.08004617156453

> <r_i_glide_gscore>
-8.77545650782326

> <r_i_glide_lipo>
-4.17960739506111

> <r_i_glide_hbond>
-0.284090931018142

> <r_i_glide_metal>
0

> <r_i_glide_rewards>
-2.15902426951704

> <r_i_glide_evdw>
-43.8010940551758

> <r_i_glide_ecoul>
-2.07301259040833

> <r_i_glide_erotb>
0.348272679093065

> <r_i_glide_esite>
0

> <r_i_glide_emodel>
-55.5715350161497

> <r_i_glide_energy>
-45.8741066455841

> <r_i_glide_einternal>
0.501037120819092

> <i_i_glide_confnum>
11

> <i_i_glide_posenum>
145

> <r_i_glide_eff_state_penalty>
0

> <s_user_duplicate_titles>
CHEMBL4439_lig863

> <i_f3d_flags>
0

> <s_m_subgroup_title>
dock_pv

> <s_m_subgroupid>
dock_pv

> <b_m_subgroup_collapsed>
1

$$$$
CHEMBL4439_lig856
                    3D
 Schrodinger Suite 2021-1.
 51 54  0  0  1  0            999 V2000
   18.7799   67.1956   10.4737 C   0  0  0  0  0  0
   17.4875   67.3856    9.6509 C   0  0  0  0  0  0
   16.5528   68.3658   10.3943 C   0  0  0  0  0  0
   17.8127   68.0570    4.6789 C   0  0  0  0  0  0
   18.2072   68.6234    3.4790 C   0  0  0  0  0  0
   17.2934   68.7329    2.4231 C   0  0  0  0  0  0
   15.9879   68.2832    2.5909 C   0  0  0  0  0  0
   15.6044   67.6750    3.7806 C   0  0  0  0  0  0
   16.5122   67.5783    4.8376 C   0  0  0  0  0  0
   16.1185   66.9553    6.1284 C   0  0  0  0  0  0
   15.0661   65.6570    7.6321 N   0  0  0  0  0  0
   15.1077   65.9858    6.3661 C   0  0  0  0  0  0
   16.0773   66.2707    8.2116 N   0  0  0  0  0  0
   16.7144   67.1334    7.3842 C   0  0  0  0  0  0
   17.8089   67.8215    8.1835 C   0  0  1  0  0  0
   16.7275   66.0608    9.4817 C   0  0  0  0  0  0
   14.2170   65.2194    5.4365 C   0  0  0  0  0  0
   12.9184   65.0835    5.8262 N   0  0  0  0  0  0
   12.1207   64.2365    5.1255 C   0  0  0  0  0  0
   12.5742   63.4986    4.0321 C   0  0  0  0  0  0
   13.8983   63.6611    3.6287 C   0  0  0  0  0  0
   14.7322   64.5390    4.3266 C   0  0  0  0  0  0
   10.6913   64.1302    5.6049 C   0  0  0  0  0  0
   17.9103   69.3439    7.9477 C   0  0  0  0  0  0
   17.6113   69.2567    1.1935 O   0  0  0  0  0  0
   18.9813   69.2579    0.8320 C   0  0  0  0  0  0
   19.4432   66.4585   10.0198 H   0  0  0  0  0  0
   19.3391   68.1289   10.5530 H   0  0  0  0  0  0
   18.5666   66.8576   11.4883 H   0  0  0  0  0  0
   15.6927   68.6593    9.7910 H   0  0  0  0  0  0
   16.1729   67.9427   11.3254 H   0  0  0  0  0  0
   17.0955   69.2604   10.6655 H   0  0  0  0  0  0
   18.5400   67.9587    5.4692 H   0  0  0  0  0  0
   19.2262   68.9653    3.3926 H   0  0  0  0  0  0
   15.2780   68.3772    1.7812 H   0  0  0  0  0  0
   14.5891   67.3263    3.8822 H   0  0  0  0  0  0
   18.7617   67.3826    7.8805 H   0  0  0  0  0  0
   16.0125   65.8523   10.2792 H   0  0  0  0  0  0
   17.4042   65.2081    9.4036 H   0  0  0  0  0  0
   11.9170   62.8333    3.4916 H   0  0  0  0  0  0
   14.2705   63.1127    2.7768 H   0  0  0  0  0  0
   15.7675   64.6487    4.0398 H   0  0  0  0  0  0
   10.1876   63.2570    5.1907 H   0  0  0  0  0  0
   10.6665   64.0511    6.6924 H   0  0  0  0  0  0
   10.1403   65.0180    5.2952 H   0  0  0  0  0  0
   18.2671   69.5844    6.9486 H   0  0  0  0  0  0
   16.9488   69.8412    8.0787 H   0  0  0  0  0  0
   18.6121   69.7963    8.6484 H   0  0  0  0  0  0
   19.0670   69.6570   -0.1751 H   0  0  0  0  0  0
   19.5894   69.8935    1.4773 H   0  0  0  0  0  0
   19.3795   68.2500    0.8312 H   0  0  0  0  0  0
  1  2  1  0  0  0
  1 27  1  0  0  0
  1 28  1  0  0  0
  1 29  1  0  0  0
  2  3  1  0  0  0
  2 15  1  0  0  0
  2 16  1  0  0  0
  3 30  1  0  0  0
  3 31  1  0  0  0
  3 32  1  0  0  0
  4  5  2  0  0  0
  4  9  1  0  0  0
  4 33  1  0  0  0
  5  6  1  0  0  0
  5 34  1  0  0  0
  6  7  2  0  0  0
  6 25  1  0  0  0
  7  8  1  0  0  0
  7 35  1  0  0  0
  8  9  2  0  0  0
  8 36  1  0  0  0
  9 10  1  0  0  0
 10 14  2  0  0  0
 10 12  1  0  0  0
 11 13  1  0  0  0
 11 12  2  0  0  0
 12 17  1  0  0  0
 13 14  1  0  0  0
 13 16  1  0  0  0
 14 15  1  0  0  0
 15 24  1  0  0  0
 15 37  1  0  0  0
 16 38  1  0  0  0
 16 39  1  0  0  0
 17 18  2  0  0  0
 17 22  1  0  0  0
 18 19  1  0  0  0
 19 20  2  0  0  0
 19 23  1  0  0  0
 20 21  1  0  0  0
 20 40  1  0  0  0
 21 22  2  0  0  0
 21 41  1  0  0  0
 22 42  1  0  0  0
 23 43  1  0  0  0
 23 44  1  0  0  0
 23 45  1  0  0  0
 24 46  1  0  0  0
 24 47  1  0  0  0
 24 48  1  0  0  0
 25 26  1  0  0  0
 26 49  1  0  0  0
 26 50  1  0  0  0
 26 51  1  0  0  0
M  END
> <s_m_entry_id>
34389

> <s_m_entry_name>
dock_pv.132

> <s_m_Source_Path>
/home/csk/Desktop/cluster/DUD-E-result/tgfr1

> <s_m_Source_File>
dock_pv.maegz

> <i_m_Source_File_Index>
132

> <chembl_id>
CHEMBL4292170

> <chembl_pref_name>
None

> <i_lp_mmshare_version>
53161

> <r_lp_tautomer_probability>
1

> <s_lp_Force_Field>
OPLS_2005

> <r_lp_Energy>
43.259679

> <b_lp_Chiralities_Consistent>
1

> <s_lp_Variant>
CHEMBL4439_lig856-1

> <s_i_glide_gridfile>
glide-grid_3hmm

> <i_i_glide_lignum>
1182

> <i_i_glide_rotatable_bonds>
3

> <r_i_docking_score>
-8.76842089989136

> <r_i_glide_ligand_efficiency>
-0.337246957688129

> <r_i_glide_ligand_efficiency_sa>
-0.999092785148383

> <r_i_glide_ligand_efficiency_ln>
-2.0592348768038

> <r_i_glide_gscore>
-8.76842089989136

> <r_i_glide_lipo>
-4.55039763020657

> <r_i_glide_hbond>
-0.478716329145327

> <r_i_glide_metal>
0

> <r_i_glide_rewards>
-1.40731764776701

> <r_i_glide_evdw>
-44.5963706970215

> <r_i_glide_ecoul>
-2.78230476379395

> <r_i_glide_erotb>
0.315174956647708

> <r_i_glide_esite>
0

> <r_i_glide_emodel>
-59.9015230536468

> <r_i_glide_energy>
-47.3786754608154

> <r_i_glide_einternal>
7.02360963821411

> <i_i_glide_confnum>
4

> <i_i_glide_posenum>
31

> <r_i_glide_eff_state_penalty>
0

> <s_user_duplicate_titles>
CHEMBL4439_lig856

> <i_f3d_flags>
0

> <s_m_subgroup_title>
dock_pv

> <s_m_subgroupid>
dock_pv

> <b_m_subgroup_collapsed>
1

$$$$
CHEMBL4439_lig260
                    3D
 Schrodinger Suite 2021-1.
 40 43  0  0  1  0            999 V2000
   15.4582   66.9330    7.2774 C   0  0  0  0  0  0
   15.0635   67.5357    8.4321 N   0  0  0  0  0  0
   15.8975   68.4101    9.0450 C   0  0  0  0  0  0
   17.1503   68.7355    8.5343 C   0  0  0  0  0  0
   17.5783   68.1181    7.3575 C   0  0  0  0  0  0
   16.7327   67.1850    6.7478 C   0  0  0  0  0  0
   18.9165   68.4638    6.7948 C   0  0  0  0  0  0
   19.3266   68.7418    5.4767 C   0  0  0  0  0  0
   20.6743   68.9817    5.6091 N   0  0  0  0  0  0
   21.1379   68.9125    6.8545 N   0  0  0  0  0  0
   20.0836   68.6091    7.5615 C   0  0  0  0  0  0
   18.6377   68.8207    4.1424 C   0  0  0  0  0  0
   17.3331   68.4447    4.1130 N   0  0  0  0  0  0
   16.6679   68.4564    2.9333 C   0  0  0  0  0  0
   17.2605   68.8647    1.7424 C   0  0  0  0  0  0
   18.5952   69.2659    1.7708 C   0  0  0  0  0  0
   19.2924   69.2570    2.9821 C   0  0  0  0  0  0
   14.4435   66.0645    6.5863 C   0  0  0  0  0  0
   14.7992   65.2523    5.5003 C   0  0  0  0  0  0
   13.8481   64.5021    4.8162 C   0  0  0  0  0  0
   12.5021   64.5449    5.2015 C   0  0  0  0  0  0
   12.1396   65.3191    6.3065 C   0  0  0  0  0  0
   13.0955   66.0674    6.9813 C   0  0  0  0  0  0
   11.4429   63.7724    4.4536 C   0  0  0  0  0  0
   11.8504   63.2570    3.2593 O   0  0  0  0  0  0
   10.2946   63.6569    4.8780 O   0  0  0  0  0  0
   15.5396   68.8577    9.9597 H   0  0  0  0  0  0
   17.7728   69.4550    9.0456 H   0  0  0  0  0  0
   17.0666   66.6860    5.8551 H   0  0  0  0  0  0
   21.2942   69.1848    4.8393 H   0  0  0  0  0  0
   20.1539   68.4859    8.6322 H   0  0  0  0  0  0
   15.6338   68.1389    2.9572 H   0  0  0  0  0  0
   16.6893   68.8717    0.8300 H   0  0  0  0  0  0
   19.0847   69.5985    0.8656 H   0  0  0  0  0  0
   20.3251   69.5727    3.0015 H   0  0  0  0  0  0
   15.8169   65.1900    5.1518 H   0  0  0  0  0  0
   14.1826   63.8991    3.9827 H   0  0  0  0  0  0
   11.1101   65.3656    6.6393 H   0  0  0  0  0  0
   12.7613   66.6739    7.8089 H   0  0  0  0  0  0
   12.5807   63.7704    2.9029 H   0  0  0  0  0  0
  1  2  2  0  0  0
  1 18  1  0  0  0
  1  6  1  0  0  0
  2  3  1  0  0  0
  3  4  2  0  0  0
  3 27  1  0  0  0
  4  5  1  0  0  0
  4 28  1  0  0  0
  5  6  2  0  0  0
  5  7  1  0  0  0
  6 29  1  0  0  0
  7  8  2  0  0  0
  7 11  1  0  0  0
  8  9  1  0  0  0
  8 12  1  0  0  0
  9 10  1  0  0  0
  9 30  1  0  0  0
 10 11  2  0  0  0
 11 31  1  0  0  0
 12 13  2  0  0  0
 12 17  1  0  0  0
 13 14  1  0  0  0
 14 15  2  0  0  0
 14 32  1  0  0  0
 15 16  1  0  0  0
 15 33  1  0  0  0
 16 17  2  0  0  0
 16 34  1  0  0  0
 17 35  1  0  0  0
 18 19  2  0  0  0
 18 23  1  0  0  0
 19 20  1  0  0  0
 19 36  1  0  0  0
 20 21  2  0  0  0
 20 37  1  0  0  0
 21 22  1  0  0  0
 21 24  1  0  0  0
 22 23  2  0  0  0
 22 38  1  0  0  0
 23 39  1  0  0  0
 24 25  1  0  0  0
 24 26  2  0  0  0
 25 40  1  0  0  0
M  END
> <s_m_entry_id>
34390

> <s_m_entry_name>
dock_pv.133

> <s_m_Source_Path>
/home/csk/Desktop/cluster/DUD-E-result/tgfr1

> <s_m_Source_File>
dock_pv.maegz

> <i_m_Source_File_Index>
133

> <chembl_id>
CHEMBL568357

> <chembl_pref_name>
None

> <i_lp_mmshare_version>
53161

> <r_lp_tautomer_probability>
0.5

> <s_lp_Force_Field>
OPLS_2005

> <r_lp_Energy>
19.648444

> <b_lp_Chiralities_Consistent>
1

> <s_lp_Variant>
CHEMBL4439_lig260-2

> <s_i_glide_gridfile>
glide-grid_3hmm

> <i_i_glide_lignum>
369

> <i_i_glide_rotatable_bonds>
5

> <r_i_docking_score>
-8.76732154620658

> <r_i_glide_ligand_efficiency>
-0.337204674854099

> <r_i_glide_ligand_efficiency_sa>
-0.998967522418944

> <r_i_glide_ligand_efficiency_ln>
-2.05897669719821

> <r_i_glide_gscore>
-8.76732154620658

> <r_i_glide_lipo>
-4.16785670847684

> <r_i_glide_hbond>
0

> <r_i_glide_metal>
0

> <r_i_glide_rewards>
-1.82488118181818

> <r_i_glide_evdw>
-53.0334358215332

> <r_i_glide_ecoul>
-5.13357734680176

> <r_i_glide_erotb>
0.647124737185365

> <r_i_glide_esite>
0

> <r_i_glide_emodel>
-87.5478339005977

> <r_i_glide_energy>
-58.167013168335

> <r_i_glide_einternal>
3.90547823905945

> <i_i_glide_confnum>
24

> <i_i_glide_posenum>
308

> <r_i_glide_eff_state_penalty>
0

> <s_user_duplicate_titles>
CHEMBL4439_lig260,CHEMBL4439_lig260,582039

> <i_f3d_flags>
0

> <s_m_subgroup_title>
dock_pv

> <s_m_subgroupid>
dock_pv

> <b_m_subgroup_collapsed>
1

$$$$
CHEMBL4439_lig749
                    3D
 Schrodinger Suite 2021-1.
 49 51  0  0  1  0            999 V2000
   19.4885   69.1151    4.7510 C   0  0  0  0  0  0
   16.9694   67.7066    5.2026 C   0  0  0  0  0  0
   17.9119   67.9488    6.1388 C   0  0  0  0  0  0
   19.0961   68.6259    5.9791 N   0  0  0  0  0  0
   20.5791   69.6575    4.5512 O   0  0  0  0  0  0
   20.0202   68.7985    7.1093 C   0  0  0  0  0  0
   15.7508   66.9186    5.5117 C   0  0  0  0  0  0
   14.9324   67.2296    6.6083 C   0  0  0  0  0  0
   13.7890   66.4487    6.8576 C   0  0  0  0  0  0
   13.4811   65.3521    6.0401 C   0  0  0  0  0  0
   14.3131   65.0255    4.9660 C   0  0  0  0  0  0
   15.4328   65.8217    4.7050 C   0  0  0  0  0  0
   13.9748   63.8972    4.2465 O   0  0  0  0  0  0
   14.5524   63.6691    2.9819 C   0  0  0  0  0  0
   15.2942   68.3278    7.3651 O   0  0  0  0  0  0
   14.9049   68.3945    8.7239 C   0  0  0  0  0  0
   12.2665   64.4601    6.3204 C   0  0  0  0  0  0
   11.0175   64.7674    5.6323 N   0  0  0  0  0  0
   11.1419   64.9412    4.2055 C   0  0  0  0  0  0
   10.0949   63.6571    5.8553 C   0  0  0  0  0  0
   18.4447   68.9555    3.6500 C   0  0  0  0  0  0
   17.2229   68.2914    3.8714 C   0  0  0  0  0  0
   16.2749   68.2615    2.8427 C   0  0  0  0  0  0
   16.5904   68.8571    1.6297 C   0  0  0  0  0  0
   17.7860   69.4388    1.3732 N   0  0  0  0  0  0
   18.6926   69.4879    2.3791 C   0  0  0  0  0  0
   17.8220   67.5574    7.1437 H   0  0  0  0  0  0
   19.4968   69.2562    7.9501 H   0  0  0  0  0  0
   20.3928   67.8286    7.4353 H   0  0  0  0  0  0
   20.8855   69.4263    6.8908 H   0  0  0  0  0  0
   13.1312   66.6930    7.6779 H   0  0  0  0  0  0
   16.0919   65.5828    3.8851 H   0  0  0  0  0  0
   14.1554   62.7397    2.5801 H   0  0  0  0  0  0
   14.2671   64.4586    2.2921 H   0  0  0  0  0  0
   15.6383   63.6030    3.0333 H   0  0  0  0  0  0
   15.5054   69.1501    9.2295 H   0  0  0  0  0  0
   13.8621   68.6853    8.8299 H   0  0  0  0  0  0
   15.0688   67.4435    9.2315 H   0  0  0  0  0  0
   12.0869   64.4573    7.3900 H   0  0  0  0  0  0
   12.5479   63.4463    6.0318 H   0  0  0  0  0  0
   11.9299   65.6569    4.0318 H   0  0  0  0  0  0
   10.2105   65.3550    3.8168 H   0  0  0  0  0  0
   11.3937   64.0192    3.6784 H   0  0  0  0  0  0
    9.8441   63.5850    6.9102 H   0  0  0  0  0  0
    9.1766   63.7719    5.2723 H   0  0  0  0  0  0
   10.5467   62.7077    5.5795 H   0  0  0  0  0  0
   15.3014   67.8141    2.9775 H   0  0  0  0  0  0
   15.8680   68.8632    0.8294 H   0  0  0  0  0  0
   19.6212   69.9907    2.1434 H   0  0  0  0  0  0
  1 21  1  0  0  0
  1  4  1  0  0  0
  1  5  2  0  0  0
  2 22  1  0  0  0
  2  3  2  0  0  0
  2  7  1  0  0  0
  3  4  1  0  0  0
  3 27  1  0  0  0
  4  6  1  0  0  0
  6 28  1  0  0  0
  6 29  1  0  0  0
  6 30  1  0  0  0
  7  8  1  0  0  0
  7 12  2  0  0  0
  8  9  2  0  0  0
  8 15  1  0  0  0
  9 10  1  0  0  0
  9 31  1  0  0  0
 10 11  2  0  0  0
 10 17  1  0  0  0
 11 12  1  0  0  0
 11 13  1  0  0  0
 12 32  1  0  0  0
 13 14  1  0  0  0
 14 33  1  0  0  0
 14 34  1  0  0  0
 14 35  1  0  0  0
 15 16  1  0  0  0
 16 36  1  0  0  0
 16 37  1  0  0  0
 16 38  1  0  0  0
 17 18  1  0  0  0
 17 39  1  0  0  0
 17 40  1  0  0  0
 18 19  1  0  0  0
 18 20  1  0  0  0
 19 41  1  0  0  0
 19 42  1  0  0  0
 19 43  1  0  0  0
 20 44  1  0  0  0
 20 45  1  0  0  0
 20 46  1  0  0  0
 21 22  2  0  0  0
 21 26  1  0  0  0
 22 23  1  0  0  0
 23 24  2  0  0  0
 23 47  1  0  0  0
 24 25  1  0  0  0
 24 48  1  0  0  0
 25 26  2  0  0  0
 26 49  1  0  0  0
M  END
> <s_m_entry_id>
34391

> <s_m_entry_name>
dock_pv.134

> <s_m_Source_Path>
/home/csk/Desktop/cluster/DUD-E-result/tgfr1

> <s_m_Source_File>
dock_pv.maegz

> <i_m_Source_File_Index>
134

> <chembl_id>
CHEMBL3823101

> <chembl_pref_name>
None

> <i_lp_mmshare_version>
53161

> <r_lp_tautomer_probability>
1

> <s_lp_Force_Field>
OPLS_2005

> <r_lp_Energy>
33.636836

> <b_lp_Chiralities_Consistent>
1

> <s_lp_Variant>
CHEMBL4439_lig749-1

> <s_i_glide_gridfile>
glide-grid_3hmm

> <i_i_glide_lignum>
1063

> <i_i_glide_rotatable_bonds>
5

> <r_i_docking_score>
-8.76153744148787

> <r_i_glide_ligand_efficiency>
-0.336982209287995

> <r_i_glide_ligand_efficiency_sa>
-0.998308469054719

> <r_i_glide_ligand_efficiency_ln>
-2.05761831918421

> <r_i_glide_gscore>
-8.76153744148787

> <r_i_glide_lipo>
-4.58163528080376

> <r_i_glide_hbond>
-0.239226368699449

> <r_i_glide_metal>
0

> <r_i_glide_rewards>
-2.14975297899103

> <r_i_glide_evdw>
-40.2728614807129

> <r_i_glide_ecoul>
-0.55376124382019

> <r_i_glide_erotb>
0.305784447615044

> <r_i_glide_esite>
0

> <r_i_glide_emodel>
-53.8850681471865

> <r_i_glide_energy>
-40.8266227245331

> <r_i_glide_einternal>
5.10428619384766

> <i_i_glide_confnum>
2

> <i_i_glide_posenum>
3

> <r_i_glide_eff_state_penalty>
0

> <s_user_duplicate_titles>
CHEMBL4439_lig749

> <i_f3d_flags>
0

> <s_m_subgroup_title>
dock_pv

> <s_m_subgroupid>
dock_pv

> <b_m_subgroup_collapsed>
1

$$$$
CHEMBL4439_lig772
                    3D
 Schrodinger Suite 2021-1.
 42 45  0  0  1  0            999 V2000
   20.3980   69.6570    1.8409 C   0  0  0  0  0  0
   21.4670   69.6570    2.7254 C   0  0  0  0  0  0
   21.2777   69.3040    4.0526 C   0  0  0  0  0  0
   20.0198   68.9252    4.5445 C   0  0  0  0  0  0
   19.1099   69.2570    2.2690 C   0  0  0  0  0  0
   18.9053   68.8623    3.6320 C   0  0  0  0  0  0
   17.5810   68.4307    3.9896 C   0  0  0  0  0  0
   16.5811   68.4570    3.0134 C   0  0  0  0  0  0
   16.8818   68.8698    1.7251 C   0  0  0  0  0  0
   18.1150   69.2570    1.3404 N   0  0  0  0  0  0
   19.8124   68.6172    5.8807 O   0  0  0  0  0  0
   20.8701   68.7594    6.8241 C   0  0  0  0  0  0
   17.2798   68.0570    5.3091 N   0  0  0  0  0  0
   16.2017   67.4090    5.9189 C   0  0  0  0  0  0
   15.9677   67.6703    7.2682 C   0  0  0  0  0  0
   14.8850   67.0555    7.8893 C   0  0  0  0  0  0
   14.0585   66.1967    7.2438 N   0  0  0  0  0  0
   14.3113   65.9046    5.9380 C   0  0  0  0  0  0
   15.3776   66.4992    5.2499 C   0  0  0  0  0  0
   13.3760   64.9514    5.2723 C   0  0  0  0  0  0
   12.0195   64.9000    5.6320 C   0  0  0  0  0  0
   11.1369   64.0604    4.9614 C   0  0  0  0  0  0
   11.6112   63.2570    3.9311 C   0  0  0  0  0  0
   12.9588   63.2570    3.5892 C   0  0  0  0  0  0
   13.8361   64.1043    4.2543 C   0  0  0  0  0  0
   20.5518   69.9546    0.8138 H   0  0  0  0  0  0
   22.4493   69.9516    2.3844 H   0  0  0  0  0  0
   22.1426   69.3343    4.6984 H   0  0  0  0  0  0
   15.5595   68.2008    3.2444 H   0  0  0  0  0  0
   16.1077   68.9040    0.9704 H   0  0  0  0  0  0
   20.4897   68.5455    7.8227 H   0  0  0  0  0  0
   21.2692   69.7750    6.8362 H   0  0  0  0  0  0
   21.6785   68.0570    6.6269 H   0  0  0  0  0  0
   18.0311   68.3100    5.9423 H   0  0  0  0  0  0
   16.5947   68.3564    7.8192 H   0  0  0  0  0  0
   14.6670   67.2569    8.9253 H   0  0  0  0  0  0
   15.5636   66.2522    4.2169 H   0  0  0  0  0  0
   11.6325   65.5377    6.4144 H   0  0  0  0  0  0
   10.0900   64.0475    5.2278 H   0  0  0  0  0  0
   10.9288   62.6256    3.3821 H   0  0  0  0  0  0
   13.3158   62.6236    2.7897 H   0  0  0  0  0  0
   14.8756   64.1026    3.9614 H   0  0  0  0  0  0
  1  2  2  0  0  0
  1  5  1  0  0  0
  1 26  1  0  0  0
  2  3  1  0  0  0
  2 27  1  0  0  0
  3  4  2  0  0  0
  3 28  1  0  0  0
  4  6  1  0  0  0
  4 11  1  0  0  0
  5  6  1  0  0  0
  5 10  2  0  0  0
  6  7  2  0  0  0
  7  8  1  0  0  0
  7 13  1  0  0  0
  8  9  2  0  0  0
  8 29  1  0  0  0
  9 10  1  0  0  0
  9 30  1  0  0  0
 11 12  1  0  0  0
 12 31  1  0  0  0
 12 32  1  0  0  0
 12 33  1  0  0  0
 13 14  1  0  0  0
 13 34  1  0  0  0
 14 15  2  0  0  0
 14 19  1  0  0  0
 15 16  1  0  0  0
 15 35  1  0  0  0
 16 17  2  0  0  0
 16 36  1  0  0  0
 17 18  1  0  0  0
 18 19  2  0  0  0
 18 20  1  0  0  0
 19 37  1  0  0  0
 20 21  2  0  0  0
 20 25  1  0  0  0
 21 22  1  0  0  0
 21 38  1  0  0  0
 22 23  2  0  0  0
 22 39  1  0  0  0
 23 24  1  0  0  0
 23 40  1  0  0  0
 24 25  2  0  0  0
 24 41  1  0  0  0
 25 42  1  0  0  0
M  END
> <s_m_entry_id>
34392

> <s_m_entry_name>
dock_pv.135

> <s_m_Source_Path>
/home/csk/Desktop/cluster/DUD-E-result/tgfr1

> <s_m_Source_File>
dock_pv.maegz

> <i_m_Source_File_Index>
135

> <chembl_id>
CHEMBL4086498

> <chembl_pref_name>
None

> <i_lp_mmshare_version>
53161

> <r_lp_tautomer_probability>
0.999999106000799

> <s_lp_Force_Field>
OPLS_2005

> <r_lp_Energy>
33.036936

> <b_lp_Chiralities_Consistent>
1

> <s_lp_Variant>
CHEMBL4439_lig772-1

> <s_i_glide_gridfile>
glide-grid_3hmm

> <i_i_glide_lignum>
1086

> <i_i_glide_rotatable_bonds>
4

> <r_i_docking_score>
-8.75289926567421

> <r_i_glide_ligand_efficiency>
-0.350115970626968

> <r_i_glide_ligand_efficiency_sa>
-1.02374530744643

> <r_i_glide_ligand_efficiency_ln>
-2.07469942918921

> <r_i_glide_gscore>
-8.75289926567421

> <r_i_glide_lipo>
-4.30721482108267

> <r_i_glide_hbond>
-0.168598581846666

> <r_i_glide_metal>
0

> <r_i_glide_rewards>
-2.05775664390914

> <r_i_glide_evdw>
-46.709545135498

> <r_i_glide_ecoul>
-2.7278048992157

> <r_i_glide_erotb>
0.525318772821524

> <r_i_glide_esite>
0

> <r_i_glide_emodel>
-73.9439929338608

> <r_i_glide_energy>
-49.4373500347137

> <r_i_glide_einternal>
2.24956941604614

> <i_i_glide_confnum>
12

> <i_i_glide_posenum>
163

> <r_i_glide_eff_state_penalty>
0

> <s_user_duplicate_titles>
CHEMBL4439_lig772

> <i_f3d_flags>
0

> <s_m_subgroup_title>
dock_pv

> <s_m_subgroupid>
dock_pv

> <b_m_subgroup_collapsed>
1

$$$$
CHEMBL4439_lig102
                    3D
 Schrodinger Suite 2021-1.
 45 49  0  0  1  0            999 V2000
   18.0352   68.1332    7.5014 N   0  0  0  0  0  0
   16.1246   66.9303    7.2383 C   0  0  0  0  0  0
   17.1622   67.6885    6.6118 C   0  0  0  0  0  0
   17.3623   68.0572    5.1642 C   0  0  0  0  0  0
   18.5973   68.5017    4.6604 C   0  0  0  0  0  0
   18.6918   68.8623    3.3142 C   0  0  0  0  0  0
   17.5638   68.7770    2.4988 C   0  0  0  0  0  0
   16.3702   68.3269    3.0673 C   0  0  0  0  0  0
   16.2672   67.9635    4.3687 N   0  0  0  0  0  0
   16.4853   66.9232    8.5788 C   0  0  0  0  0  0
   17.6052   67.6893    8.6801 N   0  0  0  0  0  0
   18.1455   67.7892   10.0200 C   0  0  0  0  0  0
   16.9424   67.3241   10.8491 C   0  0  0  0  0  0
   16.1272   66.3939    9.9437 C   0  0  0  0  0  0
   14.9268   66.2469    6.6616 C   0  0  0  0  0  0
   11.7823   64.0982    5.0142 N   0  0  0  0  0  0
   12.4445   63.3961    4.0327 C   0  0  0  0  0  0
   13.7783   63.7425    4.0296 C   0  0  0  0  0  0
   13.9634   64.6969    5.0756 C   0  0  0  0  0  0
   15.0777   65.3842    5.5758 C   0  0  0  0  0  0
   13.6676   66.4485    7.2299 C   0  0  0  0  0  0
   12.5260   65.7944    6.7574 C   0  0  0  0  0  0
   12.6888   64.9110    5.6814 C   0  0  0  0  0  0
   10.3618   63.9826    5.3014 C   0  0  0  0  0  0
   15.0878   68.2663    2.2709 C   0  0  0  0  0  0
   19.4677   68.5761    5.2965 H   0  0  0  0  0  0
   19.6284   69.2197    2.9097 H   0  0  0  0  0  0
   17.6162   69.0685    1.4622 H   0  0  0  0  0  0
   18.4481   68.8106   10.2538 H   0  0  0  0  0  0
   19.0004   67.1217   10.1321 H   0  0  0  0  0  0
   16.3300   68.1873   11.1172 H   0  0  0  0  0  0
   17.2378   66.8572   11.7894 H   0  0  0  0  0  0
   15.0677   66.4573   10.1794 H   0  0  0  0  0  0
   16.4257   65.3494   10.0511 H   0  0  0  0  0  0
   11.8990   62.7143    3.3938 H   0  0  0  0  0  0
   14.5206   63.3489    3.3498 H   0  0  0  0  0  0
   16.0486   65.2503    5.1301 H   0  0  0  0  0  0
   13.5684   67.1284    8.0643 H   0  0  0  0  0  0
   11.5597   65.9533    7.2155 H   0  0  0  0  0  0
    9.8929   64.9562    5.1635 H   0  0  0  0  0  0
    9.8876   63.2642    4.6317 H   0  0  0  0  0  0
   10.2330   63.6566    6.3347 H   0  0  0  0  0  0
   15.2612   68.5896    1.2402 H   0  0  0  0  0  0
   14.6812   67.2567    2.2690 H   0  0  0  0  0  0
   14.3179   68.9030    2.7057 H   0  0  0  0  0  0
  1  3  2  0  0  0
  1 11  1  0  0  0
  2 10  2  0  0  0
  2  3  1  0  0  0
  2 15  1  0  0  0
  3  4  1  0  0  0
  4  9  1  0  0  0
  4  5  2  0  0  0
  5  6  1  0  0  0
  5 26  1  0  0  0
  6  7  2  0  0  0
  6 27  1  0  0  0
  7  8  1  0  0  0
  7 28  1  0  0  0
  8  9  2  0  0  0
  8 25  1  0  0  0
 10 14  1  0  0  0
 10 11  1  0  0  0
 11 12  1  0  0  0
 12 13  1  0  0  0
 12 29  1  0  0  0
 12 30  1  0  0  0
 13 14  1  0  0  0
 13 31  1  0  0  0
 13 32  1  0  0  0
 14 33  1  0  0  0
 14 34  1  0  0  0
 15 20  2  0  0  0
 15 21  1  0  0  0
 16 17  1  0  0  0
 16 23  1  0  0  0
 16 24  1  0  0  0
 17 18  2  0  0  0
 17 35  1  0  0  0
 18 19  1  0  0  0
 18 36  1  0  0  0
 19 23  2  0  0  0
 19 20  1  0  0  0
 20 37  1  0  0  0
 21 22  2  0  0  0
 21 38  1  0  0  0
 22 23  1  0  0  0
 22 39  1  0  0  0
 24 40  1  0  0  0
 24 41  1  0  0  0
 24 42  1  0  0  0
 25 43  1  0  0  0
 25 44  1  0  0  0
 25 45  1  0  0  0
M  END
> <s_m_entry_id>
34393

> <s_m_entry_name>
dock_pv.136

> <s_m_Source_Path>
/home/csk/Desktop/cluster/DUD-E-result/tgfr1

> <s_m_Source_File>
dock_pv.maegz

> <i_m_Source_File_Index>
136

> <chembl_id>
CHEMBL377717

> <chembl_pref_name>
None

> <i_lp_mmshare_version>
53161

> <r_lp_tautomer_probability>
1

> <s_lp_Force_Field>
OPLS_2005

> <r_lp_Energy>
37.655934

> <b_lp_Chiralities_Consistent>
1

> <s_lp_Variant>
CHEMBL4439_lig102-1

> <s_i_glide_gridfile>
glide-grid_3hmm

> <i_i_glide_lignum>
141

> <i_i_glide_rotatable_bonds>
2

> <r_i_docking_score>
-8.75119386016873

> <r_i_glide_ligand_efficiency>
-0.350047754406749

> <r_i_glide_ligand_efficiency_sa>
-1.02354584200869

> <r_i_glide_ligand_efficiency_ln>
-2.07429519697753

> <r_i_glide_gscore>
-8.75119386016873

> <r_i_glide_lipo>
-4.60718954802265

> <r_i_glide_hbond>
0

> <r_i_glide_metal>
0

> <r_i_glide_rewards>
-2.02415228717621

> <r_i_glide_evdw>
-48.1965370178223

> <r_i_glide_ecoul>
-0.388652354478836

> <r_i_glide_erotb>
0.348272679093065

> <r_i_glide_esite>
0

> <r_i_glide_emodel>
-71.6600279747975

> <r_i_glide_energy>
-48.5851893723011

> <r_i_glide_einternal>
2.29634499549866

> <i_i_glide_confnum>
3

> <i_i_glide_posenum>
170

> <r_i_glide_eff_state_penalty>
0

> <s_user_duplicate_titles>
CHEMBL4439_lig102

> <i_f3d_flags>
0

> <s_m_subgroup_title>
dock_pv

> <s_m_subgroupid>
dock_pv

> <b_m_subgroup_collapsed>
1

$$$$
CHEMBL4439_lig256
                    3D
 Schrodinger Suite 2021-1.
 40 44  0  0  1  0            999 V2000
   16.1689   67.1965    5.9944 C   0  0  0  0  0  0
   15.1855   66.2138    6.3279 C   0  0  0  0  0  0
   15.0693   66.0528    7.6323 N   0  0  0  0  0  0
   16.5980   67.6398    7.2548 C   0  0  0  0  0  0
   15.9245   66.8992    8.1765 N   0  0  0  0  0  0
   16.3201   67.1208    9.5485 C   0  0  0  0  0  0
   16.9437   68.5092    9.4340 C   0  0  0  0  0  0
   17.4827   68.6175    8.0038 C   0  0  0  0  0  0
   14.3291   65.3541    5.4503 C   0  0  0  0  0  0
   14.8368   64.6766    4.3357 C   0  0  0  0  0  0
   13.9931   63.8116    3.6326 C   0  0  0  0  0  0
   12.6680   63.6603    4.0418 C   0  0  0  0  0  0
   12.2242   64.3826    5.1478 C   0  0  0  0  0  0
   13.0315   65.2158    5.8504 N   0  0  0  0  0  0
   16.5905   67.7151    4.6368 C   0  0  0  0  0  0
   17.1220   68.9601    2.1312 N   0  0  0  0  0  0
   15.9070   68.4559    2.4324 C   0  0  0  0  0  0
   15.6145   67.8226    3.6368 C   0  0  0  0  0  0
   18.1117   68.8339    3.0545 C   0  0  0  0  0  0
   17.9088   68.1927    4.3201 C   0  0  0  0  0  0
   19.0339   68.0580    5.1791 C   0  0  0  0  0  0
   20.2722   68.5894    4.8363 C   0  0  0  0  0  0
   20.4396   69.2567    3.6318 C   0  0  0  0  0  0
   19.3807   69.3659    2.7341 C   0  0  0  0  0  0
   11.8214   62.8570    3.3649 F   0  0  0  0  0  0
   17.0499   66.3701    9.8551 H   0  0  0  0  0  0
   15.4681   67.0925   10.2282 H   0  0  0  0  0  0
   17.7147   68.6892   10.1858 H   0  0  0  0  0  0
   16.1661   69.2569    9.5947 H   0  0  0  0  0  0
   18.5370   68.3475    7.9865 H   0  0  0  0  0  0
   17.4095   69.6391    7.6344 H   0  0  0  0  0  0
   15.8658   64.7996    4.0323 H   0  0  0  0  0  0
   14.3538   63.2714    2.7707 H   0  0  0  0  0  0
   11.2007   64.3024    5.4833 H   0  0  0  0  0  0
   15.1446   68.5673    1.6733 H   0  0  0  0  0  0
   14.6053   67.4841    3.8120 H   0  0  0  0  0  0
   18.9463   67.4980    6.0927 H   0  0  0  0  0  0
   21.1156   68.4700    5.5026 H   0  0  0  0  0  0
   21.4080   69.6622    3.3757 H   0  0  0  0  0  0
   19.5255   69.8634    1.7842 H   0  0  0  0  0  0
  1 15  1  0  0  0
  1  4  2  0  0  0
  1  2  1  0  0  0
  2  3  2  0  0  0
  2  9  1  0  0  0
  3  5  1  0  0  0
  4  8  1  0  0  0
  4  5  1  0  0  0
  5  6  1  0  0  0
  6  7  1  0  0  0
  6 26  1  0  0  0
  6 27  1  0  0  0
  7  8  1  0  0  0
  7 28  1  0  0  0
  7 29  1  0  0  0
  8 30  1  0  0  0
  8 31  1  0  0  0
  9 14  1  0  0  0
  9 10  2  0  0  0
 10 11  1  0  0  0
 10 32  1  0  0  0
 11 12  2  0  0  0
 11 33  1  0  0  0
 12 13  1  0  0  0
 12 25  1  0  0  0
 13 14  2  0  0  0
 13 34  1  0  0  0
 15 20  2  0  0  0
 15 18  1  0  0  0
 16 19  2  0  0  0
 16 17  1  0  0  0
 17 18  2  0  0  0
 17 35  1  0  0  0
 18 36  1  0  0  0
 19 20  1  0  0  0
 19 24  1  0  0  0
 20 21  1  0  0  0
 21 22  2  0  0  0
 21 37  1  0  0  0
 22 23  1  0  0  0
 22 38  1  0  0  0
 23 24  2  0  0  0
 23 39  1  0  0  0
 24 40  1  0  0  0
M  END
> <s_m_entry_id>
34394

> <s_m_entry_name>
dock_pv.137

> <s_m_Source_Path>
/home/csk/Desktop/cluster/DUD-E-result/tgfr1

> <s_m_Source_File>
dock_pv.maegz

> <i_m_Source_File_Index>
137

> <chembl_id>
CHEMBL325405

> <chembl_pref_name>
None

> <i_lp_mmshare_version>
53161

> <r_lp_tautomer_probability>
1

> <s_lp_Force_Field>
OPLS_2005

> <r_lp_Energy>
42.094487

> <b_lp_Chiralities_Consistent>
1

> <s_lp_Variant>
CHEMBL4439_lig256-1

> <s_i_glide_gridfile>
glide-grid_3hmm

> <i_i_glide_lignum>
362

> <i_i_glide_rotatable_bonds>
2

> <r_i_docking_score>
-8.74700195261427

> <r_i_glide_ligand_efficiency>
-0.349880078104571

> <r_i_glide_ligand_efficiency_sa>
-1.02305555352737

> <r_i_glide_ligand_efficiency_ln>
-2.07330158926579

> <r_i_glide_gscore>
-8.74700195261427

> <r_i_glide_lipo>
-4.27534943114783

> <r_i_glide_hbond>
-0.0727333028009577

> <r_i_glide_metal>
0

> <r_i_glide_rewards>
-2.16519142019574

> <r_i_glide_evdw>
-44.6506423950195

> <r_i_glide_ecoul>
-2.30565047264099

> <r_i_glide_erotb>
0.344651892177381

> <r_i_glide_esite>
0

> <r_i_glide_emodel>
-69.1835116086369

> <r_i_glide_energy>
-46.9562928676605

> <r_i_glide_einternal>
4.14494562149048

> <i_i_glide_confnum>
11

> <i_i_glide_posenum>
72

> <r_i_glide_eff_state_penalty>
0

> <s_user_duplicate_titles>
CHEMBL4439_lig256,197247

> <i_f3d_flags>
0

> <s_m_subgroup_title>
dock_pv

> <s_m_subgroupid>
dock_pv

> <b_m_subgroup_collapsed>
1

$$$$
CHEMBL4439_lig91
                    3D
 Schrodinger Suite 2021-1.
 55 59  0  0  1  0            999 V2000
   14.3775   66.4570    8.2823 N   0  0  0  0  0  0
   15.7519   67.2041    6.6300 C   0  0  0  0  0  0
   14.5862   66.4568    6.9789 C   0  0  0  0  0  0
   13.6527   65.6553    6.1274 C   0  0  0  0  0  0
   12.2670   65.6378    6.3364 C   0  0  0  0  0  0
   11.4766   64.8051    5.5397 C   0  0  0  0  0  0
   12.0802   63.9981    4.5749 C   0  0  0  0  0  0
   13.4665   64.0590    4.4320 C   0  0  0  0  0  0
   14.2506   64.8667    5.1920 N   0  0  0  0  0  0
   16.3468   67.4194    7.8774 C   0  0  0  0  0  0
   15.4746   66.9737    8.8165 N   0  0  0  0  0  0
   15.9018   67.1892   10.1863 C   0  0  0  0  0  0
   17.4047   67.3745    9.9936 C   0  0  0  0  0  0
   17.5644   67.9538    8.5876 C   0  0  0  0  0  0
   16.2862   67.6439    5.2887 C   0  0  0  0  0  0
   19.1800   69.3798    3.6562 N   0  0  0  0  0  0
   19.0586   69.5886    2.2962 C   0  0  0  0  0  0
   17.9458   69.1400    1.7733 N   0  0  0  0  0  0
   17.2721   68.6092    2.8397 C   0  0  0  0  0  0
   15.9883   68.0560    2.8887 C   0  0  0  0  0  0
   15.5189   67.5792    4.1158 C   0  0  0  0  0  0
   17.5645   68.2163    5.2488 C   0  0  0  0  0  0
   18.0341   68.7030    4.0283 C   0  0  0  0  0  0
   20.2357   69.8990    4.5334 C   0  0  0  0  0  0
   20.9571   68.7964    5.3317 C   0  0  0  0  0  0
   21.9922   69.3098    6.3711 C   0  0  0  0  0  0
   21.4682   70.2133    7.4078 N   0  0  0  0  0  0
   20.2951   69.6840    8.0916 C   0  0  0  0  0  0
   22.4944   70.4562    8.4270 C   0  0  0  0  0  0
   11.8072   66.2513    7.0975 H   0  0  0  0  0  0
   10.4050   64.7819    5.6684 H   0  0  0  0  0  0
   11.4880   63.3510    3.9445 H   0  0  0  0  0  0
   13.9705   63.4586    3.6887 H   0  0  0  0  0  0
   15.6537   66.3468   10.8332 H   0  0  0  0  0  0
   15.4680   68.1023   10.5917 H   0  0  0  0  0  0
   17.9079   66.4069   10.0490 H   0  0  0  0  0  0
   17.8505   68.0112   10.7596 H   0  0  0  0  0  0
   18.4948   67.5906    8.1537 H   0  0  0  0  0  0
   17.5816   69.0444    8.5971 H   0  0  0  0  0  0
   19.8340   70.1159    1.7567 H   0  0  0  0  0  0
   15.3680   68.0179    2.0056 H   0  0  0  0  0  0
   14.5148   67.1894    4.1472 H   0  0  0  0  0  0
   18.1557   68.3272    6.1347 H   0  0  0  0  0  0
   19.7704   70.6185    5.2085 H   0  0  0  0  0  0
   20.9669   70.4561    3.9466 H   0  0  0  0  0  0
   21.4665   68.1583    4.6106 H   0  0  0  0  0  0
   20.2745   68.1096    5.8244 H   0  0  0  0  0  0
   22.7866   69.8385    5.8405 H   0  0  0  0  0  0
   22.4638   68.4543    6.8499 H   0  0  0  0  0  0
   19.9809   70.3382    8.9065 H   0  0  0  0  0  0
   19.4574   69.6266    7.4003 H   0  0  0  0  0  0
   20.4856   68.6929    8.5062 H   0  0  0  0  0  0
   22.1377   71.1686    9.1720 H   0  0  0  0  0  0
   22.7593   69.5362    8.9516 H   0  0  0  0  0  0
   23.4175   70.8671    8.0228 H   0  0  0  0  0  0
  1  3  2  0  0  0
  1 11  1  0  0  0
  2  3  1  0  0  0
  2 15  1  0  0  0
  2 10  2  0  0  0
  3  4  1  0  0  0
  4  9  1  0  0  0
  4  5  2  0  0  0
  5  6  1  0  0  0
  5 30  1  0  0  0
  6  7  2  0  0  0
  6 31  1  0  0  0
  7  8  1  0  0  0
  7 32  1  0  0  0
  8  9  2  0  0  0
  8 33  1  0  0  0
 10 11  1  0  0  0
 10 14  1  0  0  0
 11 12  1  0  0  0
 12 13  1  0  0  0
 12 34  1  0  0  0
 12 35  1  0  0  0
 13 14  1  0  0  0
 13 36  1  0  0  0
 13 37  1  0  0  0
 14 38  1  0  0  0
 14 39  1  0  0  0
 15 21  1  0  0  0
 15 22  2  0  0  0
 16 17  1  0  0  0
 16 23  1  0  0  0
 16 24  1  0  0  0
 17 18  2  0  0  0
 17 40  1  0  0  0
 18 19  1  0  0  0
 19 23  2  0  0  0
 19 20  1  0  0  0
 20 21  2  0  0  0
 20 41  1  0  0  0
 21 42  1  0  0  0
 22 23  1  0  0  0
 22 43  1  0  0  0
 24 25  1  0  0  0
 24 44  1  0  0  0
 24 45  1  0  0  0
 25 26  1  0  0  0
 25 46  1  0  0  0
 25 47  1  0  0  0
 26 27  1  0  0  0
 26 48  1  0  0  0
 26 49  1  0  0  0
 27 28  1  0  0  0
 27 29  1  0  0  0
 28 50  1  0  0  0
 28 51  1  0  0  0
 28 52  1  0  0  0
 29 53  1  0  0  0
 29 54  1  0  0  0
 29 55  1  0  0  0
M  END
> <s_m_entry_id>
34395

> <s_m_entry_name>
dock_pv.138

> <s_m_Source_Path>
/home/csk/Desktop/cluster/DUD-E-result/tgfr1

> <s_m_Source_File>
dock_pv.maegz

> <i_m_Source_File_Index>
138

> <chembl_id>
CHEMBL202730

> <chembl_pref_name>
None

> <i_lp_mmshare_version>
53161

> <r_lp_tautomer_probability>
1

> <s_lp_Force_Field>
OPLS_2005

> <r_lp_Energy>
44.06115

> <b_lp_Chiralities_Consistent>
1

> <s_lp_Variant>
CHEMBL4439_lig91-1

> <s_i_glide_gridfile>
glide-grid_3hmm

> <i_i_glide_lignum>
130

> <i_i_glide_rotatable_bonds>
6

> <r_i_docking_score>
-8.74019997202682

> <r_i_glide_ligand_efficiency>
-0.301386205931959

> <r_i_glide_ligand_efficiency_sa>
-0.925953910475058

> <r_i_glide_ligand_efficiency_ln>
-2.00128416124581

> <r_i_glide_gscore>
-8.74019997202682

> <r_i_glide_lipo>
-4.28922973336563

> <r_i_glide_hbond>
-0.16

> <r_i_glide_metal>
0

> <r_i_glide_rewards>
-1.74084642828278

> <r_i_glide_evdw>
-49.0225143432617

> <r_i_glide_ecoul>
-5.00336027145386

> <r_i_glide_erotb>
0.651505947502759

> <r_i_glide_esite>
0

> <r_i_glide_emodel>
-75.7685629895918

> <r_i_glide_energy>
-54.0258746147156

> <r_i_glide_einternal>
6.33705186843872

> <i_i_glide_confnum>
187

> <i_i_glide_posenum>
101

> <r_i_glide_eff_state_penalty>
0

> <s_user_duplicate_titles>
CHEMBL4439_lig91,341546

> <i_f3d_flags>
0

> <s_m_subgroup_title>
dock_pv

> <s_m_subgroupid>
dock_pv

> <b_m_subgroup_collapsed>
1

$$$$
CHEMBL4439_lig45
                    3D
 Schrodinger Suite 2021-1.
 37 40  0  0  1  0            999 V2000
   15.9005   67.7118    6.4088 C   0  0  0  0  0  0
   14.8637   66.7511    6.6143 C   0  0  0  0  0  0
   14.3471   66.8563    7.8264 N   0  0  0  0  0  0
   14.3301   65.6933    5.6865 C   0  0  0  0  0  0
   15.1836   65.0588    4.7815 C   0  0  0  0  0  0
   14.7162   64.0600    3.9272 C   0  0  0  0  0  0
   13.3797   63.6820    3.9624 C   0  0  0  0  0  0
   12.4923   64.3215    4.8360 C   0  0  0  0  0  0
   12.9801   65.3104    5.7026 C   0  0  0  0  0  0
   16.7567   68.0190    5.2067 C   0  0  0  0  0  0
   18.1608   68.7802    2.8588 N   0  0  0  0  0  0
   16.8686   68.3894    2.8231 C   0  0  0  0  0  0
   16.1504   68.0065    3.9474 C   0  0  0  0  0  0
   15.9337   68.4192    7.6050 C   0  0  0  0  0  0
   15.0064   67.8468    8.4192 N   0  0  0  0  0  0
   18.7979   68.7854    4.0627 C   0  0  0  0  0  0
   18.1453   68.3990    5.2774 C   0  0  0  0  0  0
   18.9139   68.4020    6.4778 C   0  0  0  0  0  0
   20.2477   68.8015    6.4663 C   0  0  0  0  0  0
   20.8612   69.1983    5.2857 C   0  0  0  0  0  0
   20.1553   69.1882    4.0876 C   0  0  0  0  0  0
   11.0058   63.9758    4.8321 C   0  0  0  0  0  0
   10.2676   65.0851    4.8285 F   0  0  0  0  0  0
   10.7181   63.2672    5.9246 F   0  0  0  0  0  0
   10.6628   63.2572    3.7620 F   0  0  0  0  0  0
   16.2214   65.3452    4.7352 H   0  0  0  0  0  0
   15.3944   63.5923    3.2316 H   0  0  0  0  0  0
   13.0324   62.9176    3.2796 H   0  0  0  0  0  0
   12.2956   65.7978    6.3818 H   0  0  0  0  0  0
   16.3918   68.4090    1.8535 H   0  0  0  0  0  0
   15.1085   67.7415    3.8410 H   0  0  0  0  0  0
   16.5250   69.2592    7.9421 H   0  0  0  0  0  0
   14.7972   68.1462    9.3614 H   0  0  0  0  0  0
   18.4742   68.0768    7.4068 H   0  0  0  0  0  0
   20.8192   68.7950    7.3835 H   0  0  0  0  0  0
   21.9017   69.4894    5.2953 H   0  0  0  0  0  0
   20.6461   69.4737    3.1667 H   0  0  0  0  0  0
  1 10  1  0  0  0
  1 14  2  0  0  0
  1  2  1  0  0  0
  2  3  2  0  0  0
  2  4  1  0  0  0
  3 15  1  0  0  0
  4  9  1  0  0  0
  4  5  2  0  0  0
  5  6  1  0  0  0
  5 26  1  0  0  0
  6  7  2  0  0  0
  6 27  1  0  0  0
  7  8  1  0  0  0
  7 28  1  0  0  0
  8  9  2  0  0  0
  8 22  1  0  0  0
  9 29  1  0  0  0
 10 13  1  0  0  0
 10 17  2  0  0  0
 11 12  1  0  0  0
 11 16  2  0  0  0
 12 13  2  0  0  0
 12 30  1  0  0  0
 13 31  1  0  0  0
 14 15  1  0  0  0
 14 32  1  0  0  0
 15 33  1  0  0  0
 16 17  1  0  0  0
 16 21  1  0  0  0
 17 18  1  0  0  0
 18 19  2  0  0  0
 18 34  1  0  0  0
 19 20  1  0  0  0
 19 35  1  0  0  0
 20 21  2  0  0  0
 20 36  1  0  0  0
 21 37  1  0  0  0
 22 23  1  0  0  0
 22 24  1  0  0  0
 22 25  1  0  0  0
M  END
> <s_m_entry_id>
34396

> <s_m_entry_name>
dock_pv.139

> <s_m_Source_Path>
/home/csk/Desktop/cluster/DUD-E-result/tgfr1

> <s_m_Source_File>
dock_pv.maegz

> <i_m_Source_File_Index>
139

> <chembl_id>
CHEMBL129678

> <chembl_pref_name>
None

> <i_lp_mmshare_version>
53161

> <r_lp_tautomer_probability>
0.5

> <s_lp_Force_Field>
OPLS_2005

> <r_lp_Energy>
22.790602

> <b_lp_Chiralities_Consistent>
1

> <s_lp_Variant>
CHEMBL4439_lig45-1

> <s_i_glide_gridfile>
glide-grid_3hmm

> <i_i_glide_lignum>
62

> <i_i_glide_rotatable_bonds>
3

> <r_i_docking_score>
-8.7401826642478

> <r_i_glide_ligand_efficiency>
-0.349607306569912

> <r_i_glide_ligand_efficiency_sa>
-1.02225796472241

> <r_i_glide_ligand_efficiency_ln>
-2.07168521356536

> <r_i_glide_gscore>
-8.7401826642478

> <r_i_glide_lipo>
-4.36654519751502

> <r_i_glide_hbond>
0

> <r_i_glide_metal>
0

> <r_i_glide_rewards>
-2.36541869510544

> <r_i_glide_evdw>
-45.1436653137207

> <r_i_glide_ecoul>
-0.531669974327087

> <r_i_glide_erotb>
0.328714990207754

> <r_i_glide_esite>
0

> <r_i_glide_emodel>
-68.7308988943528

> <r_i_glide_energy>
-45.6753352880478

> <r_i_glide_einternal>
0.971648395061493

> <i_i_glide_confnum>
15

> <i_i_glide_posenum>
62

> <r_i_glide_eff_state_penalty>
0

> <s_user_duplicate_titles>
CHEMBL4439_lig45,CHEMBL4439_lig45,212038

> <i_f3d_flags>
0

> <s_m_subgroup_title>
dock_pv

> <s_m_subgroupid>
dock_pv

> <b_m_subgroup_collapsed>
1

$$$$
CHEMBL4439_lig587
                    3D
 Schrodinger Suite 2021-1.
 44 48  0  0  1  0            999 V2000
   18.3365   69.2530    0.8323 O   0  0  0  0  0  0
   18.7411   69.1496    3.1197 N   0  0  0  0  0  0
   20.5481   69.7209    1.8238 C   0  0  0  0  0  0
   19.8110   69.4360    4.0762 C   0  0  0  0  0  0
   21.0606   69.4454    3.2246 C   0  0  0  0  0  0
   19.0672   69.3230    1.8222 C   0  0  0  0  0  0
   14.4792   65.9703    5.9188 C   0  0  0  0  0  0
   17.5899   67.3078   10.2976 C   0  0  0  0  0  0
   14.2156   64.9329    5.0218 C   0  0  0  0  0  0
   10.6708   63.6363    4.6018 C   0  0  0  0  0  0
   15.7262   65.6078   10.9412 C   0  0  0  0  0  0
   10.6681   64.4334    5.6239 N   0  0  0  0  0  0
   12.2339   65.8707    6.8319 C   0  0  0  0  0  0
   12.9142   64.4381    4.9770 C   0  0  0  0  0  0
   16.5316   66.4586    9.9978 C   0  0  0  0  0  0
   16.1915   66.3978    8.7249 N   0  0  0  0  0  0
   16.7154   67.3092    6.5212 C   0  0  0  0  0  0
   11.9102   64.9246    5.8518 C   0  0  0  0  0  0
   16.9196   67.1798    7.9674 C   0  0  0  0  0  0
   17.5219   68.0716    5.7925 N   0  0  0  0  0  0
   12.2180   63.2570    3.8928 S   0  0  0  0  0  0
   15.7066   66.7594    5.7158 C   0  0  0  0  0  0
   13.5247   66.3971    6.8437 C   0  0  0  0  0  0
   17.0174   68.0931    4.5852 C   0  0  0  0  0  0
   15.9594   67.2556    4.4706 N   0  0  0  0  0  0
   18.1482   68.0591    8.8391 S   0  0  0  0  0  0
   17.3369   69.0739    3.4903 C   0  0  0  0  0  0
   21.1332   69.2486    1.0388 H   0  0  0  0  0  0
   20.6101   70.7900    1.6318 H   0  0  0  0  0  0
   19.6407   70.4034    4.5510 H   0  0  0  0  0  0
   19.8747   68.6780    4.8576 H   0  0  0  0  0  0
   21.5202   68.4590    3.2662 H   0  0  0  0  0  0
   21.8050   70.1658    3.5694 H   0  0  0  0  0  0
   18.0466   67.5213   11.2526 H   0  0  0  0  0  0
   14.9554   64.6030    4.3058 H   0  0  0  0  0  0
    9.7760   63.1558    4.2392 H   0  0  0  0  0  0
   15.9684   65.7982   11.9872 H   0  0  0  0  0  0
   14.6658   65.8017   10.8319 H   0  0  0  0  0  0
   15.8664   64.5457   10.7513 H   0  0  0  0  0  0
   11.4742   66.2246    7.5121 H   0  0  0  0  0  0
   13.7587   67.2073    7.5208 H   0  0  0  0  0  0
   15.3761   67.1360    3.6548 H   0  0  0  0  0  0
   17.0674   70.0568    3.8564 H   0  0  0  0  0  0
   16.6984   68.9131    2.6185 H   0  0  0  0  0  0
  1  6  2  0  0  0
  2  6  1  0  0  0
  2  4  1  0  0  0
  2 27  1  0  0  0
  3  5  1  0  0  0
  3  6  1  0  0  0
  3 28  1  0  0  0
  3 29  1  0  0  0
  4  5  1  0  0  0
  4 30  1  0  0  0
  4 31  1  0  0  0
  5 32  1  0  0  0
  5 33  1  0  0  0
  7 23  2  0  0  0
  7 22  1  0  0  0
  7  9  1  0  0  0
  8 26  1  0  0  0
  8 15  2  0  0  0
  8 34  1  0  0  0
  9 14  2  0  0  0
  9 35  1  0  0  0
 10 12  2  0  0  0
 10 21  1  0  0  0
 10 36  1  0  0  0
 11 15  1  0  0  0
 11 37  1  0  0  0
 11 38  1  0  0  0
 11 39  1  0  0  0
 12 18  1  0  0  0
 13 23  1  0  0  0
 13 18  2  0  0  0
 13 40  1  0  0  0
 14 18  1  0  0  0
 14 21  1  0  0  0
 15 16  1  0  0  0
 16 19  2  0  0  0
 17 20  1  0  0  0
 17 22  2  0  0  0
 17 19  1  0  0  0
 19 26  1  0  0  0
 20 24  2  0  0  0
 22 25  1  0  0  0
 23 41  1  0  0  0
 24 25  1  0  0  0
 24 27  1  0  0  0
 25 42  1  0  0  0
 27 43  1  0  0  0
 27 44  1  0  0  0
M  END
> <s_m_entry_id>
34397

> <s_m_entry_name>
dock_pv.140

> <s_m_Source_Path>
/home/csk/Desktop/cluster/DUD-E-result/tgfr1

> <s_m_Source_File>
dock_pv.maegz

> <i_m_Source_File_Index>
140

> <chembl_id>
CHEMBL2208003

> <chembl_pref_name>
None

> <i_lp_mmshare_version>
53161

> <r_lp_tautomer_probability>
0.499999999999999

> <s_lp_Force_Field>
OPLS_2005

> <r_lp_Energy>
18.30519

> <b_lp_Chiralities_Consistent>
1

> <s_lp_Variant>
CHEMBL4439_lig587-1

> <s_i_glide_gridfile>
glide-grid_3hmm

> <i_i_glide_lignum>
787

> <i_i_glide_rotatable_bonds>
4

> <r_i_docking_score>
-8.73891235842897

> <r_i_glide_ligand_efficiency>
-0.323663420682554

> <r_i_glide_ligand_efficiency_sa>
-0.970990260980921

> <r_i_glide_ligand_efficiency_ln>
-2.03427472481218

> <r_i_glide_gscore>
-8.73891235842897

> <r_i_glide_lipo>
-3.52650375285455

> <r_i_glide_hbond>
-0.32

> <r_i_glide_metal>
0

> <r_i_glide_rewards>
-2.59370674483435

> <r_i_glide_evdw>
-49.5244827270508

> <r_i_glide_ecoul>
-2.15030932426453

> <r_i_glide_erotb>
0.500068674252152

> <r_i_glide_esite>
0

> <r_i_glide_emodel>
-77.4040693246499

> <r_i_glide_energy>
-51.6747920513153

> <r_i_glide_einternal>
4.0856409072876

> <i_i_glide_confnum>
5

> <i_i_glide_posenum>
79

> <r_i_glide_eff_state_penalty>
0

> <s_user_duplicate_titles>
CHEMBL4439_lig587,CHEMBL4439_lig587

> <i_f3d_flags>
0

> <s_m_subgroup_title>
dock_pv

> <s_m_subgroupid>
dock_pv

> <b_m_subgroup_collapsed>
1

$$$$
CHEMBL4439_lig783
                    3D
 Schrodinger Suite 2021-1.
 38 41  0  0  1  0            999 V2000
   18.3728   69.2560    1.4363 N   0  0  0  0  0  0
   18.1779   68.6519    4.2403 C   0  0  0  0  0  0
   17.0667   68.6354    3.3832 C   0  0  0  0  0  0
   17.2005   68.9243    2.0276 C   0  0  0  0  0  0
   19.3755   69.0526    3.6321 C   0  0  0  0  0  0
   19.4343   69.3365    2.2431 C   0  0  0  0  0  0
   20.7968   69.6670    1.9870 C   0  0  0  0  0  0
   21.4969   69.6569    3.0916 N   0  0  0  0  0  0
   20.6697   69.2574    4.0808 N   0  0  0  0  0  0
   18.0967   68.3521    5.6117 N   0  0  0  0  0  0
   17.1193   67.6977    6.3805 C   0  0  0  0  0  0
   17.1420   67.8639    7.7671 C   0  0  0  0  0  0
   16.1592   67.2396    8.5353 C   0  0  0  0  0  0
   15.1728   66.4816    7.9950 N   0  0  0  0  0  0
   15.1472   66.3163    6.6414 C   0  0  0  0  0  0
   16.1295   66.8804    5.8221 C   0  0  0  0  0  0
   14.0053   65.5472    6.0598 C   0  0  0  0  0  0
   12.7016   65.6570    6.5764 C   0  0  0  0  0  0
   11.6531   64.9356    6.0163 C   0  0  0  0  0  0
   11.8662   64.1096    4.9211 C   0  0  0  0  0  0
   13.1433   64.0004    4.3772 C   0  0  0  0  0  0
   14.2031   64.7138    4.9464 C   0  0  0  0  0  0
   12.4296   66.4575    7.6308 F   0  0  0  0  0  0
   13.3707   63.1020    3.1784 C   0  0  0  0  0  0
   16.0743   68.4470    3.7525 H   0  0  0  0  0  0
   16.3333   68.9079    1.3810 H   0  0  0  0  0  0
   21.2431   69.9517    1.0455 H   0  0  0  0  0  0
   21.0289   69.1385    5.0173 H   0  0  0  0  0  0
   18.8774   68.6958    6.1482 H   0  0  0  0  0  0
   17.8965   68.4751    8.2407 H   0  0  0  0  0  0
   16.1435   67.3569    9.6103 H   0  0  0  0  0  0
   16.1074   66.6711    4.7661 H   0  0  0  0  0  0
   10.6672   65.0289    6.4314 H   0  0  0  0  0  0
   11.0354   63.5667    4.4940 H   0  0  0  0  0  0
   15.1882   64.6031    4.5170 H   0  0  0  0  0  0
   12.5239   62.4365    3.0399 H   0  0  0  0  0  0
   14.2667   62.4994    3.3150 H   0  0  0  0  0  0
   13.4865   63.6579    2.2554 H   0  0  0  0  0  0
  1  6  2  0  0  0
  1  4  1  0  0  0
  2  5  2  0  0  0
  2  3  1  0  0  0
  2 10  1  0  0  0
  3  4  2  0  0  0
  3 25  1  0  0  0
  4 26  1  0  0  0
  5  6  1  0  0  0
  5  9  1  0  0  0
  6  7  1  0  0  0
  7  8  2  0  0  0
  7 27  1  0  0  0
  8  9  1  0  0  0
  9 28  1  0  0  0
 10 11  1  0  0  0
 10 29  1  0  0  0
 11 12  2  0  0  0
 11 16  1  0  0  0
 12 13  1  0  0  0
 12 30  1  0  0  0
 13 14  2  0  0  0
 13 31  1  0  0  0
 14 15  1  0  0  0
 15 16  2  0  0  0
 15 17  1  0  0  0
 16 32  1  0  0  0
 17 18  2  0  0  0
 17 22  1  0  0  0
 18 19  1  0  0  0
 18 23  1  0  0  0
 19 20  2  0  0  0
 19 33  1  0  0  0
 20 21  1  0  0  0
 20 34  1  0  0  0
 21 22  2  0  0  0
 21 24  1  0  0  0
 22 35  1  0  0  0
 24 36  1  0  0  0
 24 37  1  0  0  0
 24 38  1  0  0  0
M  END
> <s_m_entry_id>
34398

> <s_m_entry_name>
dock_pv.141

> <s_m_Source_Path>
/home/csk/Desktop/cluster/DUD-E-result/tgfr1

> <s_m_Source_File>
dock_pv.maegz

> <i_m_Source_File_Index>
141

> <chembl_id>
CHEMBL4092523

> <chembl_pref_name>
None

> <i_lp_mmshare_version>
53161

> <r_lp_tautomer_probability>
0.999999106000799

> <s_lp_Force_Field>
OPLS_2005

> <r_lp_Energy>
25.472772

> <b_lp_Chiralities_Consistent>
1

> <s_lp_Variant>
CHEMBL4439_lig783-1

> <s_i_glide_gridfile>
glide-grid_3hmm

> <i_i_glide_lignum>
1097

> <i_i_glide_rotatable_bonds>
3

> <r_i_docking_score>
-8.73809549385842

> <r_i_glide_ligand_efficiency>
-0.364087312244101

> <r_i_glide_ligand_efficiency_sa>
-1.05020953816433

> <r_i_glide_ligand_efficiency_ln>
-2.0914272167553

> <r_i_glide_gscore>
-8.73809549385842

> <r_i_glide_lipo>
-4.13895933049226

> <r_i_glide_hbond>
-0.034134885403772

> <r_i_glide_metal>
0

> <r_i_glide_rewards>
-2.45680229772727

> <r_i_glide_evdw>
-42.6435470581055

> <r_i_glide_ecoul>
-3.36603569984436

> <r_i_glide_erotb>
0.548880898460469

> <r_i_glide_esite>
-0.0199971708136575

> <r_i_glide_emodel>
-71.3152745760858

> <r_i_glide_energy>
-46.0095827579498

> <r_i_glide_einternal>
0.330759763717651

> <i_i_glide_confnum>
14

> <i_i_glide_posenum>
369

> <r_i_glide_eff_state_penalty>
0

> <s_user_duplicate_titles>
CHEMBL4439_lig783

> <i_f3d_flags>
0

> <s_m_subgroup_title>
dock_pv

> <s_m_subgroupid>
dock_pv

> <b_m_subgroup_collapsed>
1

$$$$
CHEMBL4439_lig947 
                    3D
 Schrodinger Suite 2021-1.
 39 43  0  0  1  0            999 V2000
   12.1268   65.3842    6.0997 C   0  0  0  0  0  0
   12.6323   64.6757    5.0106 C   0  0  0  0  0  0
   14.0142   64.6575    4.8126 C   0  0  0  0  0  0
   14.8879   65.2879    5.6436 N   0  0  0  0  0  0
   14.3816   65.9862    6.6976 C   0  0  0  0  0  0
   13.0055   66.0568    6.9498 C   0  0  0  0  0  0
   14.6072   63.9167    3.6306 C   0  0  0  0  0  0
   15.3738   66.6252    7.6182 C   0  0  0  0  0  0
   15.2114   66.4571    8.9273 N   0  0  0  0  0  0
   16.5306   67.3893    7.3279 C   0  0  0  0  0  0
   17.0563   67.6303    8.5801 N   0  0  0  0  0  0
   16.2529   67.0093    9.4741 C   0  0  0  0  0  0
   16.7124   67.1947   10.7463 N   0  0  0  0  0  0
   17.6262   68.3281   10.6571 C   0  0  0  0  0  0
   18.2215   68.1572    9.2495 C   0  0  0  0  0  0
   17.1038   67.8646    6.0620 C   0  0  0  0  0  0
   18.7581   68.4554    5.9257 S   0  0  0  0  0  0
   16.4376   67.9370    4.8528 C   0  0  0  0  0  0
   17.2340   68.4214    3.7874 C   0  0  0  0  0  0
   18.5496   68.7545    4.2104 C   0  0  0  0  0  0
   19.4919   69.2570    3.3027 C   0  0  0  0  0  0
   19.0666   69.4105    1.9839 C   0  0  0  0  0  0
   17.8243   69.1071    1.5427 N   0  0  0  0  0  0
   16.9271   68.6200    2.4321 C   0  0  0  0  0  0
   11.0636   65.4212    6.2822 H   0  0  0  0  0  0
   11.9669   64.1659    4.3285 H   0  0  0  0  0  0
   12.6244   66.6057    7.7981 H   0  0  0  0  0  0
   14.2728   62.8791    3.6319 H   0  0  0  0  0  0
   15.6978   63.9252    3.6354 H   0  0  0  0  0  0
   14.2667   64.3740    2.7018 H   0  0  0  0  0  0
   16.0459   67.2771   11.5051 H   0  0  0  0  0  0
   18.3885   68.3133   11.4369 H   0  0  0  0  0  0
   17.0671   69.2572   10.7364 H   0  0  0  0  0  0
   19.0107   67.4032    9.2779 H   0  0  0  0  0  0
   18.6063   69.0734    8.8021 H   0  0  0  0  0  0
   15.4055   67.6549    4.7171 H   0  0  0  0  0  0
   20.4986   69.5090    3.6064 H   0  0  0  0  0  0
   19.7469   69.7916    1.2351 H   0  0  0  0  0  0
   15.9445   68.3938    2.0458 H   0  0  0  0  0  0
  1  2  2  0  0  0
  1  6  1  0  0  0
  1 25  1  0  0  0
  2  3  1  0  0  0
  2 26  1  0  0  0
  3  4  2  0  0  0
  3  7  1  0  0  0
  4  5  1  0  0  0
  5  6  2  0  0  0
  5  8  1  0  0  0
  6 27  1  0  0  0
  7 28  1  0  0  0
  7 29  1  0  0  0
  7 30  1  0  0  0
  8  9  1  0  0  0
  8 10  2  0  0  0
  9 12  2  0  0  0
 10 11  1  0  0  0
 10 16  1  0  0  0
 11 12  1  0  0  0
 11 15  1  0  0  0
 12 13  1  0  0  0
 13 14  1  0  0  0
 13 31  1  0  0  0
 14 15  1  0  0  0
 14 32  1  0  0  0
 14 33  1  0  0  0
 15 34  1  0  0  0
 15 35  1  0  0  0
 16 17  1  0  0  0
 16 18  2  0  0  0
 17 20  1  0  0  0
 18 19  1  0  0  0
 18 36  1  0  0  0
 19 20  2  0  0  0
 19 24  1  0  0  0
 20 21  1  0  0  0
 21 22  2  0  0  0
 21 37  1  0  0  0
 22 23  1  0  0  0
 22 38  1  0  0  0
 23 24  2  0  0  0
 24 39  1  0  0  0
M  END
> <s_m_entry_id>
34399

> <s_m_entry_name>
dock_pv.142

> <s_m_Source_Path>
/home/csk/Desktop/cluster/DUD-E-result/tgfr1

> <s_m_Source_File>
dock_pv.maegz

> <i_m_Source_File_Index>
142

> <chembl_id>
CHEMBL4457492

> <chembl_pref_name>
None

> <i_lp_mmshare_version>
53161

> <r_lp_tautomer_probability>
0.999998123105223

> <s_lp_Force_Field>
OPLS_2005

> <r_lp_Energy>
41.563314

> <b_lp_Chiralities_Consistent>
1

> <s_lp_Variant>
CHEMBL4439_lig947 -1

> <s_i_glide_gridfile>
glide-grid_3hmm

> <i_i_glide_lignum>
1282

> <i_i_glide_rotatable_bonds>
2

> <r_i_docking_score>
-8.73169053058903

> <r_i_glide_ligand_efficiency>
-0.363820438774543

> <r_i_glide_ligand_efficiency_sa>
-1.04943974187155

> <r_i_glide_ligand_efficiency_ln>
-2.08989421514032

> <r_i_glide_gscore>
-8.73169053058903

> <r_i_glide_lipo>
-3.38213692384006

> <r_i_glide_hbond>
-0.136356400354274

> <r_i_glide_metal>
0

> <r_i_glide_rewards>
-2.65184807862314

> <r_i_glide_evdw>
-46.1886215209961

> <r_i_glide_ecoul>
-3.9400577545166

> <r_i_glide_erotb>
0.339090611455734

> <r_i_glide_esite>
0

> <r_i_glide_emodel>
-74.4964895077622

> <r_i_glide_energy>
-50.1286792755127

> <r_i_glide_einternal>
4.55276393890381

> <i_i_glide_confnum>
10

> <i_i_glide_posenum>
41

> <r_i_glide_eff_state_penalty>
0

> <s_user_duplicate_titles>
CHEMBL4439_lig947 

> <i_f3d_flags>
0

> <s_m_subgroup_title>
dock_pv

> <s_m_subgroupid>
dock_pv

> <b_m_subgroup_collapsed>
1

$$$$
CHEMBL4439_lig768
                    3D
 Schrodinger Suite 2021-1.
 36 39  0  0  1  0            999 V2000
   14.2717   63.6584    3.9042 C   0  0  0  0  0  0
   13.8418   64.5273    5.0718 C   0  0  0  0  0  0
   12.4895   64.7917    5.3039 C   0  0  0  0  0  0
   12.1463   65.6398    6.3585 C   0  0  0  0  0  0
   13.1545   66.2207    7.1272 C   0  0  0  0  0  0
   14.4909   65.9163    6.8309 C   0  0  0  0  0  0
   14.8376   65.0498    5.8388 N   0  0  0  0  0  0
   15.5299   66.5113    7.5840 N   0  0  0  0  0  0
   15.4668   66.3729    8.9163 N   0  0  0  0  0  0
   16.4796   67.0438    9.3856 C   0  0  0  0  0  0
   17.2545   67.6402    8.3914 C   0  0  0  0  0  0
   18.4418   68.5470    8.6265 C   0  0  0  0  0  0
   16.6130   67.2945    7.1894 C   0  0  0  0  0  0
   16.9853   67.7072    5.8071 C   0  0  0  0  0  0
   18.2124   68.2220    5.4096 C   0  0  0  0  0  0
   18.2601   68.6383    4.0547 C   0  0  0  0  0  0
   19.2949   69.2453    3.3274 C   0  0  0  0  0  0
   19.0675   69.5301    1.9813 C   0  0  0  0  0  0
   17.9102   69.2613    1.3322 N   0  0  0  0  0  0
   16.8943   68.7122    2.0323 C   0  0  0  0  0  0
   17.0398   68.3802    3.3833 C   0  0  0  0  0  0
   15.8671   67.6567    4.4496 S   0  0  0  0  0  0
   13.6061   62.8020    3.7905 H   0  0  0  0  0  0
   14.2426   64.2359    2.9794 H   0  0  0  0  0  0
   15.2871   63.2818    4.0305 H   0  0  0  0  0  0
   11.7240   64.3618    4.6740 H   0  0  0  0  0  0
   11.1084   65.8616    6.5636 H   0  0  0  0  0  0
   12.9023   66.8957    7.9317 H   0  0  0  0  0  0
   16.6552   67.1207   10.4490 H   0  0  0  0  0  0
   18.4938   68.8968    9.6573 H   0  0  0  0  0  0
   19.3837   68.0532    8.3885 H   0  0  0  0  0  0
   18.3890   69.4432    8.0085 H   0  0  0  0  0  0
   19.0611   68.3317    6.0634 H   0  0  0  0  0  0
   20.2452   69.4673    3.7884 H   0  0  0  0  0  0
   19.8471   69.9827    1.3840 H   0  0  0  0  0  0
   15.9701   68.5305    1.5007 H   0  0  0  0  0  0
  1  2  1  0  0  0
  1 23  1  0  0  0
  1 24  1  0  0  0
  1 25  1  0  0  0
  2  3  2  0  0  0
  2  7  1  0  0  0
  3  4  1  0  0  0
  3 26  1  0  0  0
  4  5  2  0  0  0
  4 27  1  0  0  0
  5  6  1  0  0  0
  5 28  1  0  0  0
  6  7  2  0  0  0
  6  8  1  0  0  0
  8  9  1  0  0  0
  8 13  1  0  0  0
  9 10  2  0  0  0
 10 11  1  0  0  0
 10 29  1  0  0  0
 11 12  1  0  0  0
 11 13  2  0  0  0
 12 30  1  0  0  0
 12 31  1  0  0  0
 12 32  1  0  0  0
 13 14  1  0  0  0
 14 15  2  0  0  0
 14 22  1  0  0  0
 15 16  1  0  0  0
 15 33  1  0  0  0
 16 17  2  0  0  0
 16 21  1  0  0  0
 17 18  1  0  0  0
 17 34  1  0  0  0
 18 19  2  0  0  0
 18 35  1  0  0  0
 19 20  1  0  0  0
 20 21  2  0  0  0
 20 36  1  0  0  0
 21 22  1  0  0  0
M  END
> <s_m_entry_id>
34400

> <s_m_entry_name>
dock_pv.143

> <s_m_Source_Path>
/home/csk/Desktop/cluster/DUD-E-result/tgfr1

> <s_m_Source_File>
dock_pv.maegz

> <i_m_Source_File_Index>
143

> <chembl_id>
CHEMBL3704654

> <chembl_pref_name>
None

> <i_lp_mmshare_version>
53161

> <r_lp_tautomer_probability>
1

> <s_lp_Force_Field>
OPLS_2005

> <r_lp_Energy>
6.025296

> <b_lp_Chiralities_Consistent>
1

> <s_lp_Variant>
CHEMBL4439_lig768-1

> <s_i_glide_gridfile>
glide-grid_3hmm

> <i_i_glide_lignum>
1082

> <i_i_glide_rotatable_bonds>
2

> <r_i_docking_score>
-8.72116023218252

> <r_i_glide_ligand_efficiency>
-0.396416374190114

> <r_i_glide_ligand_efficiency_sa>
-1.11077427065202

> <r_i_glide_ligand_efficiency_ln>
-2.13176967279412

> <r_i_glide_gscore>
-8.72116023218252

> <r_i_glide_lipo>
-3.59879729838927

> <r_i_glide_hbond>
-0.290566008676667

> <r_i_glide_metal>
0

> <r_i_glide_rewards>
-2.6067724241518

> <r_i_glide_evdw>
-41.3100891113281

> <r_i_glide_ecoul>
-3.68706631660461

> <r_i_glide_erotb>
0.393539902092311

> <r_i_glide_esite>
0

> <r_i_glide_emodel>
-66.6160505709288

> <r_i_glide_energy>
-44.9971554279327

> <r_i_glide_einternal>
5.587082862854

> <i_i_glide_confnum>
12

> <i_i_glide_posenum>
267

> <r_i_glide_eff_state_penalty>
0

> <s_user_duplicate_titles>
CHEMBL4439_lig768

> <i_f3d_flags>
0

> <s_m_subgroup_title>
dock_pv

> <s_m_subgroupid>
dock_pv

> <b_m_subgroup_collapsed>
1

$$$$
CHEMBL4439_lig592
                    3D
 Schrodinger Suite 2021-1.
 37 41  0  0  1  0            999 V2000
   16.2247   66.4586    9.2617 S   0  0  0  0  0  0
   15.8053   67.2383    7.7622 C   0  0  0  0  0  0
   16.4804   68.3338    7.5305 N   0  0  0  0  0  0
   17.4411   68.5385    8.4072 C   0  0  0  0  0  0
   17.4570   67.6621    9.4878 C   0  0  0  0  0  0
   18.3982   69.6575    8.0817 C   0  0  0  0  0  0
   14.8654   66.6650    6.7985 C   0  0  0  0  0  0
   14.9404   66.6792    5.3910 C   0  0  0  0  0  0
   13.8896   65.8849    5.0191 N   0  0  0  0  0  0
   13.1757   65.5884    6.1388 C   0  0  0  0  0  0
   13.7625   66.0530    7.2150 N   0  0  0  0  0  0
   15.8205   67.3458    4.3815 C   0  0  0  0  0  0
   15.2534   67.7296    3.1620 C   0  0  0  0  0  0
   15.9556   68.4570    2.2055 C   0  0  0  0  0  0
   17.1551   67.6574    4.6503 C   0  0  0  0  0  0
   17.8717   68.4051    3.7071 C   0  0  0  0  0  0
   17.2812   68.7940    2.4777 C   0  0  0  0  0  0
   18.0871   69.4810    1.6315 N   0  0  0  0  0  0
   19.2625   69.6569    2.1601 C   0  0  0  0  0  0
   19.5118   69.0272    3.7736 S   0  0  0  0  0  0
   11.8671   64.8270    6.1021 C   0  0  0  0  0  0
   10.9646   64.8581    4.8910 C   0  0  0  0  0  0
   11.7285   63.5977    5.2387 C   0  0  0  0  0  0
   18.1319   67.6358   10.3304 H   0  0  0  0  0  0
   19.1820   69.7534    8.8334 H   0  0  0  0  0  0
   17.8911   70.6222    8.0335 H   0  0  0  0  0  0
   18.8970   69.5048    7.1228 H   0  0  0  0  0  0
   13.6202   65.6547    4.0723 H   0  0  0  0  0  0
   14.2351   67.4788    2.9334 H   0  0  0  0  0  0
   15.4859   68.7454    1.2751 H   0  0  0  0  0  0
   17.6274   67.3462    5.5680 H   0  0  0  0  0  0
   20.0562   70.1750    1.6384 H   0  0  0  0  0  0
   11.3571   64.8005    7.0634 H   0  0  0  0  0  0
    9.8854   64.8817    5.0451 H   0  0  0  0  0  0
   11.2661   65.4546    4.0323 H   0  0  0  0  0  0
   12.5640   63.2895    4.6090 H   0  0  0  0  0  0
   11.1842   62.7490    5.6503 H   0  0  0  0  0  0
  1  2  1  0  0  0
  1  5  1  0  0  0
  2  3  2  0  0  0
  2  7  1  0  0  0
  3  4  1  0  0  0
  4  5  2  0  0  0
  4  6  1  0  0  0
  5 24  1  0  0  0
  6 25  1  0  0  0
  6 26  1  0  0  0
  6 27  1  0  0  0
  7  8  2  0  0  0
  7 11  1  0  0  0
  8  9  1  0  0  0
  8 12  1  0  0  0
  9 10  1  0  0  0
  9 28  1  0  0  0
 10 11  2  0  0  0
 10 21  1  0  0  0
 12 13  2  0  0  0
 12 15  1  0  0  0
 13 14  1  0  0  0
 13 29  1  0  0  0
 14 17  2  0  0  0
 14 30  1  0  0  0
 15 16  2  0  0  0
 15 31  1  0  0  0
 16 17  1  0  0  0
 16 20  1  0  0  0
 17 18  1  0  0  0
 18 19  2  0  0  0
 19 20  1  0  0  0
 19 32  1  0  0  0
 21 22  1  0  0  0
 21 23  1  0  0  0
 21 33  1  0  0  0
 22 23  1  0  0  0
 22 34  1  0  0  0
 22 35  1  0  0  0
 23 36  1  0  0  0
 23 37  1  0  0  0
M  END
> <s_m_entry_id>
34401

> <s_m_entry_name>
dock_pv.144

> <s_m_Source_Path>
/home/csk/Desktop/cluster/DUD-E-result/tgfr1

> <s_m_Source_File>
dock_pv.maegz

> <i_m_Source_File_Index>
144

> <chembl_id>
CHEMBL2207997

> <chembl_pref_name>
None

> <i_lp_mmshare_version>
53161

> <r_lp_tautomer_probability>
0.499999999999999

> <s_lp_Force_Field>
OPLS_2005

> <r_lp_Energy>
12.877378

> <b_lp_Chiralities_Consistent>
1

> <s_lp_Variant>
CHEMBL4439_lig592-1

> <s_i_glide_gridfile>
glide-grid_3hmm

> <i_i_glide_lignum>
797

> <i_i_glide_rotatable_bonds>
3

> <r_i_docking_score>
-8.71609214472703

> <r_i_glide_ligand_efficiency>
-0.37896052803161

> <r_i_glide_ligand_efficiency_sa>
-1.07771333120982

> <r_i_glide_ligand_efficiency_ln>
-2.10763011374899

> <r_i_glide_gscore>
-8.71609214472703

> <r_i_glide_lipo>
-3.98958685641186

> <r_i_glide_hbond>
-0.0378762213471054

> <r_i_glide_metal>
0

> <r_i_glide_rewards>
-2.33204038767322

> <r_i_glide_evdw>
-42.9470596313477

> <r_i_glide_ecoul>
-4.69690608978271

> <r_i_glide_erotb>
0.495300215739945

> <r_i_glide_esite>
0

> <r_i_glide_emodel>
-71.8158827001785

> <r_i_glide_energy>
-47.6439657211304

> <r_i_glide_einternal>
1.20598483085632

> <i_i_glide_confnum>
13

> <i_i_glide_posenum>
377

> <r_i_glide_eff_state_penalty>
0

> <s_user_duplicate_titles>
CHEMBL4439_lig592,CHEMBL4439_lig592

> <i_f3d_flags>
0

> <s_m_subgroup_title>
dock_pv

> <s_m_subgroupid>
dock_pv

> <b_m_subgroup_collapsed>
1

$$$$
CHEMBL4439_lig222
                    3D
 Schrodinger Suite 2021-1.
 36 39  0  0  1  0            999 V2000
   17.9365   68.2837    9.6843 C   0  0  0  0  0  0
   16.9958   67.5282   10.3739 C   0  0  0  0  0  0
   16.0406   66.7857    9.6836 C   0  0  0  0  0  0
   17.9428   68.3242    8.2928 C   0  0  0  0  0  0
   16.9810   67.5789    7.5548 C   0  0  0  0  0  0
   16.0150   66.7999    8.2698 C   0  0  0  0  0  0
   15.0656   66.0592    7.6277 N   0  0  0  0  0  0
   15.0918   66.0835    6.2719 C   0  0  0  0  0  0
   15.9575   66.7785    5.5052 N   0  0  0  0  0  0
   16.8890   67.5335    6.1310 C   0  0  0  0  0  0
   14.1248   65.2146    5.5415 C   0  0  0  0  0  0
   17.7983   68.2386    5.3182 N   0  0  0  0  0  0
   17.8020   68.5471    3.9454 C   0  0  0  0  0  0
   18.9873   69.0307    3.3846 C   0  0  0  0  0  0
   19.0026   69.3753    2.0319 C   0  0  0  0  0  0
   17.9107   69.2855    1.2324 N   0  0  0  0  0  0
   16.7559   68.8570    1.7912 C   0  0  0  0  0  0
   16.6668   68.4574    3.1239 C   0  0  0  0  0  0
   14.5450   64.4565    4.0322 S   0  0  0  0  0  0
   12.9873   63.6872    4.0387 C   0  0  0  0  0  0
   12.2634   64.1373    5.1355 C   0  0  0  0  0  0
   12.9037   64.9608    5.9463 N   0  0  0  0  0  0
   10.8345   63.8269    5.4957 C   0  0  0  0  0  0
   18.6690   68.8552   10.2368 H   0  0  0  0  0  0
   17.0001   67.5240   11.4545 H   0  0  0  0  0  0
   15.3105   66.2087   10.2320 H   0  0  0  0  0  0
   18.6778   68.9267    7.7773 H   0  0  0  0  0  0
   18.5795   68.6312    5.8217 H   0  0  0  0  0  0
   19.8847   69.1260    3.9778 H   0  0  0  0  0  0
   19.9046   69.7434    1.5664 H   0  0  0  0  0  0
   15.8853   68.8211    1.1514 H   0  0  0  0  0  0
   15.7090   68.1360    3.5001 H   0  0  0  0  0  0
   12.6747   63.0343    3.2335 H   0  0  0  0  0  0
   10.3302   63.2578    4.7142 H   0  0  0  0  0  0
   10.7537   63.2575    6.4236 H   0  0  0  0  0  0
   10.2651   64.7448    5.6306 H   0  0  0  0  0  0
  1  2  2  0  0  0
  1  4  1  0  0  0
  1 24  1  0  0  0
  2  3  1  0  0  0
  2 25  1  0  0  0
  3  6  2  0  0  0
  3 26  1  0  0  0
  4  5  2  0  0  0
  4 27  1  0  0  0
  5  6  1  0  0  0
  5 10  1  0  0  0
  6  7  1  0  0  0
  7  8  2  0  0  0
  8 11  1  0  0  0
  8  9  1  0  0  0
  9 10  2  0  0  0
 10 12  1  0  0  0
 11 19  1  0  0  0
 11 22  2  0  0  0
 12 13  1  0  0  0
 12 28  1  0  0  0
 13 14  2  0  0  0
 13 18  1  0  0  0
 14 15  1  0  0  0
 14 29  1  0  0  0
 15 16  2  0  0  0
 15 30  1  0  0  0
 16 17  1  0  0  0
 17 18  2  0  0  0
 17 31  1  0  0  0
 18 32  1  0  0  0
 19 20  1  0  0  0
 20 21  2  0  0  0
 20 33  1  0  0  0
 21 22  1  0  0  0
 21 23  1  0  0  0
 23 34  1  0  0  0
 23 35  1  0  0  0
 23 36  1  0  0  0
M  END
> <s_m_entry_id>
34402

> <s_m_entry_name>
dock_pv.145

> <s_m_Source_Path>
/home/csk/Desktop/cluster/DUD-E-result/tgfr1

> <s_m_Source_File>
dock_pv.maegz

> <i_m_Source_File_Index>
145

> <chembl_id>
CHEMBL541777

> <chembl_pref_name>
None

> <i_lp_mmshare_version>
53161

> <r_lp_tautomer_probability>
0.999977106282132

> <s_lp_Force_Field>
OPLS_2005

> <r_lp_Energy>
15.215661

> <b_lp_Chiralities_Consistent>
1

> <s_lp_Variant>
CHEMBL4439_lig222-1

> <s_i_glide_gridfile>
glide-grid_3hmm

> <i_i_glide_lignum>
324

> <i_i_glide_rotatable_bonds>
3

> <r_i_docking_score>
-8.71496139200202

> <r_i_glide_ligand_efficiency>
-0.378911364869653

> <r_i_glide_ligand_efficiency_sa>
-1.07757351771705

> <r_i_glide_ligand_efficiency_ln>
-2.10735668748698

> <r_i_glide_gscore>
-8.71496139200202

> <r_i_glide_lipo>
-3.60597167741229

> <r_i_glide_hbond>
-0.347278791184465

> <r_i_glide_metal>
0

> <r_i_glide_rewards>
-2.51214336812279

> <r_i_glide_evdw>
-47.4624176025391

> <r_i_glide_ecoul>
-2.83452916145325

> <r_i_glide_erotb>
0.548732699062472

> <r_i_glide_esite>
0

> <r_i_glide_emodel>
-75.3470772968465

> <r_i_glide_energy>
-50.2969467639923

> <r_i_glide_einternal>
2.58290529251099

> <i_i_glide_confnum>
2

> <i_i_glide_posenum>
89

> <r_i_glide_eff_state_penalty>
0

> <s_user_duplicate_titles>
CHEMBL4439_lig222,554277

> <i_f3d_flags>
0

> <s_m_subgroup_title>
dock_pv

> <s_m_subgroupid>
dock_pv

> <b_m_subgroup_collapsed>
1

$$$$
CHEMBL4439_lig370
                    3D
 Schrodinger Suite 2021-1.
 53 57  0  0  1  0            999 V2000
   11.6295   63.3649    4.0330 C   0  0  0  0  0  0
   12.8741   63.1727    3.4433 C   0  0  0  0  0  0
   13.9774   63.8415    3.9570 C   0  0  0  0  0  0
   11.4203   64.1813    5.0936 N   0  0  0  0  0  0
   12.4897   64.8577    5.6009 C   0  0  0  0  0  0
   13.8039   64.7117    5.0570 C   0  0  0  0  0  0
   14.8751   65.4310    5.6290 C   0  0  0  0  0  0
   14.6507   66.3116    6.6861 C   0  0  0  0  0  0
   13.3641   66.4530    7.2140 C   0  0  0  0  0  0
   12.2920   65.7332    6.6919 C   0  0  0  0  0  0
   15.7825   67.0617    7.2917 C   0  0  0  0  0  0
   16.8864   67.7602    6.7228 C   0  0  0  0  0  0
   17.6491   68.2594    7.6800 N   0  0  0  0  0  0
   17.1080   67.9062    8.8467 N   0  0  0  0  0  0
   15.9367   67.2311    8.6574 C   0  0  0  0  0  0
   17.2394   68.0433    5.2766 C   0  0  0  0  0  0
   16.3143   67.9623    4.2271 C   0  0  0  0  0  0
   16.7141   68.2974    2.9304 C   0  0  0  0  0  0
   18.0239   68.7176    2.6996 C   0  0  0  0  0  0
   18.8962   68.7899    3.7878 C   0  0  0  0  0  0
   18.5227   68.4576    5.0484 N   0  0  0  0  0  0
   17.6421   68.5015   10.0705 C   0  0  0  0  0  0
   17.5915   67.6565   11.3500 C   0  0  0  0  0  0
   18.5845   67.8664   12.2370 N   0  0  0  0  0  0
   16.6671   66.8630   11.5283 O   0  0  0  0  0  0
   18.7379   67.3171   13.5223 C   0  0  0  0  0  0
   17.6577   66.9037   14.3195 C   0  0  0  0  0  0
   17.8920   66.4482   15.6130 C   0  0  0  0  0  0
   19.1949   66.3666   16.0993 C   0  0  0  0  0  0
   20.2694   66.7696   15.3103 C   0  0  0  0  0  0
   20.0382   67.2575   14.0293 C   0  0  0  0  0  0
   20.3311   69.2568    3.6307 C   0  0  0  0  0  0
   10.7577   62.8667    3.6332 H   0  0  0  0  0  0
   12.9842   62.5191    2.5896 H   0  0  0  0  0  0
   14.9540   63.7126    3.5128 H   0  0  0  0  0  0
   15.8715   65.3002    5.2286 H   0  0  0  0  0  0
   13.1896   67.1300    8.0391 H   0  0  0  0  0  0
   11.3006   65.8482    7.1076 H   0  0  0  0  0  0
   15.3234   66.9260    9.4934 H   0  0  0  0  0  0
   15.2885   67.6829    4.4046 H   0  0  0  0  0  0
   16.0070   68.2459    2.1140 H   0  0  0  0  0  0
   18.3515   68.9868    1.7046 H   0  0  0  0  0  0
   17.0663   69.4052   10.2465 H   0  0  0  0  0  0
   18.6727   68.8099    9.8810 H   0  0  0  0  0  0
   19.3544   68.4345   11.9191 H   0  0  0  0  0  0
   16.6381   66.9572   13.9647 H   0  0  0  0  0  0
   17.0663   66.1336   16.2349 H   0  0  0  0  0  0
   19.3740   65.9874   17.0960 H   0  0  0  0  0  0
   21.2779   66.7004   15.6939 H   0  0  0  0  0  0
   20.8813   67.5640   13.4239 H   0  0  0  0  0  0
   20.5195   69.6470    2.6308 H   0  0  0  0  0  0
   20.5588   70.0483    4.3442 H   0  0  0  0  0  0
   21.0232   68.4332    3.8092 H   0  0  0  0  0  0
  1  2  2  0  0  0
  1  4  1  0  0  0
  1 33  1  0  0  0
  2  3  1  0  0  0
  2 34  1  0  0  0
  3  6  2  0  0  0
  3 35  1  0  0  0
  4  5  2  0  0  0
  5 10  1  0  0  0
  5  6  1  0  0  0
  6  7  1  0  0  0
  7  8  2  0  0  0
  7 36  1  0  0  0
  8 11  1  0  0  0
  8  9  1  0  0  0
  9 10  2  0  0  0
  9 37  1  0  0  0
 10 38  1  0  0  0
 11 12  1  0  0  0
 11 15  2  0  0  0
 12 16  1  0  0  0
 12 13  2  0  0  0
 13 14  1  0  0  0
 14 22  1  0  0  0
 14 15  1  0  0  0
 15 39  1  0  0  0
 16 17  2  0  0  0
 16 21  1  0  0  0
 17 18  1  0  0  0
 17 40  1  0  0  0
 18 19  2  0  0  0
 18 41  1  0  0  0
 19 20  1  0  0  0
 19 42  1  0  0  0
 20 21  2  0  0  0
 20 32  1  0  0  0
 22 23  1  0  0  0
 22 43  1  0  0  0
 22 44  1  0  0  0
 23 24  1  0  0  0
 23 25  2  0  0  0
 24 26  1  0  0  0
 24 45  1  0  0  0
 26 27  2  0  0  0
 26 31  1  0  0  0
 27 28  1  0  0  0
 27 46  1  0  0  0
 28 29  2  0  0  0
 28 47  1  0  0  0
 29 30  1  0  0  0
 29 48  1  0  0  0
 30 31  2  0  0  0
 30 49  1  0  0  0
 31 50  1  0  0  0
 32 51  1  0  0  0
 32 52  1  0  0  0
 32 53  1  0  0  0
M  END
> <s_m_entry_id>
34403

> <s_m_entry_name>
dock_pv.146

> <s_m_Source_Path>
/home/csk/Desktop/cluster/DUD-E-result/tgfr1

> <s_m_Source_File>
dock_pv.maegz

> <i_m_Source_File_Index>
146

> <chembl_id>
CHEMBL1766440

> <chembl_pref_name>
None

> <i_lp_mmshare_version>
53161

> <r_lp_tautomer_probability>
1

> <s_lp_Force_Field>
OPLS_2005

> <r_lp_Energy>
30.69866

> <b_lp_Chiralities_Consistent>
1

> <s_lp_Variant>
CHEMBL4439_lig370-1

> <s_i_glide_gridfile>
glide-grid_3hmm

> <i_i_glide_lignum>
508

> <i_i_glide_rotatable_bonds>
6

> <r_i_docking_score>
-8.70955331700139

> <r_i_glide_ligand_efficiency>
-0.272173541156293

> <r_i_glide_ligand_efficiency_sa>
-0.864097130100576

> <r_i_glide_ligand_efficiency_ln>
-1.95030640113336

> <r_i_glide_gscore>
-8.70955331700139

> <r_i_glide_lipo>
-4.40353923115587

> <r_i_glide_hbond>
0

> <r_i_glide_metal>
0

> <r_i_glide_rewards>
-1.51381177397366

> <r_i_glide_evdw>
-58.9717826843262

> <r_i_glide_ecoul>
-2.70515537261963

> <r_i_glide_erotb>
0.562160128237402

> <r_i_glide_esite>
0

> <r_i_glide_emodel>
-90.9326155631069

> <r_i_glide_energy>
-61.6769380569458

> <r_i_glide_einternal>
5.68346357345581

> <i_i_glide_confnum>
22

> <i_i_glide_posenum>
332

> <r_i_glide_eff_state_penalty>
0

> <s_user_duplicate_titles>
CHEMBL4439_lig370

> <i_f3d_flags>
0

> <s_m_subgroup_title>
dock_pv

> <s_m_subgroupid>
dock_pv

> <b_m_subgroup_collapsed>
1

$$$$
CHEMBL4439_lig687
                    3D
 Schrodinger Suite 2021-1.
 52 56  0  0  1  0            999 V2000
   18.2244   68.6299    4.3980 C   0  0  0  0  0  0
   16.9666   68.2290    4.8307 C   0  0  0  0  0  0
   15.9650   68.0004    3.8621 C   0  0  0  0  0  0
   16.1627   68.2392    2.5062 C   0  0  0  0  0  0
   18.4108   68.8418    3.0699 N   0  0  0  0  0  0
   17.4278   68.6585    2.0996 C   0  0  0  0  0  0
   17.9546   68.9355    0.8927 N   0  0  0  0  0  0
   19.1877   69.2574    1.2294 C   0  0  0  0  0  0
   19.5341   69.2594    2.4966 N   0  0  0  0  0  0
   16.6267   68.0570    6.2752 C   0  0  0  0  0  0
   17.2677   67.9006    7.5353 C   0  0  0  0  0  0
   16.3790   67.5151    8.4492 N   0  0  0  0  0  0
   15.2185   67.5260    7.8557 C   0  0  0  0  0  0
   15.3058   68.0004    6.6009 N   0  0  0  0  0  0
   18.6937   68.0714    7.9888 C   0  0  0  0  0  0
   19.2139   67.3981    9.1071 C   0  0  0  0  0  0
   20.5226   67.6644    9.5161 C   0  0  0  0  0  0
   21.2919   68.5841    8.8032 C   0  0  0  0  0  0
   20.7129   69.2218    7.7051 C   0  0  0  0  0  0
   19.4343   68.9868    7.3130 N   0  0  0  0  0  0
   21.4980   70.2151    6.8698 C   0  0  0  0  0  0
   13.9167   67.0732    8.4321 C   0  0  0  0  0  0
   12.9128   66.4570    7.5601 N   0  0  0  0  0  0
   13.0959   65.6062    6.4588 C   0  0  0  0  0  0
   11.9285   65.1029    5.8848 C   0  0  0  0  0  0
   11.9691   64.2573    4.7751 C   0  0  0  0  0  0
   13.2147   63.9531    4.2084 C   0  0  0  0  0  0
   14.3859   64.4564    4.7657 C   0  0  0  0  0  0
   14.3319   65.2302    5.9188 C   0  0  0  0  0  0
   10.6978   63.7350    4.2394 C   0  0  0  0  0  0
   10.5738   62.8570    3.2320 C   0  0  0  0  0  0
   19.0830   68.8158    5.0112 H   0  0  0  0  0  0
   14.9826   67.6532    4.1479 H   0  0  0  0  0  0
   15.3715   68.0862    1.7859 H   0  0  0  0  0  0
   19.8930   69.5788    0.4756 H   0  0  0  0  0  0
   14.5323   68.0667    5.9562 H   0  0  0  0  0  0
   18.6160   66.6889    9.6601 H   0  0  0  0  0  0
   20.9334   67.1682   10.3833 H   0  0  0  0  0  0
   22.3098   68.7977    9.0956 H   0  0  0  0  0  0
   22.1164   70.8538    7.5022 H   0  0  0  0  0  0
   22.1557   69.6848    6.1811 H   0  0  0  0  0  0
   20.8399   70.8569    6.2831 H   0  0  0  0  0  0
   13.4674   67.9740    8.8318 H   0  0  0  0  0  0
   14.0967   66.4174    9.2789 H   0  0  0  0  0  0
   11.9690   66.4432    7.9225 H   0  0  0  0  0  0
   10.9723   65.3708    6.3100 H   0  0  0  0  0  0
   13.2952   63.3329    3.3286 H   0  0  0  0  0  0
   15.3408   64.1998    4.3305 H   0  0  0  0  0  0
   15.2704   65.5150    6.3604 H   0  0  0  0  0  0
    9.7949   64.1042    4.7049 H   0  0  0  0  0  0
   11.4451   62.4588    2.7428 H   0  0  0  0  0  0
    9.6072   62.5227    2.8838 H   0  0  0  0  0  0
  1  5  1  0  0  0
  1  2  2  0  0  0
  1 32  1  0  0  0
  2  3  1  0  0  0
  2 10  1  0  0  0
  3  4  2  0  0  0
  3 33  1  0  0  0
  4  6  1  0  0  0
  4 34  1  0  0  0
  5  6  1  0  0  0
  5  9  1  0  0  0
  6  7  2  0  0  0
  7  8  1  0  0  0
  8  9  2  0  0  0
  8 35  1  0  0  0
 10 11  2  0  0  0
 10 14  1  0  0  0
 11 15  1  0  0  0
 11 12  1  0  0  0
 12 13  2  0  0  0
 13 14  1  0  0  0
 13 22  1  0  0  0
 14 36  1  0  0  0
 15 16  2  0  0  0
 15 20  1  0  0  0
 16 17  1  0  0  0
 16 37  1  0  0  0
 17 18  2  0  0  0
 17 38  1  0  0  0
 18 19  1  0  0  0
 18 39  1  0  0  0
 19 20  2  0  0  0
 19 21  1  0  0  0
 21 40  1  0  0  0
 21 41  1  0  0  0
 21 42  1  0  0  0
 22 23  1  0  0  0
 22 43  1  0  0  0
 22 44  1  0  0  0
 23 24  1  0  0  0
 23 45  1  0  0  0
 24 25  2  0  0  0
 24 29  1  0  0  0
 25 26  1  0  0  0
 25 46  1  0  0  0
 26 27  2  0  0  0
 26 30  1  0  0  0
 27 28  1  0  0  0
 27 47  1  0  0  0
 28 29  2  0  0  0
 28 48  1  0  0  0
 29 49  1  0  0  0
 30 31  2  0  0  0
 30 50  1  0  0  0
 31 51  1  0  0  0
 31 52  1  0  0  0
M  END
> <s_m_entry_id>
34404

> <s_m_entry_name>
dock_pv.147

> <s_m_Source_Path>
/home/csk/Desktop/cluster/DUD-E-result/tgfr1

> <s_m_Source_File>
dock_pv.maegz

> <i_m_Source_File_Index>
147

> <chembl_id>
CHEMBL3260590

> <chembl_pref_name>
None

> <i_lp_mmshare_version>
53161

> <r_lp_tautomer_probability>
0.499999999999999

> <s_lp_Force_Field>
OPLS_2005

> <r_lp_Energy>
18.822173

> <b_lp_Chiralities_Consistent>
1

> <s_lp_Variant>
CHEMBL4439_lig687-2

> <s_i_glide_gridfile>
glide-grid_3hmm

> <i_i_glide_lignum>
963

> <i_i_glide_rotatable_bonds>
6

> <r_i_docking_score>
-8.70467886220745

> <r_i_glide_ligand_efficiency>
-0.280796092329273

> <r_i_glide_ligand_efficiency_sa>
-0.882087410700592

> <r_i_glide_ligand_efficiency_ln>
-1.96317184979748

> <r_i_glide_gscore>
-8.70467886220745

> <r_i_glide_lipo>
-3.62493435762542

> <r_i_glide_hbond>
-0.32

> <r_i_glide_metal>
0

> <r_i_glide_rewards>
-2.68549013444312

> <r_i_glide_evdw>
-46.3358726501465

> <r_i_glide_ecoul>
-3.11385273933411

> <r_i_glide_erotb>
0.710903212365987

> <r_i_glide_esite>
-0.0012860390974569

> <r_i_glide_emodel>
-76.4165817981361

> <r_i_glide_energy>
-49.4497253894806

> <r_i_glide_einternal>
7.08857583999634

> <i_i_glide_confnum>
61

> <i_i_glide_posenum>
327

> <r_i_glide_eff_state_penalty>
0

> <s_user_duplicate_titles>
CHEMBL4439_lig687

> <i_f3d_flags>
0

> <s_m_subgroup_title>
dock_pv

> <s_m_subgroupid>
dock_pv

> <b_m_subgroup_collapsed>
1

$$$$
CHEMBL4439_lig868
                    3D
 Schrodinger Suite 2021-1.
 47 50  0  0  1  0            999 V2000
   18.7437   67.1858   10.3695 C   0  0  0  0  0  0
   17.4979   67.3654    9.4718 C   0  0  0  0  0  0
   16.5298   68.3666   10.1464 C   0  0  0  0  0  0
   17.8644   68.0571    4.4077 C   0  0  0  0  0  0
   18.1799   68.6888    3.2033 C   0  0  0  0  0  0
   17.2713   68.8961    2.2190 N   0  0  0  0  0  0
   16.0069   68.4549    2.4316 C   0  0  0  0  0  0
   15.6199   67.7918    3.6017 C   0  0  0  0  0  0
   16.5543   67.6083    4.6295 C   0  0  0  0  0  0
   16.1628   66.9601    5.9275 C   0  0  0  0  0  0
   15.0879   65.6571    7.4444 N   0  0  0  0  0  0
   15.1301   66.0026    6.1774 C   0  0  0  0  0  0
   16.1128   66.2507    8.0153 N   0  0  0  0  0  0
   16.7666   67.1074    7.1887 C   0  0  0  0  0  0
   17.8798   67.7555    8.0023 C   0  0  1  0  0  0
   16.7437   66.0407    9.2958 C   0  0  0  0  0  0
   14.2207   65.2392    5.2638 C   0  0  0  0  0  0
   12.9410   65.0675    5.7027 N   0  0  0  0  0  0
   12.1428   64.1863    5.0481 C   0  0  0  0  0  0
   12.5795   63.4454    3.9498 C   0  0  0  0  0  0
   13.8777   63.6569    3.4845 C   0  0  0  0  0  0
   14.7114   64.5673    4.1390 C   0  0  0  0  0  0
   10.7360   64.0470    5.5922 C   0  0  0  0  0  0
   18.0940   69.2607    7.7357 C   0  0  0  0  0  0
   19.2377   69.7028    8.4317 O   0  0  0  0  0  0
   19.4416   66.4568    9.9578 H   0  0  0  0  0  0
   19.2946   68.1180   10.4892 H   0  0  0  0  0  0
   18.4715   66.8572   11.3723 H   0  0  0  0  0  0
   15.7054   68.6602    9.4946 H   0  0  0  0  0  0
   16.0966   67.9597   11.0622 H   0  0  0  0  0  0
   17.0669   69.2585   10.4359 H   0  0  0  0  0  0
   18.6368   67.9101    5.1459 H   0  0  0  0  0  0
   19.1842   69.0382    3.0128 H   0  0  0  0  0  0
   15.2970   68.6240    1.6337 H   0  0  0  0  0  0
   14.5977   67.4656    3.7154 H   0  0  0  0  0  0
   18.8114   67.2565    7.7306 H   0  0  0  0  0  0
   16.0176   65.8335   10.0828 H   0  0  0  0  0  0
   17.4216   65.1881    9.2327 H   0  0  0  0  0  0
   11.9269   62.7482    3.4464 H   0  0  0  0  0  0
   14.2358   63.1124    2.6240 H   0  0  0  0  0  0
   15.7337   64.7001    3.8202 H   0  0  0  0  0  0
   10.1227   63.3973    4.9682 H   0  0  0  0  0  0
   10.7513   63.6379    6.6026 H   0  0  0  0  0  0
   10.2671   65.0293    5.6278 H   0  0  0  0  0  0
   17.2312   69.8597    8.0305 H   0  0  0  0  0  0
   18.2689   69.4555    6.6802 H   0  0  0  0  0  0
   18.9652   70.0330    9.2991 H   0  0  0  0  0  0
  1  2  1  0  0  0
  1 26  1  0  0  0
  1 27  1  0  0  0
  1 28  1  0  0  0
  2  3  1  0  0  0
  2 15  1  0  0  0
  2 16  1  0  0  0
  3 29  1  0  0  0
  3 30  1  0  0  0
  3 31  1  0  0  0
  4  5  2  0  0  0
  4  9  1  0  0  0
  4 32  1  0  0  0
  5  6  1  0  0  0
  5 33  1  0  0  0
  6  7  2  0  0  0
  7  8  1  0  0  0
  7 34  1  0  0  0
  8  9  2  0  0  0
  8 35  1  0  0  0
  9 10  1  0  0  0
 10 14  2  0  0  0
 10 12  1  0  0  0
 11 13  1  0  0  0
 11 12  2  0  0  0
 12 17  1  0  0  0
 13 14  1  0  0  0
 13 16  1  0  0  0
 14 15  1  0  0  0
 15 24  1  0  0  0
 15 36  1  0  0  0
 16 37  1  0  0  0
 16 38  1  0  0  0
 17 18  2  0  0  0
 17 22  1  0  0  0
 18 19  1  0  0  0
 19 20  2  0  0  0
 19 23  1  0  0  0
 20 21  1  0  0  0
 20 39  1  0  0  0
 21 22  2  0  0  0
 21 40  1  0  0  0
 22 41  1  0  0  0
 23 42  1  0  0  0
 23 43  1  0  0  0
 23 44  1  0  0  0
 24 25  1  0  0  0
 24 45  1  0  0  0
 24 46  1  0  0  0
 25 47  1  0  0  0
M  END
> <s_m_entry_id>
34406

> <s_m_entry_name>
dock_pv.149

> <s_m_Source_Path>
/home/csk/Desktop/cluster/DUD-E-result/tgfr1

> <s_m_Source_File>
dock_pv.maegz

> <i_m_Source_File_Index>
149

> <chembl_id>
CHEMBL4282287

> <chembl_pref_name>
None

> <i_lp_mmshare_version>
53161

> <r_lp_tautomer_probability>
1

> <s_lp_Force_Field>
OPLS_2005

> <r_lp_Energy>
39.275692

> <b_lp_Chiralities_Consistent>
1

> <s_lp_Variant>
CHEMBL4439_lig868-1

> <s_i_glide_gridfile>
glide-grid_3hmm

> <i_i_glide_lignum>
1202

> <i_i_glide_rotatable_bonds>
4

> <r_i_docking_score>
-8.68310495191009

> <r_i_glide_ligand_efficiency>
-0.347324198076404

> <r_i_glide_ligand_efficiency_sa>
-1.01558211499629

> <r_i_glide_ligand_efficiency_ln>
-2.05815608526031

> <r_i_glide_gscore>
-8.68310495191009

> <r_i_glide_lipo>
-4.30724227663489

> <r_i_glide_hbond>
-0.413602728149496

> <r_i_glide_metal>
0

> <r_i_glide_rewards>
-1.58125925473748

> <r_i_glide_evdw>
-45.2506446838379

> <r_i_glide_ecoul>
-4.16270780563354

> <r_i_glide_erotb>
0.505937712648705

> <r_i_glide_esite>
0

> <r_i_glide_emodel>
-70.2495135498204

> <r_i_glide_energy>
-49.4133524894714

> <r_i_glide_einternal>
3.24031615257263

> <i_i_glide_confnum>
7

> <i_i_glide_posenum>
356

> <r_i_glide_eff_state_penalty>
0

> <s_user_duplicate_titles>
CHEMBL4439_lig868

> <i_f3d_flags>
0

> <s_m_subgroup_title>
dock_pv

> <s_m_subgroupid>
dock_pv

> <b_m_subgroup_collapsed>
1

$$$$
CHEMBL4439_lig513
                    3D
 Schrodinger Suite 2021-1.
 47 50  0  0  1  0            999 V2000
   16.3633   67.0463    9.8458 C   0  0  0  0  0  0
   15.9894   66.8742    8.3809 C   0  0  0  0  0  0
   15.0639   66.0570    7.9448 N   0  0  0  0  0  0
   15.0360   66.1759    6.6226 C   0  0  0  0  0  0
   15.9822   67.1080    6.1835 C   0  0  0  0  0  0
   16.5628   67.5511    7.3439 N   0  0  0  0  0  0
   16.3748   67.6126    4.8424 C   0  0  0  0  0  0
   17.6892   68.0574    4.6374 C   0  0  0  0  0  0
   15.8028   68.1801    2.5332 C   0  0  0  0  0  0
   15.4482   67.6572    3.7830 C   0  0  0  0  0  0
   17.1152   68.6053    2.3671 C   0  0  0  0  0  0
   18.0232   68.5356    3.3824 C   0  0  0  0  0  0
   19.2271   68.9778    2.9563 O   0  0  0  0  0  0
   19.0402   69.3874    1.6318 C   0  0  0  0  0  0
   17.7147   69.1065    1.2588 O   0  0  0  0  0  0
   14.1220   65.3696    5.8121 C   0  0  0  0  0  0
   12.8378   65.2568    6.0618 N   0  0  0  0  0  0
   12.2312   64.4274    5.2297 C   0  0  0  0  0  0
   13.0467   63.8491    4.2616 C   0  0  0  0  0  0
   14.6606   64.4578    4.4320 S   0  0  0  0  0  0
   10.7484   64.2228    5.4226 C   0  0  0  0  0  0
   17.4485   68.1104   10.1290 C   0  0  0  0  0  0
   18.8734   67.6733    9.7326 C   0  0  0  0  0  0
   19.9011   68.8208    9.8614 C   0  0  0  0  0  0
   21.3368   68.4136    9.5010 C   0  0  0  0  0  0
   22.1421   69.3709    9.0439 N   0  0  0  0  0  0
   21.7352   67.2570    9.6335 O   0  0  0  0  0  0
   16.6885   66.0906   10.2584 H   0  0  0  0  0  0
   15.4684   67.3081   10.4111 H   0  0  0  0  0  0
   17.2927   68.2445    7.4206 H   0  0  0  0  0  0
   18.4306   68.0163    5.4210 H   0  0  0  0  0  0
   15.0817   68.2342    1.7315 H   0  0  0  0  0  0
   14.4320   67.3268    3.9346 H   0  0  0  0  0  0
   19.7229   68.8589    0.9640 H   0  0  0  0  0  0
   19.2044   70.4572    1.6320 H   0  0  0  0  0  0
   12.7814   63.1651    3.4701 H   0  0  0  0  0  0
   10.3495   63.4707    4.7403 H   0  0  0  0  0  0
   10.5108   63.8931    6.4339 H   0  0  0  0  0  0
   10.1927   65.1422    5.2323 H   0  0  0  0  0  0
   17.4444   68.3375   11.1953 H   0  0  0  0  0  0
   17.1827   69.0458    9.6335 H   0  0  0  0  0  0
   18.8832   67.2979    8.7080 H   0  0  0  0  0  0
   19.1706   66.8353   10.3658 H   0  0  0  0  0  0
   19.9143   69.1939   10.8863 H   0  0  0  0  0  0
   19.5971   69.6544    9.2263 H   0  0  0  0  0  0
   23.0871   69.1349    8.7810 H   0  0  0  0  0  0
   21.8222   70.3225    8.9509 H   0  0  0  0  0  0
  1 22  1  0  0  0
  1  2  1  0  0  0
  1 28  1  0  0  0
  1 29  1  0  0  0
  2  3  2  0  0  0
  2  6  1  0  0  0
  3  4  1  0  0  0
  4  5  2  0  0  0
  4 16  1  0  0  0
  5  7  1  0  0  0
  5  6  1  0  0  0
  6 30  1  0  0  0
  7  8  2  0  0  0
  7 10  1  0  0  0
  8 12  1  0  0  0
  8 31  1  0  0  0
  9 11  1  0  0  0
  9 10  2  0  0  0
  9 32  1  0  0  0
 10 33  1  0  0  0
 11 15  1  0  0  0
 11 12  2  0  0  0
 12 13  1  0  0  0
 13 14  1  0  0  0
 14 15  1  0  0  0
 14 34  1  0  0  0
 14 35  1  0  0  0
 16 17  2  0  0  0
 16 20  1  0  0  0
 17 18  1  0  0  0
 18 19  2  0  0  0
 18 21  1  0  0  0
 19 20  1  0  0  0
 19 36  1  0  0  0
 21 37  1  0  0  0
 21 38  1  0  0  0
 21 39  1  0  0  0
 22 23  1  0  0  0
 22 40  1  0  0  0
 22 41  1  0  0  0
 23 24  1  0  0  0
 23 42  1  0  0  0
 23 43  1  0  0  0
 24 25  1  0  0  0
 24 44  1  0  0  0
 24 45  1  0  0  0
 25 26  1  0  0  0
 25 27  2  0  0  0
 26 46  1  0  0  0
 26 47  1  0  0  0
M  END
> <s_m_entry_id>
34407

> <s_m_entry_name>
dock_pv.150

> <s_m_Source_Path>
/home/csk/Desktop/cluster/DUD-E-result/tgfr1

> <s_m_Source_File>
dock_pv.maegz

> <i_m_Source_File_Index>
150

> <chembl_id>
CHEMBL1957668

> <chembl_pref_name>
None

> <i_lp_mmshare_version>
53161

> <r_lp_tautomer_probability>
0.499999999999999

> <s_lp_Force_Field>
OPLS_2005

> <r_lp_Energy>
18.690902

> <b_lp_Chiralities_Consistent>
1

> <s_lp_Variant>
CHEMBL4439_lig513-1

> <s_i_glide_gridfile>
glide-grid_3hmm

> <i_i_glide_lignum>
680

> <i_i_glide_rotatable_bonds>
7

> <r_i_docking_score>
-8.67567050897751

> <r_i_glide_ligand_efficiency>
-0.32132112996213

> <r_i_glide_ligand_efficiency_sa>
-0.963963388827368

> <r_i_glide_ligand_efficiency_ln>
-2.01955306488325

> <r_i_glide_gscore>
-8.67567050897751

> <r_i_glide_lipo>
-3.69995037303136

> <r_i_glide_hbond>
-0.6648017392124

> <r_i_glide_metal>
0

> <r_i_glide_rewards>
-1.83596749911145

> <r_i_glide_evdw>
-46.2321815490723

> <r_i_glide_ecoul>
-6.35070466995239

> <r_i_glide_erotb>
0.789263880324171

> <r_i_glide_esite>
0

> <r_i_glide_emodel>
-79.1434441925926

> <r_i_glide_energy>
-52.5828862190247

> <r_i_glide_einternal>
6.57993030548096

> <i_i_glide_confnum>
30

> <i_i_glide_posenum>
156

> <r_i_glide_eff_state_penalty>
0

> <s_user_duplicate_titles>
CHEMBL4439_lig513,CHEMBL4439_lig513

> <i_f3d_flags>
0

> <s_m_subgroup_title>
dock_pv

> <s_m_subgroupid>
dock_pv

> <b_m_subgroup_collapsed>
1

$$$$
CHEMBL4439_lig801
                    3D
 Schrodinger Suite 2021-1.
 45 48  0  0  1  0            999 V2000
   19.6150   69.1815    7.7717 C   0  0  0  0  0  0
   20.7977   69.7656    8.2415 C   0  0  0  0  0  0
   21.8411   70.0619    7.3654 C   0  0  0  0  0  0
   21.8101   69.8136    6.0340 N   0  0  0  0  0  0
   18.6764   68.8509    8.7706 N   0  0  0  0  0  0
   17.5618   68.0025    8.9206 C   0  0  0  0  0  0
   17.3166   67.4682   10.2033 C   0  0  0  0  0  0
   16.2622   66.5660   10.3595 C   0  0  0  0  0  0
   15.4760   66.1578    9.3354 N   0  0  0  0  0  0
   15.6942   66.6890    8.1069 C   0  0  0  0  0  0
   16.6924   67.6373    7.8827 C   0  0  0  0  0  0
   14.8592   66.1409    7.0028 C   0  0  0  0  0  0
   15.4677   65.4956    5.9227 C   0  0  0  0  0  0
   14.6991   64.8968    4.9222 C   0  0  0  0  0  0
   13.3086   64.9544    4.9776 C   0  0  0  0  0  0
   12.6894   65.6168    6.0326 C   0  0  0  0  0  0
   13.4618   66.2120    7.0273 C   0  0  0  0  0  0
   12.8428   66.8565    8.0293 F   0  0  0  0  0  0
   19.5484   68.9465    6.3716 C   0  0  0  0  0  0
   20.6879   69.2677    5.5670 C   0  0  0  0  0  0
   20.3460   68.8620    4.2577 C   0  0  0  0  0  0
   19.0302   68.4628    4.3360 N   0  0  0  0  0  0
   18.5436   68.4570    5.5873 N   0  0  0  0  0  0
   15.4668   64.0563    3.6313 Cl  0  0  0  0  0  0
   18.1362   68.0190    3.2605 C   0  0  0  0  0  0
   17.9029   69.0290    2.1297 C   0  0  0  0  0  0
   18.9631   69.6568    1.6322 N   0  0  0  0  0  0
   16.7837   69.2109    1.6629 O   0  0  0  0  0  0
   18.1761   67.8077   11.4165 C   0  0  0  0  0  0
   20.9268   69.9813    9.2926 H   0  0  0  0  0  0
   22.7552   70.5082    7.7314 H   0  0  0  0  0  0
   18.9971   69.1650    9.6738 H   0  0  0  0  0  0
   16.0274   66.1424   11.3262 H   0  0  0  0  0  0
   16.7295   68.0793    6.9127 H   0  0  0  0  0  0
   16.5453   65.4325    5.8836 H   0  0  0  0  0  0
   12.7147   64.4959    4.1993 H   0  0  0  0  0  0
   11.6106   65.6741    6.0788 H   0  0  0  0  0  0
   20.8913   68.8635    3.3292 H   0  0  0  0  0  0
   17.1653   67.7425    3.6811 H   0  0  0  0  0  0
   18.5535   67.1138    2.8361 H   0  0  0  0  0  0
   18.8634   70.3567    0.9020 H   0  0  0  0  0  0
   19.8833   69.4864    2.0004 H   0  0  0  0  0  0
   17.8526   67.2757   12.3140 H   0  0  0  0  0  0
   19.2198   67.5424   11.2303 H   0  0  0  0  0  0
   18.1362   68.8783   11.6206 H   0  0  0  0  0  0
  1 19  1  0  0  0
  1  2  2  0  0  0
  1  5  1  0  0  0
  2  3  1  0  0  0
  2 30  1  0  0  0
  3  4  2  0  0  0
  3 31  1  0  0  0
  4 20  1  0  0  0
  5  6  1  0  0  0
  5 32  1  0  0  0
  6  7  2  0  0  0
  6 11  1  0  0  0
  7  8  1  0  0  0
  7 29  1  0  0  0
  8  9  2  0  0  0
  8 33  1  0  0  0
  9 10  1  0  0  0
 10 11  2  0  0  0
 10 12  1  0  0  0
 11 34  1  0  0  0
 12 13  2  0  0  0
 12 17  1  0  0  0
 13 14  1  0  0  0
 13 35  1  0  0  0
 14 15  2  0  0  0
 14 24  1  0  0  0
 15 16  1  0  0  0
 15 36  1  0  0  0
 16 17  2  0  0  0
 16 37  1  0  0  0
 17 18  1  0  0  0
 19 20  1  0  0  0
 19 23  2  0  0  0
 20 21  2  0  0  0
 21 22  1  0  0  0
 21 38  1  0  0  0
 22 23  1  0  0  0
 22 25  1  0  0  0
 25 26  1  0  0  0
 25 39  1  0  0  0
 25 40  1  0  0  0
 26 27  1  0  0  0
 26 28  2  0  0  0
 27 41  1  0  0  0
 27 42  1  0  0  0
 29 43  1  0  0  0
 29 44  1  0  0  0
 29 45  1  0  0  0
M  END
> <s_m_entry_id>
34408

> <s_m_entry_name>
dock_pv.151

> <s_m_Source_Path>
/home/csk/Desktop/cluster/DUD-E-result/tgfr1

> <s_m_Source_File>
dock_pv.maegz

> <i_m_Source_File_Index>
151

> <chembl_id>
CHEMBL4069101

> <chembl_pref_name>
None

> <i_lp_mmshare_version>
53161

> <r_lp_tautomer_probability>
0.999999106000799

> <s_lp_Force_Field>
OPLS_2005

> <r_lp_Energy>
32.280479

> <b_lp_Chiralities_Consistent>
1

> <s_lp_Variant>
CHEMBL4439_lig801-1

> <s_i_glide_gridfile>
glide-grid_3hmm

> <i_i_glide_lignum>
1117

> <i_i_glide_rotatable_bonds>
5

> <r_i_docking_score>
-8.66668610993896

> <r_i_glide_ligand_efficiency>
-0.298851245170309

> <r_i_glide_ligand_efficiency_sa>
-0.918165707883329

> <r_i_glide_ligand_efficiency_ln>
-1.98445135097839

> <r_i_glide_gscore>
-8.66668610993896

> <r_i_glide_lipo>
-3.30556388880834

> <r_i_glide_hbond>
-0.510745914793222

> <r_i_glide_metal>
0

> <r_i_glide_rewards>
-1.76318371498747

> <r_i_glide_evdw>
-49.6456489562988

> <r_i_glide_ecoul>
-6.95865631103516

> <r_i_glide_erotb>
0.466964867414809

> <r_i_glide_esite>
-0.0280765642945274

> <r_i_glide_emodel>
-76.1633734373251

> <r_i_glide_energy>
-56.604305267334

> <r_i_glide_einternal>
19.1922035217285

> <i_i_glide_confnum>
24

> <i_i_glide_posenum>
182

> <r_i_glide_eff_state_penalty>
0

> <s_user_duplicate_titles>
CHEMBL4439_lig801

> <i_f3d_flags>
0

> <s_m_subgroup_title>
dock_pv

> <s_m_subgroupid>
dock_pv

> <b_m_subgroup_collapsed>
1

$$$$
CHEMBL4439_lig593
                    3D
 Schrodinger Suite 2021-1.
 33 36  0  0  1  0            999 V2000
   12.2660   65.6570    6.4320 S   0  0  0  0  0  0
   13.9530   65.5276    6.0566 C   0  0  0  0  0  0
   14.2226   64.7415    5.0410 N   0  0  0  0  0  0
   13.1340   64.1895    4.5295 C   0  0  0  0  0  0
   11.9389   64.5465    5.1441 C   0  0  0  0  0  0
   13.3205   63.2570    3.3581 C   0  0  0  0  0  0
   14.9624   66.2265    6.8414 C   0  0  0  0  0  0
   15.9673   67.1000    6.4162 C   0  0  0  0  0  0
   16.6052   67.4555    7.5770 N   0  0  0  0  0  0
   16.0129   66.7707    8.5917 C   0  0  0  0  0  0
   15.0130   66.0570    8.1522 N   0  0  0  0  0  0
   16.3801   67.6151    5.0902 C   0  0  0  0  0  0
   15.4987   67.6071    4.0050 C   0  0  0  0  0  0
   15.8902   68.0576    2.7478 C   0  0  0  0  0  0
   17.6800   68.1055    4.9504 C   0  0  0  0  0  0
   18.0755   68.5637    3.6999 C   0  0  0  0  0  0
   17.2019   68.5178    2.5849 C   0  0  0  0  0  0
   17.7491   68.9368    1.4154 N   0  0  0  0  0  0
   18.9861   69.2982    1.6005 C   0  0  0  0  0  0
   19.6051   69.2570    3.2320 S   0  0  0  0  0  0
   16.4876   66.8495   10.0219 C   0  0  0  0  0  0
   16.2670   68.0570   10.5305 F   0  0  0  0  0  0
   15.8670   65.9575   10.7966 F   0  0  0  0  0  0
   17.7974   66.6160   10.0838 F   0  0  0  0  0  0
   10.9320   64.2370    4.9064 H   0  0  0  0  0  0
   12.3679   62.9239    2.9449 H   0  0  0  0  0  0
   13.8670   63.7257    2.5390 H   0  0  0  0  0  0
   13.8670   62.3661    3.6476 H   0  0  0  0  0  0
   17.3927   68.0821    7.6612 H   0  0  0  0  0  0
   14.4861   67.2562    4.1284 H   0  0  0  0  0  0
   15.1993   68.0563    1.9168 H   0  0  0  0  0  0
   18.3790   68.1252    5.7733 H   0  0  0  0  0  0
   19.6128   69.6570    0.7963 H   0  0  0  0  0  0
  1  2  1  0  0  0
  1  5  1  0  0  0
  2  3  2  0  0  0
  2  7  1  0  0  0
  3  4  1  0  0  0
  4  5  2  0  0  0
  4  6  1  0  0  0
  5 25  1  0  0  0
  6 26  1  0  0  0
  6 27  1  0  0  0
  6 28  1  0  0  0
  7  8  2  0  0  0
  7 11  1  0  0  0
  8  9  1  0  0  0
  8 12  1  0  0  0
  9 10  1  0  0  0
  9 29  1  0  0  0
 10 11  2  0  0  0
 10 21  1  0  0  0
 12 13  2  0  0  0
 12 15  1  0  0  0
 13 14  1  0  0  0
 13 30  1  0  0  0
 14 17  2  0  0  0
 14 31  1  0  0  0
 15 16  2  0  0  0
 15 32  1  0  0  0
 16 17  1  0  0  0
 16 20  1  0  0  0
 17 18  1  0  0  0
 18 19  2  0  0  0
 19 20  1  0  0  0
 19 33  1  0  0  0
 21 22  1  0  0  0
 21 23  1  0  0  0
 21 24  1  0  0  0
M  END
> <s_m_entry_id>
34409

> <s_m_entry_name>
dock_pv.152

> <s_m_Source_Path>
/home/csk/Desktop/cluster/DUD-E-result/tgfr1

> <s_m_Source_File>
dock_pv.maegz

> <i_m_Source_File_Index>
152

> <chembl_id>
CHEMBL2207996

> <chembl_pref_name>
None

> <i_lp_mmshare_version>
53161

> <r_lp_tautomer_probability>
0.499999999999999

> <s_lp_Force_Field>
OPLS_2005

> <r_lp_Energy>
9.853852

> <b_lp_Chiralities_Consistent>
1

> <s_lp_Variant>
CHEMBL4439_lig593-1

> <s_i_glide_gridfile>
glide-grid_3hmm

> <i_i_glide_lignum>
799

> <i_i_glide_rotatable_bonds>
3

> <r_i_docking_score>
-8.65306461269148

> <r_i_glide_ligand_efficiency>
-0.360544358862145

> <r_i_glide_ligand_efficiency_sa>
-1.03998989218966

> <r_i_glide_ligand_efficiency_ln>
-2.07107542507916

> <r_i_glide_gscore>
-8.65306461269148

> <r_i_glide_lipo>
-3.57736571683579

> <r_i_glide_hbond>
-0.200945482456364

> <r_i_glide_metal>
0

> <r_i_glide_rewards>
-2.54219572154677

> <r_i_glide_evdw>
-42.6299133300781

> <r_i_glide_ecoul>
-2.88661742210388

> <r_i_glide_erotb>
0.286755508878312

> <r_i_glide_esite>
-0.0548249209113893

> <r_i_glide_emodel>
-67.8426671326377

> <r_i_glide_energy>
-45.516530752182

> <r_i_glide_einternal>
2.87688565254211

> <i_i_glide_confnum>
6

> <i_i_glide_posenum>
123

> <r_i_glide_eff_state_penalty>
0

> <s_user_duplicate_titles>
CHEMBL4439_lig593,CHEMBL4439_lig593

> <i_f3d_flags>
0

> <s_m_subgroup_title>
dock_pv

> <s_m_subgroupid>
dock_pv

> <b_m_subgroup_collapsed>
1

$$$$
CHEMBL4439_lig983
                    3D
 Schrodinger Suite 2021-1.
 45 48  0  0  1  0            999 V2000
   17.5919   68.1115    5.1056 C   0  0  0  0  0  0
   16.5248   67.5131    4.5147 C   0  0  0  0  0  0
   16.5663   67.7856    3.1603 N   0  0  0  0  0  0
   17.7021   68.5261    2.9284 N   0  0  0  0  0  0
   18.4066   68.7250    4.0559 C   0  0  0  0  0  0
   19.4983   69.2903    4.1395 O   0  0  0  0  0  0
   18.1565   68.8665    1.5742 C   0  0  0  0  0  0
   15.3800   68.3301    2.4841 C   0  0  0  0  0  0
   15.3768   66.7535    5.0720 C   0  0  0  0  0  0
   14.6235   67.2152    6.1563 C   0  0  0  0  0  0
   13.4957   66.5213    6.5980 C   0  0  0  0  0  0
   15.0044   65.5635    4.4405 C   0  0  0  0  0  0
   13.8246   64.8872    4.8036 C   0  0  0  0  0  0
   13.0471   65.3862    5.8904 C   0  0  0  0  0  0
   11.8660   64.8000    6.2280 N   0  0  0  0  0  0
   11.4591   63.7435    5.4792 C   0  0  0  0  0  0
   12.2244   63.2578    4.4209 C   0  0  0  0  0  0
   13.4200   63.8018    4.0845 N   0  0  0  0  0  0
   17.9509   68.1573    6.5663 C   0  0  0  0  0  0
   17.3990   67.2572    7.4912 C   0  0  0  0  0  0
   17.5709   67.3999    8.8746 C   0  0  0  0  0  0
   18.4298   68.4011    9.3395 C   0  0  0  0  0  0
   19.0546   69.2587    8.4406 C   0  0  0  0  0  0
   18.7974   69.1544    7.0792 C   0  0  0  0  0  0
   16.8390   66.4929    9.8109 C   0  0  0  0  0  0
   16.2672   65.4625    9.4579 O   0  0  0  0  0  0
   16.6956   66.9326   11.2673 C   0  0  0  0  0  0
   19.2322   69.0438    1.5205 H   0  0  0  0  0  0
   17.9130   68.0639    0.8773 H   0  0  0  0  0  0
   17.6644   69.7759    1.2315 H   0  0  0  0  0  0
   14.5337   68.4326    3.1644 H   0  0  0  0  0  0
   15.5489   69.3029    2.0291 H   0  0  0  0  0  0
   15.0662   67.6587    1.6886 H   0  0  0  0  0  0
   14.9053   68.1355    6.6502 H   0  0  0  0  0  0
   12.9121   66.8845    7.4309 H   0  0  0  0  0  0
   15.5943   65.1681    3.6317 H   0  0  0  0  0  0
   10.5076   63.3023    5.7376 H   0  0  0  0  0  0
   11.8821   62.4383    3.8093 H   0  0  0  0  0  0
   16.8050   66.4314    7.1366 H   0  0  0  0  0  0
   18.6195   68.5422   10.3937 H   0  0  0  0  0  0
   19.7066   70.0398    8.8098 H   0  0  0  0  0  0
   19.2521   69.8928    6.4381 H   0  0  0  0  0  0
   17.6524   66.8633   11.7831 H   0  0  0  0  0  0
   15.9590   66.3218   11.7891 H   0  0  0  0  0  0
   16.3599   67.9682   11.3128 H   0  0  0  0  0  0
  1  5  1  0  0  0
  1  2  2  0  0  0
  1 19  1  0  0  0
  2  3  1  0  0  0
  2  9  1  0  0  0
  3  8  1  0  0  0
  3  4  1  0  0  0
  4  7  1  0  0  0
  4  5  1  0  0  0
  5  6  2  0  0  0
  7 28  1  0  0  0
  7 29  1  0  0  0
  7 30  1  0  0  0
  8 31  1  0  0  0
  8 32  1  0  0  0
  8 33  1  0  0  0
  9 10  2  0  0  0
  9 12  1  0  0  0
 10 11  1  0  0  0
 10 34  1  0  0  0
 11 14  2  0  0  0
 11 35  1  0  0  0
 12 13  2  0  0  0
 12 36  1  0  0  0
 13 14  1  0  0  0
 13 18  1  0  0  0
 14 15  1  0  0  0
 15 16  2  0  0  0
 16 17  1  0  0  0
 16 37  1  0  0  0
 17 18  2  0  0  0
 17 38  1  0  0  0
 19 20  2  0  0  0
 19 24  1  0  0  0
 20 21  1  0  0  0
 20 39  1  0  0  0
 21 22  2  0  0  0
 21 25  1  0  0  0
 22 23  1  0  0  0
 22 40  1  0  0  0
 23 24  2  0  0  0
 23 41  1  0  0  0
 24 42  1  0  0  0
 25 26  2  0  0  0
 25 27  1  0  0  0
 27 43  1  0  0  0
 27 44  1  0  0  0
 27 45  1  0  0  0
M  END
> <s_m_entry_id>
34410

> <s_m_entry_name>
dock_pv.153

> <s_m_Source_Path>
/home/csk/Desktop/cluster/DUD-E-result/tgfr1

> <s_m_Source_File>
dock_pv.maegz

> <i_m_Source_File_Index>
153

> <chembl_id>
CHEMBL603433

> <chembl_pref_name>
None

> <i_lp_mmshare_version>
53161

> <r_lp_tautomer_probability>
0.99995

> <s_lp_Force_Field>
OPLS_2005

> <r_lp_Energy>
49.540042

> <b_lp_Chiralities_Consistent>
1

> <s_lp_Variant>
CHEMBL4439_lig983-1

> <s_i_glide_gridfile>
glide-grid_3hmm

> <i_i_glide_lignum>
1342

> <i_i_glide_rotatable_bonds>
3

> <r_i_docking_score>
-8.65302501058632

> <r_i_glide_ligand_efficiency>
-0.320482407799493

> <r_i_glide_ligand_efficiency_sa>
-0.961447222342222

> <r_i_glide_ligand_efficiency_ln>
-2.014281566198

> <r_i_glide_gscore>
-8.65302501058632

> <r_i_glide_lipo>
-3.99708939856752

> <r_i_glide_hbond>
-0.0185750887300776

> <r_i_glide_metal>
0

> <r_i_glide_rewards>
-2.28113341982735

> <r_i_glide_evdw>
-51.6885795593262

> <r_i_glide_ecoul>
-0.46706834435463

> <r_i_glide_erotb>
0.298262126158136

> <r_i_glide_esite>
0

> <r_i_glide_emodel>
-73.4090750246719

> <r_i_glide_energy>
-52.1556479036808

> <r_i_glide_einternal>
5.24345731735229

> <i_i_glide_confnum>
4

> <i_i_glide_posenum>
55

> <r_i_glide_eff_state_penalty>
0

> <s_user_duplicate_titles>
CHEMBL4439_lig983,593922

> <i_f3d_flags>
0

> <s_m_subgroup_title>
dock_pv

> <s_m_subgroupid>
dock_pv

> <b_m_subgroup_collapsed>
1

$$$$
CHEMBL4439_lig531
                    3D
 Schrodinger Suite 2021-1.
 47 51  0  0  1  0            999 V2000
   12.0384   65.7017    6.6186 C   0  0  0  0  0  0
   12.2092   64.8487    5.5269 C   0  0  0  0  0  0
   13.5035   64.6392    5.0417 C   0  0  0  0  0  0
   14.5988   65.2059    5.6154 N   0  0  0  0  0  0
   14.4050   66.0668    6.6533 C   0  0  0  0  0  0
   13.1399   66.3489    7.1743 C   0  0  0  0  0  0
   15.6113   66.7291    7.2123 C   0  0  0  0  0  0
   18.0984   68.3993    4.7707 C   0  0  0  0  0  0
   16.8746   67.8470    5.1807 C   0  0  0  0  0  0
   15.8664   67.7014    4.2118 C   0  0  0  0  0  0
   16.0511   68.0578    2.8710 C   0  0  0  0  0  0
   18.2746   68.7333    3.4590 N   0  0  0  0  0  0
   17.2976   68.5619    2.4800 C   0  0  0  0  0  0
   17.8072   68.9493    1.2871 N   0  0  0  0  0  0
   19.0298   69.3102    1.6302 C   0  0  0  0  0  0
   19.3787   69.2570    2.9010 N   0  0  0  0  0  0
   16.6747   67.4553    6.6305 C   0  0  0  0  0  0
   15.8667   66.6088    8.9366 S   0  0  0  0  0  0
   17.3586   67.4325    8.7375 C   0  0  0  0  0  0
   17.5982   67.8177    7.5132 N   0  0  0  0  0  0
   13.7536   63.8005    3.7984 C   0  0  0  0  0  0
   18.1712   67.5857    9.8325 N   0  0  0  0  0  0
   19.6184   67.3958    9.8904 C   0  0  0  0  0  0
   20.4201   68.4019    9.0762 C   0  0  0  0  0  0
   20.9369   69.5457    9.6970 C   0  0  0  0  0  0
   21.7419   70.4343    8.9827 C   0  0  0  0  0  0
   22.0265   70.1865    7.6397 C   0  0  0  0  0  0
   21.4994   69.0616    7.0102 C   0  0  0  0  0  0
   20.7117   68.1645    7.7268 C   0  0  0  0  0  0
   20.2667   67.0462    7.1099 F   0  0  0  0  0  0
   11.0569   65.8887    7.0183 H   0  0  0  0  0  0
   11.3550   64.3794    5.0607 H   0  0  0  0  0  0
   13.0158   67.0354    7.9988 H   0  0  0  0  0  0
   18.9409   68.5688    5.4240 H   0  0  0  0  0  0
   14.8833   67.3607    4.4861 H   0  0  0  0  0  0
   15.2542   67.9480    2.1499 H   0  0  0  0  0  0
   19.7316   69.6513    0.8814 H   0  0  0  0  0  0
   12.8203   63.5671    3.2830 H   0  0  0  0  0  0
   14.3827   64.3458    3.0931 H   0  0  0  0  0  0
   14.2491   62.8597    4.0335 H   0  0  0  0  0  0
   17.7577   67.4105   10.7370 H   0  0  0  0  0  0
   19.8564   66.3809    9.5690 H   0  0  0  0  0  0
   19.9206   67.4573   10.9357 H   0  0  0  0  0  0
   20.7207   69.7455   10.7370 H   0  0  0  0  0  0
   22.1440   71.3178    9.4629 H   0  0  0  0  0  0
   22.6665   70.8574    7.0863 H   0  0  0  0  0  0
   21.7247   68.8623    5.9715 H   0  0  0  0  0  0
  1  6  1  0  0  0
  1  2  2  0  0  0
  1 31  1  0  0  0
  2  3  1  0  0  0
  2 32  1  0  0  0
  3 21  1  0  0  0
  3  4  2  0  0  0
  4  5  1  0  0  0
  5  6  2  0  0  0
  5  7  1  0  0  0
  6 33  1  0  0  0
  7 17  2  0  0  0
  7 18  1  0  0  0
  8 12  1  0  0  0
  8  9  2  0  0  0
  8 34  1  0  0  0
  9 17  1  0  0  0
  9 10  1  0  0  0
 10 11  2  0  0  0
 10 35  1  0  0  0
 11 13  1  0  0  0
 11 36  1  0  0  0
 12 16  1  0  0  0
 12 13  1  0  0  0
 13 14  2  0  0  0
 14 15  1  0  0  0
 15 16  2  0  0  0
 15 37  1  0  0  0
 17 20  1  0  0  0
 18 19  1  0  0  0
 19 20  2  0  0  0
 19 22  1  0  0  0
 21 38  1  0  0  0
 21 39  1  0  0  0
 21 40  1  0  0  0
 22 23  1  0  0  0
 22 41  1  0  0  0
 23 24  1  0  0  0
 23 42  1  0  0  0
 23 43  1  0  0  0
 24 25  2  0  0  0
 24 29  1  0  0  0
 25 26  1  0  0  0
 25 44  1  0  0  0
 26 27  2  0  0  0
 26 45  1  0  0  0
 27 28  1  0  0  0
 27 46  1  0  0  0
 28 29  2  0  0  0
 28 47  1  0  0  0
 29 30  1  0  0  0
M  END
> <s_m_entry_id>
34411

> <s_m_entry_name>
dock_pv.154

> <s_m_Source_Path>
/home/csk/Desktop/cluster/DUD-E-result/tgfr1

> <s_m_Source_File>
dock_pv.maegz

> <i_m_Source_File_Index>
154

> <chembl_id>
CHEMBL2088224

> <chembl_pref_name>
None

> <i_lp_mmshare_version>
53161

> <r_lp_tautomer_probability>
1

> <s_lp_Force_Field>
OPLS_2005

> <r_lp_Energy>
17.465934

> <b_lp_Chiralities_Consistent>
1

> <s_lp_Variant>
CHEMBL4439_lig531-1

> <s_i_glide_gridfile>
glide-grid_3hmm

> <i_i_glide_lignum>
710

> <i_i_glide_rotatable_bonds>
5

> <r_i_docking_score>
-8.65201478807444

> <r_i_glide_ligand_efficiency>
-0.288400492935815

> <r_i_glide_ligand_efficiency_sa>
-0.896127385367311

> <r_i_glide_ligand_efficiency_ln>
-1.96583203110216

> <r_i_glide_gscore>
-8.65201478807444

> <r_i_glide_lipo>
-3.47690909146974

> <r_i_glide_hbond>
-0.126351109148952

> <r_i_glide_metal>
0

> <r_i_glide_rewards>
-2.15091939469311

> <r_i_glide_evdw>
-53.6870193481445

> <r_i_glide_ecoul>
-5.21993112564087

> <r_i_glide_erotb>
0.569505443490713

> <r_i_glide_esite>
0

> <r_i_glide_emodel>
-84.0027454377391

> <r_i_glide_energy>
-58.9069504737854

> <r_i_glide_einternal>
7.61498355865479

> <i_i_glide_confnum>
76

> <i_i_glide_posenum>
126

> <r_i_glide_eff_state_penalty>
0

> <s_user_duplicate_titles>
CHEMBL4439_lig531

> <i_f3d_flags>
0

> <s_m_subgroup_title>
dock_pv

> <s_m_subgroupid>
dock_pv

> <b_m_subgroup_collapsed>
1

$$$$
CHEMBL4439_lig202
                    3D
 Schrodinger Suite 2021-1.
 45 48  0  0  1  0            999 V2000
   14.9992   66.4105    6.8216 C   0  0  0  0  0  0
   16.0444   67.2896    6.4478 C   0  0  0  0  0  0
   16.4791   67.8290    7.6531 N   0  0  0  0  0  0
   15.6592   67.2794    8.6043 C   0  0  0  0  0  0
   14.7754   66.4578    8.1231 N   0  0  0  0  0  0
   17.4632   68.8780    7.9300 C   0  0  0  0  0  0
   18.6223   68.4672    8.8256 C   0  0  0  0  0  0
   18.4488   68.4202   10.2099 C   0  0  0  0  0  0
   19.5286   68.1380   11.0485 C   0  0  0  0  0  0
   20.7969   67.9265   10.4996 C   0  0  0  0  0  0
   20.9705   67.9577    9.1179 C   0  0  0  0  0  0
   19.8840   68.2113    8.2817 C   0  0  0  0  0  0
   14.1255   65.5292    5.9756 C   0  0  0  0  0  0
   12.7686   65.3547    6.2854 C   0  0  0  0  0  0
   11.9688   64.5237    5.5043 C   0  0  0  0  0  0
   12.5229   63.8601    4.4141 C   0  0  0  0  0  0
   13.8661   64.0290    4.0922 C   0  0  0  0  0  0
   14.6649   64.8563    4.8753 C   0  0  0  0  0  0
   16.5521   67.6569    5.0793 C   0  0  0  0  0  0
   15.6804   67.6569    3.9840 C   0  0  0  0  0  0
   16.1798   68.0983    2.7636 C   0  0  0  0  0  0
   17.4631   68.5036    2.5991 N   0  0  0  0  0  0
   18.2461   68.4616    3.7044 C   0  0  0  0  0  0
   17.8488   68.0573    4.9468 N   0  0  0  0  0  0
   11.7482   63.0527    3.6559 F   0  0  0  0  0  0
   19.3283   68.0909   12.4869 C   0  0  0  0  0  0
   19.1647   68.0567   13.6323 N   0  0  0  0  0  0
   19.5385   68.8990    3.4949 O   0  0  0  0  0  0
   20.4870   68.8563    4.5554 C   0  0  0  0  0  0
   15.7506   67.5708    9.6380 H   0  0  0  0  0  0
   17.8663   69.2900    7.0129 H   0  0  0  0  0  0
   16.9322   69.7106    8.3930 H   0  0  0  0  0  0
   17.4797   68.6364   10.6354 H   0  0  0  0  0  0
   21.6465   67.7189   11.1344 H   0  0  0  0  0  0
   21.9502   67.7934    8.6955 H   0  0  0  0  0  0
   20.0347   68.2427    7.2147 H   0  0  0  0  0  0
   12.3219   65.8666    7.1258 H   0  0  0  0  0  0
   10.9250   64.3905    5.7452 H   0  0  0  0  0  0
   14.2818   63.5089    3.2418 H   0  0  0  0  0  0
   15.7105   64.9668    4.6256 H   0  0  0  0  0  0
   14.6417   67.3890    4.0804 H   0  0  0  0  0  0
   15.5418   68.1536    1.8930 H   0  0  0  0  0  0
   21.4575   69.1853    4.1842 H   0  0  0  0  0  0
   20.2005   69.5265    5.3649 H   0  0  0  0  0  0
   20.6127   67.8443    4.9422 H   0  0  0  0  0  0
  1 13  1  0  0  0
  1  5  1  0  0  0
  1  2  2  0  0  0
  2  3  1  0  0  0
  2 19  1  0  0  0
  3  4  1  0  0  0
  3  6  1  0  0  0
  4  5  2  0  0  0
  4 30  1  0  0  0
  6  7  1  0  0  0
  6 31  1  0  0  0
  6 32  1  0  0  0
  7  8  2  0  0  0
  7 12  1  0  0  0
  8  9  1  0  0  0
  8 33  1  0  0  0
  9 10  2  0  0  0
  9 26  1  0  0  0
 10 11  1  0  0  0
 10 34  1  0  0  0
 11 12  2  0  0  0
 11 35  1  0  0  0
 12 36  1  0  0  0
 13 18  1  0  0  0
 13 14  2  0  0  0
 14 15  1  0  0  0
 14 37  1  0  0  0
 15 16  2  0  0  0
 15 38  1  0  0  0
 16 17  1  0  0  0
 16 25  1  0  0  0
 17 18  2  0  0  0
 17 39  1  0  0  0
 18 40  1  0  0  0
 19 20  2  0  0  0
 19 24  1  0  0  0
 20 21  1  0  0  0
 20 41  1  0  0  0
 21 22  2  0  0  0
 21 42  1  0  0  0
 22 23  1  0  0  0
 23 24  2  0  0  0
 23 28  1  0  0  0
 26 27  3  0  0  0
 28 29  1  0  0  0
 29 43  1  0  0  0
 29 44  1  0  0  0
 29 45  1  0  0  0
M  END
> <s_m_entry_id>
34412

> <s_m_entry_name>
dock_pv.155

> <s_m_Source_Path>
/home/csk/Desktop/cluster/DUD-E-result/tgfr1

> <s_m_Source_File>
dock_pv.maegz

> <i_m_Source_File_Index>
155

> <chembl_id>
CHEMBL481338

> <chembl_pref_name>
None

> <i_lp_mmshare_version>
53161

> <r_lp_tautomer_probability>
1

> <s_lp_Force_Field>
OPLS_2005

> <r_lp_Energy>
18.990699

> <b_lp_Chiralities_Consistent>
1

> <s_lp_Variant>
CHEMBL4439_lig202-1

> <s_i_glide_gridfile>
glide-grid_3hmm

> <i_i_glide_lignum>
303

> <i_i_glide_rotatable_bonds>
5

> <r_i_docking_score>
-8.64945224915863

> <r_i_glide_ligand_efficiency>
-0.298256974108918

> <r_i_glide_ligand_efficiency_sa>
-0.916339918904449

> <r_i_glide_ligand_efficiency_ln>
-1.9805052338727

> <r_i_glide_gscore>
-8.64945224915863

> <r_i_glide_lipo>
-3.51629960304695

> <r_i_glide_hbond>
-0.116301928166673

> <r_i_glide_metal>
0

> <r_i_glide_rewards>
-2.54439191134391

> <r_i_glide_evdw>
-49.9363441467285

> <r_i_glide_ecoul>
-3.10429906845093

> <r_i_glide_erotb>
0.523874479693801

> <r_i_glide_esite>
-0.0338712186908407

> <r_i_glide_emodel>
-78.5781926569768

> <r_i_glide_energy>
-53.0406432151794

> <r_i_glide_einternal>
5.67019844055176

> <i_i_glide_confnum>
5

> <i_i_glide_posenum>
41

> <r_i_glide_eff_state_penalty>
0

> <s_user_duplicate_titles>
CHEMBL4439_lig202

> <i_f3d_flags>
0

> <s_m_subgroup_title>
dock_pv

> <s_m_subgroupid>
dock_pv

> <b_m_subgroup_collapsed>
1

$$$$
CHEMBL4439_lig231
                    3D
 Schrodinger Suite 2021-1.
 36 38  0  0  1  0            999 V2000
   17.2243   67.7497    7.6192 C   0  0  0  0  0  0
   16.2894   67.1363    8.4608 C   0  0  0  0  0  0
   15.2019   66.4695    7.9877 N   0  0  0  0  0  0
   15.0852   66.4073    6.6325 C   0  0  0  0  0  0
   15.9399   66.9790    5.7465 N   0  0  0  0  0  0
   17.0014   67.6603    6.2424 C   0  0  0  0  0  0
   13.9514   65.6291    6.0622 C   0  0  0  0  0  0
   12.6628   65.6563    6.6124 C   0  0  0  0  0  0
   11.6664   64.8662    6.0315 C   0  0  0  0  0  0
   11.9661   64.0641    4.9309 C   0  0  0  0  0  0
   13.2689   64.0918    4.4323 C   0  0  0  0  0  0
   14.2456   64.8573    4.9772 N   0  0  0  0  0  0
   13.6800   63.2734    3.2294 C   0  0  0  0  0  0
   17.9037   68.2774    5.3630 N   0  0  0  0  0  0
   17.8485   68.5607    3.9863 C   0  0  0  0  0  0
   19.0143   69.0295    3.3763 C   0  0  0  0  0  0
   18.9848   69.3617    2.0214 C   0  0  0  0  0  0
   17.8668   69.2679    1.2615 N   0  0  0  0  0  0
   16.7305   68.8516    1.8672 C   0  0  0  0  0  0
   16.6855   68.4575    3.2058 C   0  0  0  0  0  0
   16.4511   67.1713    9.9696 C   0  0  0  0  0  0
   18.0763   68.2786    8.0196 H   0  0  0  0  0  0
   12.4349   66.2710    7.4690 H   0  0  0  0  0  0
   10.6673   64.8680    6.4324 H   0  0  0  0  0  0
   11.2057   63.4474    4.4733 H   0  0  0  0  0  0
   12.9868   62.4587    3.0304 H   0  0  0  0  0  0
   14.6699   62.8568    3.3912 H   0  0  0  0  0  0
   13.7436   63.9069    2.3474 H   0  0  0  0  0  0
   18.7386   68.6151    5.8148 H   0  0  0  0  0  0
   19.9334   69.1350    3.9362 H   0  0  0  0  0  0
   19.8679   69.7289    1.5181 H   0  0  0  0  0  0
   15.8411   68.8088    1.2512 H   0  0  0  0  0  0
   15.7440   68.1372    3.6153 H   0  0  0  0  0  0
   17.4952   67.3240   10.2496 H   0  0  0  0  0  0
   15.8648   67.9878   10.3955 H   0  0  0  0  0  0
   16.1230   66.2343   10.4279 H   0  0  0  0  0  0
  1  6  1  0  0  0
  1  2  2  0  0  0
  1 22  1  0  0  0
  2  3  1  0  0  0
  2 21  1  0  0  0
  3  4  2  0  0  0
  4  7  1  0  0  0
  4  5  1  0  0  0
  5  6  2  0  0  0
  6 14  1  0  0  0
  7 12  1  0  0  0
  7  8  2  0  0  0
  8  9  1  0  0  0
  8 23  1  0  0  0
  9 10  2  0  0  0
  9 24  1  0  0  0
 10 11  1  0  0  0
 10 25  1  0  0  0
 11 12  2  0  0  0
 11 13  1  0  0  0
 13 26  1  0  0  0
 13 27  1  0  0  0
 13 28  1  0  0  0
 14 15  1  0  0  0
 14 29  1  0  0  0
 15 16  2  0  0  0
 15 20  1  0  0  0
 16 17  1  0  0  0
 16 30  1  0  0  0
 17 18  2  0  0  0
 17 31  1  0  0  0
 18 19  1  0  0  0
 19 20  2  0  0  0
 19 32  1  0  0  0
 20 33  1  0  0  0
 21 34  1  0  0  0
 21 35  1  0  0  0
 21 36  1  0  0  0
M  END
> <s_m_entry_id>
34413

> <s_m_entry_name>
dock_pv.156

> <s_m_Source_Path>
/home/csk/Desktop/cluster/DUD-E-result/tgfr1

> <s_m_Source_File>
dock_pv.maegz

> <i_m_Source_File_Index>
156

> <chembl_id>
CHEMBL552232

> <chembl_pref_name>
None

> <i_lp_mmshare_version>
53161

> <r_lp_tautomer_probability>
0.999998689201718

> <s_lp_Force_Field>
OPLS_2005

> <r_lp_Energy>
12.767464

> <b_lp_Chiralities_Consistent>
1

> <s_lp_Variant>
CHEMBL4439_lig231-1

> <s_i_glide_gridfile>
glide-grid_3hmm

> <i_i_glide_lignum>
336

> <i_i_glide_rotatable_bonds>
3

> <r_i_docking_score>
-8.64379853331208

> <r_i_glide_ligand_efficiency>
-0.411609453967242

> <r_i_glide_ligand_efficiency_sa>
-1.1355992726248

> <r_i_glide_ligand_efficiency_ln>
-2.13716172092186

> <r_i_glide_gscore>
-8.64379853331208

> <r_i_glide_lipo>
-3.54866261818792

> <r_i_glide_hbond>
-0.272251496947748

> <r_i_glide_metal>
0

> <r_i_glide_rewards>
-2.94896045265688

> <r_i_glide_evdw>
-43.1685562133789

> <r_i_glide_ecoul>
-2.78599047660828

> <r_i_glide_erotb>
0.702402416640653

> <r_i_glide_esite>
0

> <r_i_glide_emodel>
-68.4691150288689

> <r_i_glide_energy>
-45.9545466899872

> <r_i_glide_einternal>
3.12427711486816

> <i_i_glide_confnum>
2

> <i_i_glide_posenum>
172

> <r_i_glide_eff_state_penalty>
0

> <s_user_duplicate_titles>
CHEMBL4439_lig231,561353

> <i_f3d_flags>
0

> <s_m_subgroup_title>
dock_pv

> <s_m_subgroupid>
dock_pv

> <b_m_subgroup_collapsed>
1

$$$$
CHEMBL4439_lig129
                    3D
 Schrodinger Suite 2021-1.
 40 43  0  0  1  0            999 V2000
   18.5394   68.2075    6.6519 C   0  0  0  0  0  0
   19.0269   68.7207    5.4041 C   0  0  0  0  0  0
   20.2663   69.1649    5.5304 N   0  0  0  0  0  0
   18.3736   68.8260    4.0439 C   0  0  0  0  0  0
   19.0649   69.2521    2.8965 C   0  0  0  0  0  0
   18.4040   69.2590    1.6674 C   0  0  0  0  0  0
   17.0682   68.8642    1.6044 C   0  0  0  0  0  0
   16.4407   68.4565    2.7727 C   0  0  0  0  0  0
   17.0670   68.4641    3.9710 N   0  0  0  0  0  0
   17.2277   67.5862    7.0473 C   0  0  0  0  0  0
   14.7458   66.4582    7.7752 N   0  0  0  0  0  0
   15.4670   67.2224    8.6398 C   0  0  0  0  0  0
   16.6806   67.8233    8.3096 C   0  0  0  0  0  0
   19.5996   68.4052    7.5287 C   0  0  0  0  0  0
   20.6031   68.9691    6.8006 N   0  0  0  0  0  0
   15.2721   66.2075    6.5444 C   0  0  0  0  0  0
   16.5330   66.7208    6.1991 C   0  0  0  0  0  0
   14.4625   65.3689    5.5901 C   0  0  0  0  0  0
   13.0848   65.1272    5.7621 C   0  0  0  0  0  0
   12.3713   64.2951    4.8805 C   0  0  0  0  0  0
   13.0487   63.6562    3.8414 C   0  0  0  0  0  0
   14.3883   63.9220    3.6309 C   0  0  0  0  0  0
   15.0701   64.7927    4.4640 C   0  0  0  0  0  0
   10.8679   64.1116    5.0244 C   0  0  0  0  0  0
   10.3640   63.2602    4.1283 F   0  0  0  0  0  0
   10.2688   65.2858    4.8332 F   0  0  0  0  0  0
   10.5954   63.6523    6.2410 F   0  0  0  0  0  0
   20.1016   69.5519    2.9475 H   0  0  0  0  0  0
   18.9279   69.5787    0.7782 H   0  0  0  0  0  0
   16.5196   68.8698    0.6770 H   0  0  0  0  0  0
   15.4041   68.1518    2.7691 H   0  0  0  0  0  0
   15.0704   67.3523    9.6315 H   0  0  0  0  0  0
   17.1905   68.4513    9.0247 H   0  0  0  0  0  0
   19.7313   68.1899    8.5786 H   0  0  0  0  0  0
   21.5185   69.2139    7.1544 H   0  0  0  0  0  0
   16.9877   66.4618    5.2648 H   0  0  0  0  0  0
   12.5525   65.5974    6.5750 H   0  0  0  0  0  0
   12.5323   63.0085    3.1474 H   0  0  0  0  0  0
   14.8985   63.4667    2.8006 H   0  0  0  0  0  0
   16.0939   64.9835    4.2061 H   0  0  0  0  0  0
  1 10  1  0  0  0
  1 14  2  0  0  0
  1  2  1  0  0  0
  2  4  1  0  0  0
  2  3  2  0  0  0
  3 15  1  0  0  0
  4  9  1  0  0  0
  4  5  2  0  0  0
  5  6  1  0  0  0
  5 28  1  0  0  0
  6  7  2  0  0  0
  6 29  1  0  0  0
  7  8  1  0  0  0
  7 30  1  0  0  0
  8  9  2  0  0  0
  8 31  1  0  0  0
 10 13  1  0  0  0
 10 17  2  0  0  0
 11 16  2  0  0  0
 11 12  1  0  0  0
 12 13  2  0  0  0
 12 32  1  0  0  0
 13 33  1  0  0  0
 14 15  1  0  0  0
 14 34  1  0  0  0
 15 35  1  0  0  0
 16 17  1  0  0  0
 16 18  1  0  0  0
 17 36  1  0  0  0
 18 19  2  0  0  0
 18 23  1  0  0  0
 19 20  1  0  0  0
 19 37  1  0  0  0
 20 21  2  0  0  0
 20 24  1  0  0  0
 21 22  1  0  0  0
 21 38  1  0  0  0
 22 23  2  0  0  0
 22 39  1  0  0  0
 23 40  1  0  0  0
 24 25  1  0  0  0
 24 26  1  0  0  0
 24 27  1  0  0  0
M  END
> <s_m_entry_id>
34414

> <s_m_entry_name>
dock_pv.157

> <s_m_Source_Path>
/home/csk/Desktop/cluster/DUD-E-result/tgfr1

> <s_m_Source_File>
dock_pv.maegz

> <i_m_Source_File_Index>
157

> <chembl_id>
CHEMBL382466

> <chembl_pref_name>
None

> <i_lp_mmshare_version>
53161

> <r_lp_tautomer_probability>
0.5

> <s_lp_Force_Field>
OPLS_2005

> <r_lp_Energy>
21.884282

> <b_lp_Chiralities_Consistent>
1

> <s_lp_Variant>
CHEMBL4439_lig129-1

> <s_i_glide_gridfile>
glide-grid_3hmm

> <i_i_glide_lignum>
194

> <i_i_glide_rotatable_bonds>
4

> <r_i_docking_score>
-8.62625916557754

> <r_i_glide_ligand_efficiency>
-0.319491080206576

> <r_i_glide_ligand_efficiency_sa>
-0.958473239566737

> <r_i_glide_ligand_efficiency_ln>
-2.0080509187494

> <r_i_glide_gscore>
-8.62625916557754

> <r_i_glide_lipo>
-4.43194792516657

> <r_i_glide_hbond>
-0.0477047136331923

> <r_i_glide_metal>
0

> <r_i_glide_rewards>
-2.03597187597815

> <r_i_glide_evdw>
-46.4058303833008

> <r_i_glide_ecoul>
-1.47049593925476

> <r_i_glide_erotb>
0.430231259253623

> <r_i_glide_esite>
0

> <r_i_glide_emodel>
-73.3350016711967

> <r_i_glide_energy>
-47.8763263225555

> <r_i_glide_einternal>
0.932586193084717

> <i_i_glide_confnum>
31

> <i_i_glide_posenum>
274

> <r_i_glide_eff_state_penalty>
0

> <s_user_duplicate_titles>
CHEMBL4439_lig129,CHEMBL4439_lig129,342912

> <i_f3d_flags>
0

> <s_m_subgroup_title>
dock_pv

> <s_m_subgroupid>
dock_pv

> <b_m_subgroup_collapsed>
1

$$$$
CHEMBL4439_lig299
                    3D
 Schrodinger Suite 2021-1.
 42 45  0  0  1  0            999 V2000
   17.2199   68.9848    1.8546 C   0  0  0  0  0  0
   16.0723   68.4570    2.4323 C   0  0  0  0  0  0
   16.0841   68.0570    3.7670 C   0  0  0  0  0  0
   17.2344   68.1619    4.5677 C   0  0  0  0  0  0
   18.3983   68.6449    3.9303 C   0  0  0  0  0  0
   18.3847   69.0872    2.6038 C   0  0  0  0  0  0
   17.1972   67.8557    6.0507 C   0  0  0  0  0  0
   16.2719   67.1574    6.7701 C   0  0  0  0  0  0
   16.5697   67.2868    8.1179 N   0  0  0  0  0  0
   17.7302   68.0232    8.2036 N   0  0  0  0  0  0
   18.1378   68.4569    6.9980 C   0  0  0  0  0  0
   19.0890   69.2115    6.7864 O   0  0  0  0  0  0
   15.0983   66.3557    6.3310 C   0  0  0  0  0  0
   13.8813   66.4570    7.0186 C   0  0  0  0  0  0
   12.7592   65.7241    6.6329 C   0  0  0  0  0  0
   15.1915   65.4857    5.2421 C   0  0  0  0  0  0
   14.0722   64.7434    4.8101 C   0  0  0  0  0  0
   12.8358   64.8610    5.5176 C   0  0  0  0  0  0
   11.7346   64.1602    5.1248 N   0  0  0  0  0  0
   11.8660   63.3690    4.0316 C   0  0  0  0  0  0
   13.0720   63.2569    3.3410 C   0  0  0  0  0  0
   14.1850   63.9305    3.7224 N   0  0  0  0  0  0
   19.5226   69.6570    2.0321 N   0  0  0  0  0  0
   18.2974   68.4575    9.4872 C   0  0  0  0  0  0
   16.5853   66.1208    9.0039 C   0  0  0  0  0  0
   17.1943   69.3206    0.8317 H   0  0  0  0  0  0
   15.1600   68.3930    1.8561 H   0  0  0  0  0  0
   15.1378   67.7553    4.1807 H   0  0  0  0  0  0
   19.3274   68.7278    4.4707 H   0  0  0  0  0  0
   13.7999   67.1305    7.8608 H   0  0  0  0  0  0
   11.8224   65.8153    7.1676 H   0  0  0  0  0  0
   16.1169   65.3971    4.6935 H   0  0  0  0  0  0
   10.9798   62.8555    3.6919 H   0  0  0  0  0  0
   13.1548   62.6394    2.4577 H   0  0  0  0  0  0
   20.3487   69.7368    2.6067 H   0  0  0  0  0  0
   19.4295   70.2522    1.2142 H   0  0  0  0  0  0
   19.0575   69.2334    9.3755 H   0  0  0  0  0  0
   17.5154   68.8576   10.1329 H   0  0  0  0  0  0
   18.7660   67.6169   10.0003 H   0  0  0  0  0  0
   15.7099   65.4957    8.8462 H   0  0  0  0  0  0
   17.4667   65.5035    8.8374 H   0  0  0  0  0  0
   16.5728   66.4289   10.0502 H   0  0  0  0  0  0
  1  6  1  0  0  0
  1  2  2  0  0  0
  1 26  1  0  0  0
  2  3  1  0  0  0
  2 27  1  0  0  0
  3  4  2  0  0  0
  3 28  1  0  0  0
  4  5  1  0  0  0
  4  7  1  0  0  0
  5  6  2  0  0  0
  5 29  1  0  0  0
  6 23  1  0  0  0
  7  8  2  0  0  0
  7 11  1  0  0  0
  8 13  1  0  0  0
  8  9  1  0  0  0
  9 10  1  0  0  0
  9 25  1  0  0  0
 10 11  1  0  0  0
 10 24  1  0  0  0
 11 12  2  0  0  0
 13 14  2  0  0  0
 13 16  1  0  0  0
 14 15  1  0  0  0
 14 30  1  0  0  0
 15 18  2  0  0  0
 15 31  1  0  0  0
 16 17  2  0  0  0
 16 32  1  0  0  0
 17 18  1  0  0  0
 17 22  1  0  0  0
 18 19  1  0  0  0
 19 20  2  0  0  0
 20 21  1  0  0  0
 20 33  1  0  0  0
 21 22  2  0  0  0
 21 34  1  0  0  0
 23 35  1  0  0  0
 23 36  1  0  0  0
 24 37  1  0  0  0
 24 38  1  0  0  0
 24 39  1  0  0  0
 25 40  1  0  0  0
 25 41  1  0  0  0
 25 42  1  0  0  0
M  END
> <s_m_entry_id>
34415

> <s_m_entry_name>
dock_pv.158

> <s_m_Source_Path>
/home/csk/Desktop/cluster/DUD-E-result/tgfr1

> <s_m_Source_File>
dock_pv.maegz

> <i_m_Source_File_Index>
158

> <chembl_id>
CHEMBL603851

> <chembl_pref_name>
None

> <i_lp_mmshare_version>
53161

> <r_lp_tautomer_probability>
1

> <s_lp_Force_Field>
OPLS_2005

> <r_lp_Energy>
44.395463

> <b_lp_Chiralities_Consistent>
1

> <s_lp_Variant>
CHEMBL4439_lig299-1

> <s_i_glide_gridfile>
glide-grid_3hmm

> <i_i_glide_lignum>
431

> <i_i_glide_rotatable_bonds>
2

> <r_i_docking_score>
-8.62128228546265

> <r_i_glide_ligand_efficiency>
-0.344851291418506

> <r_i_glide_ligand_efficiency_sa>
-1.00835129207141

> <r_i_glide_ligand_efficiency_ln>
-2.04350226063645

> <r_i_glide_gscore>
-8.62128228546265

> <r_i_glide_lipo>
-4.14152618938341

> <r_i_glide_hbond>
-0.32

> <r_i_glide_metal>
0

> <r_i_glide_rewards>
-1.84042652248631

> <r_i_glide_evdw>
-47.926685333252

> <r_i_glide_ecoul>
-1.68170845508575

> <r_i_glide_erotb>
0.342791638030479

> <r_i_glide_esite>
-0.0135306766979389

> <r_i_glide_emodel>
-72.5674110831036

> <r_i_glide_energy>
-49.6083937883377

> <r_i_glide_einternal>
3.74256014823914

> <i_i_glide_confnum>
15

> <i_i_glide_posenum>
182

> <r_i_glide_eff_state_penalty>
0

> <s_user_duplicate_titles>
CHEMBL4439_lig299

> <i_f3d_flags>
0

> <s_m_subgroup_title>
dock_pv

> <s_m_subgroupid>
dock_pv

> <b_m_subgroup_collapsed>
1

$$$$
CHEMBL4439_lig523
                    3D
 Schrodinger Suite 2021-1.
 42 45  0  0  1  0            999 V2000
   18.6705   68.4202    7.4286 N   0  0  0  0  0  0
   17.6400   67.9362    6.7125 N   0  0  0  0  0  0
   16.6996   67.3266    7.5479 C   0  0  0  0  0  0
   17.1762   67.5051    8.8506 C   0  0  0  0  0  0
   18.4026   68.1453    8.6772 C   0  0  0  0  0  0
   17.6311   68.1590    5.2976 C   0  0  0  0  0  0
   16.4510   67.9836    4.6501 N   0  0  0  0  0  0
   16.3879   68.1561    3.3106 C   0  0  0  0  0  0
   17.4833   68.5742    2.5564 C   0  0  0  0  0  0
   18.6911   68.7941    3.2200 C   0  0  0  0  0  0
   18.7808   68.5688    4.5959 C   0  0  0  0  0  0
   15.0277   67.8993    2.6961 C   0  0  0  0  0  0
   15.4233   66.6629    7.1209 C   0  0  0  0  0  0
   15.3908   65.7215    6.0854 C   0  0  0  0  0  0
   13.0139   66.4570    7.3463 C   0  0  0  0  0  0
   14.2282   67.0136    7.7559 C   0  0  0  0  0  0
   12.9818   65.5642    6.2823 C   0  0  0  0  0  0
   14.1690   65.2079    5.6487 C   0  0  0  0  0  0
   14.0913   64.3139    4.4313 C   0  0  0  0  0  0
   12.8225   63.8345    4.1977 N   0  0  0  0  0  0
   11.7045   64.1945    4.9171 C   0  0  0  0  0  0
   11.7532   65.0108    5.9051 N   0  0  0  0  0  0
   15.0673   64.0570    3.7235 O   0  0  0  0  0  0
   12.6976   62.9070    3.0661 C   0  0  0  0  0  0
   16.5874   67.0141   10.1538 C   0  0  0  0  0  0
   19.0825   68.4229    9.4695 H   0  0  0  0  0  0
   17.4042   68.7278    1.4911 H   0  0  0  0  0  0
   19.5589   69.1258    2.6685 H   0  0  0  0  0  0
   19.7255   68.7181    5.0971 H   0  0  0  0  0  0
   15.0255   68.1208    1.6321 H   0  0  0  0  0  0
   14.2672   68.5201    3.1654 H   0  0  0  0  0  0
   14.7315   66.8588    2.8328 H   0  0  0  0  0  0
   16.3076   65.4475    5.5884 H   0  0  0  0  0  0
   12.0907   66.7085    7.8401 H   0  0  0  0  0  0
   14.2364   67.7442    8.5505 H   0  0  0  0  0  0
   10.7508   63.7620    4.6214 H   0  0  0  0  0  0
   12.9912   63.3901    2.1312 H   0  0  0  0  0  0
   13.3627   62.0571    3.2160 H   0  0  0  0  0  0
   11.6822   62.5256    2.9345 H   0  0  0  0  0  0
   16.0762   66.0590   10.0334 H   0  0  0  0  0  0
   17.3564   66.8557   10.9083 H   0  0  0  0  0  0
   15.8671   67.7219   10.5643 H   0  0  0  0  0  0
  1  5  2  0  0  0
  1  2  1  0  0  0
  2  6  1  0  0  0
  2  3  1  0  0  0
  3 13  1  0  0  0
  3  4  2  0  0  0
  4  5  1  0  0  0
  4 25  1  0  0  0
  5 26  1  0  0  0
  6  7  2  0  0  0
  6 11  1  0  0  0
  7  8  1  0  0  0
  8 12  1  0  0  0
  8  9  2  0  0  0
  9 10  1  0  0  0
  9 27  1  0  0  0
 10 11  2  0  0  0
 10 28  1  0  0  0
 11 29  1  0  0  0
 12 30  1  0  0  0
 12 31  1  0  0  0
 12 32  1  0  0  0
 13 14  2  0  0  0
 13 16  1  0  0  0
 14 18  1  0  0  0
 14 33  1  0  0  0
 15 17  1  0  0  0
 15 16  2  0  0  0
 15 34  1  0  0  0
 16 35  1  0  0  0
 17 18  2  0  0  0
 17 22  1  0  0  0
 18 19  1  0  0  0
 19 20  1  0  0  0
 19 23  2  0  0  0
 20 21  1  0  0  0
 20 24  1  0  0  0
 21 22  2  0  0  0
 21 36  1  0  0  0
 24 37  1  0  0  0
 24 38  1  0  0  0
 24 39  1  0  0  0
 25 40  1  0  0  0
 25 41  1  0  0  0
 25 42  1  0  0  0
M  END
> <s_m_entry_id>
34416

> <s_m_entry_name>
dock_pv.159

> <s_m_Source_Path>
/home/csk/Desktop/cluster/DUD-E-result/tgfr1

> <s_m_Source_File>
dock_pv.maegz

> <i_m_Source_File_Index>
159

> <chembl_id>
CHEMBL2024686

> <chembl_pref_name>
None

> <i_lp_mmshare_version>
53161

> <r_lp_tautomer_probability>
1

> <s_lp_Force_Field>
OPLS_2005

> <r_lp_Energy>
23.282865

> <b_lp_Chiralities_Consistent>
1

> <s_lp_Variant>
CHEMBL4439_lig523-1

> <s_i_glide_gridfile>
glide-grid_3hmm

> <i_i_glide_lignum>
698

> <i_i_glide_rotatable_bonds>
2

> <r_i_docking_score>
-8.61380880631912

> <r_i_glide_ligand_efficiency>
-0.344552352252765

> <r_i_glide_ligand_efficiency_sa>
-1.00747718864907

> <r_i_glide_ligand_efficiency_ln>
-2.04173082211734

> <r_i_glide_gscore>
-8.61380880631912

> <r_i_glide_lipo>
-3.79373320902652

> <r_i_glide_hbond>
0

> <r_i_glide_metal>
0

> <r_i_glide_rewards>
-2.59039967276681

> <r_i_glide_evdw>
-50.599781036377

> <r_i_glide_ecoul>
-0.283190071582794

> <r_i_glide_erotb>
0.342791638030479

> <r_i_glide_esite>
0

> <r_i_glide_emodel>
-76.9572852045857

> <r_i_glide_energy>
-50.8829711079597

> <r_i_glide_einternal>
0.0721605271100998

> <i_i_glide_confnum>
1

> <i_i_glide_posenum>
43

> <r_i_glide_eff_state_penalty>
0

> <s_user_duplicate_titles>
CHEMBL4439_lig523

> <i_f3d_flags>
0

> <s_m_subgroup_title>
dock_pv

> <s_m_subgroupid>
dock_pv

> <b_m_subgroup_collapsed>
1

$$$$
CHEMBL4439_lig863
                    3D
 Schrodinger Suite 2021-1.
 45 48  0  0  1  0            999 V2000
   19.8670   66.9953    8.3104 C   0  0  0  0  0  0
   18.5258   67.7549    8.5120 C   0  0  0  0  0  0
   18.7640   68.7642    9.6321 C   0  0  0  0  0  0
   17.7572   67.8914    3.5395 C   0  0  0  0  0  0
   17.7786   68.5530    2.3111 C   0  0  0  0  0  0
   16.6487   68.8672    1.6321 N   0  0  0  0  0  0
   15.4668   68.4570    2.1602 C   0  0  0  0  0  0
   15.3616   67.7923    3.3758 C   0  0  0  0  0  0
   16.5229   67.5510    4.1070 C   0  0  0  0  0  0
   16.4096   66.9916    5.4781 C   0  0  0  0  0  0
   15.7532   65.7191    7.2322 N   0  0  0  0  0  0
   15.5555   65.9567    5.9481 C   0  0  0  0  0  0
   16.6671   66.6042    7.6206 N   0  0  0  0  0  0
   17.0795   67.4285    6.6222 C   0  0  0  0  0  0
   18.0248   68.4572    7.2223 C   0  0  2  0  0  0
   17.3320   66.8311    8.8904 C   0  0  0  0  0  0
   14.5133   65.1535    5.2052 C   0  0  0  0  0  0
   13.1706   65.0523    5.6320 C   0  0  0  0  0  0
   12.2721   64.2058    4.9748 C   0  0  0  0  0  0
   12.6846   63.4804    3.8641 C   0  0  0  0  0  0
   13.9793   63.6369    3.3826 C   0  0  0  0  0  0
   14.8885   64.4594    4.0479 C   0  0  0  0  0  0
   19.1069   69.0396    6.2901 C   0  0  0  0  0  0
   12.6669   65.8349    6.7460 C   0  0  0  0  0  0
   12.2764   66.4569    7.6320 N   0  0  0  0  0  0
   19.8878   66.4570    7.3651 H   0  0  0  0  0  0
   20.7191   67.6762    8.2857 H   0  0  0  0  0  0
   20.0501   66.2792    9.1121 H   0  0  0  0  0  0
   17.8307   69.2569    9.9035 H   0  0  0  0  0  0
   19.1468   68.2880   10.5357 H   0  0  0  0  0  0
   19.4729   69.5405    9.3386 H   0  0  0  0  0  0
   18.6824   67.6611    4.0410 H   0  0  0  0  0  0
   18.7127   68.8545    1.8594 H   0  0  0  0  0  0
   14.5696   68.7289    1.6320 H   0  0  0  0  0  0
   14.3898   67.5394    3.7709 H   0  0  0  0  0  0
   17.4007   69.2988    7.5258 H   0  0  0  0  0  0
   16.6293   67.3072    9.5762 H   0  0  0  0  0  0
   17.6551   65.8937    9.3444 H   0  0  0  0  0  0
   11.2464   64.1137    5.3072 H   0  0  0  0  0  0
   11.9894   62.8380    3.3437 H   0  0  0  0  0  0
   14.2688   63.1070    2.4886 H   0  0  0  0  0  0
   15.8916   64.5434    3.6617 H   0  0  0  0  0  0
   18.6673   69.6083    5.4715 H   0  0  0  0  0  0
   19.7553   69.7256    6.8360 H   0  0  0  0  0  0
   19.7475   68.2670    5.8665 H   0  0  0  0  0  0
  1  2  1  0  0  0
  1 26  1  0  0  0
  1 27  1  0  0  0
  1 28  1  0  0  0
  2  3  1  0  0  0
  2 15  1  0  0  0
  2 16  1  0  0  0
  3 29  1  0  0  0
  3 30  1  0  0  0
  3 31  1  0  0  0
  4  5  2  0  0  0
  4  9  1  0  0  0
  4 32  1  0  0  0
  5  6  1  0  0  0
  5 33  1  0  0  0
  6  7  2  0  0  0
  7  8  1  0  0  0
  7 34  1  0  0  0
  8  9  2  0  0  0
  8 35  1  0  0  0
  9 10  1  0  0  0
 10 14  2  0  0  0
 10 12  1  0  0  0
 11 13  1  0  0  0
 11 12  2  0  0  0
 12 17  1  0  0  0
 13 14  1  0  0  0
 13 16  1  0  0  0
 14 15  1  0  0  0
 15 23  1  0  0  0
 15 36  1  0  0  0
 16 37  1  0  0  0
 16 38  1  0  0  0
 17 18  2  0  0  0
 17 22  1  0  0  0
 18 19  1  0  0  0
 18 24  1  0  0  0
 19 20  2  0  0  0
 19 39  1  0  0  0
 20 21  1  0  0  0
 20 40  1  0  0  0
 21 22  2  0  0  0
 21 41  1  0  0  0
 22 42  1  0  0  0
 23 43  1  0  0  0
 23 44  1  0  0  0
 23 45  1  0  0  0
 24 25  3  0  0  0
M  END
> <s_m_entry_id>
34417

> <s_m_entry_name>
dock_pv.160

> <s_m_Source_Path>
/home/csk/Desktop/cluster/DUD-E-result/tgfr1

> <s_m_Source_File>
dock_pv.maegz

> <i_m_Source_File_Index>
160

> <chembl_id>
CHEMBL4287261

> <chembl_pref_name>
None

> <i_lp_mmshare_version>
53161

> <r_lp_tautomer_probability>
1

> <s_lp_Force_Field>
OPLS_2005

> <r_lp_Energy>
40.574379

> <b_lp_Chiralities_Consistent>
1

> <s_lp_Variant>
CHEMBL4439_lig863-2

> <s_i_glide_gridfile>
glide-grid_3hmm

> <i_i_glide_lignum>
1193

> <i_i_glide_rotatable_bonds>
2

> <r_i_docking_score>
-8.60028220704851

> <r_i_glide_ligand_efficiency>
-0.344011288281941

> <r_i_glide_ligand_efficiency_sa>
-1.00589510800257

> <r_i_glide_ligand_efficiency_ln>
-2.03852461273074

> <r_i_glide_gscore>
-8.60028220704851

> <r_i_glide_lipo>
-4.22369150390557

> <r_i_glide_hbond>
-0.185031319397344

> <r_i_glide_metal>
0

> <r_i_glide_rewards>
-2.18405112755118

> <r_i_glide_evdw>
-37.6541442871094

> <r_i_glide_ecoul>
-3.15382480621338

> <r_i_glide_erotb>
0.348272679093065

> <r_i_glide_esite>
0

> <r_i_glide_emodel>
-56.7971810808055

> <r_i_glide_energy>
-40.8079690933228

> <r_i_glide_einternal>
1.22857582569122

> <i_i_glide_confnum>
5

> <i_i_glide_posenum>
230

> <r_i_glide_eff_state_penalty>
0

> <s_user_duplicate_titles>
CHEMBL4439_lig863

> <i_f3d_flags>
0

> <s_m_subgroup_title>
dock_pv

> <s_m_subgroupid>
dock_pv

> <b_m_subgroup_collapsed>
1

$$$$
CHEMBL4439_lig196
                    3D
 Schrodinger Suite 2021-1.
 48 51  0  0  1  0            999 V2000
   14.8681   66.3983    6.7433 C   0  0  0  0  0  0
   15.9213   67.2900    6.4196 C   0  0  0  0  0  0
   16.2910   67.8363    7.6456 N   0  0  0  0  0  0
   15.4310   67.2732    8.5491 C   0  0  0  0  0  0
   14.5709   66.4576    8.0267 N   0  0  0  0  0  0
   17.2461   68.9013    7.9835 C   0  0  0  0  0  0
   18.2653   68.5506    9.0627 C   0  0  0  0  0  0
   19.6179   68.4085    8.7435 C   0  0  0  0  0  0
   20.5537   68.1793    9.7494 C   0  0  0  0  0  0
   20.1422   68.0570   11.0761 C   0  0  0  0  0  0
   18.7826   68.1351   11.4126 C   0  0  0  0  0  0
   17.8648   68.4421   10.3979 C   0  0  0  0  0  0
   14.0405   65.4913    5.8756 C   0  0  0  0  0  0
   12.6875   65.2584    6.1647 C   0  0  0  0  0  0
   11.9357   64.3774    5.3924 C   0  0  0  0  0  0
   12.5378   63.7176    4.3266 C   0  0  0  0  0  0
   13.8748   63.9466    4.0184 C   0  0  0  0  0  0
   14.6248   64.8315    4.7907 C   0  0  0  0  0  0
   16.4995   67.6579    5.0795 C   0  0  0  0  0  0
   15.6921   67.6572    3.9355 C   0  0  0  0  0  0
   16.2617   68.1129    2.7495 C   0  0  0  0  0  0
   17.5552   68.5129    2.6609 N   0  0  0  0  0  0
   18.2759   68.4580    3.8074 C   0  0  0  0  0  0
   17.8013   68.0573    5.0229 N   0  0  0  0  0  0
   11.8124   62.8571    3.5816 F   0  0  0  0  0  0
   18.3313   67.9058   12.8345 C   0  0  0  0  0  0
   17.0716   67.4995   13.0195 N   0  0  0  0  0  0
   19.0863   68.0570   13.7906 O   0  0  0  0  0  0
   19.5920   68.8582    3.6732 O   0  0  0  0  0  0
   20.4710   68.7709    4.7916 C   0  0  0  0  0  0
   15.4653   67.5511    9.5864 H   0  0  0  0  0  0
   17.7706   69.2557    7.1042 H   0  0  0  0  0  0
   16.6652   69.7612    8.3202 H   0  0  0  0  0  0
   19.9548   68.4997    7.7217 H   0  0  0  0  0  0
   21.6027   68.0930    9.5002 H   0  0  0  0  0  0
   20.8820   67.8480   11.8346 H   0  0  0  0  0  0
   16.8343   68.6215   10.6539 H   0  0  0  0  0  0
   12.2081   65.7586    6.9933 H   0  0  0  0  0  0
   10.8950   64.2026    5.6231 H   0  0  0  0  0  0
   14.3260   63.4339    3.1817 H   0  0  0  0  0  0
   15.6674   64.9790    4.5546 H   0  0  0  0  0  0
   14.6503   67.3838    3.9707 H   0  0  0  0  0  0
   15.6735   68.1773    1.8442 H   0  0  0  0  0  0
   16.7336   67.2929   13.9458 H   0  0  0  0  0  0
   16.4400   67.3816   12.2426 H   0  0  0  0  0  0
   21.4775   69.0582    4.4872 H   0  0  0  0  0  0
   20.1585   69.4466    5.5892 H   0  0  0  0  0  0
   20.5272   67.7534    5.1833 H   0  0  0  0  0  0
  1 13  1  0  0  0
  1  5  1  0  0  0
  1  2  2  0  0  0
  2  3  1  0  0  0
  2 19  1  0  0  0
  3  4  1  0  0  0
  3  6  1  0  0  0
  4  5  2  0  0  0
  4 31  1  0  0  0
  6  7  1  0  0  0
  6 32  1  0  0  0
  6 33  1  0  0  0
  7  8  2  0  0  0
  7 12  1  0  0  0
  8  9  1  0  0  0
  8 34  1  0  0  0
  9 10  2  0  0  0
  9 35  1  0  0  0
 10 11  1  0  0  0
 10 36  1  0  0  0
 11 12  2  0  0  0
 11 26  1  0  0  0
 12 37  1  0  0  0
 13 18  1  0  0  0
 13 14  2  0  0  0
 14 15  1  0  0  0
 14 38  1  0  0  0
 15 16  2  0  0  0
 15 39  1  0  0  0
 16 17  1  0  0  0
 16 25  1  0  0  0
 17 18  2  0  0  0
 17 40  1  0  0  0
 18 41  1  0  0  0
 19 20  2  0  0  0
 19 24  1  0  0  0
 20 21  1  0  0  0
 20 42  1  0  0  0
 21 22  2  0  0  0
 21 43  1  0  0  0
 22 23  1  0  0  0
 23 24  2  0  0  0
 23 29  1  0  0  0
 26 27  1  0  0  0
 26 28  2  0  0  0
 27 44  1  0  0  0
 27 45  1  0  0  0
 29 30  1  0  0  0
 30 46  1  0  0  0
 30 47  1  0  0  0
 30 48  1  0  0  0
M  END
> <s_m_entry_id>
34418

> <s_m_entry_name>
dock_pv.161

> <s_m_Source_Path>
/home/csk/Desktop/cluster/DUD-E-result/tgfr1

> <s_m_Source_File>
dock_pv.maegz

> <i_m_Source_File_Index>
161

> <chembl_id>
CHEMBL480944

> <chembl_pref_name>
None

> <i_lp_mmshare_version>
53161

> <r_lp_tautomer_probability>
1

> <s_lp_Force_Field>
OPLS_2005

> <r_lp_Energy>
16.214549

> <b_lp_Chiralities_Consistent>
1

> <s_lp_Variant>
CHEMBL4439_lig196-1

> <s_i_glide_gridfile>
glide-grid_3hmm

> <i_i_glide_lignum>
297

> <i_i_glide_rotatable_bonds>
6

> <r_i_docking_score>
-8.59379625560929

> <r_i_glide_ligand_efficiency>
-0.286459875186976

> <r_i_glide_ligand_efficiency_sa>
-0.890097434823326

> <r_i_glide_ligand_efficiency_ln>
-1.95260414618436

> <r_i_glide_gscore>
-8.59379625560929

> <r_i_glide_lipo>
-3.52543014225417

> <r_i_glide_hbond>
-0.141988148098667

> <r_i_glide_metal>
0

> <r_i_glide_rewards>
-2.32393873443298

> <r_i_glide_evdw>
-52.0890502929688

> <r_i_glide_ecoul>
-2.75881409645081

> <r_i_glide_erotb>
0.48256905867792

> <r_i_glide_esite>
-0.0667336603853316

> <r_i_glide_emodel>
-81.140069703405

> <r_i_glide_energy>
-54.8478643894196

> <r_i_glide_einternal>
7.46914672851562

> <i_i_glide_confnum>
13

> <i_i_glide_posenum>
360

> <r_i_glide_eff_state_penalty>
0

> <s_user_duplicate_titles>
CHEMBL4439_lig196

> <i_f3d_flags>
0

> <s_m_subgroup_title>
dock_pv

> <s_m_subgroupid>
dock_pv

> <b_m_subgroup_collapsed>
1

$$$$
CHEMBL4439_lig862
                    3D
 Schrodinger Suite 2021-1.
 51 54  0  0  1  0            999 V2000
   10.5411   64.8811    4.4310 C   0  0  0  0  0  0
   11.8532   64.3952    5.0819 C   0  0  0  0  0  0
   11.8092   62.8573    5.1078 C   0  0  0  0  0  0
   17.0953   67.6567    4.9736 C   0  0  0  0  0  0
   17.9015   68.3072    4.0379 C   0  0  0  0  0  0
   17.3791   68.6440    2.7921 C   0  0  0  0  0  0
   16.0617   68.3332    2.4821 C   0  0  0  0  0  0
   15.2737   67.6566    3.4114 C   0  0  0  0  0  0
   15.7691   67.3208    4.6773 C   0  0  0  0  0  0
   14.8405   66.6872    5.6906 C   0  0  0  0  0  0
   13.6442   66.3377    7.6016 N   0  0  0  0  0  0
   14.7339   66.8701    7.1001 C   0  0  0  0  0  0
   13.1163   65.6596    6.6029 N   0  0  0  0  0  0
   13.8289   65.7603    5.4548 C   0  0  0  0  0  0
   13.1520   64.9480    4.3940 C   0  0  1  0  0  0
   11.8857   64.9323    6.5213 C   0  0  0  0  0  0
   15.6144   67.6108    8.0219 C   0  0  0  0  0  0
   15.8534   67.0387    9.2318 N   0  0  0  0  0  0
   16.7317   67.6520   10.0587 C   0  0  0  0  0  0
   17.4630   68.7721    9.6572 C   0  0  0  0  0  0
   17.1713   69.3714    8.4326 C   0  0  0  0  0  0
   16.1778   68.8166    7.6373 C   0  0  0  0  0  0
   16.7584   67.1115   11.4804 C   0  0  0  0  0  0
   14.1110   63.9603    3.7017 C   0  0  0  0  0  0
   18.1541   69.2772    1.8578 O   0  0  0  0  0  0
   18.0888   67.2890   12.2341 C   0  0  0  0  0  0
   10.6102   65.8963    4.0406 H   0  0  0  0  0  0
   10.2382   64.2126    3.6320 H   0  0  0  0  0  0
    9.7063   64.8553    5.1280 H   0  0  0  0  0  0
   12.6669   62.4570    5.6265 H   0  0  0  0  0  0
   10.9280   62.4879    5.6320 H   0  0  0  0  0  0
   11.8032   62.4570    4.0938 H   0  0  0  0  0  0
   17.5229   67.3887    5.9280 H   0  0  0  0  0  0
   18.9263   68.5414    4.2858 H   0  0  0  0  0  0
   15.6534   68.5955    1.5170 H   0  0  0  0  0  0
   14.2655   67.4133    3.1373 H   0  0  0  0  0  0
   12.9095   65.6569    3.6331 H   0  0  0  0  0  0
   11.8660   64.1201    7.2321 H   0  0  0  0  0  0
   11.0667   65.6059    6.7702 H   0  0  0  0  0  0
   18.1859   69.2286   10.3104 H   0  0  0  0  0  0
   17.6757   70.2798    8.1365 H   0  0  0  0  0  0
   15.8663   69.2568    6.7080 H   0  0  0  0  0  0
   16.4857   66.0571   11.4638 H   0  0  0  0  0  0
   15.9527   67.6097   12.0208 H   0  0  0  0  0  0
   14.9474   64.4796    3.2347 H   0  0  0  0  0  0
   14.5262   63.2575    4.4125 H   0  0  0  0  0  0
   13.6062   63.3956    2.9167 H   0  0  0  0  0  0
   19.0417   69.4714    2.1669 H   0  0  0  0  0  0
   18.0490   66.7982   13.2066 H   0  0  0  0  0  0
   18.9223   66.8573   11.6791 H   0  0  0  0  0  0
   18.3133   68.3407   12.4121 H   0  0  0  0  0  0
  1  2  1  0  0  0
  1 27  1  0  0  0
  1 28  1  0  0  0
  1 29  1  0  0  0
  2  3  1  0  0  0
  2 15  1  0  0  0
  2 16  1  0  0  0
  3 30  1  0  0  0
  3 31  1  0  0  0
  3 32  1  0  0  0
  4  5  2  0  0  0
  4  9  1  0  0  0
  4 33  1  0  0  0
  5  6  1  0  0  0
  5 34  1  0  0  0
  6  7  2  0  0  0
  6 25  1  0  0  0
  7  8  1  0  0  0
  7 35  1  0  0  0
  8  9  2  0  0  0
  8 36  1  0  0  0
  9 10  1  0  0  0
 10 14  2  0  0  0
 10 12  1  0  0  0
 11 13  1  0  0  0
 11 12  2  0  0  0
 12 17  1  0  0  0
 13 14  1  0  0  0
 13 16  1  0  0  0
 14 15  1  0  0  0
 15 24  1  0  0  0
 15 37  1  0  0  0
 16 38  1  0  0  0
 16 39  1  0  0  0
 17 18  2  0  0  0
 17 22  1  0  0  0
 18 19  1  0  0  0
 19 20  2  0  0  0
 19 23  1  0  0  0
 20 21  1  0  0  0
 20 40  1  0  0  0
 21 22  2  0  0  0
 21 41  1  0  0  0
 22 42  1  0  0  0
 23 26  1  0  0  0
 23 43  1  0  0  0
 23 44  1  0  0  0
 24 45  1  0  0  0
 24 46  1  0  0  0
 24 47  1  0  0  0
 25 48  1  0  0  0
 26 49  1  0  0  0
 26 50  1  0  0  0
 26 51  1  0  0  0
M  END
> <s_m_entry_id>
34419

> <s_m_entry_name>
dock_pv.162

> <s_m_Source_Path>
/home/csk/Desktop/cluster/DUD-E-result/tgfr1

> <s_m_Source_File>
dock_pv.maegz

> <i_m_Source_File_Index>
162

> <chembl_id>
CHEMBL4283308

> <chembl_pref_name>
None

> <i_lp_mmshare_version>
53161

> <r_lp_tautomer_probability>
0.999999999997365

> <s_lp_Force_Field>
OPLS_2005

> <r_lp_Energy>
36.606912

> <b_lp_Chiralities_Consistent>
1

> <s_lp_Variant>
CHEMBL4439_lig862-1

> <s_i_glide_gridfile>
glide-grid_3hmm

> <i_i_glide_lignum>
1191

> <i_i_glide_rotatable_bonds>
4

> <r_i_docking_score>
-8.58913009430718

> <r_i_glide_ligand_efficiency>
-0.330351157473353

> <r_i_glide_ligand_efficiency_sa>
-0.978664004145772

> <r_i_glide_ligand_efficiency_ln>
-2.01712901941347

> <r_i_glide_gscore>
-8.58913009430718

> <r_i_glide_lipo>
-4.8540545340196

> <r_i_glide_hbond>
-0.0586731451890104

> <r_i_glide_metal>
0

> <r_i_glide_rewards>
-1.73430007377264

> <r_i_glide_evdw>
-31.9755935668945

> <r_i_glide_ecoul>
-4.38998413085938

> <r_i_glide_erotb>
0.315174956647708

> <r_i_glide_esite>
0

> <r_i_glide_emodel>
-35.4191573018928

> <r_i_glide_energy>
-36.3655776977539

> <r_i_glide_einternal>
1.96112322807312

> <i_i_glide_confnum>
1

> <i_i_glide_posenum>
7

> <r_i_glide_eff_state_penalty>
0

> <s_user_duplicate_titles>
CHEMBL4439_lig862,CHEMBL4439_lig858

> <i_f3d_flags>
0

> <s_m_subgroup_title>
dock_pv

> <s_m_subgroupid>
dock_pv

> <b_m_subgroup_collapsed>
1

$$$$
CHEMBL4439_lig508
                    3D
 Schrodinger Suite 2021-1.
 44 47  0  0  1  0            999 V2000
   16.2438   66.6188    9.4976 C   0  0  0  0  0  0
   15.7788   66.6697    8.1399 C   0  0  0  0  0  0
   14.8006   65.9546    7.6324 N   0  0  0  0  0  0
   14.8405   66.0803    6.3158 C   0  0  0  0  0  0
   15.8201   67.0087    5.9552 C   0  0  0  0  0  0
   16.4097   67.3562    7.1410 N   0  0  0  0  0  0
   16.2463   67.5788    4.6663 C   0  0  0  0  0  0
   17.5586   68.0562    4.4883 C   0  0  0  0  0  0
   15.6418   68.3020    2.4313 C   0  0  0  0  0  0
   15.3023   67.6842    3.6321 C   0  0  0  0  0  0
   16.9503   68.7358    2.2697 C   0  0  0  0  0  0
   17.8743   68.6203    3.2657 C   0  0  0  0  0  0
   19.0681   69.0991    2.8352 O   0  0  0  0  0  0
   18.7657   69.7579    1.6392 C   0  0  0  0  0  0
   17.5408   69.2682    1.1735 O   0  0  0  0  0  0
   13.9620   65.2545    5.4702 C   0  0  0  0  0  0
   12.7036   65.0147    5.7616 N   0  0  0  0  0  0
   12.1403   64.1566    4.9285 C   0  0  0  0  0  0
   12.9796   63.6562    3.9362 C   0  0  0  0  0  0
   14.5318   64.4242    4.0459 S   0  0  0  0  0  0
   10.6816   63.8388    5.1589 C   0  0  0  0  0  0
   17.0421   67.6356    9.8824 N   0  0  0  0  0  0
   15.9607   65.6560   10.2092 O   0  0  0  0  0  0
   17.8474   67.6626   11.1048 C   0  0  0  0  0  0
   17.0662   67.5736   12.4280 C   0  0  0  0  0  0
   17.9827   67.5011   13.6523 C   0  0  0  0  0  0
   17.2029   67.9720    7.2475 H   0  0  0  0  0  0
   18.3066   67.9733    5.2630 H   0  0  0  0  0  0
   14.9144   68.3986    1.6409 H   0  0  0  0  0  0
   14.2803   67.3479    3.7706 H   0  0  0  0  0  0
   19.5607   69.6519    0.8988 H   0  0  0  0  0  0
   18.6514   70.8188    1.8658 H   0  0  0  0  0  0
   12.7512   62.9598    3.1416 H   0  0  0  0  0  0
   10.2605   63.2568    4.3401 H   0  0  0  0  0  0
   10.5283   63.2664    6.0766 H   0  0  0  0  0  0
   10.0795   64.7438    5.2316 H   0  0  0  0  0  0
   17.0371   68.4862    9.3394 H   0  0  0  0  0  0
   18.4514   68.5727   11.1035 H   0  0  0  0  0  0
   18.5829   66.8578   11.0580 H   0  0  0  0  0  0
   16.4262   66.6918   12.4389 H   0  0  0  0  0  0
   16.3948   68.4247   12.5242 H   0  0  0  0  0  0
   17.3919   67.4155   14.5641 H   0  0  0  0  0  0
   18.6083   68.3913   13.7268 H   0  0  0  0  0  0
   18.6363   66.6296   13.5996 H   0  0  0  0  0  0
  1  2  1  0  0  0
  1 22  1  0  0  0
  1 23  2  0  0  0
  2  3  2  0  0  0
  2  6  1  0  0  0
  3  4  1  0  0  0
  4  5  2  0  0  0
  4 16  1  0  0  0
  5  7  1  0  0  0
  5  6  1  0  0  0
  6 27  1  0  0  0
  7  8  2  0  0  0
  7 10  1  0  0  0
  8 12  1  0  0  0
  8 28  1  0  0  0
  9 11  1  0  0  0
  9 10  2  0  0  0
  9 29  1  0  0  0
 10 30  1  0  0  0
 11 15  1  0  0  0
 11 12  2  0  0  0
 12 13  1  0  0  0
 13 14  1  0  0  0
 14 15  1  0  0  0
 14 31  1  0  0  0
 14 32  1  0  0  0
 16 17  2  0  0  0
 16 20  1  0  0  0
 17 18  1  0  0  0
 18 19  2  0  0  0
 18 21  1  0  0  0
 19 20  1  0  0  0
 19 33  1  0  0  0
 21 34  1  0  0  0
 21 35  1  0  0  0
 21 36  1  0  0  0
 22 24  1  0  0  0
 22 37  1  0  0  0
 24 25  1  0  0  0
 24 38  1  0  0  0
 24 39  1  0  0  0
 25 26  1  0  0  0
 25 40  1  0  0  0
 25 41  1  0  0  0
 26 42  1  0  0  0
 26 43  1  0  0  0
 26 44  1  0  0  0
M  END
> <s_m_entry_id>
34420

> <s_m_entry_name>
dock_pv.163

> <s_m_Source_Path>
/home/csk/Desktop/cluster/DUD-E-result/tgfr1

> <s_m_Source_File>
dock_pv.maegz

> <i_m_Source_File_Index>
163

> <chembl_id>
CHEMBL1957664

> <chembl_pref_name>
None

> <i_lp_mmshare_version>
53161

> <r_lp_tautomer_probability>
0.499999999999999

> <s_lp_Force_Field>
OPLS_2005

> <r_lp_Energy>
24.931188

> <b_lp_Chiralities_Consistent>
1

> <s_lp_Variant>
CHEMBL4439_lig508-1

> <s_i_glide_gridfile>
glide-grid_3hmm

> <i_i_glide_lignum>
670

> <i_i_glide_rotatable_bonds>
6

> <r_i_docking_score>
-8.58797548891204

> <r_i_glide_ligand_efficiency>
-0.33030674957354

> <r_i_glide_ligand_efficiency_sa>
-0.978532445917312

> <r_i_glide_ligand_efficiency_ln>
-2.01685786412499

> <r_i_glide_gscore>
-8.58797548891204

> <r_i_glide_lipo>
-3.41499824102815

> <r_i_glide_hbond>
-0.472300175799538

> <r_i_glide_metal>
0

> <r_i_glide_rewards>
-2.02119956428163

> <r_i_glide_evdw>
-48.7138137817383

> <r_i_glide_ecoul>
-6.16174554824829

> <r_i_glide_erotb>
0.702978787373064

> <r_i_glide_esite>
-0.0225037738516298

> <r_i_glide_emodel>
-76.6063012924844

> <r_i_glide_energy>
-54.8755593299866

> <r_i_glide_einternal>
10.2461719512939

> <i_i_glide_confnum>
7

> <i_i_glide_posenum>
61

> <r_i_glide_eff_state_penalty>
0

> <s_user_duplicate_titles>
CHEMBL4439_lig508

> <i_f3d_flags>
0

> <s_m_subgroup_title>
dock_pv

> <s_m_subgroupid>
dock_pv

> <b_m_subgroup_collapsed>
1

$$$$
CHEMBL4439_lig764
                    3D
 Schrodinger Suite 2021-1.
 39 42  0  0  1  0            999 V2000
   19.8304   67.5586    9.1210 C   0  0  0  0  0  0
   18.5784   68.4471    9.1292 C   0  0  0  0  0  0
   17.3278   67.6800    8.7556 C   0  0  0  0  0  0
   16.4776   67.0538    9.6689 C   0  0  0  0  0  0
   15.4649   66.4570    9.1104 N   0  0  0  0  0  0
   15.6120   66.6607    7.7932 N   0  0  0  0  0  0
   14.6371   66.0787    6.9456 C   0  0  0  0  0  0
   13.2709   66.2627    7.2107 C   0  0  0  0  0  0
   12.3345   65.6572    6.3732 C   0  0  0  0  0  0
   12.7749   64.9210    5.2722 C   0  0  0  0  0  0
   14.1489   64.7982    5.0598 C   0  0  0  0  0  0
   14.6808   64.0519    3.8518 C   0  0  0  0  0  0
   15.0773   65.3264    5.8996 N   0  0  0  0  0  0
   16.7360   67.4337    7.4980 C   0  0  0  0  0  0
   17.1361   67.8727    6.1286 C   0  0  0  0  0  0
   16.3617   67.9248    4.9772 C   0  0  0  0  0  0
   17.0621   68.3473    3.8186 C   0  0  0  0  0  0
   16.6426   68.4579    2.4832 C   0  0  0  0  0  0
   17.4496   68.9199    1.4990 N   0  0  0  0  0  0
   18.7073   69.2978    1.8186 C   0  0  0  0  0  0
   19.2353   69.2427    3.1086 C   0  0  0  0  0  0
   18.3943   68.7307    4.1086 C   0  0  0  0  0  0
   18.7658   68.4573    5.7980 S   0  0  0  0  0  0
   20.7232   68.1285    9.3767 H   0  0  0  0  0  0
   19.7376   66.7464    9.8434 H   0  0  0  0  0  0
   19.9995   67.1060    8.1449 H   0  0  0  0  0  0
   18.7222   69.3192    8.4915 H   0  0  0  0  0  0
   18.4652   68.8573   10.1316 H   0  0  0  0  0  0
   16.6120   67.0506   10.7399 H   0  0  0  0  0  0
   12.9430   66.8574    8.0507 H   0  0  0  0  0  0
   11.2773   65.7778    6.5598 H   0  0  0  0  0  0
   12.0654   64.4760    4.5878 H   0  0  0  0  0  0
   14.0863   64.2703    2.9651 H   0  0  0  0  0  0
   15.7158   64.3183    3.6323 H   0  0  0  0  0  0
   14.6331   62.9768    4.0296 H   0  0  0  0  0  0
   15.3198   67.6529    4.9311 H   0  0  0  0  0  0
   15.6380   68.1869    2.1897 H   0  0  0  0  0  0
   19.3160   69.6572    1.0006 H   0  0  0  0  0  0
   20.2548   69.5399    3.3185 H   0  0  0  0  0  0
  1  2  1  0  0  0
  1 24  1  0  0  0
  1 25  1  0  0  0
  1 26  1  0  0  0
  2  3  1  0  0  0
  2 27  1  0  0  0
  2 28  1  0  0  0
  3  4  1  0  0  0
  3 14  2  0  0  0
  4  5  2  0  0  0
  4 29  1  0  0  0
  5  6  1  0  0  0
  6  7  1  0  0  0
  6 14  1  0  0  0
  7  8  2  0  0  0
  7 13  1  0  0  0
  8  9  1  0  0  0
  8 30  1  0  0  0
  9 10  2  0  0  0
  9 31  1  0  0  0
 10 11  1  0  0  0
 10 32  1  0  0  0
 11 12  1  0  0  0
 11 13  2  0  0  0
 12 33  1  0  0  0
 12 34  1  0  0  0
 12 35  1  0  0  0
 14 15  1  0  0  0
 15 16  2  0  0  0
 15 23  1  0  0  0
 16 17  1  0  0  0
 16 36  1  0  0  0
 17 18  2  0  0  0
 17 22  1  0  0  0
 18 19  1  0  0  0
 18 37  1  0  0  0
 19 20  2  0  0  0
 20 21  1  0  0  0
 20 38  1  0  0  0
 21 22  2  0  0  0
 21 39  1  0  0  0
 22 23  1  0  0  0
M  END
> <s_m_entry_id>
34421

> <s_m_entry_name>
dock_pv.164

> <s_m_Source_Path>
/home/csk/Desktop/cluster/DUD-E-result/tgfr1

> <s_m_Source_File>
dock_pv.maegz

> <i_m_Source_File_Index>
164

> <chembl_id>
CHEMBL3704651

> <chembl_pref_name>
None

> <i_lp_mmshare_version>
53161

> <r_lp_tautomer_probability>
1

> <s_lp_Force_Field>
OPLS_2005

> <r_lp_Energy>
11.658824

> <b_lp_Chiralities_Consistent>
1

> <s_lp_Variant>
CHEMBL4439_lig764-1

> <s_i_glide_gridfile>
glide-grid_3hmm

> <i_i_glide_lignum>
1078

> <i_i_glide_rotatable_bonds>
3

> <r_i_docking_score>
-8.56198708200748

> <r_i_glide_ligand_efficiency>
-0.372260307913369

> <r_i_glide_ligand_efficiency_sa>
-1.05865879647773

> <r_i_glide_ligand_efficiency_ln>
-2.07036611223595

> <r_i_glide_gscore>
-8.56198708200748

> <r_i_glide_lipo>
-3.75225003726437

> <r_i_glide_hbond>
-0.0717847106330533

> <r_i_glide_metal>
0

> <r_i_glide_rewards>
-2.47062659020883

> <r_i_glide_evdw>
-44.7140464782715

> <r_i_glide_ecoul>
-2.63586831092834

> <r_i_glide_erotb>
0.363756826651598

> <r_i_glide_esite>
0

> <r_i_glide_emodel>
-70.002418307575

> <r_i_glide_energy>
-47.3499147891998

> <r_i_glide_einternal>
3.28246021270752

> <i_i_glide_confnum>
9

> <i_i_glide_posenum>
339

> <r_i_glide_eff_state_penalty>
0

> <s_user_duplicate_titles>
CHEMBL4439_lig764

> <i_f3d_flags>
0

> <s_m_subgroup_title>
dock_pv

> <s_m_subgroupid>
dock_pv

> <b_m_subgroup_collapsed>
1

$$$$
CHEMBL4439_lig857
                    3D
 Schrodinger Suite 2021-1.
 54 57  0  0  1  0            999 V2000
   18.9311   66.8568    9.6387 C   0  0  0  0  0  0
   17.5623   67.5672    9.4920 C   0  0  0  0  0  0
   17.4102   68.5159   10.6849 C   0  0  0  0  0  0
   17.8168   68.0570    4.4933 C   0  0  0  0  0  0
   18.2078   68.6133    3.2901 C   0  0  0  0  0  0
   17.2774   68.7673    2.2559 C   0  0  0  0  0  0
   15.9558   68.3782    2.4554 C   0  0  0  0  0  0
   15.5780   67.7756    3.6542 C   0  0  0  0  0  0
   16.5049   67.6335    4.6920 C   0  0  0  0  0  0
   16.1411   67.0108    6.0005 C   0  0  0  0  0  0
   15.1495   65.6572    7.5211 N   0  0  0  0  0  0
   15.1953   65.9777    6.2484 C   0  0  0  0  0  0
   16.0248   66.4469    8.1223 N   0  0  0  0  0  0
   16.6052   67.3454    7.2828 C   0  0  0  0  0  0
   17.3986   68.3248    8.1363 C   0  0  2  0  0  0
   16.3867   66.5630    9.5131 C   0  0  0  0  0  0
   14.3124   65.2172    5.3144 C   0  0  0  0  0  0
   12.9851   65.2273    5.6207 N   0  0  0  0  0  0
   12.1499   64.4807    4.8513 C   0  0  0  0  0  0
   12.6007   63.6567    3.8214 C   0  0  0  0  0  0
   13.9572   63.6572    3.5162 C   0  0  0  0  0  0
   14.8219   64.4698    4.2489 C   0  0  0  0  0  0
   10.6719   64.5569    5.1664 C   0  0  0  0  0  0
   18.6792   68.9387    7.5382 C   0  0  0  0  0  0
   17.6015   69.2569    1.0141 O   0  0  0  0  0  0
   18.9741   69.2571    0.6591 C   0  0  0  0  0  0
   10.2450   63.3732    6.0321 C   0  0  0  0  0  0
   19.0823   66.0574    8.9218 H   0  0  0  0  0  0
   19.7648   67.5493    9.5269 H   0  0  0  0  0  0
   19.0372   66.4454   10.6389 H   0  0  0  0  0  0
   16.6674   69.2680   10.4321 H   0  0  0  0  0  0
   17.0839   68.0024   11.5904 H   0  0  0  0  0  0
   18.3502   69.0089   10.9294 H   0  0  0  0  0  0
   18.5680   67.8866    5.2416 H   0  0  0  0  0  0
   19.2431   68.8938    3.1814 H   0  0  0  0  0  0
   15.2337   68.4947    1.6594 H   0  0  0  0  0  0
   14.5564   67.4521    3.7817 H   0  0  0  0  0  0
   16.7252   69.1719    8.2793 H   0  0  0  0  0  0
   15.5255   66.9307   10.0736 H   0  0  0  0  0  0
   16.6660   65.5952    9.9303 H   0  0  0  0  0  0
   11.9123   63.0608    3.2393 H   0  0  0  0  0  0
   14.3225   63.0530    2.7010 H   0  0  0  0  0  0
   15.8670   64.4864    4.0130 H   0  0  0  0  0  0
   10.1194   64.5393    4.2265 H   0  0  0  0  0  0
   10.4253   65.5118    5.6320 H   0  0  0  0  0  0
   18.4617   69.5828    6.6878 H   0  0  0  0  0  0
   19.1796   69.5656    8.2768 H   0  0  0  0  0  0
   19.3936   68.1758    7.2290 H   0  0  0  0  0  0
   19.0670   69.6570   -0.3486 H   0  0  0  0  0  0
   19.5768   69.8964    1.3050 H   0  0  0  0  0  0
   19.3815   68.2520    0.6734 H   0  0  0  0  0  0
    9.1621   63.2571    6.0641 H   0  0  0  0  0  0
   10.6652   62.4570    5.6323 H   0  0  0  0  0  0
   10.6158   63.4697    7.0501 H   0  0  0  0  0  0
  1  2  1  0  0  0
  1 28  1  0  0  0
  1 29  1  0  0  0
  1 30  1  0  0  0
  2  3  1  0  0  0
  2 15  1  0  0  0
  2 16  1  0  0  0
  3 31  1  0  0  0
  3 32  1  0  0  0
  3 33  1  0  0  0
  4  5  2  0  0  0
  4  9  1  0  0  0
  4 34  1  0  0  0
  5  6  1  0  0  0
  5 35  1  0  0  0
  6  7  2  0  0  0
  6 25  1  0  0  0
  7  8  1  0  0  0
  7 36  1  0  0  0
  8  9  2  0  0  0
  8 37  1  0  0  0
  9 10  1  0  0  0
 10 14  2  0  0  0
 10 12  1  0  0  0
 11 13  1  0  0  0
 11 12  2  0  0  0
 12 17  1  0  0  0
 13 14  1  0  0  0
 13 16  1  0  0  0
 14 15  1  0  0  0
 15 24  1  0  0  0
 15 38  1  0  0  0
 16 39  1  0  0  0
 16 40  1  0  0  0
 17 18  2  0  0  0
 17 22  1  0  0  0
 18 19  1  0  0  0
 19 20  2  0  0  0
 19 23  1  0  0  0
 20 21  1  0  0  0
 20 41  1  0  0  0
 21 22  2  0  0  0
 21 42  1  0  0  0
 22 43  1  0  0  0
 23 27  1  0  0  0
 23 44  1  0  0  0
 23 45  1  0  0  0
 24 46  1  0  0  0
 24 47  1  0  0  0
 24 48  1  0  0  0
 25 26  1  0  0  0
 26 49  1  0  0  0
 26 50  1  0  0  0
 26 51  1  0  0  0
 27 52  1  0  0  0
 27 53  1  0  0  0
 27 54  1  0  0  0
M  END
> <s_m_entry_id>
34422

> <s_m_entry_name>
dock_pv.165

> <s_m_Source_Path>
/home/csk/Desktop/cluster/DUD-E-result/tgfr1

> <s_m_Source_File>
dock_pv.maegz

> <i_m_Source_File_Index>
165

> <chembl_id>
CHEMBL4284266

> <chembl_pref_name>
None

> <i_lp_mmshare_version>
53161

> <r_lp_tautomer_probability>
1

> <s_lp_Force_Field>
OPLS_2005

> <r_lp_Energy>
41.210647

> <b_lp_Chiralities_Consistent>
1

> <s_lp_Variant>
CHEMBL4439_lig857-2

> <s_i_glide_gridfile>
glide-grid_3hmm

> <i_i_glide_lignum>
1185

> <i_i_glide_rotatable_bonds>
4

> <r_i_docking_score>
-8.56036617220607

> <r_i_glide_ligand_efficiency>
-0.317050598970595

> <r_i_glide_ligand_efficiency_sa>
-0.951151795866838

> <r_i_glide_ligand_efficiency_ln>
-1.99271211622342

> <r_i_glide_gscore>
-8.56036617220607

> <r_i_glide_lipo>
-4.65019226686546

> <r_i_glide_hbond>
-0.426163737495196

> <r_i_glide_metal>
0

> <r_i_glide_rewards>
-1.39056415256248

> <r_i_glide_evdw>
-38.9838409423828

> <r_i_glide_ecoul>
-2.91994118690491

> <r_i_glide_erotb>
0.293737209871946

> <r_i_glide_esite>
0

> <r_i_glide_emodel>
-50.8408492895271

> <r_i_glide_energy>
-41.9037821292877

> <r_i_glide_einternal>
8.11434364318848

> <i_i_glide_confnum>
1

> <i_i_glide_posenum>
4

> <r_i_glide_eff_state_penalty>
0

> <s_user_duplicate_titles>
CHEMBL4439_lig857

> <i_f3d_flags>
0

> <s_m_subgroup_title>
dock_pv

> <s_m_subgroupid>
dock_pv

> <b_m_subgroup_collapsed>
1

$$$$
CHEMBL4439_lig527
                    3D
 Schrodinger Suite 2021-1.
 36 39  0  0  1  0            999 V2000
   14.5236   66.4571    8.3285 N   0  0  0  0  0  0
   14.6556   66.4911    6.9890 N   0  0  0  0  0  0
   15.6978   67.3232    6.5949 C   0  0  0  0  0  0
   16.2180   67.7997    7.7943 C   0  0  0  0  0  0
   15.4670   67.2237    8.8075 C   0  0  0  0  0  0
   13.7964   65.6734    6.2169 C   0  0  0  0  0  0
   14.3750   64.9302    5.2359 N   0  0  0  0  0  0
   13.5726   64.1553    4.4620 C   0  0  0  0  0  0
   12.1936   64.0572    4.6548 C   0  0  0  0  0  0
   11.6131   64.8142    5.6725 C   0  0  0  0  0  0
   12.4153   65.6404    6.4632 C   0  0  0  0  0  0
   14.2566   63.4360    3.3232 C   0  0  0  0  0  0
   16.1450   67.6570    5.2049 C   0  0  0  0  0  0
   17.4586   68.1081    5.0394 C   0  0  0  0  0  0
   15.7278   68.0570    2.8337 C   0  0  0  0  0  0
   15.2910   67.6392    4.0914 C   0  0  0  0  0  0
   17.0370   68.4859    2.6754 C   0  0  0  0  0  0
   17.8877   68.5348    3.7847 C   0  0  0  0  0  0
   19.2573   69.1305    3.5948 C   0  0  0  0  0  0
   19.5003   69.4389    2.3012 N   0  0  0  0  0  0
   18.6670   69.2570    1.2356 C   0  0  0  0  0  0
   17.4650   68.8570    1.3906 N   0  0  0  0  0  0
   20.0774   69.3694    4.4743 O   0  0  0  0  0  0
   17.0412   68.4880    7.9210 H   0  0  0  0  0  0
   15.6017   67.3765    9.8690 H   0  0  0  0  0  0
   11.5849   63.4360    4.0138 H   0  0  0  0  0  0
   10.5480   64.7691    5.8398 H   0  0  0  0  0  0
   11.9680   66.2330    7.2481 H   0  0  0  0  0  0
   13.7769   62.4805    3.1091 H   0  0  0  0  0  0
   15.3085   63.2570    3.5464 H   0  0  0  0  0  0
   14.2029   64.0570    2.4320 H   0  0  0  0  0  0
   18.1315   68.1597    5.8853 H   0  0  0  0  0  0
   15.0590   68.0483    1.9854 H   0  0  0  0  0  0
   14.2670   67.3296    4.1983 H   0  0  0  0  0  0
   20.4107   69.8396    2.1433 H   0  0  0  0  0  0
   19.0580   69.5155    0.2557 H   0  0  0  0  0  0
  1  2  1  0  0  0
  1  5  2  0  0  0
  2  6  1  0  0  0
  2  3  1  0  0  0
  3 13  1  0  0  0
  3  4  2  0  0  0
  4  5  1  0  0  0
  4 24  1  0  0  0
  5 25  1  0  0  0
  6 11  1  0  0  0
  6  7  2  0  0  0
  7  8  1  0  0  0
  8 12  1  0  0  0
  8  9  2  0  0  0
  9 10  1  0  0  0
  9 26  1  0  0  0
 10 11  2  0  0  0
 10 27  1  0  0  0
 11 28  1  0  0  0
 12 29  1  0  0  0
 12 30  1  0  0  0
 12 31  1  0  0  0
 13 14  2  0  0  0
 13 16  1  0  0  0
 14 18  1  0  0  0
 14 32  1  0  0  0
 15 17  1  0  0  0
 15 16  2  0  0  0
 15 33  1  0  0  0
 16 34  1  0  0  0
 17 18  2  0  0  0
 17 22  1  0  0  0
 18 19  1  0  0  0
 19 20  1  0  0  0
 19 23  2  0  0  0
 20 21  1  0  0  0
 20 35  1  0  0  0
 21 22  2  0  0  0
 21 36  1  0  0  0
M  END
> <s_m_entry_id>
34423

> <s_m_entry_name>
dock_pv.166

> <s_m_Source_Path>
/home/csk/Desktop/cluster/DUD-E-result/tgfr1

> <s_m_Source_File>
dock_pv.maegz

> <i_m_Source_File_Index>
166

> <chembl_id>
CHEMBL2024690

> <chembl_pref_name>
None

> <i_lp_mmshare_version>
53161

> <r_lp_tautomer_probability>
0.883938

> <s_lp_Force_Field>
OPLS_2005

> <r_lp_Energy>
22.153732

> <b_lp_Chiralities_Consistent>
1

> <s_lp_Variant>
CHEMBL4439_lig527-1

> <s_i_glide_gridfile>
glide-grid_3hmm

> <i_i_glide_lignum>
703

> <i_i_glide_rotatable_bonds>
2

> <r_i_docking_score>
-8.56020140561155

> <r_i_glide_ligand_efficiency>
-0.372182669809198

> <r_i_glide_ligand_efficiency_sa>
-1.05843800403713

> <r_i_glide_ligand_efficiency_ln>
-2.06993431949179

> <r_i_glide_gscore>
-8.56020140561155

> <r_i_glide_lipo>
-3.7613989770713

> <r_i_glide_hbond>
-0.198839789162058

> <r_i_glide_metal>
0

> <r_i_glide_rewards>
-2.28320301554873

> <r_i_glide_evdw>
-42.6528244018555

> <r_i_glide_ecoul>
-3.89774942398071

> <r_i_glide_erotb>
0.400544009860414

> <r_i_glide_esite>
0

> <r_i_glide_emodel>
-68.7236587617371

> <r_i_glide_energy>
-46.5505738258362

> <r_i_glide_einternal>
3.30713486671448

> <i_i_glide_confnum>
8

> <i_i_glide_posenum>
62

> <r_i_glide_eff_state_penalty>
0

> <s_user_duplicate_titles>
CHEMBL4439_lig527,CHEMBL4439_lig527

> <i_f3d_flags>
0

> <s_m_subgroup_title>
dock_pv

> <s_m_subgroupid>
dock_pv

> <b_m_subgroup_collapsed>
1

$$$$
CHEMBL4439_lig38
                    3D
 Schrodinger Suite 2021-1.
 32 34  0  0  1  0            999 V2000
   13.0597   63.7027    4.1081 C   0  0  0  0  0  0
   12.5271   64.3362    5.2318 C   0  0  0  0  0  0
   13.2168   65.2569    5.9557 N   0  0  0  0  0  0
   14.4804   65.5841    5.5616 C   0  0  0  0  0  0
   15.0668   65.0018    4.4318 C   0  0  0  0  0  0
   14.3453   64.0566    3.7011 C   0  0  0  0  0  0
   11.1295   64.0262    5.7220 C   0  0  0  0  0  0
   15.2204   66.5534    6.4404 C   0  0  0  0  0  0
   15.0138   66.5251    7.7480 N   0  0  0  0  0  0
   16.5812   68.0649    7.3157 C   0  0  0  0  0  0
   16.1982   67.5318    6.0925 C   0  0  0  0  0  0
   16.7344   67.9708    4.7629 C   0  0  0  0  0  0
   15.9126   68.0007    3.6326 C   0  0  0  0  0  0
   16.4092   68.4573    2.4160 C   0  0  0  0  0  0
   17.7373   68.8571    2.3129 C   0  0  0  0  0  0
   18.5648   68.8451    3.4324 C   0  0  0  0  0  0
   18.0623   68.4058    4.6554 C   0  0  0  0  0  0
   15.8319   67.4370    8.2641 N   0  0  0  0  0  0
   18.2245   69.2569    1.0992 O   0  0  0  0  0  0
   12.4881   62.9760    3.5496 H   0  0  0  0  0  0
   16.0687   65.2599    4.1278 H   0  0  0  0  0  0
   14.7838   63.5955    2.8310 H   0  0  0  0  0  0
   10.4984   63.6499    4.9156 H   0  0  0  0  0  0
   10.6670   64.9314    6.1139 H   0  0  0  0  0  0
   11.1601   63.2793    6.5164 H   0  0  0  0  0  0
   17.2860   68.8393    7.5849 H   0  0  0  0  0  0
   14.8771   67.7000    3.6983 H   0  0  0  0  0  0
   15.7656   68.4840    1.5487 H   0  0  0  0  0  0
   19.5945   69.1612    3.3591 H   0  0  0  0  0  0
   18.7137   68.3933    5.5168 H   0  0  0  0  0  0
   15.8724   67.6271    9.2555 H   0  0  0  0  0  0
   19.0687   69.7149    1.1592 H   0  0  0  0  0  0
  1  6  1  0  0  0
  1  2  2  0  0  0
  1 20  1  0  0  0
  2  3  1  0  0  0
  2  7  1  0  0  0
  3  4  2  0  0  0
  4  5  1  0  0  0
  4  8  1  0  0  0
  5  6  2  0  0  0
  5 21  1  0  0  0
  6 22  1  0  0  0
  7 23  1  0  0  0
  7 24  1  0  0  0
  7 25  1  0  0  0
  8  9  2  0  0  0
  8 11  1  0  0  0
  9 18  1  0  0  0
 10 11  2  0  0  0
 10 18  1  0  0  0
 10 26  1  0  0  0
 11 12  1  0  0  0
 12 13  2  0  0  0
 12 17  1  0  0  0
 13 14  1  0  0  0
 13 27  1  0  0  0
 14 15  2  0  0  0
 14 28  1  0  0  0
 15 16  1  0  0  0
 15 19  1  0  0  0
 16 17  2  0  0  0
 16 29  1  0  0  0
 17 30  1  0  0  0
 18 31  1  0  0  0
 19 32  1  0  0  0
M  END
> <s_m_entry_id>
34424

> <s_m_entry_name>
dock_pv.167

> <s_m_Source_Path>
/home/csk/Desktop/cluster/DUD-E-result/tgfr1

> <s_m_Source_File>
dock_pv.maegz

> <i_m_Source_File_Index>
167

> <chembl_id>
CHEMBL118928

> <chembl_pref_name>
None

> <i_lp_mmshare_version>
53161

> <r_lp_tautomer_probability>
0.499999999999341

> <s_lp_Force_Field>
OPLS_2005

> <r_lp_Energy>
15.015918

> <b_lp_Chiralities_Consistent>
1

> <s_lp_Variant>
CHEMBL4439_lig38-1

> <s_i_glide_gridfile>
glide-grid_3hmm

> <i_i_glide_lignum>
49

> <i_i_glide_rotatable_bonds>
3

> <r_i_docking_score>
-8.55849395957618

> <r_i_glide_ligand_efficiency>
-0.45044705050401

> <r_i_glide_ligand_efficiency_sa>
-1.20197365104712

> <r_i_glide_ligand_efficiency_ln>
-2.16976203834818

> <r_i_glide_gscore>
-8.55849395957618

> <r_i_glide_lipo>
-3.82562523114231

> <r_i_glide_hbond>
-0.314603374649205

> <r_i_glide_metal>
0

> <r_i_glide_rewards>
-2.44260613243389

> <r_i_glide_evdw>
-38.6906929016113

> <r_i_glide_ecoul>
-3.97486424446106

> <r_i_glide_erotb>
0.555105060398953

> <r_i_glide_esite>
0

> <r_i_glide_emodel>
-64.0043250685307

> <r_i_glide_energy>
-42.6655571460724

> <r_i_glide_einternal>
0.934406876564026

> <i_i_glide_confnum>
12

> <i_i_glide_posenum>
154

> <r_i_glide_eff_state_penalty>
0

> <s_user_duplicate_titles>
CHEMBL4439_lig38,CHEMBL4439_lig38,197210

> <i_f3d_flags>
0

> <s_m_subgroup_title>
dock_pv

> <s_m_subgroupid>
dock_pv

> <b_m_subgroup_collapsed>
1

$$$$
CHEMBL4439_lig130
                    3D
 Schrodinger Suite 2021-1.
 40 43  0  0  1  0            999 V2000
   16.7140   67.1416    6.6229 C   0  0  0  0  0  0
   15.4224   66.9292    7.1308 C   0  0  0  0  0  0
   15.0178   67.5664    8.2664 N   0  0  0  0  0  0
   15.8679   68.4311    8.8737 C   0  0  0  0  0  0
   17.1351   68.7257    8.3762 C   0  0  0  0  0  0
   17.5662   68.0808    7.2127 C   0  0  0  0  0  0
   18.9004   68.4126    6.6243 C   0  0  0  0  0  0
   19.2986   68.7181    5.2825 C   0  0  0  0  0  0
   20.5983   68.9556    5.2284 N   0  0  0  0  0  0
   21.0543   68.8288    6.4698 N   0  0  0  0  0  0
   20.0729   68.5129    7.3603 C   0  0  0  0  0  0
   18.5013   68.8106    3.9996 C   0  0  0  0  0  0
   19.0672   69.2570    2.7947 C   0  0  0  0  0  0
   18.2844   69.2879    1.6385 C   0  0  0  0  0  0
   16.9524   68.8859    1.7009 C   0  0  0  0  0  0
   16.4483   68.4566    2.9245 C   0  0  0  0  0  0
   17.1967   68.4336    4.0529 N   0  0  0  0  0  0
   14.4048   66.0639    6.4377 C   0  0  0  0  0  0
   14.7594   65.2573    5.3428 C   0  0  0  0  0  0
   13.8187   64.4811    4.6628 C   0  0  0  0  0  0
   12.4906   64.4711    5.0910 C   0  0  0  0  0  0
   12.1060   65.2572    6.1753 C   0  0  0  0  0  0
   13.0519   66.0486    6.8318 C   0  0  0  0  0  0
   14.2495   63.6553    3.4679 C   0  0  0  0  0  0
   17.0661   66.6273    5.7480 H   0  0  0  0  0  0
   15.5060   68.9003    9.7758 H   0  0  0  0  0  0
   17.7635   69.4526    8.8734 H   0  0  0  0  0  0
   22.0352   68.9474    6.6896 H   0  0  0  0  0  0
   20.2886   68.3779    8.4098 H   0  0  0  0  0  0
   20.0999   69.5732    2.7476 H   0  0  0  0  0  0
   18.7159   69.6337    0.7116 H   0  0  0  0  0  0
   16.3137   68.9075    0.8305 H   0  0  0  0  0  0
   15.4219   68.1397    3.0202 H   0  0  0  0  0  0
   15.7765   65.2244    4.9848 H   0  0  0  0  0  0
   11.7530   63.8735    4.5749 H   0  0  0  0  0  0
   11.0709   65.2654    6.4950 H   0  0  0  0  0  0
   12.7147   66.6585    7.6578 H   0  0  0  0  0  0
   13.5859   62.8049    3.3050 H   0  0  0  0  0  0
   15.2492   63.2570    3.6320 H   0  0  0  0  0  0
   14.2670   64.2668    2.5665 H   0  0  0  0  0  0
  1  6  1  0  0  0
  1  2  2  0  0  0
  1 25  1  0  0  0
  2  3  1  0  0  0
  2 18  1  0  0  0
  3  4  2  0  0  0
  4  5  1  0  0  0
  4 26  1  0  0  0
  5  6  2  0  0  0
  5 27  1  0  0  0
  6  7  1  0  0  0
  7  8  1  0  0  0
  7 11  2  0  0  0
  8 12  1  0  0  0
  8  9  2  0  0  0
  9 10  1  0  0  0
 10 11  1  0  0  0
 10 28  1  0  0  0
 11 29  1  0  0  0
 12 13  2  0  0  0
 12 17  1  0  0  0
 13 14  1  0  0  0
 13 30  1  0  0  0
 14 15  2  0  0  0
 14 31  1  0  0  0
 15 16  1  0  0  0
 15 32  1  0  0  0
 16 17  2  0  0  0
 16 33  1  0  0  0
 18 19  2  0  0  0
 18 23  1  0  0  0
 19 20  1  0  0  0
 19 34  1  0  0  0
 20 21  2  0  0  0
 20 24  1  0  0  0
 21 22  1  0  0  0
 21 35  1  0  0  0
 22 23  2  0  0  0
 22 36  1  0  0  0
 23 37  1  0  0  0
 24 38  1  0  0  0
 24 39  1  0  0  0
 24 40  1  0  0  0
M  END
> <s_m_entry_id>
34426

> <s_m_entry_name>
dock_pv.169

> <s_m_Source_Path>
/home/csk/Desktop/cluster/DUD-E-result/tgfr1

> <s_m_Source_File>
dock_pv.maegz

> <i_m_Source_File_Index>
169

> <chembl_id>
CHEMBL205260

> <chembl_pref_name>
None

> <i_lp_mmshare_version>
53161

> <r_lp_tautomer_probability>
0.5

> <s_lp_Force_Field>
OPLS_2005

> <r_lp_Energy>
21.242799

> <b_lp_Chiralities_Consistent>
1

> <s_lp_Variant>
CHEMBL4439_lig130-1

> <s_i_glide_gridfile>
glide-grid_3hmm

> <i_i_glide_lignum>
196

> <i_i_glide_rotatable_bonds>
3

> <r_i_docking_score>
-8.542900819327

> <r_i_glide_ligand_efficiency>
-0.355954200805292

> <r_i_glide_ligand_efficiency_sa>
-1.02674958523341

> <r_i_glide_ligand_efficiency_ln>
-2.04470817423996

> <r_i_glide_gscore>
-8.542900819327

> <r_i_glide_lipo>
-4.69420540107504

> <r_i_glide_hbond>
0

> <r_i_glide_metal>
0

> <r_i_glide_rewards>
-1.62097684848485

> <r_i_glide_evdw>
-48.7285270690918

> <r_i_glide_ecoul>
-2.41265392303467

> <r_i_glide_erotb>
0.570605872142673

> <r_i_glide_esite>
0

> <r_i_glide_emodel>
-77.6458195632396

> <r_i_glide_energy>
-51.1411809921265

> <r_i_glide_einternal>
1.25422096252441

> <i_i_glide_confnum>
37

> <i_i_glide_posenum>
139

> <r_i_glide_eff_state_penalty>
0

> <s_user_duplicate_titles>
CHEMBL4439_lig130,CHEMBL4439_lig130,343363

> <i_f3d_flags>
0

> <s_m_subgroup_title>
dock_pv

> <s_m_subgroupid>
dock_pv

> <b_m_subgroup_collapsed>
1

$$$$
CHEMBL4439_lig600
                    3D
 Schrodinger Suite 2021-1.
 33 36  0  0  1  0            999 V2000
   12.2670   65.7116    6.7398 S   0  0  0  0  0  0
   13.9550   65.6629    6.3604 C   0  0  0  0  0  0
   14.2593   64.8760    5.3543 N   0  0  0  0  0  0
   13.1932   64.3020    4.8217 C   0  0  0  0  0  0
   11.9827   64.6133    5.4301 C   0  0  0  0  0  0
   13.4206   63.4002    3.6320 C   0  0  0  0  0  0
   14.9300   66.4499    7.1056 C   0  0  0  0  0  0
   15.9514   67.2652    6.6015 C   0  0  0  0  0  0
   16.5793   67.7216    7.7348 N   0  0  0  0  0  0
   15.9363   67.1828    8.8085 C   0  0  0  0  0  0
   14.9177   66.4570    8.4328 N   0  0  0  0  0  0
   16.3688   67.6619    5.2255 C   0  0  0  0  0  0
   15.4670   67.6323    4.1535 C   0  0  0  0  0  0
   15.8237   68.0570    2.8728 C   0  0  0  0  0  0
   17.6731   68.1245    5.0328 C   0  0  0  0  0  0
   18.0362   68.5633    3.7608 C   0  0  0  0  0  0
   17.1303   68.5103    2.6706 C   0  0  0  0  0  0
   17.6374   68.9237    1.4811 N   0  0  0  0  0  0
   18.8760   69.2961    1.6229 C   0  0  0  0  0  0
   19.5490   69.2570    3.2320 S   0  0  0  0  0  0
   16.3755   67.4042   10.2365 C   0  0  0  0  0  0
   10.9875   64.2770    5.1793 H   0  0  0  0  0  0
   12.4878   63.1584    3.1213 H   0  0  0  0  0  0
   13.8670   62.4570    3.9314 H   0  0  0  0  0  0
   14.0743   63.8526    2.8847 H   0  0  0  0  0  0
   17.3789   68.3364    7.7697 H   0  0  0  0  0  0
   14.4513   67.3054    4.3131 H   0  0  0  0  0  0
   15.1115   68.0368    2.0602 H   0  0  0  0  0  0
   18.3871   68.1659    5.8418 H   0  0  0  0  0  0
   19.4734   69.6570    0.7978 H   0  0  0  0  0  0
   15.7537   66.8648   10.9521 H   0  0  0  0  0  0
   17.4016   67.0726   10.3976 H   0  0  0  0  0  0
   16.3319   68.4570   10.5096 H   0  0  0  0  0  0
  1  2  1  0  0  0
  1  5  1  0  0  0
  2  3  2  0  0  0
  2  7  1  0  0  0
  3  4  1  0  0  0
  4  5  2  0  0  0
  4  6  1  0  0  0
  5 22  1  0  0  0
  6 23  1  0  0  0
  6 24  1  0  0  0
  6 25  1  0  0  0
  7  8  2  0  0  0
  7 11  1  0  0  0
  8  9  1  0  0  0
  8 12  1  0  0  0
  9 10  1  0  0  0
  9 26  1  0  0  0
 10 11  2  0  0  0
 10 21  1  0  0  0
 12 13  2  0  0  0
 12 15  1  0  0  0
 13 14  1  0  0  0
 13 27  1  0  0  0
 14 17  2  0  0  0
 14 28  1  0  0  0
 15 16  2  0  0  0
 15 29  1  0  0  0
 16 17  1  0  0  0
 16 20  1  0  0  0
 17 18  1  0  0  0
 18 19  2  0  0  0
 19 20  1  0  0  0
 19 30  1  0  0  0
 21 31  1  0  0  0
 21 32  1  0  0  0
 21 33  1  0  0  0
M  END
> <s_m_entry_id>
34427

> <s_m_entry_name>
dock_pv.170

> <s_m_Source_Path>
/home/csk/Desktop/cluster/DUD-E-result/tgfr1

> <s_m_Source_File>
dock_pv.maegz

> <i_m_Source_File_Index>
170

> <chembl_id>
CHEMBL2207989

> <chembl_pref_name>
None

> <i_lp_mmshare_version>
53161

> <r_lp_tautomer_probability>
0.499999999999999

> <s_lp_Force_Field>
OPLS_2005

> <r_lp_Energy>
8.654367

> <b_lp_Chiralities_Consistent>
1

> <s_lp_Variant>
CHEMBL4439_lig600-1

> <s_i_glide_gridfile>
glide-grid_3hmm

> <i_i_glide_lignum>
813

> <i_i_glide_rotatable_bonds>
2

> <r_i_docking_score>
-8.53376872378588

> <r_i_glide_ligand_efficiency>
-0.406369939227899

> <r_i_glide_ligand_efficiency_sa>
-1.12114384875259

> <r_i_glide_ligand_efficiency_ln>
-2.10995707285267

> <r_i_glide_gscore>
-8.53376872378588

> <r_i_glide_lipo>
-3.56968858209429

> <r_i_glide_hbond>
-0.143659100271158

> <r_i_glide_metal>
0

> <r_i_glide_rewards>
-2.59111137704333

> <r_i_glide_evdw>
-41.9714698791504

> <r_i_glide_ecoul>
-3.40693378448486

> <r_i_glide_erotb>
0.380303897253147

> <r_i_glide_esite>
0

> <r_i_glide_emodel>
-67.5529294230086

> <r_i_glide_energy>
-45.3784036636353

> <r_i_glide_einternal>
2.18257641792297

> <i_i_glide_confnum>
2

> <i_i_glide_posenum>
310

> <r_i_glide_eff_state_penalty>
0

> <s_user_duplicate_titles>
CHEMBL4439_lig600,CHEMBL4439_lig600

> <i_f3d_flags>
0

> <s_m_subgroup_title>
dock_pv

> <s_m_subgroupid>
dock_pv

> <b_m_subgroup_collapsed>
1

$$$$
CHEMBL4439_lig35 
                    3D
 Schrodinger Suite 2021-1.
 47 51  0  0  1  0            999 V2000
   17.0273   68.5211    2.2622 C   0  0  0  0  0  0
   18.3665   68.8571    2.4583 C   0  0  0  0  0  0
   18.9066   68.6928    3.7348 C   0  0  0  0  0  0
   18.1720   68.2548    4.7880 N   0  0  0  0  0  0
   16.8551   67.9801    4.6089 C   0  0  0  0  0  0
   16.2640   68.0610    3.3377 C   0  0  0  0  0  0
   18.4369   68.8160    7.7092 C   0  0  0  0  0  0
   17.5251   67.8096    8.0656 C   0  0  0  0  0  0
   17.7617   67.0578    9.2320 C   0  0  0  0  0  0
   18.8954   67.2424   10.0263 C   0  0  0  0  0  0
   19.6126   68.9565    8.4569 C   0  0  0  0  0  0
   19.8373   68.1831    9.6061 C   0  0  0  0  0  0
   21.0018   68.4219   10.2510 N   0  0  0  0  0  0
   21.7479   69.6115    9.3437 S   0  0  0  0  0  0
   20.6068   69.8146    8.1402 N   0  0  0  0  0  0
   16.2916   67.5253    7.2375 C   0  0  0  0  0  0
   16.0601   67.6167    5.8371 C   0  0  0  0  0  0
   14.7362   67.2710    5.7270 N   0  0  0  0  0  0
   14.2687   66.9297    6.9594 C   0  0  0  0  0  0
   15.1956   67.0954    7.8658 N   0  0  0  0  0  0
   12.8215   66.5502    7.2424 C   0  0  0  0  0  0
   12.2967   65.2563    6.8320 N   0  0  0  0  0  0
   12.4862   64.6154    5.6020 C   0  0  0  0  0  0
   11.3834   63.9990    5.0059 C   0  0  0  0  0  0
   11.5347   63.2697    3.8254 C   0  0  0  0  0  0
   12.7917   63.1621    3.2336 C   0  0  0  0  0  0
   13.8936   63.7599    3.8307 C   0  0  0  0  0  0
   13.7467   64.4578    5.0223 C   0  0  0  0  0  0
   20.3635   68.9960    4.0317 C   0  0  0  0  0  0
   15.1130   63.6579    3.2658 F   0  0  0  0  0  0
   16.5764   68.6254    1.2861 H   0  0  0  0  0  0
   18.9698   69.2177    1.6378 H   0  0  0  0  0  0
   15.2227   67.8245    3.1793 H   0  0  0  0  0  0
   18.2657   69.4644    6.8684 H   0  0  0  0  0  0
   17.0578   66.2956    9.5306 H   0  0  0  0  0  0
   19.0588   66.6477   10.9124 H   0  0  0  0  0  0
   14.2046   67.2306    4.8695 H   0  0  0  0  0  0
   12.1159   67.2569    6.8333 H   0  0  0  0  0  0
   12.6616   66.6059    8.3193 H   0  0  0  0  0  0
   11.4673   64.9746    7.3498 H   0  0  0  0  0  0
   10.4034   64.0829    5.4535 H   0  0  0  0  0  0
   10.6759   62.8196    3.3506 H   0  0  0  0  0  0
   12.9142   62.6208    2.3083 H   0  0  0  0  0  0
   14.6390   64.8168    5.5032 H   0  0  0  0  0  0
   20.8655   69.4470    3.1749 H   0  0  0  0  0  0
   20.4488   69.6864    4.8720 H   0  0  0  0  0  0
   20.8966   68.0799    4.2901 H   0  0  0  0  0  0
  1  2  2  0  0  0
  1  6  1  0  0  0
  1 31  1  0  0  0
  2  3  1  0  0  0
  2 32  1  0  0  0
  3  4  2  0  0  0
  3 29  1  0  0  0
  4  5  1  0  0  0
  5  6  2  0  0  0
  5 17  1  0  0  0
  6 33  1  0  0  0
  7 11  1  0  0  0
  7  8  2  0  0  0
  7 34  1  0  0  0
  8  9  1  0  0  0
  8 16  1  0  0  0
  9 10  2  0  0  0
  9 35  1  0  0  0
 10 12  1  0  0  0
 10 36  1  0  0  0
 11 12  1  0  0  0
 11 15  2  0  0  0
 12 13  2  0  0  0
 13 14  1  0  0  0
 14 15  1  0  0  0
 16 17  2  0  0  0
 16 20  1  0  0  0
 17 18  1  0  0  0
 18 19  1  0  0  0
 18 37  1  0  0  0
 19 20  2  0  0  0
 19 21  1  0  0  0
 21 22  1  0  0  0
 21 38  1  0  0  0
 21 39  1  0  0  0
 22 23  1  0  0  0
 22 40  1  0  0  0
 23 24  2  0  0  0
 23 28  1  0  0  0
 24 25  1  0  0  0
 24 41  1  0  0  0
 25 26  2  0  0  0
 25 42  1  0  0  0
 26 27  1  0  0  0
 26 43  1  0  0  0
 27 28  2  0  0  0
 27 30  1  0  0  0
 28 44  1  0  0  0
 29 45  1  0  0  0
 29 46  1  0  0  0
 29 47  1  0  0  0
M  END
> <s_m_entry_id>
34428

> <s_m_entry_name>
dock_pv.171

> <s_m_Source_Path>
/home/csk/Desktop/cluster/DUD-E-result/tgfr1

> <s_m_Source_File>
dock_pv.maegz

> <i_m_Source_File_Index>
171

> <chembl_id>
CHEMBL4519261

> <chembl_pref_name>
None

> <i_lp_mmshare_version>
53161

> <r_lp_tautomer_probability>
0.499999999999999

> <s_lp_Force_Field>
OPLS_2005

> <r_lp_Energy>
15.837948

> <b_lp_Chiralities_Consistent>
1

> <s_lp_Variant>
CHEMBL4439_lig35 -1

> <s_i_glide_gridfile>
glide-grid_3hmm

> <i_i_glide_lignum>
44

> <i_i_glide_rotatable_bonds>
5

> <r_i_docking_score>
-8.53167983340058

> <r_i_glide_ligand_efficiency>
-0.284389327780019

> <r_i_glide_ligand_efficiency_sa>
-0.883663762622604

> <r_i_glide_ligand_efficiency_ln>
-1.93849061824592

> <r_i_glide_gscore>
-8.53167983340058

> <r_i_glide_lipo>
-4.80621989842798

> <r_i_glide_hbond>
-0.124442908022874

> <r_i_glide_metal>
0

> <r_i_glide_rewards>
-1.30414997455078

> <r_i_glide_evdw>
-52.3261489868164

> <r_i_glide_ecoul>
-1.66710031032562

> <r_i_glide_erotb>
0.569505443490713

> <r_i_glide_esite>
0

> <r_i_glide_emodel>
-81.3746065760227

> <r_i_glide_energy>
-53.993249297142

> <r_i_glide_einternal>
4.97968673706055

> <i_i_glide_confnum>
35

> <i_i_glide_posenum>
125

> <r_i_glide_eff_state_penalty>
0

> <s_user_duplicate_titles>
CHEMBL4439_lig35 ,CHEMBL4439_lig35 

> <i_f3d_flags>
0

> <s_m_subgroup_title>
dock_pv

> <s_m_subgroupid>
dock_pv

> <b_m_subgroup_collapsed>
1

$$$$
CHEMBL4439_lig127
                    3D
 Schrodinger Suite 2021-1.
 40 43  0  0  1  0            999 V2000
   16.7127   67.1531    6.6085 C   0  0  0  0  0  0
   15.4248   66.9429    7.1244 C   0  0  0  0  0  0
   15.0242   67.5863    8.2567 N   0  0  0  0  0  0
   15.8706   68.4613    8.8511 C   0  0  0  0  0  0
   17.1345   68.7558    8.3455 C   0  0  0  0  0  0
   17.5628   68.0985    7.1883 C   0  0  0  0  0  0
   18.9014   68.4295    6.6022 C   0  0  0  0  0  0
   19.3021   68.7223    5.2608 C   0  0  0  0  0  0
   20.6005   68.9600    5.2058 N   0  0  0  0  0  0
   21.0530   68.8570    6.4521 N   0  0  0  0  0  0
   20.0694   68.5467    7.3430 C   0  0  0  0  0  0
   18.5050   68.8086    3.9790 C   0  0  0  0  0  0
   19.0694   69.2570    2.7741 C   0  0  0  0  0  0
   18.2843   69.2959    1.6222 C   0  0  0  0  0  0
   16.9500   68.8990    1.6852 C   0  0  0  0  0  0
   16.4516   68.4569    2.9069 C   0  0  0  0  0  0
   17.2019   68.4288    4.0332 N   0  0  0  0  0  0
   14.4054   66.0673    6.4427 C   0  0  0  0  0  0
   13.0600   66.0577    6.8521 C   0  0  0  0  0  0
   12.1144   65.2568    6.2238 C   0  0  0  0  0  0
   12.4908   64.4515    5.1515 C   0  0  0  0  0  0
   13.8124   64.4553    4.7144 C   0  0  0  0  0  0
   14.7568   65.2509    5.3549 C   0  0  0  0  0  0
   11.4706   63.5504    4.4822 C   0  0  0  0  0  0
   17.0564   66.6259    5.7357 H   0  0  0  0  0  0
   15.5079   68.9423    9.7451 H   0  0  0  0  0  0
   17.7630   69.4864    8.8341 H   0  0  0  0  0  0
   22.0320   68.9832    6.6769 H   0  0  0  0  0  0
   20.2833   68.4298    8.3954 H   0  0  0  0  0  0
   20.1056   69.5601    2.7215 H   0  0  0  0  0  0
   18.7139   69.6415    0.6915 H   0  0  0  0  0  0
   16.3078   68.9297    0.8225 H   0  0  0  0  0  0
   15.4214   68.1465    3.0016 H   0  0  0  0  0  0
   12.7282   66.6730    7.6755 H   0  0  0  0  0  0
   11.0904   65.2655    6.5732 H   0  0  0  0  0  0
   14.1125   63.8338    3.8828 H   0  0  0  0  0  0
   15.7684   65.2045    4.9826 H   0  0  0  0  0  0
   11.9400   62.6310    4.1279 H   0  0  0  0  0  0
   11.0188   64.0571    3.6342 H   0  0  0  0  0  0
   10.6847   63.2597    5.1823 H   0  0  0  0  0  0
  1  6  1  0  0  0
  1  2  2  0  0  0
  1 25  1  0  0  0
  2  3  1  0  0  0
  2 18  1  0  0  0
  3  4  2  0  0  0
  4  5  1  0  0  0
  4 26  1  0  0  0
  5  6  2  0  0  0
  5 27  1  0  0  0
  6  7  1  0  0  0
  7  8  1  0  0  0
  7 11  2  0  0  0
  8 12  1  0  0  0
  8  9  2  0  0  0
  9 10  1  0  0  0
 10 11  1  0  0  0
 10 28  1  0  0  0
 11 29  1  0  0  0
 12 13  2  0  0  0
 12 17  1  0  0  0
 13 14  1  0  0  0
 13 30  1  0  0  0
 14 15  2  0  0  0
 14 31  1  0  0  0
 15 16  1  0  0  0
 15 32  1  0  0  0
 16 17  2  0  0  0
 16 33  1  0  0  0
 18 19  2  0  0  0
 18 23  1  0  0  0
 19 20  1  0  0  0
 19 34  1  0  0  0
 20 21  2  0  0  0
 20 35  1  0  0  0
 21 22  1  0  0  0
 21 24  1  0  0  0
 22 23  2  0  0  0
 22 36  1  0  0  0
 23 37  1  0  0  0
 24 38  1  0  0  0
 24 39  1  0  0  0
 24 40  1  0  0  0
M  END
> <s_m_entry_id>
34429

> <s_m_entry_name>
dock_pv.172

> <s_m_Source_Path>
/home/csk/Desktop/cluster/DUD-E-result/tgfr1

> <s_m_Source_File>
dock_pv.maegz

> <i_m_Source_File_Index>
172

> <chembl_id>
CHEMBL205156

> <chembl_pref_name>
None

> <i_lp_mmshare_version>
53161

> <r_lp_tautomer_probability>
0.5

> <s_lp_Force_Field>
OPLS_2005

> <r_lp_Energy>
21.633097

> <b_lp_Chiralities_Consistent>
1

> <s_lp_Variant>
CHEMBL4439_lig127-1

> <s_i_glide_gridfile>
glide-grid_3hmm

> <i_i_glide_lignum>
190

> <i_i_glide_rotatable_bonds>
3

> <r_i_docking_score>
-8.51262494829319

> <r_i_glide_ligand_efficiency>
-0.354692706178883

> <r_i_glide_ligand_efficiency_sa>
-1.0231108050715

> <r_i_glide_ligand_efficiency_ln>
-2.03746176903237

> <r_i_glide_gscore>
-8.51262494829319

> <r_i_glide_lipo>
-4.673828140951

> <r_i_glide_hbond>
0

> <r_i_glide_metal>
0

> <r_i_glide_rewards>
-1.66264351515151

> <r_i_glide_evdw>
-47.9858436584473

> <r_i_glide_ecoul>
-2.31644654273987

> <r_i_glide_erotb>
0.570605872142673

> <r_i_glide_esite>
0

> <r_i_glide_emodel>
-76.3251582038974

> <r_i_glide_energy>
-50.3022902011871

> <r_i_glide_einternal>
1.3676745891571

> <i_i_glide_confnum>
24

> <i_i_glide_posenum>
15

> <r_i_glide_eff_state_penalty>
0

> <s_user_duplicate_titles>
CHEMBL4439_lig127,CHEMBL4439_lig127,342853

> <i_f3d_flags>
0

> <s_m_subgroup_title>
dock_pv

> <s_m_subgroupid>
dock_pv

> <b_m_subgroup_collapsed>
1

$$$$
CHEMBL4439_lig128
                    3D
 Schrodinger Suite 2021-1.
 41 44  0  0  1  0            999 V2000
   18.9136   68.3852    6.5796 C   0  0  0  0  0  0
   19.3133   68.6921    5.2399 C   0  0  0  0  0  0
   20.6127   68.9264    5.1830 N   0  0  0  0  0  0
   18.5099   68.7959    3.9656 C   0  0  0  0  0  0
   19.0650   69.2568    2.7618 C   0  0  0  0  0  0
   18.2673   69.3033    1.6182 C   0  0  0  0  0  0
   16.9360   68.8986    1.6896 C   0  0  0  0  0  0
   16.4458   68.4521    2.9113 C   0  0  0  0  0  0
   17.2083   68.4101    4.0302 N   0  0  0  0  0  0
   17.5773   68.0710    7.1698 C   0  0  0  0  0  0
   15.0472   67.6287    8.2681 N   0  0  0  0  0  0
   15.9076   68.5089    8.8321 C   0  0  0  0  0  0
   17.1704   68.7671    8.3088 C   0  0  0  0  0  0
   20.0858   68.4839    7.3154 C   0  0  0  0  0  0
   21.0667   68.8054    6.4264 N   0  0  0  0  0  0
   15.4211   66.9434    7.1497 C   0  0  0  0  0  0
   16.7108   67.1175    6.6177 C   0  0  0  0  0  0
   14.3678   66.0711    6.5159 C   0  0  0  0  0  0
   14.6423   65.2566    5.4002 C   0  0  0  0  0  0
   13.6632   64.4562    4.7999 C   0  0  0  0  0  0
   12.3688   64.4614    5.3348 C   0  0  0  0  0  0
   12.0666   65.2592    6.4308 C   0  0  0  0  0  0
   13.0491   66.0571    7.0054 C   0  0  0  0  0  0
   14.0454   63.7026    3.7072 O   0  0  0  0  0  0
   13.0692   62.8804    3.0755 C   0  0  0  0  0  0
   20.0978   69.5737    2.7032 H   0  0  0  0  0  0
   18.6870   69.6547    0.6895 H   0  0  0  0  0  0
   16.2851   68.9292    0.8316 H   0  0  0  0  0  0
   15.4197   68.1329    3.0148 H   0  0  0  0  0  0
   15.5570   69.0260    9.7101 H   0  0  0  0  0  0
   17.8098   69.5071    8.7690 H   0  0  0  0  0  0
   20.3021   68.3533    8.3652 H   0  0  0  0  0  0
   22.0483   68.9274    6.6468 H   0  0  0  0  0  0
   17.0483   66.5634    5.7577 H   0  0  0  0  0  0
   15.6283   65.2262    4.9660 H   0  0  0  0  0  0
   11.5771   63.8574    4.9151 H   0  0  0  0  0  0
   11.0676   65.2640    6.8327 H   0  0  0  0  0  0
   12.7604   66.6675    7.8480 H   0  0  0  0  0  0
   13.4684   62.4570    2.1587 H   0  0  0  0  0  0
   12.7791   62.0575    3.7297 H   0  0  0  0  0  0
   12.1805   63.4416    2.7912 H   0  0  0  0  0  0
  1 10  1  0  0  0
  1 14  2  0  0  0
  1  2  1  0  0  0
  2  3  2  0  0  0
  2  4  1  0  0  0
  3 15  1  0  0  0
  4  9  1  0  0  0
  4  5  2  0  0  0
  5  6  1  0  0  0
  5 26  1  0  0  0
  6  7  2  0  0  0
  6 27  1  0  0  0
  7  8  1  0  0  0
  7 28  1  0  0  0
  8  9  2  0  0  0
  8 29  1  0  0  0
 10 13  1  0  0  0
 10 17  2  0  0  0
 11 12  1  0  0  0
 11 16  2  0  0  0
 12 13  2  0  0  0
 12 30  1  0  0  0
 13 31  1  0  0  0
 14 15  1  0  0  0
 14 32  1  0  0  0
 15 33  1  0  0  0
 16 17  1  0  0  0
 16 18  1  0  0  0
 17 34  1  0  0  0
 18 19  2  0  0  0
 18 23  1  0  0  0
 19 20  1  0  0  0
 19 35  1  0  0  0
 20 21  2  0  0  0
 20 24  1  0  0  0
 21 22  1  0  0  0
 21 36  1  0  0  0
 22 23  2  0  0  0
 22 37  1  0  0  0
 23 38  1  0  0  0
 24 25  1  0  0  0
 25 39  1  0  0  0
 25 40  1  0  0  0
 25 41  1  0  0  0
M  END
> <s_m_entry_id>
34430

> <s_m_entry_name>
dock_pv.173

> <s_m_Source_Path>
/home/csk/Desktop/cluster/DUD-E-result/tgfr1

> <s_m_Source_File>
dock_pv.maegz

> <i_m_Source_File_Index>
173

> <chembl_id>
CHEMBL382799

> <chembl_pref_name>
None

> <i_lp_mmshare_version>
53161

> <r_lp_tautomer_probability>
0.5

> <s_lp_Force_Field>
OPLS_2005

> <r_lp_Energy>
24.318502

> <b_lp_Chiralities_Consistent>
1

> <s_lp_Variant>
CHEMBL4439_lig128-1

> <s_i_glide_gridfile>
glide-grid_3hmm

> <i_i_glide_lignum>
192

> <i_i_glide_rotatable_bonds>
4

> <r_i_docking_score>
-8.50764469126855

> <r_i_glide_ligand_efficiency>
-0.340305787650742

> <r_i_glide_ligand_efficiency_sa>
-0.995060158439612

> <r_i_glide_ligand_efficiency_ln>
-2.01656674536856

> <r_i_glide_gscore>
-8.50764469126855

> <r_i_glide_lipo>
-4.65086731821593

> <r_i_glide_hbond>
0

> <r_i_glide_metal>
0

> <r_i_glide_rewards>
-1.45355669668218

> <r_i_glide_evdw>
-50.6951141357422

> <r_i_glide_ecoul>
-2.60663342475891

> <r_i_glide_erotb>
0.522530044130503

> <r_i_glide_esite>
0

> <r_i_glide_emodel>
-78.8914112370389

> <r_i_glide_energy>
-53.3017475605011

> <r_i_glide_einternal>
4.99118423461914

> <i_i_glide_confnum>
24

> <i_i_glide_posenum>
223

> <r_i_glide_eff_state_penalty>
0

> <s_user_duplicate_titles>
CHEMBL4439_lig128,CHEMBL4439_lig128,342848

> <i_f3d_flags>
0

> <s_m_subgroup_title>
dock_pv

> <s_m_subgroupid>
dock_pv

> <b_m_subgroup_collapsed>
1

$$$$
CHEMBL4439_lig849
                    3D
 Schrodinger Suite 2021-1.
 49 52  0  0  1  0            999 V2000
   18.9994   67.1395   10.0935 C   0  0  0  0  0  0
   17.6756   67.3704    9.3345 C   0  0  0  0  0  0
   16.8269   68.4137   10.0975 C   0  0  0  0  0  0
   15.3173   67.6572    3.6319 C   0  0  0  0  0  0
   15.5263   68.3348    2.4319 C   0  0  0  0  0  0
   16.7237   68.8565    2.0769 N   0  0  0  0  0  0
   17.7525   68.7103    2.9475 C   0  0  0  0  0  0
   17.6215   68.0604    4.1829 C   0  0  0  0  0  0
   16.3704   67.5428    4.5499 C   0  0  0  0  0  0
   16.1138   66.9110    5.8869 C   0  0  0  0  0  0
   15.1141   65.6570    7.4881 N   0  0  0  0  0  0
   15.1219   65.9397    6.2071 C   0  0  0  0  0  0
   16.1691   66.2605    7.9930 N   0  0  0  0  0  0
   16.7880   67.0870    7.1072 C   0  0  0  0  0  0
   17.9474   67.7453    7.8384 C   0  0  1  0  0  0
   16.8440   66.0830    9.2561 C   0  0  0  0  0  0
   14.2184   65.1384    5.3246 C   0  0  0  0  0  0
   12.9466   64.9444    5.7710 N   0  0  0  0  0  0
   12.1460   64.0909    5.0841 C   0  0  0  0  0  0
   12.5719   63.4057    3.9458 C   0  0  0  0  0  0
   13.8666   63.6389    3.4801 C   0  0  0  0  0  0
   14.7050   64.5118    4.1723 C   0  0  0  0  0  0
   10.7425   63.9378    5.6257 C   0  0  0  0  0  0
   18.1203   69.2493    7.5576 C   0  0  0  0  0  0
   19.0562   69.3321    2.4919 C   0  0  0  0  0  0
   19.5957   66.3517    9.6316 H   0  0  0  0  0  0
   19.6127   68.0415   10.1031 H   0  0  0  0  0  0
   18.8236   66.8577   11.1321 H   0  0  0  0  0  0
   15.9740   68.7711    9.5183 H   0  0  0  0  0  0
   16.4433   68.0227   11.0414 H   0  0  0  0  0  0
   17.4467   69.2571   10.3578 H   0  0  0  0  0  0
   14.3282   67.2915    3.8578 H   0  0  0  0  0  0
   14.7223   68.4630    1.7222 H   0  0  0  0  0  0
   18.4685   67.9719    4.8454 H   0  0  0  0  0  0
   18.8642   67.2575    7.5035 H   0  0  0  0  0  0
   16.1359   65.9609   10.0771 H   0  0  0  0  0  0
   17.4651   65.1866    9.2326 H   0  0  0  0  0  0
   11.9128   62.7364    3.4128 H   0  0  0  0  0  0
   14.2167   63.1390    2.5896 H   0  0  0  0  0  0
   15.7208   64.6683    3.8407 H   0  0  0  0  0  0
   10.1370   63.2666    5.0168 H   0  0  0  0  0  0
   10.7596   63.5560    6.6468 H   0  0  0  0  0  0
   10.2666   64.9163    5.6318 H   0  0  0  0  0  0
   18.4128   69.4407    6.5273 H   0  0  0  0  0  0
   17.1988   69.7947    7.7501 H   0  0  0  0  0  0
   18.8928   69.6804    8.1953 H   0  0  0  0  0  0
   19.8380   69.2491    3.2466 H   0  0  0  0  0  0
   19.4042   68.8580    1.5744 H   0  0  0  0  0  0
   18.8971   70.3871    2.2671 H   0  0  0  0  0  0
  1  2  1  0  0  0
  1 26  1  0  0  0
  1 27  1  0  0  0
  1 28  1  0  0  0
  2  3  1  0  0  0
  2 15  1  0  0  0
  2 16  1  0  0  0
  3 29  1  0  0  0
  3 30  1  0  0  0
  3 31  1  0  0  0
  4  5  2  0  0  0
  4  9  1  0  0  0
  4 32  1  0  0  0
  5  6  1  0  0  0
  5 33  1  0  0  0
  6  7  2  0  0  0
  7  8  1  0  0  0
  7 25  1  0  0  0
  8  9  2  0  0  0
  8 34  1  0  0  0
  9 10  1  0  0  0
 10 14  2  0  0  0
 10 12  1  0  0  0
 11 13  1  0  0  0
 11 12  2  0  0  0
 12 17  1  0  0  0
 13 14  1  0  0  0
 13 16  1  0  0  0
 14 15  1  0  0  0
 15 24  1  0  0  0
 15 35  1  0  0  0
 16 36  1  0  0  0
 16 37  1  0  0  0
 17 18  2  0  0  0
 17 22  1  0  0  0
 18 19  1  0  0  0
 19 20  2  0  0  0
 19 23  1  0  0  0
 20 21  1  0  0  0
 20 38  1  0  0  0
 21 22  2  0  0  0
 21 39  1  0  0  0
 22 40  1  0  0  0
 23 41  1  0  0  0
 23 42  1  0  0  0
 23 43  1  0  0  0
 24 44  1  0  0  0
 24 45  1  0  0  0
 24 46  1  0  0  0
 25 47  1  0  0  0
 25 48  1  0  0  0
 25 49  1  0  0  0
M  END
> <s_m_entry_id>
34431

> <s_m_entry_name>
dock_pv.174

> <s_m_Source_Path>
/home/csk/Desktop/cluster/DUD-E-result/tgfr1

> <s_m_Source_File>
dock_pv.maegz

> <i_m_Source_File_Index>
174

> <chembl_id>
CHEMBL4287843

> <chembl_pref_name>
None

> <i_lp_mmshare_version>
53161

> <r_lp_tautomer_probability>
1

> <s_lp_Force_Field>
OPLS_2005

> <r_lp_Energy>
36.727585

> <b_lp_Chiralities_Consistent>
1

> <s_lp_Variant>
CHEMBL4439_lig849-1

> <s_i_glide_gridfile>
glide-grid_3hmm

> <i_i_glide_lignum>
1168

> <i_i_glide_rotatable_bonds>
2

> <r_i_docking_score>
-8.50723717729827

> <r_i_glide_ligand_efficiency>
-0.340289487091931

> <r_i_glide_ligand_efficiency_sa>
-0.995012495316556

> <r_i_glide_ligand_efficiency_ln>
-2.01647015234539

> <r_i_glide_gscore>
-8.50723717729827

> <r_i_glide_lipo>
-4.65746483398906

> <r_i_glide_hbond>
-0.102574170502131

> <r_i_glide_metal>
0

> <r_i_glide_rewards>
-1.61158394326103

> <r_i_glide_evdw>
-44.2608375549316

> <r_i_glide_ecoul>
-1.75609087944031

> <r_i_glide_erotb>
0.34084128011658

> <r_i_glide_esite>
0

> <r_i_glide_emodel>
-65.6734225194986

> <r_i_glide_energy>
-46.0169284343719

> <r_i_glide_einternal>
2.48746371269226

> <i_i_glide_confnum>
2

> <i_i_glide_posenum>
234

> <r_i_glide_eff_state_penalty>
0

> <s_user_duplicate_titles>
CHEMBL4439_lig849

> <i_f3d_flags>
0

> <s_m_subgroup_title>
dock_pv

> <s_m_subgroupid>
dock_pv

> <b_m_subgroup_collapsed>
1

$$$$
CHEMBL4439_lig286
                    3D
 Schrodinger Suite 2021-1.
 38 41  0  0  1  0            999 V2000
   16.1324   67.2666    6.5640 C   0  0  0  0  0  0
   15.0152   66.4979    7.0199 C   0  0  0  0  0  0
   14.9491   66.4569    8.3374 N   0  0  0  0  0  0
   16.0360   67.0837    8.7661 N   0  0  0  0  0  0
   16.7881   67.5908    7.7511 C   0  0  0  0  0  0
   16.6202   67.2144   10.0831 C   0  0  0  0  0  0
   17.6720   68.2965    9.8340 C   0  0  0  0  0  0
   17.9976   68.2770    8.3348 C   0  0  0  0  0  0
   13.9966   65.7159    6.2495 C   0  0  0  0  0  0
   16.5571   67.6534    5.1717 C   0  0  0  0  0  0
   15.6452   67.6568    4.1088 C   0  0  0  0  0  0
   16.0350   68.0570    2.8332 C   0  0  0  0  0  0
   17.3482   68.4565    2.6041 C   0  0  0  0  0  0
   18.2722   68.4547    3.6446 C   0  0  0  0  0  0
   17.8748   68.0601    4.9218 C   0  0  0  0  0  0
   12.6455   65.6575    6.6205 C   0  0  0  0  0  0
   11.7731   64.8595    5.8769 C   0  0  0  0  0  0
   12.2585   64.1503    4.7775 C   0  0  0  0  0  0
   13.6127   64.2700    4.4585 C   0  0  0  0  0  0
   14.4783   65.0183    5.1878 N   0  0  0  0  0  0
   17.7258   68.8501    1.3646 F   0  0  0  0  0  0
   14.2057   63.6110    3.2330 C   0  0  0  0  0  0
   17.0756   66.2736   10.3994 H   0  0  0  0  0  0
   15.8813   67.5151   10.8285 H   0  0  0  0  0  0
   18.5610   68.1680   10.4543 H   0  0  0  0  0  0
   17.2338   69.2570   10.1021 H   0  0  0  0  0  0
   18.1391   69.2898    7.9553 H   0  0  0  0  0  0
   18.9155   67.7238    8.1340 H   0  0  0  0  0  0
   14.6112   67.3951    4.2630 H   0  0  0  0  0  0
   15.3149   68.0699    2.0270 H   0  0  0  0  0  0
   19.2914   68.7611    3.4623 H   0  0  0  0  0  0
   18.6091   68.0689    5.7138 H   0  0  0  0  0  0
   12.2772   66.2079    7.4736 H   0  0  0  0  0  0
   10.7284   64.7970    6.1444 H   0  0  0  0  0  0
   11.5950   63.5489    4.1736 H   0  0  0  0  0  0
   13.6022   62.7687    2.8933 H   0  0  0  0  0  0
   14.2672   64.3433    2.4313 H   0  0  0  0  0  0
   15.2155   63.2573    3.4359 H   0  0  0  0  0  0
  1  2  1  0  0  0
  1  5  2  0  0  0
  1 10  1  0  0  0
  2  3  2  0  0  0
  2  9  1  0  0  0
  3  4  1  0  0  0
  4  5  1  0  0  0
  4  6  1  0  0  0
  5  8  1  0  0  0
  6  7  1  0  0  0
  6 23  1  0  0  0
  6 24  1  0  0  0
  7  8  1  0  0  0
  7 25  1  0  0  0
  7 26  1  0  0  0
  8 27  1  0  0  0
  8 28  1  0  0  0
  9 16  2  0  0  0
  9 20  1  0  0  0
 10 11  1  0  0  0
 10 15  2  0  0  0
 11 12  2  0  0  0
 11 29  1  0  0  0
 12 13  1  0  0  0
 12 30  1  0  0  0
 13 14  2  0  0  0
 13 21  1  0  0  0
 14 15  1  0  0  0
 14 31  1  0  0  0
 15 32  1  0  0  0
 16 17  1  0  0  0
 16 33  1  0  0  0
 17 18  2  0  0  0
 17 34  1  0  0  0
 18 19  1  0  0  0
 18 35  1  0  0  0
 19 20  2  0  0  0
 19 22  1  0  0  0
 22 36  1  0  0  0
 22 37  1  0  0  0
 22 38  1  0  0  0
M  END
> <s_m_entry_id>
34433

> <s_m_entry_name>
dock_pv.176

> <s_m_Source_Path>
/home/csk/Desktop/cluster/DUD-E-result/tgfr1

> <s_m_Source_File>
dock_pv.maegz

> <i_m_Source_File_Index>
176

> <chembl_id>
CHEMBL121790

> <chembl_pref_name>
None

> <i_lp_mmshare_version>
53161

> <r_lp_tautomer_probability>
1

> <s_lp_Force_Field>
OPLS_2005

> <r_lp_Energy>
36.572384

> <b_lp_Chiralities_Consistent>
1

> <s_lp_Variant>
CHEMBL4439_lig286-1

> <s_i_glide_gridfile>
glide-grid_3hmm

> <i_i_glide_lignum>
403

> <i_i_glide_rotatable_bonds>
2

> <r_i_docking_score>
-8.50234682841253

> <r_i_glide_ligand_efficiency>
-0.386470310382387

> <r_i_glide_ligand_efficiency_sa>
-1.08290500870628

> <r_i_glide_ligand_efficiency_ln>
-2.07828369549991

> <r_i_glide_gscore>
-8.50234682841253

> <r_i_glide_lipo>
-3.97699086516891

> <r_i_glide_hbond>
-0.12488573002714

> <r_i_glide_metal>
0

> <r_i_glide_rewards>
-2.44590118408588

> <r_i_glide_evdw>
-41.5062255859375

> <r_i_glide_ecoul>
-2.0262496471405

> <r_i_glide_erotb>
0.424679677237359

> <r_i_glide_esite>
0

> <r_i_glide_emodel>
-64.2976302463435

> <r_i_glide_energy>
-43.532475233078

> <r_i_glide_einternal>
2.28262853622437

> <i_i_glide_confnum>
7

> <i_i_glide_posenum>
134

> <r_i_glide_eff_state_penalty>
0

> <s_user_duplicate_titles>
CHEMBL4439_lig286

> <i_f3d_flags>
0

> <s_m_subgroup_title>
dock_pv

> <s_m_subgroupid>
dock_pv

> <b_m_subgroup_collapsed>
1

$$$$
CHEMBL4439_lig235
                    3D
 Schrodinger Suite 2021-1.
 46 49  0  0  1  0            999 V2000
   17.0660   66.9678    7.0815 C   0  0  0  0  0  0
   15.7051   66.6231    7.1935 C   0  0  0  0  0  0
   15.1157   66.6986    8.4781 C   0  0  0  0  0  0
   15.8671   67.0553    9.6145 C   0  0  0  0  0  0
   17.7689   67.3793    8.2062 C   0  0  0  0  0  0
   17.1906   67.4112    9.4336 C   0  0  0  0  0  0
   18.1154   67.7586   10.3655 O   0  0  0  0  0  0
   19.2415   68.1656    9.6354 C   0  0  0  0  0  0
   19.0841   67.7013    8.3204 O   0  0  0  0  0  0
   14.9050   66.1249    6.0019 C   0  0  0  0  0  0
   14.9933   66.4615    4.6254 C   0  0  0  0  0  0
   14.0357   65.6570    4.0563 N   0  0  0  0  0  0
   13.3565   64.9903    5.0345 C   0  0  0  0  0  0
   13.9018   65.2571    6.2024 N   0  0  0  0  0  0
   12.0718   64.1731    4.7284 C   0  0  0  0  0  0
   12.3016   63.2024    3.5358 C   0  0  0  0  0  0
   10.8929   65.1416    4.4488 C   0  0  0  0  0  0
   11.5927   63.2943    5.8973 C   0  0  0  0  0  0
   15.7692   67.4292    3.7662 C   0  0  0  0  0  0
   15.1836   68.0570    2.6583 C   0  0  0  0  0  0
   15.9750   68.8570    1.8310 C   0  0  0  0  0  0
   17.3131   69.0821    2.1555 C   0  0  0  0  0  0
   17.8164   68.4757    3.3064 C   0  0  0  0  0  0
   17.0660   67.6579    4.0865 N   0  0  0  0  0  0
   19.2393   68.7096    3.7757 C   0  0  0  0  0  0
   17.6130   66.8569    6.1722 H   0  0  0  0  0  0
   14.0707   66.4573    8.6029 H   0  0  0  0  0  0
   15.4667   67.0582   10.6140 H   0  0  0  0  0  0
   20.1526   67.7635   10.0799 H   0  0  0  0  0  0
   19.2907   69.2570    9.6313 H   0  0  0  0  0  0
   13.7614   65.6568    3.0804 H   0  0  0  0  0  0
   13.0151   62.4222    3.8018 H   0  0  0  0  0  0
   11.3759   62.7104    3.2351 H   0  0  0  0  0  0
   12.7101   63.6570    2.6397 H   0  0  0  0  0  0
   10.6778   65.7555    5.3251 H   0  0  0  0  0  0
   11.0671   65.8328    3.6320 H   0  0  0  0  0  0
    9.9750   64.6042    4.2061 H   0  0  0  0  0  0
   11.4929   63.8472    6.8328 H   0  0  0  0  0  0
   10.6167   62.8577    5.6770 H   0  0  0  0  0  0
   12.2669   62.4568    6.0331 H   0  0  0  0  0  0
   14.1466   67.8930    2.4128 H   0  0  0  0  0  0
   15.5392   69.3246    0.9596 H   0  0  0  0  0  0
   17.9306   69.7275    1.5472 H   0  0  0  0  0  0
   19.8292   69.2361    3.0234 H   0  0  0  0  0  0
   19.2385   69.3104    4.6861 H   0  0  0  0  0  0
   19.7362   67.7635    3.9979 H   0  0  0  0  0  0
  1  2  2  0  0  0
  1  5  1  0  0  0
  1 26  1  0  0  0
  2  3  1  0  0  0
  2 10  1  0  0  0
  3  4  2  0  0  0
  3 27  1  0  0  0
  4  6  1  0  0  0
  4 28  1  0  0  0
  5  9  1  0  0  0
  5  6  2  0  0  0
  6  7  1  0  0  0
  7  8  1  0  0  0
  8  9  1  0  0  0
  8 29  1  0  0  0
  8 30  1  0  0  0
 10 14  1  0  0  0
 10 11  2  0  0  0
 11 12  1  0  0  0
 11 19  1  0  0  0
 12 13  1  0  0  0
 12 31  1  0  0  0
 13 14  2  0  0  0
 13 15  1  0  0  0
 15 16  1  0  0  0
 15 17  1  0  0  0
 15 18  1  0  0  0
 16 32  1  0  0  0
 16 33  1  0  0  0
 16 34  1  0  0  0
 17 35  1  0  0  0
 17 36  1  0  0  0
 17 37  1  0  0  0
 18 38  1  0  0  0
 18 39  1  0  0  0
 18 40  1  0  0  0
 19 20  2  0  0  0
 19 24  1  0  0  0
 20 21  1  0  0  0
 20 41  1  0  0  0
 21 22  2  0  0  0
 21 42  1  0  0  0
 22 23  1  0  0  0
 22 43  1  0  0  0
 23 24  2  0  0  0
 23 25  1  0  0  0
 25 44  1  0  0  0
 25 45  1  0  0  0
 25 46  1  0  0  0
M  END
> <s_m_entry_id>
34435

> <s_m_entry_name>
dock_pv.178

> <s_m_Source_Path>
/home/csk/Desktop/cluster/DUD-E-result/tgfr1

> <s_m_Source_File>
dock_pv.maegz

> <i_m_Source_File_Index>
178

> <chembl_id>
CHEMBL226838

> <chembl_pref_name>
None

> <i_lp_mmshare_version>
53161

> <r_lp_tautomer_probability>
0.499999999999999

> <s_lp_Force_Field>
OPLS_2005

> <r_lp_Energy>
24.38686

> <b_lp_Chiralities_Consistent>
1

> <s_lp_Variant>
CHEMBL4439_lig235-1

> <s_i_glide_gridfile>
glide-grid_3hmm

> <i_i_glide_lignum>
340

> <i_i_glide_rotatable_bonds>
3

> <r_i_docking_score>
-8.49773321335971

> <r_i_glide_ligand_efficiency>
-0.339909328534388

> <r_i_glide_ligand_efficiency_sa>
-0.993900904952161

> <r_i_glide_ligand_efficiency_ln>
-2.01421742808114

> <r_i_glide_gscore>
-8.49773321335971

> <r_i_glide_lipo>
-4.31742383376579

> <r_i_glide_hbond>
-0.312355925653201

> <r_i_glide_metal>
0

> <r_i_glide_rewards>
-1.69138275413664

> <r_i_glide_evdw>
-37.6745796203613

> <r_i_glide_ecoul>
-4.00329828262329

> <r_i_glide_erotb>
0.33554086694091

> <r_i_glide_esite>
-0.0278878433334307

> <r_i_glide_emodel>
-56.2661512959046

> <r_i_glide_energy>
-41.6778779029846

> <r_i_glide_einternal>
1.63183677196503

> <i_i_glide_confnum>
4

> <i_i_glide_posenum>
69

> <r_i_glide_eff_state_penalty>
0

> <s_user_duplicate_titles>
CHEMBL4439_lig235,CHEMBL4439_lig448,382352

> <i_f3d_flags>
0

> <s_m_subgroup_title>
dock_pv

> <s_m_subgroupid>
dock_pv

> <b_m_subgroup_collapsed>
1

$$$$
CHEMBL4439_lig833
                    3D
 Schrodinger Suite 2021-1.
 38 41  0  0  1  0            999 V2000
   17.4831   67.8470    6.4406 C   0  0  0  0  0  0
   15.7609   66.6238    8.3018 N   0  0  0  0  0  0
   15.5645   66.6286    6.9578 C   0  0  0  0  0  0
   16.3637   67.2101    6.0383 N   0  0  0  0  0  0
   16.8977   67.2527    8.6644 N   0  0  0  0  0  0
   17.8325   67.8848    7.8064 C   0  0  0  0  0  0
   18.8830   68.3937    8.6197 C   0  0  0  0  0  0
   18.5638   68.0582    9.9290 C   0  0  0  0  0  0
   17.3544   67.3739    9.9538 C   0  0  0  0  0  0
   14.3748   65.9168    6.4207 C   0  0  0  0  0  0
   14.5959   65.1152    5.3420 N   0  0  0  0  0  0
   13.5606   64.4275    4.8018 C   0  0  0  0  0  0
   12.2632   64.5128    5.3298 C   0  0  0  0  0  0
   12.0446   65.3413    6.4316 C   0  0  0  0  0  0
   13.1042   66.0560    6.9870 C   0  0  0  0  0  0
   18.2988   68.4606    5.4768 N   0  0  0  0  0  0
   18.1282   68.7028    4.0986 C   0  0  0  0  0  0
   19.2041   69.2563    3.3990 C   0  0  0  0  0  0
   19.0671   69.5145    2.0322 C   0  0  0  0  0  0
   17.9304   69.2571    1.3404 N   0  0  0  0  0  0
   16.8806   68.7534    2.0309 C   0  0  0  0  0  0
   16.9399   68.4564    3.3914 C   0  0  0  0  0  0
   13.9350   63.6619    3.7177 O   0  0  0  0  0  0
   12.9499   62.8801    3.0604 C   0  0  0  0  0  0
   19.7655   68.9382    8.3130 H   0  0  0  0  0  0
   19.1612   68.3087   10.7931 H   0  0  0  0  0  0
   16.7960   66.9758   10.7859 H   0  0  0  0  0  0
   11.4394   63.9538    4.9080 H   0  0  0  0  0  0
   11.0653   65.4285    6.8659 H   0  0  0  0  0  0
   12.9436   66.7010    7.8392 H   0  0  0  0  0  0
   19.1596   68.8238    5.8553 H   0  0  0  0  0  0
   20.1417   69.4717    3.8939 H   0  0  0  0  0  0
   19.8848   69.9372    1.4677 H   0  0  0  0  0  0
   15.9708   68.5851    1.4728 H   0  0  0  0  0  0
   16.0495   68.0678    3.8505 H   0  0  0  0  0  0
   13.3852   62.4570    2.1560 H   0  0  0  0  0  0
   12.0848   63.4698    2.7587 H   0  0  0  0  0  0
   12.6187   62.0579    3.6959 H   0  0  0  0  0  0
  1  6  1  0  0  0
  1  4  2  0  0  0
  1 16  1  0  0  0
  2  5  1  0  0  0
  2  3  2  0  0  0
  3  4  1  0  0  0
  3 10  1  0  0  0
  5  6  1  0  0  0
  5  9  1  0  0  0
  6  7  2  0  0  0
  7  8  1  0  0  0
  7 25  1  0  0  0
  8  9  2  0  0  0
  8 26  1  0  0  0
  9 27  1  0  0  0
 10 11  2  0  0  0
 10 15  1  0  0  0
 11 12  1  0  0  0
 12 13  2  0  0  0
 12 23  1  0  0  0
 13 14  1  0  0  0
 13 28  1  0  0  0
 14 15  2  0  0  0
 14 29  1  0  0  0
 15 30  1  0  0  0
 16 17  1  0  0  0
 16 31  1  0  0  0
 17 18  2  0  0  0
 17 22  1  0  0  0
 18 19  1  0  0  0
 18 32  1  0  0  0
 19 20  2  0  0  0
 19 33  1  0  0  0
 20 21  1  0  0  0
 21 22  2  0  0  0
 21 34  1  0  0  0
 22 35  1  0  0  0
 23 24  1  0  0  0
 24 36  1  0  0  0
 24 37  1  0  0  0
 24 38  1  0  0  0
M  END
> <s_m_entry_id>
34437

> <s_m_entry_name>
dock_pv.180

> <s_m_Source_Path>
/home/csk/Desktop/cluster/DUD-E-result/tgfr1

> <s_m_Source_File>
dock_pv.maegz

> <i_m_Source_File_Index>
180

> <chembl_id>
CHEMBL4218893

> <chembl_pref_name>
None

> <i_lp_mmshare_version>
53161

> <r_lp_tautomer_probability>
0.999999106000799

> <s_lp_Force_Field>
OPLS_2005

> <r_lp_Energy>
29.361116

> <b_lp_Chiralities_Consistent>
1

> <s_lp_Variant>
CHEMBL4439_lig833-1

> <s_i_glide_gridfile>
glide-grid_3hmm

> <i_i_glide_lignum>
1151

> <i_i_glide_rotatable_bonds>
4

> <r_i_docking_score>
-8.49749117898684

> <r_i_glide_ligand_efficiency>
-0.354062132457785

> <r_i_glide_ligand_efficiency_sa>
-1.02129191571682

> <r_i_glide_ligand_efficiency_ln>
-2.03383956359394

> <r_i_glide_gscore>
-8.49749117898684

> <r_i_glide_lipo>
-3.36709904468541

> <r_i_glide_hbond>
-0.187389739059947

> <r_i_glide_metal>
0

> <r_i_glide_rewards>
-2.66514932804261

> <r_i_glide_evdw>
-48.0203895568848

> <r_i_glide_ecoul>
-2.85842704772949

> <r_i_glide_erotb>
0.551930467804795

> <r_i_glide_esite>
0

> <r_i_glide_emodel>
-74.0111151240789

> <r_i_glide_energy>
-50.8788166046143

> <r_i_glide_einternal>
5.40670108795166

> <i_i_glide_confnum>
1

> <i_i_glide_posenum>
185

> <r_i_glide_eff_state_penalty>
0

> <s_user_duplicate_titles>
CHEMBL4439_lig833

> <i_f3d_flags>
0

> <s_m_subgroup_title>
dock_pv

> <s_m_subgroupid>
dock_pv

> <b_m_subgroup_collapsed>
1

$$$$
CHEMBL4439_lig813
                    3D
 Schrodinger Suite 2021-1.
 51 54  0  0  1  0            999 V2000
   18.1076   68.4266    5.1610 C   0  0  0  0  0  0
   17.5304   68.4300    3.8860 C   0  0  0  0  0  0
   18.2869   68.8467    2.7928 C   0  0  0  0  0  0
   19.5783   69.2571    2.8722 N   0  0  0  0  0  0
   17.4201   68.0564    6.3220 N   0  0  0  0  0  0
   16.1631   67.4873    6.5678 C   0  0  0  0  0  0
   15.5093   67.8290    7.7607 C   0  0  0  0  0  0
   14.2671   67.2570    8.0030 C   0  0  0  0  0  0
   13.6829   66.3690    7.1811 N   0  0  0  0  0  0
   14.3078   66.0098    6.0297 C   0  0  0  0  0  0
   15.5532   66.5722    5.6915 C   0  0  0  0  0  0
   13.5409   65.0194    5.1929 C   0  0  0  0  0  0
   12.1557   64.8556    5.4001 C   0  0  0  0  0  0
   11.4055   63.9300    4.6823 C   0  0  0  0  0  0
   12.0253   63.1634    3.7026 C   0  0  0  0  0  0
   13.3912   63.2856    3.4801 C   0  0  0  0  0  0
   14.1421   64.2049    4.2118 C   0  0  0  0  0  0
   15.4669   64.2584    3.9654 F   0  0  0  0  0  0
   19.4363   68.8823    5.2714 C   0  0  0  0  0  0
   20.1262   69.2738    4.0901 C   0  0  0  0  0  0
   21.4139   69.6570    4.5432 C   0  0  0  0  0  0
   21.3829   69.5225    5.9152 N   0  0  0  0  0  0
   20.2211   69.0231    6.3878 N   0  0  0  0  0  0
    9.9314   63.7615    4.9860 C   0  0  0  0  0  0
   22.5097   69.7774    6.8256 C   0  0  0  0  0  0
   16.0855   68.8264    8.7605 C   0  0  0  0  0  0
   22.1390   70.3898    8.2052 C   0  0  1  0  0  0
   21.4809   69.4237    9.2092 C   0  0  0  0  0  0
   23.3204   70.8567    8.8316 O   0  0  0  0  0  0
   16.5011   68.1477    3.7344 H   0  0  0  0  0  0
   17.8508   68.8620    1.8048 H   0  0  0  0  0  0
   17.9047   68.3457    7.1588 H   0  0  0  0  0  0
   13.6583   67.5477    8.8320 H   0  0  0  0  0  0
   16.0589   66.2952    4.7828 H   0  0  0  0  0  0
   11.6351   65.4466    6.1408 H   0  0  0  0  0  0
   11.4524   62.4573    3.1223 H   0  0  0  0  0  0
   13.8669   62.6772    2.7260 H   0  0  0  0  0  0
   22.3056   70.0121    4.0485 H   0  0  0  0  0  0
    9.4125   64.7068    4.8295 H   0  0  0  0  0  0
    9.4671   62.9922    4.3707 H   0  0  0  0  0  0
    9.7971   63.4860    6.0323 H   0  0  0  0  0  0
   23.1834   70.4567    6.3018 H   0  0  0  0  0  0
   23.0576   68.8466    6.9540 H   0  0  0  0  0  0
   15.4441   68.9572    9.6315 H   0  0  0  0  0  0
   17.0623   68.4937    9.1127 H   0  0  0  0  0  0
   16.2231   69.7967    8.2833 H   0  0  0  0  0  0
   21.4924   71.2520    8.0603 H   0  0  0  0  0  0
   20.4702   69.1439    8.9189 H   0  0  0  0  0  0
   21.3997   69.8787   10.1971 H   0  0  0  0  0  0
   22.0626   68.5081    9.3172 H   0  0  0  0  0  0
   23.7856   71.4725    8.2438 H   0  0  0  0  0  0
  1 19  1  0  0  0
  1  2  2  0  0  0
  1  5  1  0  0  0
  2  3  1  0  0  0
  2 30  1  0  0  0
  3  4  2  0  0  0
  3 31  1  0  0  0
  4 20  1  0  0  0
  5  6  1  0  0  0
  5 32  1  0  0  0
  6  7  2  0  0  0
  6 11  1  0  0  0
  7  8  1  0  0  0
  7 26  1  0  0  0
  8  9  2  0  0  0
  8 33  1  0  0  0
  9 10  1  0  0  0
 10 11  2  0  0  0
 10 12  1  0  0  0
 11 34  1  0  0  0
 12 13  2  0  0  0
 12 17  1  0  0  0
 13 14  1  0  0  0
 13 35  1  0  0  0
 14 15  2  0  0  0
 14 24  1  0  0  0
 15 16  1  0  0  0
 15 36  1  0  0  0
 16 17  2  0  0  0
 16 37  1  0  0  0
 17 18  1  0  0  0
 19 20  1  0  0  0
 19 23  2  0  0  0
 20 21  2  0  0  0
 21 22  1  0  0  0
 21 38  1  0  0  0
 22 23  1  0  0  0
 22 25  1  0  0  0
 24 39  1  0  0  0
 24 40  1  0  0  0
 24 41  1  0  0  0
 25 27  1  0  0  0
 25 42  1  0  0  0
 25 43  1  0  0  0
 26 44  1  0  0  0
 26 45  1  0  0  0
 26 46  1  0  0  0
 27 28  1  0  0  0
 27 29  1  0  0  0
 27 47  1  0  0  0
 28 48  1  0  0  0
 28 49  1  0  0  0
 28 50  1  0  0  0
 29 51  1  0  0  0
M  END
> <s_m_entry_id>
34438

> <s_m_entry_name>
dock_pv.181

> <s_m_Source_Path>
/home/csk/Desktop/cluster/DUD-E-result/tgfr1

> <s_m_Source_File>
dock_pv.maegz

> <i_m_Source_File_Index>
181

> <chembl_id>
CHEMBL4077146

> <chembl_pref_name>
None

> <i_lp_mmshare_version>
53161

> <r_lp_tautomer_probability>
0.999999106000799

> <s_lp_Force_Field>
OPLS_2005

> <r_lp_Energy>
34.473677

> <b_lp_Chiralities_Consistent>
1

> <s_lp_Variant>
CHEMBL4439_lig813-1

> <s_i_glide_gridfile>
glide-grid_3hmm

> <i_i_glide_lignum>
1129

> <i_i_glide_rotatable_bonds>
6

> <r_i_docking_score>
-8.49724996317739

> <r_i_glide_ligand_efficiency>
-0.29300861941991

> <r_i_glide_ligand_efficiency_sa>
-0.90021531050434

> <r_i_glide_ligand_efficiency_ln>
-1.94565476989996

> <r_i_glide_gscore>
-8.49724996317739

> <r_i_glide_lipo>
-4.46267973345966

> <r_i_glide_hbond>
-0.186378488018603

> <r_i_glide_metal>
0

> <r_i_glide_rewards>
-1.38015358969727

> <r_i_glide_evdw>
-50.6044425964355

> <r_i_glide_ecoul>
-3.8307204246521

> <r_i_glide_erotb>
0.636792041517734

> <r_i_glide_esite>
0

> <r_i_glide_emodel>
-76.2417384985189

> <r_i_glide_energy>
-54.4351630210876

> <r_i_glide_einternal>
12.0284433364868

> <i_i_glide_confnum>
112

> <i_i_glide_posenum>
384

> <r_i_glide_eff_state_penalty>
0

> <s_user_duplicate_titles>
CHEMBL4439_lig813

> <i_f3d_flags>
0

> <s_m_subgroup_title>
dock_pv

> <s_m_subgroupid>
dock_pv

> <b_m_subgroup_collapsed>
1

$$$$
CHEMBL4439_lig798
                    3D
 Schrodinger Suite 2021-1.
 42 45  0  0  1  0            999 V2000
   18.9478   68.8686    4.8484 C   0  0  0  0  0  0
   19.4559   69.0249    3.5566 C   0  0  0  0  0  0
   20.7737   69.4367    3.3565 C   0  0  0  0  0  0
   21.6426   69.7269    4.3516 N   0  0  0  0  0  0
   17.6663   68.2834    4.9141 N   0  0  0  0  0  0
   16.8414   67.6215    5.8447 C   0  0  0  0  0  0
   17.0396   67.5258    7.2291 C   0  0  0  0  0  0
   16.1675   66.7558    7.9962 C   0  0  0  0  0  0
   15.1325   66.0652    7.4627 N   0  0  0  0  0  0
   14.9379   66.1430    6.1193 C   0  0  0  0  0  0
   15.7572   66.9253    5.2966 C   0  0  0  0  0  0
   13.8442   65.3010    5.5632 C   0  0  0  0  0  0
   14.0961   64.4764    4.4572 C   0  0  0  0  0  0
   13.0999   63.6557    3.9368 C   0  0  0  0  0  0
   11.8278   63.6575    4.5015 C   0  0  0  0  0  0
   11.5544   64.4806    5.5918 C   0  0  0  0  0  0
   12.5534   65.2993    6.1198 C   0  0  0  0  0  0
   12.2579   66.0968    7.1733 F   0  0  0  0  0  0
   19.8122   69.2622    5.9018 C   0  0  0  0  0  0
   21.1560   69.6567    5.5876 C   0  0  0  0  0  0
   21.7923   69.8588    6.8359 C   0  0  0  0  0  0
   20.8226   69.5771    7.7658 N   0  0  0  0  0  0
   19.6048   69.3369    7.2456 N   0  0  0  0  0  0
   13.3691   62.8588    2.8814 F   0  0  0  0  0  0
   21.0000   69.3856    9.2024 C   0  0  0  0  0  0
   20.8231   67.9198    9.6448 C   0  0  0  0  0  0
   20.8388   67.6578   10.9463 N   0  0  0  0  0  0
   20.6652   67.0059    8.8393 O   0  0  0  0  0  0
   18.8552   68.7761    2.6943 H   0  0  0  0  0  0
   21.1695   69.5286    2.3554 H   0  0  0  0  0  0
   17.2997   68.1630    3.9834 H   0  0  0  0  0  0
   17.8341   67.9976    7.7581 H   0  0  0  0  0  0
   16.3033   66.6752    9.0645 H   0  0  0  0  0  0
   15.5714   66.9525    4.2323 H   0  0  0  0  0  0
   15.0772   64.4535    4.0043 H   0  0  0  0  0  0
   11.0579   63.0253    4.0861 H   0  0  0  0  0  0
   10.5693   64.4834    6.0314 H   0  0  0  0  0  0
   22.8067   70.0907    7.1275 H   0  0  0  0  0  0
   20.2673   70.0076    9.7180 H   0  0  0  0  0  0
   21.9935   69.7361    9.4843 H   0  0  0  0  0  0
   20.6775   66.6932   11.2370 H   0  0  0  0  0  0
   20.9818   68.3822   11.6331 H   0  0  0  0  0  0
  1 19  1  0  0  0
  1  2  2  0  0  0
  1  5  1  0  0  0
  2  3  1  0  0  0
  2 29  1  0  0  0
  3  4  2  0  0  0
  3 30  1  0  0  0
  4 20  1  0  0  0
  5  6  1  0  0  0
  5 31  1  0  0  0
  6  7  2  0  0  0
  6 11  1  0  0  0
  7  8  1  0  0  0
  7 32  1  0  0  0
  8  9  2  0  0  0
  8 33  1  0  0  0
  9 10  1  0  0  0
 10 11  2  0  0  0
 10 12  1  0  0  0
 11 34  1  0  0  0
 12 13  2  0  0  0
 12 17  1  0  0  0
 13 14  1  0  0  0
 13 35  1  0  0  0
 14 15  2  0  0  0
 14 24  1  0  0  0
 15 16  1  0  0  0
 15 36  1  0  0  0
 16 17  2  0  0  0
 16 37  1  0  0  0
 17 18  1  0  0  0
 19 20  1  0  0  0
 19 23  2  0  0  0
 20 21  2  0  0  0
 21 22  1  0  0  0
 21 38  1  0  0  0
 22 23  1  0  0  0
 22 25  1  0  0  0
 25 26  1  0  0  0
 25 39  1  0  0  0
 25 40  1  0  0  0
 26 27  1  0  0  0
 26 28  2  0  0  0
 27 41  1  0  0  0
 27 42  1  0  0  0
M  END
> <s_m_entry_id>
34439

> <s_m_entry_name>
dock_pv.182

> <s_m_Source_Path>
/home/csk/Desktop/cluster/DUD-E-result/tgfr1

> <s_m_Source_File>
dock_pv.maegz

> <i_m_Source_File_Index>
182

> <chembl_id>
CHEMBL4082821

> <chembl_pref_name>
None

> <i_lp_mmshare_version>
53161

> <r_lp_tautomer_probability>
0.999999106000799

> <s_lp_Force_Field>
OPLS_2005

> <r_lp_Energy>
32.285601

> <b_lp_Chiralities_Consistent>
1

> <s_lp_Variant>
CHEMBL4439_lig798-1

> <s_i_glide_gridfile>
glide-grid_3hmm

> <i_i_glide_lignum>
1113

> <i_i_glide_rotatable_bonds>
5

> <r_i_docking_score>
-8.49112200125215

> <r_i_glide_ligand_efficiency>
-0.303254357187577

> <r_i_glide_ligand_efficiency_sa>
-0.920858835686209

> <r_i_glide_ligand_efficiency_ln>
-1.96000026806416

> <r_i_glide_gscore>
-8.49112200125215

> <r_i_glide_lipo>
-3.1465507666008

> <r_i_glide_hbond>
-0.364943626355402

> <r_i_glide_metal>
0

> <r_i_glide_rewards>
-2.09900193985461

> <r_i_glide_evdw>
-46.848217010498

> <r_i_glide_ecoul>
-7.16405200958252

> <r_i_glide_erotb>
0.53639298352093

> <r_i_glide_esite>
0

> <r_i_glide_emodel>
-78.7836721021172

> <r_i_glide_energy>
-54.0122690200806

> <r_i_glide_einternal>
5.0380744934082

> <i_i_glide_confnum>
19

> <i_i_glide_posenum>
65

> <r_i_glide_eff_state_penalty>
0

> <s_user_duplicate_titles>
CHEMBL4439_lig798

> <i_f3d_flags>
0

> <s_m_subgroup_title>
dock_pv

> <s_m_subgroupid>
dock_pv

> <b_m_subgroup_collapsed>
1

$$$$
CHEMBL4439_lig765
                    3D
 Schrodinger Suite 2021-1.
 40 44  0  0  1  0            999 V2000
   20.0749   67.6567   10.4043 C   0  0  0  0  0  0
   18.6673   67.6708    9.8468 C   0  0  0  0  0  0
   17.5646   67.8967   10.6683 C   0  0  0  0  0  0
   16.3169   68.0553   10.0673 C   0  0  0  0  0  0
   16.1943   67.9924    8.6780 C   0  0  0  0  0  0
   17.3351   67.7131    7.9164 C   0  0  0  0  0  0
   18.5611   67.5470    8.5013 N   0  0  0  0  0  0
   17.3217   67.7822    6.4978 N   0  0  0  0  0  0
   18.3239   68.5072    5.9460 N   0  0  0  0  0  0
   18.0998   68.4882    4.6693 C   0  0  0  0  0  0
   18.7587   69.1357    3.4872 C   0  0  0  0  0  0
   17.6798   68.9575    2.4067 C   0  0  0  0  0  0
   16.8129   67.7628    2.8402 C   0  0  0  0  0  0
   16.9798   67.7719    4.3356 C   0  0  0  0  0  0
   16.4582   67.2567    5.5224 C   0  0  0  0  0  0
   15.2968   66.3371    5.5859 C   0  0  0  0  0  0
   15.1003   65.2899    4.6990 C   0  0  0  0  0  0
   13.8193   64.6852    4.7886 C   0  0  0  0  0  0
   13.2307   63.6590    4.0322 C   0  0  0  0  0  0
   11.9508   63.2564    4.2198 N   0  0  0  0  0  0
   11.2216   63.8370    5.2010 C   0  0  0  0  0  0
   11.7019   64.8455    6.0333 C   0  0  0  0  0  0
   13.0257   65.2652    5.8156 C   0  0  0  0  0  0
   13.9219   66.5112    6.6665 S   0  0  0  0  0  0
   20.0759   67.5033   11.4837 H   0  0  0  0  0  0
   20.6626   66.8597    9.9502 H   0  0  0  0  0  0
   20.5662   68.6061   10.1926 H   0  0  0  0  0  0
   17.6753   68.0002   11.7376 H   0  0  0  0  0  0
   15.4672   68.2836   10.6866 H   0  0  0  0  0  0
   15.2490   68.2296    8.2201 H   0  0  0  0  0  0
   19.6981   68.6459    3.2317 H   0  0  0  0  0  0
   18.9707   70.1894    3.6529 H   0  0  0  0  0  0
   18.1097   68.8205    1.4133 H   0  0  0  0  0  0
   17.0654   69.8582    2.3606 H   0  0  0  0  0  0
   17.2483   66.8573    2.4300 H   0  0  0  0  0  0
   15.7801   67.8426    2.4987 H   0  0  0  0  0  0
   15.8255   65.0065    3.9518 H   0  0  0  0  0  0
   13.7656   63.1850    3.2237 H   0  0  0  0  0  0
   10.2098   63.4754    5.3140 H   0  0  0  0  0  0
   11.0723   65.2809    6.7998 H   0  0  0  0  0  0
  1  2  1  0  0  0
  1 25  1  0  0  0
  1 26  1  0  0  0
  1 27  1  0  0  0
  2  3  2  0  0  0
  2  7  1  0  0  0
  3  4  1  0  0  0
  3 28  1  0  0  0
  4  5  2  0  0  0
  4 29  1  0  0  0
  5  6  1  0  0  0
  5 30  1  0  0  0
  6  7  2  0  0  0
  6  8  1  0  0  0
  8  9  1  0  0  0
  8 15  1  0  0  0
  9 10  2  0  0  0
 10 11  1  0  0  0
 10 14  1  0  0  0
 11 12  1  0  0  0
 11 31  1  0  0  0
 11 32  1  0  0  0
 12 13  1  0  0  0
 12 33  1  0  0  0
 12 34  1  0  0  0
 13 14  1  0  0  0
 13 35  1  0  0  0
 13 36  1  0  0  0
 14 15  2  0  0  0
 15 16  1  0  0  0
 16 17  2  0  0  0
 16 24  1  0  0  0
 17 18  1  0  0  0
 17 37  1  0  0  0
 18 19  2  0  0  0
 18 23  1  0  0  0
 19 20  1  0  0  0
 19 38  1  0  0  0
 20 21  2  0  0  0
 21 22  1  0  0  0
 21 39  1  0  0  0
 22 23  2  0  0  0
 22 40  1  0  0  0
 23 24  1  0  0  0
M  END
> <s_m_entry_id>
34440

> <s_m_entry_name>
dock_pv.183

> <s_m_Source_Path>
/home/csk/Desktop/cluster/DUD-E-result/tgfr1

> <s_m_Source_File>
dock_pv.maegz

> <i_m_Source_File_Index>
183

> <chembl_id>
CHEMBL3704652

> <chembl_pref_name>
None

> <i_lp_mmshare_version>
53161

> <r_lp_tautomer_probability>
1

> <s_lp_Force_Field>
OPLS_2005

> <r_lp_Energy>
35.575076

> <b_lp_Chiralities_Consistent>
1

> <s_lp_Variant>
CHEMBL4439_lig765-1

> <s_i_glide_gridfile>
glide-grid_3hmm

> <i_i_glide_lignum>
1079

> <i_i_glide_rotatable_bonds>
2

> <r_i_docking_score>
-8.49110189156546

> <r_i_glide_ligand_efficiency>
-0.353795912148561

> <r_i_glide_ligand_efficiency_sa>
-1.02052400346447

> <r_i_glide_ligand_efficiency_ln>
-2.0323103139287

> <r_i_glide_gscore>
-8.49110189156546

> <r_i_glide_lipo>
-4.57926895728317

> <r_i_glide_hbond>
0

> <r_i_glide_metal>
0

> <r_i_glide_rewards>
-1.98826671679983

> <r_i_glide_evdw>
-46.2389335632324

> <r_i_glide_ecoul>
0.316699117422104

> <r_i_glide_erotb>
0.340875593065842

> <r_i_glide_esite>
0

> <r_i_glide_emodel>
-66.3180777018318

> <r_i_glide_energy>
-45.9222344458103

> <r_i_glide_einternal>
2.96846437454224

> <i_i_glide_confnum>
6

> <i_i_glide_posenum>
163

> <r_i_glide_eff_state_penalty>
0

> <s_user_duplicate_titles>
CHEMBL4439_lig765

> <i_f3d_flags>
0

> <s_m_subgroup_title>
dock_pv

> <s_m_subgroupid>
dock_pv

> <b_m_subgroup_collapsed>
1

$$$$
CHEMBL4439_lig857
                    3D
 Schrodinger Suite 2021-1.
 54 57  0  0  1  0            999 V2000
   18.7789   67.1945   10.4913 C   0  0  0  0  0  0
   17.4846   67.3871    9.6728 C   0  0  0  0  0  0
   16.5551   68.3683   10.4207 C   0  0  0  0  0  0
   17.8374   68.0570    4.6895 C   0  0  0  0  0  0
   18.2304   68.6197    3.4857 C   0  0  0  0  0  0
   17.3133   68.7312    2.4319 C   0  0  0  0  0  0
   16.0080   68.2841    2.6044 C   0  0  0  0  0  0
   15.6265   67.6804    3.7964 C   0  0  0  0  0  0
   16.5354   67.5846    4.8535 C   0  0  0  0  0  0
   16.1355   66.9673    6.1467 C   0  0  0  0  0  0
   15.0669   65.6570    7.6358 N   0  0  0  0  0  0
   15.1186   66.0059    6.3759 C   0  0  0  0  0  0
   16.0710   66.2779    8.2270 N   0  0  0  0  0  0
   16.7113   67.1495    7.4084 C   0  0  0  0  0  0
   17.8082   67.8278    8.2086 C   0  0  1  0  0  0
   16.7201   66.0639    9.4978 C   0  0  0  0  0  0
   14.2513   65.2576    5.4222 C   0  0  0  0  0  0
   12.9171   65.2566    5.6866 N   0  0  0  0  0  0
   12.1188   64.4876    4.9008 C   0  0  0  0  0  0
   12.6135   63.6565    3.8946 C   0  0  0  0  0  0
   13.9789   63.6791    3.6286 C   0  0  0  0  0  0
   14.8092   64.5061    4.3833 C   0  0  0  0  0  0
   10.6327   64.5521    5.1731 C   0  0  0  0  0  0
   17.9134   69.3497    7.9746 C   0  0  0  0  0  0
   17.6243   69.2549    1.2000 O   0  0  0  0  0  0
   18.9916   69.2576    0.8320 C   0  0  0  0  0  0
   10.1877   63.3701    6.0306 C   0  0  0  0  0  0
   19.4397   66.4589   10.0317 H   0  0  0  0  0  0
   19.3401   68.1265   10.5698 H   0  0  0  0  0  0
   18.5689   66.8572   11.5068 H   0  0  0  0  0  0
   15.6976   68.6708    9.8176 H   0  0  0  0  0  0
   16.1708   67.9415   11.3484 H   0  0  0  0  0  0
   17.1033   69.2582   10.6989 H   0  0  0  0  0  0
   18.5649   67.9604    5.4803 H   0  0  0  0  0  0
   19.2499   68.9589    3.3949 H   0  0  0  0  0  0
   15.2959   68.3787    1.7966 H   0  0  0  0  0  0
   14.6092   67.3381    3.8981 H   0  0  0  0  0  0
   18.7594   67.3869    7.9022 H   0  0  0  0  0  0
   16.0035   65.8558   10.2937 H   0  0  0  0  0  0
   17.3943   65.2099    9.4189 H   0  0  0  0  0  0
   11.9525   63.0434    3.2991 H   0  0  0  0  0  0
   14.3833   63.0740    2.8321 H   0  0  0  0  0  0
   15.8670   64.5315    4.1875 H   0  0  0  0  0  0
   10.1073   64.5293    4.2172 H   0  0  0  0  0  0
   10.3637   65.5043    5.6320 H   0  0  0  0  0  0
   18.2674   69.5885    6.9742 H   0  0  0  0  0  0
   16.9530   69.8493    8.1054 H   0  0  0  0  0  0
   18.6177   69.7991    8.6742 H   0  0  0  0  0  0
   19.0675   69.6570   -0.1758 H   0  0  0  0  0  0
   19.6010   69.8951    1.4741 H   0  0  0  0  0  0
   19.3930   68.2510    0.8299 H   0  0  0  0  0  0
    9.1039   63.2571    6.0413 H   0  0  0  0  0  0
   10.6142   62.4572    5.6320 H   0  0  0  0  0  0
   10.5405   63.4629    7.0548 H   0  0  0  0  0  0
  1  2  1  0  0  0
  1 28  1  0  0  0
  1 29  1  0  0  0
  1 30  1  0  0  0
  2  3  1  0  0  0
  2 15  1  0  0  0
  2 16  1  0  0  0
  3 31  1  0  0  0
  3 32  1  0  0  0
  3 33  1  0  0  0
  4  5  2  0  0  0
  4  9  1  0  0  0
  4 34  1  0  0  0
  5  6  1  0  0  0
  5 35  1  0  0  0
  6  7  2  0  0  0
  6 25  1  0  0  0
  7  8  1  0  0  0
  7 36  1  0  0  0
  8  9  2  0  0  0
  8 37  1  0  0  0
  9 10  1  0  0  0
 10 14  2  0  0  0
 10 12  1  0  0  0
 11 13  1  0  0  0
 11 12  2  0  0  0
 12 17  1  0  0  0
 13 14  1  0  0  0
 13 16  1  0  0  0
 14 15  1  0  0  0
 15 24  1  0  0  0
 15 38  1  0  0  0
 16 39  1  0  0  0
 16 40  1  0  0  0
 17 18  2  0  0  0
 17 22  1  0  0  0
 18 19  1  0  0  0
 19 20  2  0  0  0
 19 23  1  0  0  0
 20 21  1  0  0  0
 20 41  1  0  0  0
 21 22  2  0  0  0
 21 42  1  0  0  0
 22 43  1  0  0  0
 23 27  1  0  0  0
 23 44  1  0  0  0
 23 45  1  0  0  0
 24 46  1  0  0  0
 24 47  1  0  0  0
 24 48  1  0  0  0
 25 26  1  0  0  0
 26 49  1  0  0  0
 26 50  1  0  0  0
 26 51  1  0  0  0
 27 52  1  0  0  0
 27 53  1  0  0  0
 27 54  1  0  0  0
M  END
> <s_m_entry_id>
34441

> <s_m_entry_name>
dock_pv.184

> <s_m_Source_Path>
/home/csk/Desktop/cluster/DUD-E-result/tgfr1

> <s_m_Source_File>
dock_pv.maegz

> <i_m_Source_File_Index>
184

> <chembl_id>
CHEMBL4284266

> <chembl_pref_name>
None

> <i_lp_mmshare_version>
53161

> <r_lp_tautomer_probability>
1

> <s_lp_Force_Field>
OPLS_2005

> <r_lp_Energy>
41.210647

> <b_lp_Chiralities_Consistent>
1

> <s_lp_Variant>
CHEMBL4439_lig857-1

> <s_i_glide_gridfile>
glide-grid_3hmm

> <i_i_glide_lignum>
1184

> <i_i_glide_rotatable_bonds>
4

> <r_i_docking_score>
-8.48760374744235

> <r_i_glide_ligand_efficiency>
-0.314355694349717

> <r_i_glide_ligand_efficiency_sa>
-0.943067082013085

> <r_i_glide_ligand_efficiency_ln>
-1.97577422332075

> <r_i_glide_gscore>
-8.48760374744235

> <r_i_glide_lipo>
-4.43972565564567

> <r_i_glide_hbond>
-0.4797943463946

> <r_i_glide_metal>
0

> <r_i_glide_rewards>
-1.3002156209921

> <r_i_glide_evdw>
-43.5512084960938

> <r_i_glide_ecoul>
-2.56029939651489

> <r_i_glide_erotb>
0.293737209871946

> <r_i_glide_esite>
0

> <r_i_glide_emodel>
-55.5548957202596

> <r_i_glide_energy>
-46.1115078926086

> <r_i_glide_einternal>
8.41632461547852

> <i_i_glide_confnum>
1

> <i_i_glide_posenum>
7

> <r_i_glide_eff_state_penalty>
0

> <s_user_duplicate_titles>
CHEMBL4439_lig857

> <i_f3d_flags>
0

> <s_m_subgroup_title>
dock_pv

> <s_m_subgroupid>
dock_pv

> <b_m_subgroup_collapsed>
1

$$$$
CHEMBL4439_lig205
                    3D
 Schrodinger Suite 2021-1.
 43 46  0  0  1  0            999 V2000
   14.9328   66.4015    6.7632 C   0  0  0  0  0  0
   16.0012   67.2885    6.4861 C   0  0  0  0  0  0
   16.3260   67.8227    7.7294 N   0  0  0  0  0  0
   15.4468   67.2527    8.6046 C   0  0  0  0  0  0
   14.5907   66.4570    8.0391 N   0  0  0  0  0  0
   14.1401   65.5041    5.8531 C   0  0  0  0  0  0
   12.7768   65.2645    6.0871 C   0  0  0  0  0  0
   12.0633   64.3808    5.2819 C   0  0  0  0  0  0
   12.7082   63.7295    4.2359 C   0  0  0  0  0  0
   14.0529   63.9757    3.9756 C   0  0  0  0  0  0
   14.7669   64.8568    4.7840 C   0  0  0  0  0  0
   16.6493   67.6576    5.1786 C   0  0  0  0  0  0
   15.9185   67.6574    3.9838 C   0  0  0  0  0  0
   16.5719   68.0971    2.8321 C   0  0  0  0  0  0
   17.8679   68.4999    2.8352 N   0  0  0  0  0  0
   18.5018   68.4568    4.0322 C   0  0  0  0  0  0
   17.9520   68.0571    5.2063 N   0  0  0  0  0  0
   12.0215   62.8579    3.4660 F   0  0  0  0  0  0
   19.8288   68.8647    4.0571 N   0  0  0  0  0  0
   17.2619   68.8817    8.1044 C   0  0  0  0  0  0
   18.4346   68.4616    8.9769 C   0  0  0  0  0  0
   19.7281   68.4360    8.4469 C   0  0  0  0  0  0
   20.8248   68.2338    9.2842 C   0  0  0  0  0  0
   20.6339   68.0569   10.6547 C   0  0  0  0  0  0
   19.3404   68.0402   11.1863 C   0  0  0  0  0  0
   18.2437   68.2318   10.3434 C   0  0  0  0  0  0
   19.1288   67.8276   12.6109 C   0  0  0  0  0  0
   18.9583   67.6575   13.7438 N   0  0  0  0  0  0
   15.4672   67.5302    9.6466 H   0  0  0  0  0  0
   12.2626   65.7540    6.9020 H   0  0  0  0  0  0
   11.0167   64.1948    5.4721 H   0  0  0  0  0  0
   14.5405   63.4716    3.1541 H   0  0  0  0  0  0
   15.8180   65.0102    4.5907 H   0  0  0  0  0  0
   14.8736   67.3876    3.9516 H   0  0  0  0  0  0
   16.0460   68.1561    1.8906 H   0  0  0  0  0  0
   20.3691   68.7319    4.8982 H   0  0  0  0  0  0
   20.2748   69.1034    3.1844 H   0  0  0  0  0  0
   16.6917   69.6429    8.6394 H   0  0  0  0  0  0
   17.6307   69.4031    7.2320 H   0  0  0  0  0  0
   19.8916   68.6161    7.3944 H   0  0  0  0  0  0
   21.8238   68.2382    8.8730 H   0  0  0  0  0  0
   21.4949   67.9076   11.2917 H   0  0  0  0  0  0
   17.2480   68.2729   10.7608 H   0  0  0  0  0  0
  1  6  1  0  0  0
  1  2  2  0  0  0
  1  5  1  0  0  0
  2 12  1  0  0  0
  2  3  1  0  0  0
  3 20  1  0  0  0
  3  4  1  0  0  0
  4  5  2  0  0  0
  4 29  1  0  0  0
  6 11  1  0  0  0
  6  7  2  0  0  0
  7  8  1  0  0  0
  7 30  1  0  0  0
  8  9  2  0  0  0
  8 31  1  0  0  0
  9 18  1  0  0  0
  9 10  1  0  0  0
 10 11  2  0  0  0
 10 32  1  0  0  0
 11 33  1  0  0  0
 12 13  2  0  0  0
 12 17  1  0  0  0
 13 14  1  0  0  0
 13 34  1  0  0  0
 14 15  2  0  0  0
 14 35  1  0  0  0
 15 16  1  0  0  0
 16 17  2  0  0  0
 16 19  1  0  0  0
 19 36  1  0  0  0
 19 37  1  0  0  0
 20 21  1  0  0  0
 20 38  1  0  0  0
 20 39  1  0  0  0
 21 22  2  0  0  0
 21 26  1  0  0  0
 22 23  1  0  0  0
 22 40  1  0  0  0
 23 24  2  0  0  0
 23 41  1  0  0  0
 24 25  1  0  0  0
 24 42  1  0  0  0
 25 26  2  0  0  0
 25 27  1  0  0  0
 26 43  1  0  0  0
 27 28  3  0  0  0
M  END
> <s_m_entry_id>
34442

> <s_m_entry_name>
dock_pv.185

> <s_m_Source_Path>
/home/csk/Desktop/cluster/DUD-E-result/tgfr1

> <s_m_Source_File>
dock_pv.maegz

> <i_m_Source_File_Index>
185

> <chembl_id>
CHEMBL520949

> <chembl_pref_name>
None

> <i_lp_mmshare_version>
53161

> <r_lp_tautomer_probability>
0.999999987636

> <s_lp_Force_Field>
OPLS_2005

> <r_lp_Energy>
16.821627

> <b_lp_Chiralities_Consistent>
1

> <s_lp_Variant>
CHEMBL4439_lig205-1

> <s_i_glide_gridfile>
glide-grid_3hmm

> <i_i_glide_lignum>
306

> <i_i_glide_rotatable_bonds>
4

> <r_i_docking_score>
-8.48340012455375

> <r_i_glide_ligand_efficiency>
-0.30297857587692

> <r_i_glide_ligand_efficiency_sa>
-0.920021401200548

> <r_i_glide_ligand_efficiency_ln>
-1.95821783219801

> <r_i_glide_gscore>
-8.48340012455375

> <r_i_glide_lipo>
-3.53164943511104

> <r_i_glide_hbond>
-0.123337937915891

> <r_i_glide_metal>
0

> <r_i_glide_rewards>
-2.51678593373378

> <r_i_glide_evdw>
-49.7675361633301

> <r_i_glide_ecoul>
-2.32840776443481

> <r_i_glide_erotb>
0.562502768471996

> <r_i_glide_esite>
-0.0364916134333025

> <r_i_glide_emodel>
-77.1230729011393

> <r_i_glide_energy>
-52.0959439277649

> <r_i_glide_einternal>
4.39799833297729

> <i_i_glide_confnum>
16

> <i_i_glide_posenum>
162

> <r_i_glide_eff_state_penalty>
0

> <s_user_duplicate_titles>
CHEMBL4439_lig205

> <i_f3d_flags>
0

> <s_m_subgroup_title>
dock_pv

> <s_m_subgroupid>
dock_pv

> <b_m_subgroup_collapsed>
1

$$$$
CHEMBL4439_lig580
                    3D
 Schrodinger Suite 2021-1.
 46 49  0  0  1  0            999 V2000
   17.1795   68.8435    8.8244 S   0  0  0  0  0  0
   16.5427   67.5105    7.9063 C   0  0  0  0  0  0
   16.0973   66.5199    8.6322 N   0  0  0  0  0  0
   16.2394   66.7414    9.9230 C   0  0  0  0  0  0
   16.8215   67.9547   10.2686 C   0  0  0  0  0  0
   15.7317   65.6572   10.8268 C   0  0  0  0  0  0
   16.5647   67.4777    6.4582 C   0  0  0  0  0  0
   15.6737   66.8832    5.5601 C   0  0  0  0  0  0
   16.2096   67.1667    4.3288 N   0  0  0  0  0  0
   17.3703   67.8456    4.5407 C   0  0  0  0  0  0
   17.5814   68.0192    5.8174 N   0  0  0  0  0  0
   14.4138   66.1211    5.7126 C   0  0  0  0  0  0
   13.4774   66.4563    6.6960 C   0  0  0  0  0  0
   12.2369   65.8192    6.7584 C   0  0  0  0  0  0
   14.1671   65.0904    4.8036 C   0  0  0  0  0  0
   12.9149   64.4842    4.8321 C   0  0  0  0  0  0
   11.9336   64.8594    5.7826 C   0  0  0  0  0  0
   10.7351   64.2421    5.6319 N   0  0  0  0  0  0
   10.7503   63.4526    4.6019 C   0  0  0  0  0  0
   12.2677   63.2570    3.7709 S   0  0  0  0  0  0
   18.3457   68.2098    3.4428 C   0  0  0  0  0  0
   18.8668   69.6581    3.5130 C   0  0  0  0  0  0
   19.5706   70.0653    4.8329 C   0  0  0  0  0  0
   20.8673   69.2777    5.1300 C   0  0  0  0  0  0
   21.8597   70.1137    5.9382 C   0  0  0  0  0  0
   23.1397   70.0570    5.5971 N   0  0  0  0  0  0
   21.4673   70.8570    6.8318 O   0  0  0  0  0  0
   17.0367   68.3565   11.2473 H   0  0  0  0  0  0
   16.0571   65.7805   11.8603 H   0  0  0  0  0  0
   14.6487   65.6570   10.8325 H   0  0  0  0  0  0
   16.0357   64.6733   10.4748 H   0  0  0  0  0  0
   15.8279   66.8974    3.4342 H   0  0  0  0  0  0
   13.6969   67.2502    7.3960 H   0  0  0  0  0  0
   11.4979   66.0924    7.4979 H   0  0  0  0  0  0
   14.8914   64.8085    4.0529 H   0  0  0  0  0  0
    9.8870   62.8801    4.2920 H   0  0  0  0  0  0
   17.9014   68.0471    2.4597 H   0  0  0  0  0  0
   19.1917   67.5259    3.4945 H   0  0  0  0  0  0
   18.0384   70.3380    3.3111 H   0  0  0  0  0  0
   19.5591   69.8101    2.6832 H   0  0  0  0  0  0
   18.9077   70.0089    5.6905 H   0  0  0  0  0  0
   19.7651   71.1327    4.8320 H   0  0  0  0  0  0
   21.3414   68.9676    4.1974 H   0  0  0  0  0  0
   20.6420   68.3608    5.6744 H   0  0  0  0  0  0
   23.7823   70.7180    6.0319 H   0  0  0  0  0  0
   23.4843   69.3301    4.9886 H   0  0  0  0  0  0
  1  2  1  0  0  0
  1  5  1  0  0  0
  2  3  2  0  0  0
  2  7  1  0  0  0
  3  4  1  0  0  0
  4  5  2  0  0  0
  4  6  1  0  0  0
  5 28  1  0  0  0
  6 29  1  0  0  0
  6 30  1  0  0  0
  6 31  1  0  0  0
  7  8  2  0  0  0
  7 11  1  0  0  0
  8  9  1  0  0  0
  8 12  1  0  0  0
  9 10  1  0  0  0
  9 32  1  0  0  0
 10 11  2  0  0  0
 10 21  1  0  0  0
 12 13  2  0  0  0
 12 15  1  0  0  0
 13 14  1  0  0  0
 13 33  1  0  0  0
 14 17  2  0  0  0
 14 34  1  0  0  0
 15 16  2  0  0  0
 15 35  1  0  0  0
 16 17  1  0  0  0
 16 20  1  0  0  0
 17 18  1  0  0  0
 18 19  2  0  0  0
 19 20  1  0  0  0
 19 36  1  0  0  0
 21 22  1  0  0  0
 21 37  1  0  0  0
 21 38  1  0  0  0
 22 23  1  0  0  0
 22 39  1  0  0  0
 22 40  1  0  0  0
 23 24  1  0  0  0
 23 41  1  0  0  0
 23 42  1  0  0  0
 24 25  1  0  0  0
 24 43  1  0  0  0
 24 44  1  0  0  0
 25 26  1  0  0  0
 25 27  2  0  0  0
 26 45  1  0  0  0
 26 46  1  0  0  0
M  END
> <s_m_entry_id>
34443

> <s_m_entry_name>
dock_pv.186

> <s_m_Source_Path>
/home/csk/Desktop/cluster/DUD-E-result/tgfr1

> <s_m_Source_File>
dock_pv.maegz

> <i_m_Source_File_Index>
186

> <chembl_id>
CHEMBL2208010

> <chembl_pref_name>
None

> <i_lp_mmshare_version>
53161

> <r_lp_tautomer_probability>
0.499999999999999

> <s_lp_Force_Field>
OPLS_2005

> <r_lp_Energy>
5.008889

> <b_lp_Chiralities_Consistent>
1

> <s_lp_Variant>
CHEMBL4439_lig580-1

> <s_i_glide_gridfile>
glide-grid_3hmm

> <i_i_glide_lignum>
773

> <i_i_glide_rotatable_bonds>
7

> <r_i_docking_score>
-8.48020696230546

> <r_i_glide_ligand_efficiency>
-0.314081739344647

> <r_i_glide_ligand_efficiency_sa>
-0.942245216998778

> <r_i_glide_ligand_efficiency_ln>
-1.97405237368642

> <r_i_glide_gscore>
-8.48020696230546

> <r_i_glide_lipo>
-3.82980194985431

> <r_i_glide_hbond>
-0.559623847767853

> <r_i_glide_metal>
0

> <r_i_glide_rewards>
-1.55913477770243

> <r_i_glide_evdw>
-46.4624099731445

> <r_i_glide_ecoul>
-6.34534072875977

> <r_i_glide_erotb>
0.743275220990324

> <r_i_glide_esite>
0

> <r_i_glide_emodel>
-79.1257474421928

> <r_i_glide_energy>
-52.8077507019043

> <r_i_glide_einternal>
6.54390382766724

> <i_i_glide_confnum>
25

> <i_i_glide_posenum>
20

> <r_i_glide_eff_state_penalty>
0

> <s_user_duplicate_titles>
CHEMBL4439_lig580,CHEMBL4439_lig580

> <i_f3d_flags>
0

> <s_m_subgroup_title>
dock_pv

> <s_m_subgroupid>
dock_pv

> <b_m_subgroup_collapsed>
1

$$$$
CHEMBL4439_lig122
                    3D
 Schrodinger Suite 2021-1.
 37 40  0  0  1  0            999 V2000
   18.8993   68.4248    6.6246 C   0  0  0  0  0  0
   19.2899   68.7247    5.2783 C   0  0  0  0  0  0
   20.5889   68.9675    5.2148 N   0  0  0  0  0  0
   21.0538   68.8507    6.4537 N   0  0  0  0  0  0
   20.0787   68.5330    7.3497 C   0  0  0  0  0  0
   18.4911   68.8134    3.9961 C   0  0  0  0  0  0
   19.0574   69.2572    2.7897 C   0  0  0  0  0  0
   18.2732   69.2937    1.6354 C   0  0  0  0  0  0
   16.9399   68.8928    1.6993 C   0  0  0  0  0  0
   16.4400   68.4567    2.9222 C   0  0  0  0  0  0
   17.1882   68.4333    4.0521 N   0  0  0  0  0  0
   17.5735   68.0864    7.2388 C   0  0  0  0  0  0
   16.7004   67.1533    6.6678 C   0  0  0  0  0  0
   15.4400   66.9133    7.2380 C   0  0  0  0  0  0
   15.0830   67.5221    8.4088 N   0  0  0  0  0  0
   15.9473   68.3935    8.9849 C   0  0  0  0  0  0
   17.1871   68.7083    8.4310 C   0  0  0  0  0  0
   14.3979   66.0558    6.5678 C   0  0  0  0  0  0
   13.0640   66.0573    7.0118 C   0  0  0  0  0  0
   12.0837   65.3122    6.3662 C   0  0  0  0  0  0
   12.4158   64.5517    5.2522 C   0  0  0  0  0  0
   13.7297   64.5156    4.7973 C   0  0  0  0  0  0
   14.7100   65.2576    5.4529 C   0  0  0  0  0  0
   11.1915   63.6570    4.4319 Cl  0  0  0  0  0  0
   22.0347   68.9753    6.6676 H   0  0  0  0  0  0
   20.3046   68.4057    8.3986 H   0  0  0  0  0  0
   20.0907   69.5678    2.7329 H   0  0  0  0  0  0
   18.7000   69.6423    0.7070 H   0  0  0  0  0  0
   16.2992   68.9231    0.8320 H   0  0  0  0  0  0
   15.4123   68.1372    3.0194 H   0  0  0  0  0  0
   17.0100   66.6516    5.7681 H   0  0  0  0  0  0
   15.6240   68.8573    9.9048 H   0  0  0  0  0  0
   17.8330   69.4269    8.9152 H   0  0  0  0  0  0
   12.7630   66.6560    7.8582 H   0  0  0  0  0  0
   11.0670   65.3378    6.7282 H   0  0  0  0  0  0
   13.9864   63.9246    3.9297 H   0  0  0  0  0  0
   15.7125   65.2037    5.0593 H   0  0  0  0  0  0
  1  2  1  0  0  0
  1 12  1  0  0  0
  1  5  2  0  0  0
  2  3  2  0  0  0
  2  6  1  0  0  0
  3  4  1  0  0  0
  4  5  1  0  0  0
  4 25  1  0  0  0
  5 26  1  0  0  0
  6  7  2  0  0  0
  6 11  1  0  0  0
  7  8  1  0  0  0
  7 27  1  0  0  0
  8  9  2  0  0  0
  8 28  1  0  0  0
  9 10  1  0  0  0
  9 29  1  0  0  0
 10 11  2  0  0  0
 10 30  1  0  0  0
 12 13  2  0  0  0
 12 17  1  0  0  0
 13 14  1  0  0  0
 13 31  1  0  0  0
 14 15  2  0  0  0
 14 18  1  0  0  0
 15 16  1  0  0  0
 16 17  2  0  0  0
 16 32  1  0  0  0
 17 33  1  0  0  0
 18 19  2  0  0  0
 18 23  1  0  0  0
 19 20  1  0  0  0
 19 34  1  0  0  0
 20 21  2  0  0  0
 20 35  1  0  0  0
 21 22  1  0  0  0
 21 24  1  0  0  0
 22 23  2  0  0  0
 22 36  1  0  0  0
 23 37  1  0  0  0
M  END
> <s_m_entry_id>
34444

> <s_m_entry_name>
dock_pv.187

> <s_m_Source_Path>
/home/csk/Desktop/cluster/DUD-E-result/tgfr1

> <s_m_Source_File>
dock_pv.maegz

> <i_m_Source_File_Index>
187

> <chembl_id>
CHEMBL204838

> <chembl_pref_name>
None

> <i_lp_mmshare_version>
53161

> <r_lp_tautomer_probability>
0.5

> <s_lp_Force_Field>
OPLS_2005

> <r_lp_Energy>
21.471802

> <b_lp_Chiralities_Consistent>
1

> <s_lp_Variant>
CHEMBL4439_lig122-1

> <s_i_glide_gridfile>
glide-grid_3hmm

> <i_i_glide_lignum>
180

> <i_i_glide_rotatable_bonds>
3

> <r_i_docking_score>
-8.48011086105583

> <r_i_glide_ligand_efficiency>
-0.353337952543993

> <r_i_glide_ligand_efficiency_sa>
-1.01920301938005

> <r_i_glide_ligand_efficiency_ln>
-2.02967965598222

> <r_i_glide_gscore>
-8.48011086105583

> <r_i_glide_lipo>
-4.60094458762449

> <r_i_glide_hbond>
0

> <r_i_glide_metal>
0

> <r_i_glide_rewards>
-1.57342865151515

> <r_i_glide_evdw>
-49.4314765930176

> <r_i_glide_ecoul>
-2.2966091632843

> <r_i_glide_erotb>
0.510327582227331

> <r_i_glide_esite>
0

> <r_i_glide_emodel>
-78.1772676556016

> <r_i_glide_energy>
-51.7280857563019

> <r_i_glide_einternal>
1.16220319271088

> <i_i_glide_confnum>
20

> <i_i_glide_posenum>
133

> <r_i_glide_eff_state_penalty>
0

> <s_user_duplicate_titles>
CHEMBL4439_lig122,CHEMBL4439_lig122,342963

> <i_f3d_flags>
0

> <s_m_subgroup_title>
dock_pv

> <s_m_subgroupid>
dock_pv

> <b_m_subgroup_collapsed>
1

$$$$
CHEMBL4439_lig524
                    3D
 Schrodinger Suite 2021-1.
 42 45  0  0  1  0            999 V2000
   18.3712   68.2310    7.6849 N   0  0  0  0  0  0
   17.3685   67.8065    6.8862 N   0  0  0  0  0  0
   16.3639   67.1961    7.6371 C   0  0  0  0  0  0
   16.7922   67.3161    8.9502 C   0  0  0  0  0  0
   18.0425   67.9272    8.9164 C   0  0  0  0  0  0
   17.4544   68.0583    5.4786 C   0  0  0  0  0  0
   16.3167   67.9089    4.7494 N   0  0  0  0  0  0
   16.3500   68.0910    3.4087 C   0  0  0  0  0  0
   17.5072   68.4795    2.7337 C   0  0  0  0  0  0
   18.6705   68.6743    3.4815 C   0  0  0  0  0  0
   18.6553   68.4568    4.8622 C   0  0  0  0  0  0
   15.0241   67.8944    2.7004 C   0  0  0  0  0  0
   15.1142   66.5497    7.1354 C   0  0  0  0  0  0
   15.1793   65.6244    6.0913 C   0  0  0  0  0  0
   12.7054   66.2429    7.2317 C   0  0  0  0  0  0
   13.8714   66.8563    7.7032 C   0  0  0  0  0  0
   12.7708   65.3600    6.1598 C   0  0  0  0  0  0
   14.0074   65.0686    5.5852 C   0  0  0  0  0  0
   14.0382   64.2152    4.3430 C   0  0  0  0  0  0
   12.8073   63.6847    4.0317 N   0  0  0  0  0  0
   11.6382   63.9575    4.7093 C   0  0  0  0  0  0
   11.5924   64.7523    5.7132 N   0  0  0  0  0  0
   15.0589   64.0566    3.6679 O   0  0  0  0  0  0
   12.7739   62.8773    2.8103 C   0  0  0  0  0  0
   18.9822   68.2438   10.0540 C   0  0  0  0  0  0
   16.2786   66.9674    9.8334 H   0  0  0  0  0  0
   17.5056   68.6360    1.6648 H   0  0  0  0  0  0
   19.5824   68.9843    2.9929 H   0  0  0  0  0  0
   19.5641   68.5921    5.4305 H   0  0  0  0  0  0
   15.0955   68.1009    1.6333 H   0  0  0  0  0  0
   14.2673   68.5577    3.1143 H   0  0  0  0  0  0
   14.6673   66.8729    2.8320 H   0  0  0  0  0  0
   16.1377   65.3872    5.6476 H   0  0  0  0  0  0
   11.7427   66.4465    7.6762 H   0  0  0  0  0  0
   13.8095   67.5768    8.5037 H   0  0  0  0  0  0
   10.7273   63.4769    4.3562 H   0  0  0  0  0  0
   13.4876   62.0576    2.8762 H   0  0  0  0  0  0
   11.7882   62.4584    2.6171 H   0  0  0  0  0  0
   13.0546   63.4956    1.9541 H   0  0  0  0  0  0
   18.4842   68.1881   11.0221 H   0  0  0  0  0  0
   19.8194   67.5458   10.0814 H   0  0  0  0  0  0
   19.4054   69.2455    9.9705 H   0  0  0  0  0  0
  1  5  2  0  0  0
  1  2  1  0  0  0
  2  6  1  0  0  0
  2  3  1  0  0  0
  3 13  1  0  0  0
  3  4  2  0  0  0
  4  5  1  0  0  0
  4 26  1  0  0  0
  5 25  1  0  0  0
  6  7  2  0  0  0
  6 11  1  0  0  0
  7  8  1  0  0  0
  8 12  1  0  0  0
  8  9  2  0  0  0
  9 10  1  0  0  0
  9 27  1  0  0  0
 10 11  2  0  0  0
 10 28  1  0  0  0
 11 29  1  0  0  0
 12 30  1  0  0  0
 12 31  1  0  0  0
 12 32  1  0  0  0
 13 14  2  0  0  0
 13 16  1  0  0  0
 14 18  1  0  0  0
 14 33  1  0  0  0
 15 17  1  0  0  0
 15 16  2  0  0  0
 15 34  1  0  0  0
 16 35  1  0  0  0
 17 18  2  0  0  0
 17 22  1  0  0  0
 18 19  1  0  0  0
 19 20  1  0  0  0
 19 23  2  0  0  0
 20 21  1  0  0  0
 20 24  1  0  0  0
 21 22  2  0  0  0
 21 36  1  0  0  0
 24 37  1  0  0  0
 24 38  1  0  0  0
 24 39  1  0  0  0
 25 40  1  0  0  0
 25 41  1  0  0  0
 25 42  1  0  0  0
M  END
> <s_m_entry_id>
34445

> <s_m_entry_name>
dock_pv.188

> <s_m_Source_Path>
/home/csk/Desktop/cluster/DUD-E-result/tgfr1

> <s_m_Source_File>
dock_pv.maegz

> <i_m_Source_File_Index>
188

> <chembl_id>
CHEMBL2024687

> <chembl_pref_name>
None

> <i_lp_mmshare_version>
53161

> <r_lp_tautomer_probability>
1

> <s_lp_Force_Field>
OPLS_2005

> <r_lp_Energy>
23.905227

> <b_lp_Chiralities_Consistent>
1

> <s_lp_Variant>
CHEMBL4439_lig524-1

> <s_i_glide_gridfile>
glide-grid_3hmm

> <i_i_glide_lignum>
699

> <i_i_glide_rotatable_bonds>
2

> <r_i_docking_score>
-8.47405880268788

> <r_i_glide_ligand_efficiency>
-0.338962352107515

> <r_i_glide_ligand_efficiency_sa>
-0.991131929085286

> <r_i_glide_ligand_efficiency_ln>
-2.00860588328708

> <r_i_glide_gscore>
-8.47405880268788

> <r_i_glide_lipo>
-3.55607881080396

> <r_i_glide_hbond>
0

> <r_i_glide_metal>
0

> <r_i_glide_rewards>
-2.61259908448135

> <r_i_glide_evdw>
-50.3770790100098

> <r_i_glide_ecoul>
-0.862123966217041

> <r_i_glide_erotb>
0.342791638030479

> <r_i_glide_esite>
0

> <r_i_glide_emodel>
-75.5804266216221

> <r_i_glide_energy>
-51.2392029762268

> <r_i_glide_einternal>
1.12964165210724

> <i_i_glide_confnum>
4

> <i_i_glide_posenum>
345

> <r_i_glide_eff_state_penalty>
0

> <s_user_duplicate_titles>
CHEMBL4439_lig524

> <i_f3d_flags>
0

> <s_m_subgroup_title>
dock_pv

> <s_m_subgroupid>
dock_pv

> <b_m_subgroup_collapsed>
1

$$$$
CHEMBL4439_lig577
                    3D
 Schrodinger Suite 2021-1.
 46 49  0  0  1  0            999 V2000
   12.0868   65.6570    6.4369 S   0  0  0  0  0  0
   13.7938   65.6786    6.1398 C   0  0  0  0  0  0
   14.1698   64.9079    5.1452 N   0  0  0  0  0  0
   13.1552   64.2814    4.5735 C   0  0  0  0  0  0
   11.9102   64.5248    5.1396 C   0  0  0  0  0  0
   13.4670   63.4118    3.3805 C   0  0  0  0  0  0
   14.7189   66.5330    6.8884 C   0  0  0  0  0  0
   15.8312   67.3078    6.5246 C   0  0  0  0  0  0
   16.4371   67.8128    7.5935 N   0  0  0  0  0  0
   15.7166   67.4684    8.6241 C   0  0  0  0  0  0
   14.6175   66.7576    8.2376 N   0  0  0  0  0  0
   16.3349   67.6570    5.1623 C   0  0  0  0  0  0
   15.4670   67.6387    4.0649 C   0  0  0  0  0  0
   15.8666   68.0570    2.8003 C   0  0  0  0  0  0
   17.6512   68.1073    5.0070 C   0  0  0  0  0  0
   18.0558   68.5489    3.7471 C   0  0  0  0  0  0
   17.1810   68.5010    2.6325 C   0  0  0  0  0  0
   17.7200   68.9149    1.4568 N   0  0  0  0  0  0
   18.9529   69.2916    1.6320 C   0  0  0  0  0  0
   19.5788   69.2570    3.2612 S   0  0  0  0  0  0
   15.9983   67.8617   10.0589 C   0  0  0  0  0  0
   17.4982   67.8551   10.4375 C   0  0  0  0  0  0
   17.8017   68.3944   11.8492 C   0  0  0  0  0  0
   17.0670   67.6954   12.8990 N   0  0  0  0  0  0
   17.5769   67.2002   14.0300 C   0  0  0  0  0  0
   16.5647   66.5904   14.9789 C   0  0  0  0  0  0
   18.7622   67.2570   14.3479 O   0  0  0  0  0  0
   10.9435   64.1395    4.8511 H   0  0  0  0  0  0
   12.5769   63.2019    2.7866 H   0  0  0  0  0  0
   14.1907   63.8710    2.7059 H   0  0  0  0  0  0
   13.8685   62.4546    3.6928 H   0  0  0  0  0  0
   13.8717   66.4570    8.8445 H   0  0  0  0  0  0
   14.4385   67.3401    4.1901 H   0  0  0  0  0  0
   15.1745   68.0538    1.9704 H   0  0  0  0  0  0
   18.3310   68.1577    5.8456 H   0  0  0  0  0  0
   19.5708   69.6570    0.8241 H   0  0  0  0  0  0
   15.4670   67.1998   10.7440 H   0  0  0  0  0  0
   15.5899   68.8570   10.2149 H   0  0  0  0  0  0
   18.0599   68.4603    9.7237 H   0  0  0  0  0  0
   17.8979   66.8439   10.3454 H   0  0  0  0  0  0
   17.4670   69.4274   11.9239 H   0  0  0  0  0  0
   18.8805   68.4003   12.0226 H   0  0  0  0  0  0
   16.0567   67.6568   12.8039 H   0  0  0  0  0  0
   15.9328   67.3639   15.4177 H   0  0  0  0  0  0
   17.0670   66.0570   15.7847 H   0  0  0  0  0  0
   15.9196   65.9025   14.4320 H   0  0  0  0  0  0
  1  2  1  0  0  0
  1  5  1  0  0  0
  2  3  2  0  0  0
  2  7  1  0  0  0
  3  4  1  0  0  0
  4  5  2  0  0  0
  4  6  1  0  0  0
  5 28  1  0  0  0
  6 29  1  0  0  0
  6 30  1  0  0  0
  6 31  1  0  0  0
  7  8  2  0  0  0
  7 11  1  0  0  0
  8 12  1  0  0  0
  8  9  1  0  0  0
  9 10  2  0  0  0
 10 11  1  0  0  0
 10 21  1  0  0  0
 11 32  1  0  0  0
 12 13  2  0  0  0
 12 15  1  0  0  0
 13 14  1  0  0  0
 13 33  1  0  0  0
 14 17  2  0  0  0
 14 34  1  0  0  0
 15 16  2  0  0  0
 15 35  1  0  0  0
 16 17  1  0  0  0
 16 20  1  0  0  0
 17 18  1  0  0  0
 18 19  2  0  0  0
 19 20  1  0  0  0
 19 36  1  0  0  0
 21 22  1  0  0  0
 21 37  1  0  0  0
 21 38  1  0  0  0
 22 23  1  0  0  0
 22 39  1  0  0  0
 22 40  1  0  0  0
 23 24  1  0  0  0
 23 41  1  0  0  0
 23 42  1  0  0  0
 24 25  1  0  0  0
 24 43  1  0  0  0
 25 26  1  0  0  0
 25 27  2  0  0  0
 26 44  1  0  0  0
 26 45  1  0  0  0
 26 46  1  0  0  0
M  END
> <s_m_entry_id>
34446

> <s_m_entry_name>
dock_pv.189

> <s_m_Source_Path>
/home/csk/Desktop/cluster/DUD-E-result/tgfr1

> <s_m_Source_File>
dock_pv.maegz

> <i_m_Source_File_Index>
189

> <chembl_id>
CHEMBL2208013

> <chembl_pref_name>
None

> <i_lp_mmshare_version>
53161

> <r_lp_tautomer_probability>
0.499999999999999

> <s_lp_Force_Field>
OPLS_2005

> <r_lp_Energy>
6.32056

> <b_lp_Chiralities_Consistent>
1

> <s_lp_Variant>
CHEMBL4439_lig577-2

> <s_i_glide_gridfile>
glide-grid_3hmm

> <i_i_glide_lignum>
768

> <i_i_glide_rotatable_bonds>
7

> <r_i_docking_score>
-8.46621169670759

> <r_i_glide_ligand_efficiency>
-0.313563396174355

> <r_i_glide_ligand_efficiency_sa>
-0.940690187489612

> <r_i_glide_ligand_efficiency_ln>
-1.97079450658522

> <r_i_glide_gscore>
-8.46621169670759

> <r_i_glide_lipo>
-3.81271226803066

> <r_i_glide_hbond>
-0.277462165275967

> <r_i_glide_metal>
0

> <r_i_glide_rewards>
-2.03242387298086

> <r_i_glide_evdw>
-50.0452766418457

> <r_i_glide_ecoul>
-2.98721742630005

> <r_i_glide_erotb>
0.743275220990324

> <r_i_glide_esite>
-0.136542165373139

> <r_i_glide_emodel>
-79.3175307930026

> <r_i_glide_energy>
-53.0324940681458

> <r_i_glide_einternal>
4.61066150665283

> <i_i_glide_confnum>
11

> <i_i_glide_posenum>
117

> <r_i_glide_eff_state_penalty>
0

> <s_user_duplicate_titles>
CHEMBL4439_lig577

> <i_f3d_flags>
0

> <s_m_subgroup_title>
dock_pv

> <s_m_subgroupid>
dock_pv

> <b_m_subgroup_collapsed>
1

$$$$
CHEMBL4439_lig557
                    3D
 Schrodinger Suite 2021-1.
 47 51  0  0  1  0            999 V2000
   16.9621   68.4561    2.5502 C   0  0  0  0  0  0
   18.2946   68.8599    2.4672 C   0  0  0  0  0  0
   19.0649   68.8390    3.6322 C   0  0  0  0  0  0
   18.5612   68.4579    4.8318 N   0  0  0  0  0  0
   17.2523   68.1060    4.9277 C   0  0  0  0  0  0
   16.4373   68.0567    3.7826 C   0  0  0  0  0  0
   16.7255   67.8411    6.3237 C   0  0  0  0  0  0
   19.4845   69.2897    7.4972 C   0  0  0  0  0  0
   18.8000   68.1866    8.0104 C   0  0  0  0  0  0
   19.4464   67.3743    8.9566 C   0  0  0  0  0  0
   20.7480   67.6352    9.3941 C   0  0  0  0  0  0
   20.7786   69.4992    7.8816 N   0  0  0  0  0  0
   21.4410   68.7120    8.8228 C   0  0  0  0  0  0
   22.6918   69.1993    8.9906 N   0  0  0  0  0  0
   22.7014   70.2130    8.1425 C   0  0  0  0  0  0
   21.6100   70.4569    7.4395 N   0  0  0  0  0  0
   17.3990   67.8790    7.5786 C   0  0  0  0  0  0
   15.4433   67.5185    6.4278 N   0  0  0  0  0  0
   15.0679   67.2139    7.6393 C   0  0  0  0  0  0
   16.2643   67.4576    8.8391 S   0  0  0  0  0  0
   20.5239   69.2549    3.6364 C   0  0  0  0  0  0
   13.8671   66.6843    8.0317 N   0  0  0  0  0  0
   12.6775   66.3519    7.2504 C   0  0  0  0  0  0
   12.7942   65.3218    6.1212 C   0  0  0  0  0  0
   11.5902   64.8564    5.5881 C   0  0  0  0  0  0
   11.5809   63.9984    4.4939 C   0  0  0  0  0  0
   12.7882   63.6244    3.9153 C   0  0  0  0  0  0
   13.9959   64.0582    4.4415 C   0  0  0  0  0  0
   14.0036   64.8755    5.5681 C   0  0  0  0  0  0
   12.7917   62.8570    2.8100 F   0  0  0  0  0  0
   16.3363   68.4573    1.6692 H   0  0  0  0  0  0
   18.7172   69.1776    1.5248 H   0  0  0  0  0  0
   15.3984   67.7697    3.8469 H   0  0  0  0  0  0
   19.0706   69.9901    6.7886 H   0  0  0  0  0  0
   18.9301   66.5218    9.3763 H   0  0  0  0  0  0
   21.2152   67.0159   10.1447 H   0  0  0  0  0  0
   23.5800   70.8360    8.0325 H   0  0  0  0  0  0
   20.8484   69.6106    2.6563 H   0  0  0  0  0  0
   20.6922   70.0563    4.3568 H   0  0  0  0  0  0
   21.1589   68.4142    3.9203 H   0  0  0  0  0  0
   13.6121   66.8527    8.9954 H   0  0  0  0  0  0
   12.2589   67.2569    6.8270 H   0  0  0  0  0  0
   11.9226   66.0074    7.9569 H   0  0  0  0  0  0
   10.6598   65.1876    6.0171 H   0  0  0  0  0  0
   10.6482   63.6560    4.0711 H   0  0  0  0  0  0
   14.9260   63.7463    3.9889 H   0  0  0  0  0  0
   14.9600   65.1590    5.9721 H   0  0  0  0  0  0
  1  6  1  0  0  0
  1  2  2  0  0  0
  1 31  1  0  0  0
  2  3  1  0  0  0
  2 32  1  0  0  0
  3 21  1  0  0  0
  3  4  2  0  0  0
  4  5  1  0  0  0
  5  6  2  0  0  0
  5  7  1  0  0  0
  6 33  1  0  0  0
  7 17  2  0  0  0
  7 18  1  0  0  0
  8 12  1  0  0  0
  8  9  2  0  0  0
  8 34  1  0  0  0
  9 17  1  0  0  0
  9 10  1  0  0  0
 10 11  2  0  0  0
 10 35  1  0  0  0
 11 13  1  0  0  0
 11 36  1  0  0  0
 12 16  1  0  0  0
 12 13  1  0  0  0
 13 14  2  0  0  0
 14 15  1  0  0  0
 15 16  2  0  0  0
 15 37  1  0  0  0
 17 20  1  0  0  0
 18 19  2  0  0  0
 19 20  1  0  0  0
 19 22  1  0  0  0
 21 38  1  0  0  0
 21 39  1  0  0  0
 21 40  1  0  0  0
 22 23  1  0  0  0
 22 41  1  0  0  0
 23 24  1  0  0  0
 23 42  1  0  0  0
 23 43  1  0  0  0
 24 25  2  0  0  0
 24 29  1  0  0  0
 25 26  1  0  0  0
 25 44  1  0  0  0
 26 27  2  0  0  0
 26 45  1  0  0  0
 27 28  1  0  0  0
 27 30  1  0  0  0
 28 29  2  0  0  0
 28 46  1  0  0  0
 29 47  1  0  0  0
M  END
> <s_m_entry_id>
34447

> <s_m_entry_name>
dock_pv.190

> <s_m_Source_Path>
/home/csk/Desktop/cluster/DUD-E-result/tgfr1

> <s_m_Source_File>
dock_pv.maegz

> <i_m_Source_File_Index>
190

> <chembl_id>
CHEMBL2087972

> <chembl_pref_name>
None

> <i_lp_mmshare_version>
53161

> <r_lp_tautomer_probability>
1

> <s_lp_Force_Field>
OPLS_2005

> <r_lp_Energy>
11.65177

> <b_lp_Chiralities_Consistent>
1

> <s_lp_Variant>
CHEMBL4439_lig557-1

> <s_i_glide_gridfile>
glide-grid_3hmm

> <i_i_glide_lignum>
736

> <i_i_glide_rotatable_bonds>
5

> <r_i_docking_score>
-8.46601787118857

> <r_i_glide_ligand_efficiency>
-0.282200595706286

> <r_i_glide_ligand_efficiency_sa>
-0.876862863183986

> <r_i_glide_ligand_efficiency_ln>
-1.92357150498697

> <r_i_glide_gscore>
-8.46601787118857

> <r_i_glide_lipo>
-4.51012836560689

> <r_i_glide_hbond>
0

> <r_i_glide_metal>
0

> <r_i_glide_rewards>
-1.69343353485444

> <r_i_glide_evdw>
-54.9990501403809

> <r_i_glide_ecoul>
-0.546726047992706

> <r_i_glide_erotb>
0.569505443490713

> <r_i_glide_esite>
0

> <r_i_glide_emodel>
-85.9721163405947

> <r_i_glide_energy>
-55.5457761883736

> <r_i_glide_einternal>
1.43665850162506

> <i_i_glide_confnum>
39

> <i_i_glide_posenum>
224

> <r_i_glide_eff_state_penalty>
0

> <s_user_duplicate_titles>
CHEMBL4439_lig557

> <i_f3d_flags>
0

> <s_m_subgroup_title>
dock_pv

> <s_m_subgroupid>
dock_pv

> <b_m_subgroup_collapsed>
1

$$$$
CHEMBL4439_lig120
                    3D
 Schrodinger Suite 2021-1.
 38 41  0  0  1  0            999 V2000
   21.3004   69.1070    6.6704 N   0  0  0  0  0  0
   20.3170   68.7262    7.4373 C   0  0  0  0  0  0
   19.1081   68.5183    6.7489 C   0  0  0  0  0  0
   19.4197   68.8075    5.4011 C   0  0  0  0  0  0
   20.7552   69.1382    5.4590 N   0  0  0  0  0  0
   17.8405   68.1099    7.4288 C   0  0  0  0  0  0
   16.9072   67.2571    6.8319 C   0  0  0  0  0  0
   15.7128   66.9500    7.4943 C   0  0  0  0  0  0
   15.4755   67.4006    8.7590 N   0  0  0  0  0  0
   16.3996   68.1863    9.3561 C   0  0  0  0  0  0
   17.5755   68.5761    8.7221 C   0  0  0  0  0  0
   18.6724   68.8432    4.0915 C   0  0  0  0  0  0
   17.3682   68.4612    4.1100 N   0  0  0  0  0  0
   16.6649   68.4558    2.9510 C   0  0  0  0  0  0
   17.2133   68.8575    1.7333 C   0  0  0  0  0  0
   18.5487   69.2573    1.7145 C   0  0  0  0  0  0
   19.2858   69.2570    2.8993 C   0  0  0  0  0  0
   14.6020   66.1938    6.8339 C   0  0  0  0  0  0
   13.2773   66.3923    7.2441 C   0  0  0  0  0  0
   12.2257   65.7253    6.6327 C   0  0  0  0  0  0
   12.4817   64.8576    5.5750 C   0  0  0  0  0  0
   13.7900   64.6460    5.1402 C   0  0  0  0  0  0
   14.8431   65.3040    5.7738 C   0  0  0  0  0  0
   11.3654   64.1855    4.9330 C   0  0  0  0  0  0
   10.4717   63.6575    4.4281 N   0  0  0  0  0  0
   21.3094   69.3796    4.6519 H   0  0  0  0  0  0
   20.4671   68.6052    8.4996 H   0  0  0  0  0  0
   17.1008   66.8515    5.8563 H   0  0  0  0  0  0
   16.1725   68.5160   10.3596 H   0  0  0  0  0  0
   18.2660   69.2302    9.2336 H   0  0  0  0  0  0
   15.6354   68.1416    3.0157 H   0  0  0  0  0  0
   16.6162   68.8584    0.8327 H   0  0  0  0  0  0
   19.0108   69.5864    0.7958 H   0  0  0  0  0  0
   20.3171   69.5765    2.8748 H   0  0  0  0  0  0
   13.0505   67.0755    8.0485 H   0  0  0  0  0  0
   11.2150   65.9013    6.9789 H   0  0  0  0  0  0
   13.9978   63.9751    4.3161 H   0  0  0  0  0  0
   15.8492   65.1236    5.4225 H   0  0  0  0  0  0
  1  2  2  0  0  0
  1  5  1  0  0  0
  2 27  1  0  0  0
  2  3  1  0  0  0
  3  4  2  0  0  0
  3  6  1  0  0  0
  4  5  1  0  0  0
  4 12  1  0  0  0
  5 26  1  0  0  0
  6  7  2  0  0  0
  6 11  1  0  0  0
  7  8  1  0  0  0
  7 28  1  0  0  0
  8  9  2  0  0  0
  8 18  1  0  0  0
  9 10  1  0  0  0
 10 11  2  0  0  0
 10 29  1  0  0  0
 11 30  1  0  0  0
 12 13  2  0  0  0
 12 17  1  0  0  0
 13 14  1  0  0  0
 14 15  2  0  0  0
 14 31  1  0  0  0
 15 16  1  0  0  0
 15 32  1  0  0  0
 16 17  2  0  0  0
 16 33  1  0  0  0
 17 34  1  0  0  0
 18 19  2  0  0  0
 18 23  1  0  0  0
 19 20  1  0  0  0
 19 35  1  0  0  0
 20 21  2  0  0  0
 20 36  1  0  0  0
 21 22  1  0  0  0
 21 24  1  0  0  0
 22 23  2  0  0  0
 22 37  1  0  0  0
 23 38  1  0  0  0
 24 25  3  0  0  0
M  END
> <s_m_entry_id>
34448

> <s_m_entry_name>
dock_pv.191

> <s_m_Source_Path>
/home/csk/Desktop/cluster/DUD-E-result/tgfr1

> <s_m_Source_File>
dock_pv.maegz

> <i_m_Source_File_Index>
191

> <chembl_id>
CHEMBL437118

> <chembl_pref_name>
None

> <i_lp_mmshare_version>
53161

> <r_lp_tautomer_probability>
0.5

> <s_lp_Force_Field>
OPLS_2005

> <r_lp_Energy>
18.71974

> <b_lp_Chiralities_Consistent>
1

> <s_lp_Variant>
CHEMBL4439_lig120-2

> <s_i_glide_gridfile>
glide-grid_3hmm

> <i_i_glide_lignum>
177

> <i_i_glide_rotatable_bonds>
3

> <r_i_docking_score>
-8.46310216758127

> <r_i_glide_ligand_efficiency>
-0.338524086703251

> <r_i_glide_ligand_efficiency_sa>
-0.989850433270547

> <r_i_glide_ligand_efficiency_ln>
-2.00600883242295

> <r_i_glide_gscore>
-8.46310216758127

> <r_i_glide_lipo>
-4.07080649364553

> <r_i_glide_hbond>
0

> <r_i_glide_metal>
0

> <r_i_glide_rewards>
-2.10442690909091

> <r_i_glide_evdw>
-50.3470802307129

> <r_i_glide_ecoul>
-2.04959487915039

> <r_i_glide_erotb>
0.536924478563367

> <r_i_glide_esite>
0

> <r_i_glide_emodel>
-79.162737926379

> <r_i_glide_energy>
-52.3966751098633

> <r_i_glide_einternal>
0.949039041996002

> <i_i_glide_confnum>
24

> <i_i_glide_posenum>
68

> <r_i_glide_eff_state_penalty>
0

> <s_user_duplicate_titles>
CHEMBL4439_lig120,CHEMBL4439_lig120,343129

> <i_f3d_flags>
0

> <s_m_subgroup_title>
dock_pv

> <s_m_subgroupid>
dock_pv

> <b_m_subgroup_collapsed>
1

$$$$
CHEMBL4439_lig303
                    3D
 Schrodinger Suite 2021-1.
 44 47  0  0  1  0            999 V2000
   15.8336   66.7750    7.6064 C   0  0  0  0  0  0
   16.8178   67.5000    7.0187 C   0  0  0  0  0  0
   17.6644   67.9582    8.0257 N   0  0  0  0  0  0
   17.1977   67.4188    9.2110 N   0  0  0  0  0  0
   16.0901   66.6809    9.0304 C   0  0  0  0  0  0
   15.4674   66.0570    9.8875 O   0  0  0  0  0  0
   17.9721   67.4709   10.4578 C   0  0  0  0  0  0
   17.8662   69.4051    8.1715 C   0  0  0  0  0  0
   17.0298   67.8322    5.5754 C   0  0  0  0  0  0
   16.0294   67.6646    4.6046 C   0  0  0  0  0  0
   16.2453   67.9390    3.2591 C   0  0  0  0  0  0
   18.2724   68.3318    5.1615 C   0  0  0  0  0  0
   18.5052   68.6826    3.8204 C   0  0  0  0  0  0
   17.4888   68.4441    2.8476 C   0  0  0  0  0  0
   17.7009   68.7133    1.5335 N   0  0  0  0  0  0
   18.8955   69.2575    1.2151 C   0  0  0  0  0  0
   19.8417   69.6160    2.1725 C   0  0  0  0  0  0
   19.6879   69.2619    3.4734 N   0  0  0  0  0  0
   14.6898   66.0756    6.9657 C   0  0  0  0  0  0
   14.8841   65.1479    5.9307 C   0  0  0  0  0  0
   13.8033   64.5919    5.2303 C   0  0  0  0  0  0
   12.5034   64.9250    5.6343 C   0  0  0  0  0  0
   12.2941   65.8081    6.6931 C   0  0  0  0  0  0
   13.3803   66.3925    7.3425 C   0  0  0  0  0  0
   14.0700   63.6940    4.0825 C   0  0  0  0  0  0
   13.1590   63.1217    3.2740 C   0  0  0  0  0  0
   17.5371   66.8627   11.2524 H   0  0  0  0  0  0
   18.9873   67.1098   10.2883 H   0  0  0  0  0  0
   18.0308   68.4930   10.8326 H   0  0  0  0  0  0
   18.2356   69.8665    7.2575 H   0  0  0  0  0  0
   16.9367   69.9101    8.4388 H   0  0  0  0  0  0
   18.6116   69.6252    8.9358 H   0  0  0  0  0  0
   15.0278   67.3758    4.8692 H   0  0  0  0  0  0
   15.4573   67.7973    2.5322 H   0  0  0  0  0  0
   19.0845   68.4652    5.8606 H   0  0  0  0  0  0
   19.0630   69.4955    0.1760 H   0  0  0  0  0  0
   20.7708   70.0906    1.8911 H   0  0  0  0  0  0
   15.8947   64.9062    5.6324 H   0  0  0  0  0  0
   11.6410   64.5137    5.1317 H   0  0  0  0  0  0
   11.2860   66.0570    6.9941 H   0  0  0  0  0  0
   13.2024   67.1034    8.1369 H   0  0  0  0  0  0
   15.1104   63.4814    3.8799 H   0  0  0  0  0  0
   12.0982   63.2794    3.3924 H   0  0  0  0  0  0
   13.4652   62.4769    2.4632 H   0  0  0  0  0  0
  1  5  1  0  0  0
  1  2  2  0  0  0
  1 19  1  0  0  0
  2  9  1  0  0  0
  2  3  1  0  0  0
  3  8  1  0  0  0
  3  4  1  0  0  0
  4  7  1  0  0  0
  4  5  1  0  0  0
  5  6  2  0  0  0
  7 27  1  0  0  0
  7 28  1  0  0  0
  7 29  1  0  0  0
  8 30  1  0  0  0
  8 31  1  0  0  0
  8 32  1  0  0  0
  9 10  2  0  0  0
  9 12  1  0  0  0
 10 11  1  0  0  0
 10 33  1  0  0  0
 11 14  2  0  0  0
 11 34  1  0  0  0
 12 13  2  0  0  0
 12 35  1  0  0  0
 13 14  1  0  0  0
 13 18  1  0  0  0
 14 15  1  0  0  0
 15 16  2  0  0  0
 16 17  1  0  0  0
 16 36  1  0  0  0
 17 18  2  0  0  0
 17 37  1  0  0  0
 19 20  2  0  0  0
 19 24  1  0  0  0
 20 21  1  0  0  0
 20 38  1  0  0  0
 21 22  2  0  0  0
 21 25  1  0  0  0
 22 23  1  0  0  0
 22 39  1  0  0  0
 23 24  2  0  0  0
 23 40  1  0  0  0
 24 41  1  0  0  0
 25 26  2  0  0  0
 25 42  1  0  0  0
 26 43  1  0  0  0
 26 44  1  0  0  0
M  END
> <s_m_entry_id>
34449

> <s_m_entry_name>
dock_pv.192

> <s_m_Source_Path>
/home/csk/Desktop/cluster/DUD-E-result/tgfr1

> <s_m_Source_File>
dock_pv.maegz

> <i_m_Source_File_Index>
192

> <chembl_id>
CHEMBL593708

> <chembl_pref_name>
None

> <i_lp_mmshare_version>
53161

> <r_lp_tautomer_probability>
1

> <s_lp_Force_Field>
OPLS_2005

> <r_lp_Energy>
44.469818

> <b_lp_Chiralities_Consistent>
1

> <s_lp_Variant>
CHEMBL4439_lig303-1

> <s_i_glide_gridfile>
glide-grid_3hmm

> <i_i_glide_lignum>
435

> <i_i_glide_rotatable_bonds>
3

> <r_i_docking_score>
-8.45732395281352

> <r_i_glide_ligand_efficiency>
-0.325281690492828

> <r_i_glide_ligand_efficiency_sa>
-0.963645728163355

> <r_i_glide_ligand_efficiency_ln>
-1.98617477957491

> <r_i_glide_gscore>
-8.45732395281352

> <r_i_glide_lipo>
-4.05835847590688

> <r_i_glide_hbond>
-0.101862460140864

> <r_i_glide_metal>
0

> <r_i_glide_rewards>
-1.82769500033785

> <r_i_glide_evdw>
-43.5797843933105

> <r_i_glide_ecoul>
-5.17102718353271

> <r_i_glide_erotb>
0.485235280767516

> <r_i_glide_esite>
0

> <r_i_glide_emodel>
-72.4198648197248

> <r_i_glide_energy>
-48.7508115768433

> <r_i_glide_einternal>
3.25146293640137

> <i_i_glide_confnum>
28

> <i_i_glide_posenum>
220

> <r_i_glide_eff_state_penalty>
0

> <s_user_duplicate_titles>
CHEMBL4439_lig303,593884

> <i_f3d_flags>
0

> <s_m_subgroup_title>
dock_pv

> <s_m_subgroupid>
dock_pv

> <b_m_subgroup_collapsed>
1

$$$$
CHEMBL4439_lig884 
                    3D
 Schrodinger Suite 2021-1.
 42 46  0  0  1  0            999 V2000
   16.6809   67.5131    5.4922 N   0  0  0  0  0  0
   15.9191   67.1149    6.4848 C   0  0  0  0  0  0
   16.4023   67.6073    7.7219 C   0  0  0  0  0  0
   15.9778   67.2045    9.0443 C   0  0  0  0  0  0
   16.2500   68.0563   10.0328 N   0  0  0  0  0  0
   15.4859   66.0994    9.2620 O   0  0  0  0  0  0
   14.7384   66.2500    6.1666 C   0  0  0  0  0  0
   14.8373   65.3265    5.1182 C   0  0  0  0  0  0
   12.3954   65.6566    6.5294 C   0  0  0  0  0  0
   13.5312   66.3967    6.8589 C   0  0  0  0  0  0
   12.4966   64.7441    5.4726 C   0  0  0  0  0  0
   13.7166   64.5728    4.7672 C   0  0  0  0  0  0
   13.6930   63.6615    3.7621 N   0  0  0  0  0  0
   12.5013   63.1625    3.6341 C   0  0  0  0  0  0
   11.2880   63.6702    4.7836 S   0  0  0  0  0  0
   18.7332   68.7093    5.1249 C   0  0  0  0  0  0
   20.1231   68.9236    5.7650 C   0  0  2  0  0  0
   20.6669   67.7399    6.5912 C   0  0  0  0  0  0
   17.6908   68.2034    6.0219 N   0  0  0  0  0  0
   17.4731   68.4415    7.3685 C   0  0  0  0  0  0
   18.2359   69.2410    8.1965 N   0  0  0  0  0  0
   19.6803   69.3869    8.0775 C   0  0  1  0  0  0
   20.3918   68.0190    8.0840 C   0  0  2  0  0  0
   20.1044   70.0570    6.7707 C   0  0  0  0  0  0
   20.8248   69.1706    4.9657 H   0  0  0  0  0  0
   20.0262   70.0033    8.9091 H   0  0  0  0  0  0
   21.5637   68.0575    8.8772 O   0  0  0  0  0  0
   16.0524   67.7707   10.9802 H   0  0  0  0  0  0
   16.4441   69.0235    9.8315 H   0  0  0  0  0  0
   15.7542   65.2228    4.5608 H   0  0  0  0  0  0
   11.4676   65.7897    7.0669 H   0  0  0  0  0  0
   13.4688   67.1121    7.6663 H   0  0  0  0  0  0
   12.2651   62.4620    2.8524 H   0  0  0  0  0  0
   18.8410   68.0007    4.3003 H   0  0  0  0  0  0
   18.3687   69.6373    4.6821 H   0  0  0  0  0  0
   21.7394   67.6948    6.4322 H   0  0  0  0  0  0
   20.2411   66.7870    6.2739 H   0  0  0  0  0  0
   18.0024   69.0830    9.1657 H   0  0  0  0  0  0
   19.7300   67.2465    8.4849 H   0  0  0  0  0  0
   21.1072   70.4752    6.8819 H   0  0  0  0  0  0
   19.4390   70.8599    6.4607 H   0  0  0  0  0  0
   21.3104   68.0577    9.8044 H   0  0  0  0  0  0
  1 19  1  0  0  0
  1  2  2  0  0  0
  2  3  1  0  0  0
  2  7  1  0  0  0
  3 20  2  0  0  0
  3  4  1  0  0  0
  4  5  1  0  0  0
  4  6  2  0  0  0
  5 28  1  0  0  0
  5 29  1  0  0  0
  7  8  2  0  0  0
  7 10  1  0  0  0
  8 12  1  0  0  0
  8 30  1  0  0  0
  9 11  1  0  0  0
  9 10  2  0  0  0
  9 31  1  0  0  0
 10 32  1  0  0  0
 11 12  2  0  0  0
 11 15  1  0  0  0
 12 13  1  0  0  0
 13 14  2  0  0  0
 14 15  1  0  0  0
 14 33  1  0  0  0
 16 17  1  0  0  0
 16 19  1  0  0  0
 16 34  1  0  0  0
 16 35  1  0  0  0
 17 18  1  0  0  0
 17 24  1  0  0  0
 17 25  1  0  0  0
 18 23  1  0  0  0
 18 36  1  0  0  0
 18 37  1  0  0  0
 19 20  1  0  0  0
 20 21  1  0  0  0
 21 22  1  0  0  0
 21 38  1  0  0  0
 22 23  1  0  0  0
 22 24  1  0  0  0
 22 26  1  0  0  0
 23 27  1  0  0  0
 23 39  1  0  0  0
 24 40  1  0  0  0
 24 41  1  0  0  0
 27 42  1  0  0  0
M  END
> <s_m_entry_id>
34450

> <s_m_entry_name>
dock_pv.193

> <s_m_Source_Path>
/home/csk/Desktop/cluster/DUD-E-result/tgfr1

> <s_m_Source_File>
dock_pv.maegz

> <i_m_Source_File_Index>
193

> <chembl_id>
CHEMBL4453606

> <chembl_pref_name>
None

> <i_lp_mmshare_version>
53161

> <r_lp_tautomer_probability>
1

> <s_lp_Force_Field>
OPLS_2005

> <r_lp_Energy>
43.02862

> <b_lp_Chiralities_Consistent>
1

> <s_lp_Variant>
CHEMBL4439_lig884 -1

> <s_i_glide_gridfile>
glide-grid_3hmm

> <i_i_glide_lignum>
1219

> <i_i_glide_rotatable_bonds>
3

> <r_i_docking_score>
-8.45211874097594

> <r_i_glide_ligand_efficiency>
-0.338084749639038

> <r_i_glide_ligand_efficiency_sa>
-0.988565803903112

> <r_i_glide_ligand_efficiency_ln>
-2.00340543117075

> <r_i_glide_gscore>
-8.45211874097594

> <r_i_glide_lipo>
-3.50453995952051

> <r_i_glide_hbond>
-0.16

> <r_i_glide_metal>
0

> <r_i_glide_rewards>
-1.8276233632513

> <r_i_glide_evdw>
-47.1088562011719

> <r_i_glide_ecoul>
-5.03917741775513

> <r_i_glide_erotb>
0.151364004517723

> <r_i_glide_esite>
0

> <r_i_glide_emodel>
-73.5337656065986

> <r_i_glide_energy>
-52.148033618927

> <r_i_glide_einternal>
0.421105563640594

> <i_i_glide_confnum>
1

> <i_i_glide_posenum>
49

> <r_i_glide_eff_state_penalty>
0

> <s_user_duplicate_titles>
CHEMBL4439_lig884 

> <i_f3d_flags>
0

> <s_m_subgroup_title>
dock_pv

> <s_m_subgroupid>
dock_pv

> <b_m_subgroup_collapsed>
1

$$$$
CHEMBL4439_lig551
                    3D
 Schrodinger Suite 2021-1.
 47 51  0  0  1  0            999 V2000
   17.6037   67.7652   11.6242 C   0  0  0  0  0  0
   18.9513   67.6577   11.2832 C   0  0  0  0  0  0
   19.2788   67.4118    9.9486 C   0  0  0  0  0  0
   18.3427   67.2570    8.9807 N   0  0  0  0  0  0
   17.0320   67.4047    9.3035 C   0  0  0  0  0  0
   16.6344   67.6460   10.6280 C   0  0  0  0  0  0
   16.0438   67.3061    8.1697 C   0  0  0  0  0  0
   18.3841   68.8561    6.5082 C   0  0  0  0  0  0
   17.3729   68.0606    5.9562 C   0  0  0  0  0  0
   17.4670   67.7097    4.5972 C   0  0  0  0  0  0
   18.5746   68.0605    3.8157 C   0  0  0  0  0  0
   19.4674   69.1833    5.7430 N   0  0  0  0  0  0
   19.6117   68.7976    4.4118 C   0  0  0  0  0  0
   20.8034   69.2570    3.9614 N   0  0  0  0  0  0
   21.2917   69.8547    5.0354 C   0  0  0  0  0  0
   20.5476   69.8927    6.1257 N   0  0  0  0  0  0
   16.2093   67.6109    6.7930 C   0  0  0  0  0  0
   14.8465   66.8245    8.4681 N   0  0  0  0  0  0
   14.0373   66.7157    7.4553 C   0  0  0  0  0  0
   14.6672   67.3821    6.0020 S   0  0  0  0  0  0
   20.7176   67.3222    9.4843 C   0  0  0  0  0  0
   12.8261   66.0683    7.5426 N   0  0  0  0  0  0
   11.8603   65.6121    6.5435 C   0  0  0  0  0  0
   12.3389   64.6785    5.4288 C   0  0  0  0  0  0
   13.6872   64.4099    5.1471 C   0  0  0  0  0  0
   14.0476   63.6569    4.0319 C   0  0  0  0  0  0
   13.0656   63.0668    3.2497 C   0  0  0  0  0  0
   11.7241   63.2570    3.5689 C   0  0  0  0  0  0
   11.3605   64.0836    4.6243 C   0  0  0  0  0  0
   10.0468   64.3078    4.8514 F   0  0  0  0  0  0
   17.3084   67.9547   12.6455 H   0  0  0  0  0  0
   19.7211   67.7637   12.0328 H   0  0  0  0  0  0
   15.5934   67.7542   10.8906 H   0  0  0  0  0  0
   18.3779   69.2431    7.5153 H   0  0  0  0  0  0
   16.6943   67.1107    4.1363 H   0  0  0  0  0  0
   18.6456   67.7570    2.7829 H   0  0  0  0  0  0
   22.2699   70.3182    5.0165 H   0  0  0  0  0  0
   21.4060   67.2331   10.3257 H   0  0  0  0  0  0
   20.8520   66.4576    8.8344 H   0  0  0  0  0  0
   20.9836   68.2165    8.9190 H   0  0  0  0  0  0
   12.3964   66.0057    8.4558 H   0  0  0  0  0  0
   11.3502   66.4569    6.1003 H   0  0  0  0  0  0
   11.0750   65.0868    7.0841 H   0  0  0  0  0  0
   14.4851   64.7644    5.7741 H   0  0  0  0  0  0
   15.0903   63.4916    3.8021 H   0  0  0  0  0  0
   13.3410   62.4596    2.4005 H   0  0  0  0  0  0
   10.9556   62.8088    2.9576 H   0  0  0  0  0  0
  1  6  1  0  0  0
  1  2  2  0  0  0
  1 31  1  0  0  0
  2  3  1  0  0  0
  2 32  1  0  0  0
  3 21  1  0  0  0
  3  4  2  0  0  0
  4  5  1  0  0  0
  5  6  2  0  0  0
  5  7  1  0  0  0
  6 33  1  0  0  0
  7 17  2  0  0  0
  7 18  1  0  0  0
  8 12  1  0  0  0
  8  9  2  0  0  0
  8 34  1  0  0  0
  9 17  1  0  0  0
  9 10  1  0  0  0
 10 11  2  0  0  0
 10 35  1  0  0  0
 11 13  1  0  0  0
 11 36  1  0  0  0
 12 16  1  0  0  0
 12 13  1  0  0  0
 13 14  2  0  0  0
 14 15  1  0  0  0
 15 16  2  0  0  0
 15 37  1  0  0  0
 17 20  1  0  0  0
 18 19  2  0  0  0
 19 20  1  0  0  0
 19 22  1  0  0  0
 21 38  1  0  0  0
 21 39  1  0  0  0
 21 40  1  0  0  0
 22 23  1  0  0  0
 22 41  1  0  0  0
 23 24  1  0  0  0
 23 42  1  0  0  0
 23 43  1  0  0  0
 24 25  2  0  0  0
 24 29  1  0  0  0
 25 26  1  0  0  0
 25 44  1  0  0  0
 26 27  2  0  0  0
 26 45  1  0  0  0
 27 28  1  0  0  0
 27 46  1  0  0  0
 28 29  2  0  0  0
 28 47  1  0  0  0
 29 30  1  0  0  0
M  END
> <s_m_entry_id>
34451

> <s_m_entry_name>
dock_pv.194

> <s_m_Source_Path>
/home/csk/Desktop/cluster/DUD-E-result/tgfr1

> <s_m_Source_File>
dock_pv.maegz

> <i_m_Source_File_Index>
194

> <chembl_id>
CHEMBL2087978

> <chembl_pref_name>
None

> <i_lp_mmshare_version>
53161

> <r_lp_tautomer_probability>
1

> <s_lp_Force_Field>
OPLS_2005

> <r_lp_Energy>
13.765111

> <b_lp_Chiralities_Consistent>
1

> <s_lp_Variant>
CHEMBL4439_lig551-1

> <s_i_glide_gridfile>
glide-grid_3hmm

> <i_i_glide_lignum>
730

> <i_i_glide_rotatable_bonds>
5

> <r_i_docking_score>
-8.44941971527448

> <r_i_glide_ligand_efficiency>
-0.281647323842483

> <r_i_glide_ligand_efficiency_sa>
-0.875143718866097

> <r_i_glide_ligand_efficiency_ln>
-1.91980022311189

> <r_i_glide_gscore>
-8.44941971527448

> <r_i_glide_lipo>
-4.48033130321019

> <r_i_glide_hbond>
-0.0331350927974148

> <r_i_glide_metal>
0

> <r_i_glide_rewards>
-1.99497468247597

> <r_i_glide_evdw>
-48.6269836425781

> <r_i_glide_ecoul>
-0.35196515917778

> <r_i_glide_erotb>
0.569505443490713

> <r_i_glide_esite>
-0.026340124276047

> <r_i_glide_emodel>
-72.9554351894098

> <r_i_glide_energy>
-48.9789488017559

> <r_i_glide_einternal>
9.24442481994629

> <i_i_glide_confnum>
56

> <i_i_glide_posenum>
205

> <r_i_glide_eff_state_penalty>
0

> <s_user_duplicate_titles>
CHEMBL4439_lig551

> <i_f3d_flags>
0

> <s_m_subgroup_title>
dock_pv

> <s_m_subgroupid>
dock_pv

> <b_m_subgroup_collapsed>
1

$$$$
CHEMBL4439_lig93
                    3D
 Schrodinger Suite 2021-1.
 62 67  0  0  1  0            999 V2000
   13.1400   66.0571    7.3994 N   0  0  0  0  0  0
   14.4132   66.3265    5.5408 C   0  0  0  0  0  0
   14.2536   66.5833    6.9307 C   0  0  0  0  0  0
   15.1281   67.3633    7.8525 C   0  0  0  0  0  0
   15.6119   68.6321    7.5319 C   0  0  0  0  0  0
   16.4922   69.2569    8.4136 C   0  0  0  0  0  0
   16.8222   68.6356    9.6136 C   0  0  0  0  0  0
   16.2671   67.3900    9.8883 C   0  0  0  0  0  0
   15.4539   66.7379    9.0188 N   0  0  0  0  0  0
   13.4616   65.3363    5.3035 C   0  0  0  0  0  0
   12.7072   65.2573    6.4309 N   0  0  0  0  0  0
   11.5899   64.3380    6.3295 C   0  0  0  0  0  0
   12.0525   63.4507    5.1753 C   0  0  0  0  0  0
   12.8953   64.3674    4.2988 C   0  0  0  0  0  0
   15.3661   66.9573    4.5731 C   0  0  0  0  0  0
   18.7053   68.6148    4.1111 N   0  0  0  0  0  0
   18.8701   69.2538    2.8940 C   0  0  0  0  0  0
   17.8362   69.1938    2.0998 N   0  0  0  0  0  0
   16.9260   68.4607    2.8063 C   0  0  0  0  0  0
   15.6303   68.1004    2.4327 C   0  0  0  0  0  0
   14.8849   67.3188    3.3106 C   0  0  0  0  0  0
   16.6708   67.2892    4.9584 C   0  0  0  0  0  0
   17.4352   68.0580    4.0668 C   0  0  0  0  0  0
   19.6827   68.4967    5.2020 C   0  0  0  0  0  0
   20.7164   69.6519    5.2147 C   0  0  0  0  0  0
   21.7933   69.6214    6.3238 C   0  0  0  0  0  0
   21.3216   70.0566    7.6401 N   0  0  0  0  0  0
   22.4457   70.3357    8.5246 C   0  0  0  0  0  0
   21.8154   70.4358    9.9042 C   0  0  0  0  0  0
   20.7661   69.3292    9.8710 C   0  0  0  0  0  0
   20.5133   69.0848    8.3751 C   0  0  0  0  0  0
   16.5244   66.7211   11.2155 C   0  0  0  0  0  0
   15.3339   69.1093    6.6046 H   0  0  0  0  0  0
   16.9043   70.2262    8.1751 H   0  0  0  0  0  0
   17.4688   69.1276   10.3242 H   0  0  0  0  0  0
   11.4552   63.7519    7.2319 H   0  0  0  0  0  0
   10.6714   64.8772    6.0920 H   0  0  0  0  0  0
   12.6629   62.6306    5.5498 H   0  0  0  0  0  0
   11.2188   63.0071    4.6305 H   0  0  0  0  0  0
   12.2049   64.8575    3.6322 H   0  0  0  0  0  0
   13.6382   63.8200    3.7175 H   0  0  0  0  0  0
   19.8006   69.7422    2.6488 H   0  0  0  0  0  0
   15.2242   68.4066    1.4813 H   0  0  0  0  0  0
   13.8915   67.0226    2.9994 H   0  0  0  0  0  0
   17.0600   66.9996    5.9227 H   0  0  0  0  0  0
   20.1837   67.5326    5.1098 H   0  0  0  0  0  0
   19.1265   68.4732    6.1362 H   0  0  0  0  0  0
   20.1802   70.6000    5.2692 H   0  0  0  0  0  0
   21.2595   69.6454    4.2699 H   0  0  0  0  0  0
   22.6263   70.2528    6.0052 H   0  0  0  0  0  0
   22.2089   68.6192    6.4317 H   0  0  0  0  0  0
   22.9361   71.2582    8.2114 H   0  0  0  0  0  0
   23.2132   69.5608    8.4647 H   0  0  0  0  0  0
   21.3765   71.4251   10.0488 H   0  0  0  0  0  0
   22.5503   70.2929   10.6966 H   0  0  0  0  0  0
   21.1499   68.4248   10.3449 H   0  0  0  0  0  0
   19.8685   69.6422   10.3992 H   0  0  0  0  0  0
   20.7633   68.0554    8.1120 H   0  0  0  0  0  0
   19.4580   69.2323    8.1517 H   0  0  0  0  0  0
   16.2684   67.3955   12.0331 H   0  0  0  0  0  0
   15.9420   65.8070   11.3408 H   0  0  0  0  0  0
   17.5844   66.4889   11.2829 H   0  0  0  0  0  0
  1  3  2  0  0  0
  1 11  1  0  0  0
  2 15  1  0  0  0
  2 10  2  0  0  0
  2  3  1  0  0  0
  3  4  1  0  0  0
  4  9  1  0  0  0
  4  5  2  0  0  0
  5  6  1  0  0  0
  5 33  1  0  0  0
  6  7  2  0  0  0
  6 34  1  0  0  0
  7  8  1  0  0  0
  7 35  1  0  0  0
  8  9  2  0  0  0
  8 32  1  0  0  0
 10 11  1  0  0  0
 10 14  1  0  0  0
 11 12  1  0  0  0
 12 13  1  0  0  0
 12 36  1  0  0  0
 12 37  1  0  0  0
 13 14  1  0  0  0
 13 38  1  0  0  0
 13 39  1  0  0  0
 14 40  1  0  0  0
 14 41  1  0  0  0
 15 21  1  0  0  0
 15 22  2  0  0  0
 16 17  1  0  0  0
 16 23  1  0  0  0
 16 24  1  0  0  0
 17 18  2  0  0  0
 17 42  1  0  0  0
 18 19  1  0  0  0
 19 23  2  0  0  0
 19 20  1  0  0  0
 20 21  2  0  0  0
 20 43  1  0  0  0
 21 44  1  0  0  0
 22 23  1  0  0  0
 22 45  1  0  0  0
 24 25  1  0  0  0
 24 46  1  0  0  0
 24 47  1  0  0  0
 25 26  1  0  0  0
 25 48  1  0  0  0
 25 49  1  0  0  0
 26 27  1  0  0  0
 26 50  1  0  0  0
 26 51  1  0  0  0
 27 28  1  0  0  0
 27 31  1  0  0  0
 28 29  1  0  0  0
 28 52  1  0  0  0
 28 53  1  0  0  0
 29 30  1  0  0  0
 29 54  1  0  0  0
 29 55  1  0  0  0
 30 31  1  0  0  0
 30 56  1  0  0  0
 30 57  1  0  0  0
 31 58  1  0  0  0
 31 59  1  0  0  0
 32 60  1  0  0  0
 32 61  1  0  0  0
 32 62  1  0  0  0
M  END
> <s_m_entry_id>
34452

> <s_m_entry_name>
dock_pv.195

> <s_m_Source_Path>
/home/csk/Desktop/cluster/DUD-E-result/tgfr1

> <s_m_Source_File>
dock_pv.maegz

> <i_m_Source_File_Index>
195

> <chembl_id>
CHEMBL206233

> <chembl_pref_name>
None

> <i_lp_mmshare_version>
53161

> <r_lp_tautomer_probability>
1

> <s_lp_Force_Field>
OPLS_2005

> <r_lp_Energy>
60.373373

> <b_lp_Chiralities_Consistent>
1

> <s_lp_Variant>
CHEMBL4439_lig93-1

> <s_i_glide_gridfile>
glide-grid_3hmm

> <i_i_glide_lignum>
132

> <i_i_glide_rotatable_bonds>
6

> <r_i_docking_score>
-8.44657101199317

> <r_i_glide_ligand_efficiency>
-0.263955344124787

> <r_i_glide_ligand_efficiency_sa>
-0.838005980904526

> <r_i_glide_ligand_efficiency_ln>
-1.89141749441513

> <r_i_glide_gscore>
-8.44657101199317

> <r_i_glide_lipo>
-4.33926841705786

> <r_i_glide_hbond>
-0.0196160485802805

> <r_i_glide_metal>
0

> <r_i_glide_rewards>
-1.47926236845379

> <r_i_glide_evdw>
-44.2493438720703

> <r_i_glide_ecoul>
-6.27570676803589

> <r_i_glide_erotb>
0.545399030907657

> <r_i_glide_esite>
0

> <r_i_glide_emodel>
-52.2992498471015

> <r_i_glide_energy>
-50.5250506401062

> <r_i_glide_einternal>
3.58499121665955

> <i_i_glide_confnum>
34

> <i_i_glide_posenum>
154

> <r_i_glide_eff_state_penalty>
0

> <s_user_duplicate_titles>
CHEMBL4439_lig93,341538

> <i_f3d_flags>
0

> <s_m_subgroup_title>
dock_pv

> <s_m_subgroupid>
dock_pv

> <b_m_subgroup_collapsed>
1

$$$$
CHEMBL4439_lig959 
                    3D
 Schrodinger Suite 2021-1.
 51 55  0  0  1  0            999 V2000
   17.9117   67.6583   11.0551 C   0  0  0  0  0  0
   19.1783   67.7539   10.4797 C   0  0  0  0  0  0
   19.2787   67.7136    9.0883 C   0  0  0  0  0  0
   18.1971   67.5816    8.2805 N   0  0  0  0  0  0
   16.9639   67.4874    8.8371 C   0  0  0  0  0  0
   16.7929   67.5247   10.2320 C   0  0  0  0  0  0
   15.6817   67.5204    6.4875 C   0  0  0  0  0  0
   15.8065   67.3178    7.8871 C   0  0  0  0  0  0
   14.6648   66.8569    8.3896 N   0  0  0  0  0  0
   13.8155   66.7624    7.4043 C   0  0  0  0  0  0
   14.3540   67.2571    6.2595 N   0  0  0  0  0  0
   12.4301   66.1489    7.5327 C   0  0  0  0  0  0
   11.7052   65.7041    6.3536 N   0  0  0  0  0  0
   12.1464   64.7491    5.4328 C   0  0  0  0  0  0
   11.1735   64.0897    4.6825 C   0  0  0  0  0  0
   11.5493   63.2570    3.6320 C   0  0  0  0  0  0
   12.8942   63.1360    3.2834 C   0  0  0  0  0  0
   13.8668   63.7943    4.0318 C   0  0  0  0  0  0
   13.4950   64.5121    5.1582 C   0  0  0  0  0  0
   20.6158   67.8302    8.3842 C   0  0  0  0  0  0
   16.5351   67.8984    5.3378 C   0  0  0  0  0  0
   17.8025   68.4570    5.3152 C   0  0  0  0  0  0
   15.9286   67.6570    3.6955 S   0  0  0  0  0  0
   17.3409   68.4102    3.0050 C   0  0  0  0  0  0
   18.2746   68.7611    4.0145 C   0  0  0  0  0  0
   19.4689   69.3609    3.5917 C   0  0  0  0  0  0
   19.7273   69.6402    2.2893 N   0  0  0  0  0  0
   18.8213   69.2572    1.3587 C   0  0  0  0  0  0
   17.5957   68.6748    1.6533 C   0  0  0  0  0  0
   15.2961   63.8807    3.5554 C   0  0  0  0  0  0
   17.7952   67.6885   12.1278 H   0  0  0  0  0  0
   20.0561   67.8564   11.1007 H   0  0  0  0  0  0
   15.8147   67.4503   10.6818 H   0  0  0  0  0  0
   13.8944   67.2715    5.3596 H   0  0  0  0  0  0
   11.7778   66.8564    8.0319 H   0  0  0  0  0  0
   12.4556   65.2571    8.1261 H   0  0  0  0  0  0
   10.7016   65.8262    6.4081 H   0  0  0  0  0  0
   10.1234   64.2434    4.8845 H   0  0  0  0  0  0
   10.7923   62.7667    3.0390 H   0  0  0  0  0  0
   13.1690   62.5684    2.4064 H   0  0  0  0  0  0
   14.2899   64.9405    5.7344 H   0  0  0  0  0  0
   21.4412   67.5919    9.0553 H   0  0  0  0  0  0
   20.6664   67.1522    7.5310 H   0  0  0  0  0  0
   20.7592   68.8473    8.0187 H   0  0  0  0  0  0
   18.3783   68.7152    6.1850 H   0  0  0  0  0  0
   20.2245   69.6569    4.3034 H   0  0  0  0  0  0
   19.0814   69.5018    0.3406 H   0  0  0  0  0  0
   16.8742   68.4571    0.8818 H   0  0  0  0  0  0
   15.3454   63.6570    2.4987 H   0  0  0  0  0  0
   15.9855   63.2564    4.1014 H   0  0  0  0  0  0
   15.6618   64.8964    3.6643 H   0  0  0  0  0  0
  1  2  2  0  0  0
  1  6  1  0  0  0
  1 31  1  0  0  0
  2  3  1  0  0  0
  2 32  1  0  0  0
  3  4  2  0  0  0
  3 20  1  0  0  0
  4  5  1  0  0  0
  5  6  2  0  0  0
  5  8  1  0  0  0
  6 33  1  0  0  0
  7  8  2  0  0  0
  7 21  1  0  0  0
  7 11  1  0  0  0
  8  9  1  0  0  0
  9 10  2  0  0  0
 10 11  1  0  0  0
 10 12  1  0  0  0
 11 34  1  0  0  0
 12 13  1  0  0  0
 12 35  1  0  0  0
 12 36  1  0  0  0
 13 14  1  0  0  0
 13 37  1  0  0  0
 14 15  2  0  0  0
 14 19  1  0  0  0
 15 16  1  0  0  0
 15 38  1  0  0  0
 16 17  2  0  0  0
 16 39  1  0  0  0
 17 18  1  0  0  0
 17 40  1  0  0  0
 18 19  2  0  0  0
 18 30  1  0  0  0
 19 41  1  0  0  0
 20 42  1  0  0  0
 20 43  1  0  0  0
 20 44  1  0  0  0
 21 22  2  0  0  0
 21 23  1  0  0  0
 22 25  1  0  0  0
 22 45  1  0  0  0
 23 24  1  0  0  0
 24 25  2  0  0  0
 24 29  1  0  0  0
 25 26  1  0  0  0
 26 27  2  0  0  0
 26 46  1  0  0  0
 27 28  1  0  0  0
 28 29  2  0  0  0
 28 47  1  0  0  0
 29 48  1  0  0  0
 30 49  1  0  0  0
 30 50  1  0  0  0
 30 51  1  0  0  0
M  END
> <s_m_entry_id>
34453

> <s_m_entry_name>
dock_pv.196

> <s_m_Source_Path>
/home/csk/Desktop/cluster/DUD-E-result/tgfr1

> <s_m_Source_File>
dock_pv.maegz

> <i_m_Source_File_Index>
196

> <chembl_id>
CHEMBL4543738

> <chembl_pref_name>
None

> <i_lp_mmshare_version>
53161

> <r_lp_tautomer_probability>
0.499999999999999

> <s_lp_Force_Field>
OPLS_2005

> <r_lp_Energy>
22.054251

> <b_lp_Chiralities_Consistent>
1

> <s_lp_Variant>
CHEMBL4439_lig959 -2

> <s_i_glide_gridfile>
glide-grid_3hmm

> <i_i_glide_lignum>
1306

> <i_i_glide_rotatable_bonds>
5

> <r_i_docking_score>
-8.44048977103516

> <r_i_glide_ligand_efficiency>
-0.281349659034505

> <r_i_glide_ligand_efficiency_sa>
-0.87421880509992

> <r_i_glide_ligand_efficiency_ln>
-1.91777124248118

> <r_i_glide_gscore>
-8.44048977103516

> <r_i_glide_lipo>
-5.37622304194082

> <r_i_glide_hbond>
-0.0532914325833825

> <r_i_glide_metal>
0

> <r_i_glide_rewards>
-1.37509395569179

> <r_i_glide_evdw>
-47.7322044372559

> <r_i_glide_ecoul>
1.12527239322662

> <r_i_glide_erotb>
0.581938022059632

> <r_i_glide_esite>
0

> <r_i_glide_emodel>
-64.3856408207109

> <r_i_glide_energy>
-46.6069320440292

> <r_i_glide_einternal>
6.59032487869263

> <i_i_glide_confnum>
78

> <i_i_glide_posenum>
130

> <r_i_glide_eff_state_penalty>
0

> <s_user_duplicate_titles>
CHEMBL4439_lig959 ,CHEMBL4439_lig959 

> <i_f3d_flags>
0

> <s_m_subgroup_title>
dock_pv

> <s_m_subgroupid>
dock_pv

> <b_m_subgroup_collapsed>
1

$$$$
CHEMBL4439_lig375
                    3D
 Schrodinger Suite 2021-1.
 53 57  0  0  1  0            999 V2000
   11.8675   63.3427    3.9597 C   0  0  0  0  0  0
   13.1329   63.2421    3.3872 C   0  0  0  0  0  0
   14.1857   63.9650    3.9399 C   0  0  0  0  0  0
   11.5861   64.1350    5.0226 N   0  0  0  0  0  0
   12.6034   64.8609    5.5626 C   0  0  0  0  0  0
   13.9386   64.7922    5.0586 C   0  0  0  0  0  0
   14.9607   65.5336    5.6872 C   0  0  0  0  0  0
   14.6644   66.3692    6.7634 C   0  0  0  0  0  0
   13.3508   66.4572    7.2336 C   0  0  0  0  0  0
   12.3281   65.7070    6.6588 C   0  0  0  0  0  0
   15.7355   67.1459    7.4455 C   0  0  0  0  0  0
   16.8532   67.8394    6.9366 C   0  0  0  0  0  0
   17.4585   68.3524    8.0809 N   0  0  0  0  0  0
   16.8239   68.0232    9.2150 N   0  0  0  0  0  0
   15.8082   67.3061    8.8325 C   0  0  0  0  0  0
   17.3291   68.0571    5.5193 C   0  0  0  0  0  0
   16.4519   68.0563    4.4283 C   0  0  0  0  0  0
   16.9468   68.3145    3.1502 C   0  0  0  0  0  0
   18.3044   68.5820    2.9799 C   0  0  0  0  0  0
   19.1273   68.5663    4.1072 C   0  0  0  0  0  0
   18.6575   68.2984    5.3489 N   0  0  0  0  0  0
   20.6093   68.8783    4.0299 C   0  0  0  0  0  0
   18.6048   69.2603    8.2252 C   0  0  0  0  0  0
   19.8493   68.6461    8.8892 C   0  0  0  0  0  0
   20.6554   69.5356    9.5052 N   0  0  0  0  0  0
   20.0684   67.4334    8.8161 O   0  0  0  0  0  0
   21.7298   69.3015   10.3747 C   0  0  0  0  0  0
   21.9161   68.0938   11.0712 C   0  0  0  0  0  0
   22.9539   67.9808   11.9907 C   0  0  0  0  0  0
   23.7991   69.0670   12.2154 C   0  0  0  0  0  0
   23.6260   70.2642   11.5209 C   0  0  0  0  0  0
   22.5877   70.3830   10.6021 C   0  0  0  0  0  0
   11.0350   62.8082    3.5306 H   0  0  0  0  0  0
   13.2934   62.6121    2.5244 H   0  0  0  0  0  0
   15.1794   63.8986    3.5211 H   0  0  0  0  0  0
   15.9730   65.4530    5.3177 H   0  0  0  0  0  0
   13.1151   67.1047    8.0666 H   0  0  0  0  0  0
   11.3192   65.7700    7.0413 H   0  0  0  0  0  0
   15.1065   66.9000    9.5489 H   0  0  0  0  0  0
   15.3934   67.8977    4.5620 H   0  0  0  0  0  0
   16.2815   68.3290    2.3008 H   0  0  0  0  0  0
   18.7047   68.8008    2.0015 H   0  0  0  0  0  0
   20.9802   68.8571    3.0045 H   0  0  0  0  0  0
   20.8024   69.8730    4.4378 H   0  0  0  0  0  0
   21.1858   68.1544    4.6101 H   0  0  0  0  0  0
   18.2454   70.0867    8.8319 H   0  0  0  0  0  0
   18.8769   69.7248    7.2824 H   0  0  0  0  0  0
   20.4358   70.5089    9.3631 H   0  0  0  0  0  0
   21.2480   67.2577   10.9361 H   0  0  0  0  0  0
   23.0915   67.0599   12.5382 H   0  0  0  0  0  0
   24.5919   68.9779   12.9401 H   0  0  0  0  0  0
   24.2897   71.0993   11.6957 H   0  0  0  0  0  0
   22.4546   71.3188   10.0749 H   0  0  0  0  0  0
  1  2  2  0  0  0
  1  4  1  0  0  0
  1 33  1  0  0  0
  2  3  1  0  0  0
  2 34  1  0  0  0
  3  6  2  0  0  0
  3 35  1  0  0  0
  4  5  2  0  0  0
  5 10  1  0  0  0
  5  6  1  0  0  0
  6  7  1  0  0  0
  7  8  2  0  0  0
  7 36  1  0  0  0
  8 11  1  0  0  0
  8  9  1  0  0  0
  9 10  2  0  0  0
  9 37  1  0  0  0
 10 38  1  0  0  0
 11 12  2  0  0  0
 11 15  1  0  0  0
 12 16  1  0  0  0
 12 13  1  0  0  0
 13 23  1  0  0  0
 13 14  1  0  0  0
 14 15  2  0  0  0
 15 39  1  0  0  0
 16 17  2  0  0  0
 16 21  1  0  0  0
 17 18  1  0  0  0
 17 40  1  0  0  0
 18 19  2  0  0  0
 18 41  1  0  0  0
 19 20  1  0  0  0
 19 42  1  0  0  0
 20 21  2  0  0  0
 20 22  1  0  0  0
 22 43  1  0  0  0
 22 44  1  0  0  0
 22 45  1  0  0  0
 23 24  1  0  0  0
 23 46  1  0  0  0
 23 47  1  0  0  0
 24 25  1  0  0  0
 24 26  2  0  0  0
 25 27  1  0  0  0
 25 48  1  0  0  0
 27 28  2  0  0  0
 27 32  1  0  0  0
 28 29  1  0  0  0
 28 49  1  0  0  0
 29 30  2  0  0  0
 29 50  1  0  0  0
 30 31  1  0  0  0
 30 51  1  0  0  0
 31 32  2  0  0  0
 31 52  1  0  0  0
 32 53  1  0  0  0
M  END
> <s_m_entry_id>
34454

> <s_m_entry_name>
dock_pv.197

> <s_m_Source_Path>
/home/csk/Desktop/cluster/DUD-E-result/tgfr1

> <s_m_Source_File>
dock_pv.maegz

> <i_m_Source_File_Index>
197

> <chembl_id>
CHEMBL1766445

> <chembl_pref_name>
None

> <i_lp_mmshare_version>
53161

> <r_lp_tautomer_probability>
1

> <s_lp_Force_Field>
OPLS_2005

> <r_lp_Energy>
28.407289

> <b_lp_Chiralities_Consistent>
1

> <s_lp_Variant>
CHEMBL4439_lig375-1

> <s_i_glide_gridfile>
glide-grid_3hmm

> <i_i_glide_lignum>
513

> <i_i_glide_rotatable_bonds>
6

> <r_i_docking_score>
-8.43992544884711

> <r_i_glide_ligand_efficiency>
-0.263747670276472

> <r_i_glide_ligand_efficiency_sa>
-0.837346657534727

> <r_i_glide_ligand_efficiency_ln>
-1.88992937167552

> <r_i_glide_gscore>
-8.43992544884711

> <r_i_glide_lipo>
-4.31640367671573

> <r_i_glide_hbond>
0

> <r_i_glide_metal>
0

> <r_i_glide_rewards>
-1.32683722673521

> <r_i_glide_evdw>
-57.0096282958984

> <r_i_glide_ecoul>
-3.38908839225769

> <r_i_glide_erotb>
0.562160128237402

> <r_i_glide_esite>
0

> <r_i_glide_emodel>
-87.8721515097171

> <r_i_glide_energy>
-60.3987166881561

> <r_i_glide_einternal>
3.25575947761536

> <i_i_glide_confnum>
45

> <i_i_glide_posenum>
283

> <r_i_glide_eff_state_penalty>
0

> <s_user_duplicate_titles>
CHEMBL4439_lig375

> <i_f3d_flags>
0

> <s_m_subgroup_title>
dock_pv

> <s_m_subgroupid>
dock_pv

> <b_m_subgroup_collapsed>
1

$$$$
CHEMBL4439_lig503
                    3D
 Schrodinger Suite 2021-1.
 34 37  0  0  1  0            999 V2000
   18.0989   68.9920    1.9540 C   0  0  0  0  0  0
   17.6530   68.4830    3.2231 C   0  0  0  0  0  0
   18.2137   68.6527    4.3991 N   0  0  0  0  0  0
   17.4359   68.0562    5.2991 C   0  0  0  0  0  0
   16.3275   67.4509    4.6771 C   0  0  0  0  0  0
   16.5048   67.7496    3.3506 N   0  0  0  0  0  0
   15.1497   66.6744    5.1657 C   0  0  0  0  0  0
   14.7420   65.4990    4.5061 C   0  0  0  0  0  0
   13.2824   66.4565    6.7348 C   0  0  0  0  0  0
   14.4188   67.1370    6.2777 C   0  0  0  0  0  0
   12.8875   65.3264    6.0310 C   0  0  0  0  0  0
   13.5971   64.8567    4.9635 C   0  0  0  0  0  0
   13.0107   63.7214    4.5007 O   0  0  0  0  0  0
   11.7639   63.6672    5.1406 C   0  0  0  0  0  0
   11.8209   64.5173    6.2527 O   0  0  0  0  0  0
   17.7996   68.0630    6.7334 C   0  0  0  0  0  0
   17.1452   67.3904    7.6513 N   0  0  0  0  0  0
   17.6193   67.5718    8.8702 C   0  0  0  0  0  0
   18.7267   68.4083    8.9554 C   0  0  0  0  0  0
   19.1389   68.9827    7.3703 S   0  0  0  0  0  0
   16.8979   66.8592    9.9905 C   0  0  0  0  0  0
   19.2830   69.6570    2.0319 O   0  0  0  0  0  0
   17.4672   68.8577    0.9105 O   0  0  0  0  0  0
   15.8820   67.4993    2.5954 H   0  0  0  0  0  0
   15.2868   65.1038    3.6638 H   0  0  0  0  0  0
   12.7205   66.8172    7.5823 H   0  0  0  0  0  0
   14.7195   68.0460    6.7781 H   0  0  0  0  0  0
   11.5259   62.6527    5.4549 H   0  0  0  0  0  0
   10.9911   64.0183    4.4532 H   0  0  0  0  0  0
   19.2835   68.7150    9.8292 H   0  0  0  0  0  0
   17.3763   67.0342   10.9546 H   0  0  0  0  0  0
   16.8753   65.7793    9.8380 H   0  0  0  0  0  0
   15.8647   67.1963   10.0863 H   0  0  0  0  0  0
   19.4669   70.1266    1.2106 H   0  0  0  0  0  0
  1  2  1  0  0  0
  1 22  1  0  0  0
  1 23  2  0  0  0
  2  6  1  0  0  0
  2  3  2  0  0  0
  3  4  1  0  0  0
  4  5  2  0  0  0
  4 16  1  0  0  0
  5  6  1  0  0  0
  5  7  1  0  0  0
  6 24  1  0  0  0
  7  8  2  0  0  0
  7 10  1  0  0  0
  8 12  1  0  0  0
  8 25  1  0  0  0
  9 11  1  0  0  0
  9 10  2  0  0  0
  9 26  1  0  0  0
 10 27  1  0  0  0
 11 12  2  0  0  0
 11 15  1  0  0  0
 12 13  1  0  0  0
 13 14  1  0  0  0
 14 15  1  0  0  0
 14 28  1  0  0  0
 14 29  1  0  0  0
 16 17  2  0  0  0
 16 20  1  0  0  0
 17 18  1  0  0  0
 18 19  2  0  0  0
 18 21  1  0  0  0
 19 20  1  0  0  0
 19 30  1  0  0  0
 21 31  1  0  0  0
 21 32  1  0  0  0
 21 33  1  0  0  0
 22 34  1  0  0  0
M  END
> <s_m_entry_id>
34455

> <s_m_entry_name>
dock_pv.198

> <s_m_Source_Path>
/home/csk/Desktop/cluster/DUD-E-result/tgfr1

> <s_m_Source_File>
dock_pv.maegz

> <i_m_Source_File_Index>
198

> <chembl_id>
CHEMBL1957659

> <chembl_pref_name>
None

> <i_lp_mmshare_version>
53161

> <r_lp_tautomer_probability>
1

> <s_lp_Force_Field>
OPLS_2005

> <r_lp_Energy>
23.401533

> <b_lp_Chiralities_Consistent>
1

> <s_lp_Variant>
CHEMBL4439_lig503-1

> <s_i_glide_gridfile>
glide-grid_3hmm

> <i_i_glide_lignum>
661

> <i_i_glide_rotatable_bonds>
4

> <r_i_docking_score>
-8.4389538507111

> <r_i_glide_ligand_efficiency>
-0.366911036987439

> <r_i_glide_ligand_efficiency_sa>
-1.0434461815411

> <r_i_glide_ligand_efficiency_ln>
-2.04061556130482

> <r_i_glide_gscore>
-8.4389538507111

> <r_i_glide_lipo>
-2.41116811045223

> <r_i_glide_hbond>
-0.304

> <r_i_glide_metal>
0

> <r_i_glide_rewards>
-3.33148781610328

> <r_i_glide_evdw>
-46.0089416503906

> <r_i_glide_ecoul>
-4.07787132263184

> <r_i_glide_erotb>
0.519829856758721

> <r_i_glide_esite>
0

> <r_i_glide_emodel>
-72.2854344754618

> <r_i_glide_energy>
-50.0868129730225

> <r_i_glide_einternal>
5.85531330108643

> <i_i_glide_confnum>
5

> <i_i_glide_posenum>
163

> <r_i_glide_eff_state_penalty>
0

> <s_user_duplicate_titles>
CHEMBL4439_lig503

> <i_f3d_flags>
0

> <s_m_subgroup_title>
dock_pv

> <s_m_subgroupid>
dock_pv

> <b_m_subgroup_collapsed>
1

$$$$
CHEMBL4439_lig815
                    3D
 Schrodinger Suite 2021-1.
 48 51  0  0  1  0            999 V2000
   18.0540   68.3621    5.1630 C   0  0  0  0  0  0
   17.4880   68.4539    3.8869 C   0  0  0  0  0  0
   18.2683   68.9160    2.8279 C   0  0  0  0  0  0
   19.5648   69.3044    2.9465 N   0  0  0  0  0  0
   17.3630   67.9768    6.3152 N   0  0  0  0  0  0
   16.1299   67.3738    6.5767 C   0  0  0  0  0  0
   15.5858   67.5183    7.8636 C   0  0  0  0  0  0
   14.4038   66.8453    8.1446 C   0  0  0  0  0  0
   13.7678   66.0631    7.2526 N   0  0  0  0  0  0
   14.2939   65.9000    6.0152 C   0  0  0  0  0  0
   15.4732   66.5593    5.6408 C   0  0  0  0  0  0
   13.5239   64.9585    5.1458 C   0  0  0  0  0  0
   12.1404   64.7974    5.3575 C   0  0  0  0  0  0
   11.3920   63.8809    4.6292 C   0  0  0  0  0  0
   12.0166   63.1368    3.6367 C   0  0  0  0  0  0
   13.3809   63.2687    3.4022 C   0  0  0  0  0  0
   14.1340   64.1715    4.1497 C   0  0  0  0  0  0
   15.4649   64.2347    3.9144 F   0  0  0  0  0  0
   19.3963   68.7506    5.3041 C   0  0  0  0  0  0
   20.1015   69.2336    4.1678 C   0  0  0  0  0  0
   21.3814   69.5838    4.6732 C   0  0  0  0  0  0
   21.3438   69.2753    6.0190 N   0  0  0  0  0  0
   20.1797   68.7318    6.4253 N   0  0  0  0  0  0
    9.9174   63.6966    4.9248 C   0  0  0  0  0  0
   22.4526   69.4077    6.9730 C   0  0  0  0  0  0
   16.2286   68.3793    8.9472 C   0  0  0  0  0  0
   22.1393   70.0794    8.3169 C   0  0  0  0  0  0
   23.0800   70.8613    8.8338 N   0  0  0  0  0  0
   21.0857   69.8892    8.9163 O   0  0  0  0  0  0
   16.4511   68.2190    3.7116 H   0  0  0  0  0  0
   17.8435   69.0028    1.8389 H   0  0  0  0  0  0
   17.8871   68.1851    7.1526 H   0  0  0  0  0  0
   13.9588   66.8563    9.1229 H   0  0  0  0  0  0
   15.8967   66.4008    4.6642 H   0  0  0  0  0  0
   11.6308   65.3763    6.1155 H   0  0  0  0  0  0
   11.4407   62.4564    3.0314 H   0  0  0  0  0  0
   13.8537   62.6805    2.6305 H   0  0  0  0  0  0
   22.2791   69.9867    4.2273 H   0  0  0  0  0  0
    9.3963   64.6484    4.8208 H   0  0  0  0  0  0
    9.4676   62.9613    4.2599 H   0  0  0  0  0  0
    9.7821   63.3582    5.9518 H   0  0  0  0  0  0
   23.2613   69.9435    6.4739 H   0  0  0  0  0  0
   22.8300   68.4148    7.2038 H   0  0  0  0  0  0
   15.5547   68.5469    9.7899 H   0  0  0  0  0  0
   17.1485   67.9176    9.3109 H   0  0  0  0  0  0
   16.4900   69.3599    8.5477 H   0  0  0  0  0  0
   22.9058   71.3074    9.7185 H   0  0  0  0  0  0
   23.8661   71.1778    8.2741 H   0  0  0  0  0  0
  1 19  1  0  0  0
  1  2  2  0  0  0
  1  5  1  0  0  0
  2  3  1  0  0  0
  2 30  1  0  0  0
  3  4  2  0  0  0
  3 31  1  0  0  0
  4 20  1  0  0  0
  5  6  1  0  0  0
  5 32  1  0  0  0
  6  7  2  0  0  0
  6 11  1  0  0  0
  7  8  1  0  0  0
  7 26  1  0  0  0
  8  9  2  0  0  0
  8 33  1  0  0  0
  9 10  1  0  0  0
 10 11  2  0  0  0
 10 12  1  0  0  0
 11 34  1  0  0  0
 12 13  2  0  0  0
 12 17  1  0  0  0
 13 14  1  0  0  0
 13 35  1  0  0  0
 14 15  2  0  0  0
 14 24  1  0  0  0
 15 16  1  0  0  0
 15 36  1  0  0  0
 16 17  2  0  0  0
 16 37  1  0  0  0
 17 18  1  0  0  0
 19 20  1  0  0  0
 19 23  2  0  0  0
 20 21  2  0  0  0
 21 22  1  0  0  0
 21 38  1  0  0  0
 22 23  1  0  0  0
 22 25  1  0  0  0
 24 39  1  0  0  0
 24 40  1  0  0  0
 24 41  1  0  0  0
 25 27  1  0  0  0
 25 42  1  0  0  0
 25 43  1  0  0  0
 26 44  1  0  0  0
 26 45  1  0  0  0
 26 46  1  0  0  0
 27 28  1  0  0  0
 27 29  2  0  0  0
 28 47  1  0  0  0
 28 48  1  0  0  0
M  END
> <s_m_entry_id>
34456

> <s_m_entry_name>
dock_pv.199

> <s_m_Source_Path>
/home/csk/Desktop/cluster/DUD-E-result/tgfr1

> <s_m_Source_File>
dock_pv.maegz

> <i_m_Source_File_Index>
199

> <chembl_id>
CHEMBL4075798

> <chembl_pref_name>
None

> <i_lp_mmshare_version>
53161

> <r_lp_tautomer_probability>
0.999999106000799

> <s_lp_Force_Field>
OPLS_2005

> <r_lp_Energy>
34.851661

> <b_lp_Chiralities_Consistent>
1

> <s_lp_Variant>
CHEMBL4439_lig815-1

> <s_i_glide_gridfile>
glide-grid_3hmm

> <i_i_glide_lignum>
1131

> <i_i_glide_rotatable_bonds>
5

> <r_i_docking_score>
-8.43840917163219

> <r_i_glide_ligand_efficiency>
-0.290979626608007

> <r_i_glide_ligand_efficiency_sa>
-0.89398160175613

> <r_i_glide_ligand_efficiency_ln>
-1.93218172070984

> <r_i_glide_gscore>
-8.43840917163219

> <r_i_glide_lipo>
-4.28444640649188

> <r_i_glide_hbond>
-0.0944457176288551

> <r_i_glide_metal>
0

> <r_i_glide_rewards>
-1.41775327050966

> <r_i_glide_evdw>
-50.827808380127

> <r_i_glide_ecoul>
-4.08145761489868

> <r_i_glide_erotb>
0.511845284239353

> <r_i_glide_esite>
0

> <r_i_glide_emodel>
-71.7133275210394

> <r_i_glide_energy>
-54.9092659950256

> <r_i_glide_einternal>
16.5737762451172

> <i_i_glide_confnum>
28

> <i_i_glide_posenum>
267

> <r_i_glide_eff_state_penalty>
0

> <s_user_duplicate_titles>
CHEMBL4439_lig815

> <i_f3d_flags>
0

> <s_m_subgroup_title>
dock_pv

> <s_m_subgroupid>
dock_pv

> <b_m_subgroup_collapsed>
1

$$$$
CHEMBL4439_lig521
                    3D
 Schrodinger Suite 2021-1.
 39 42  0  0  1  0            999 V2000
   18.1535   68.4571    7.7927 N   0  0  0  0  0  0
   17.2411   67.8869    6.9754 N   0  0  0  0  0  0
   16.2225   67.2813    7.7142 C   0  0  0  0  0  0
   16.5508   67.5250    9.0402 C   0  0  0  0  0  0
   17.7407   68.2421    9.0154 C   0  0  0  0  0  0
   17.3888   68.0570    5.5633 C   0  0  0  0  0  0
   16.2754   67.9032    4.7985 N   0  0  0  0  0  0
   16.3624   68.0572    3.4572 C   0  0  0  0  0  0
   17.5528   68.4053    2.8171 C   0  0  0  0  0  0
   18.6920   68.5926    3.6023 C   0  0  0  0  0  0
   18.6201   68.4193    4.9863 C   0  0  0  0  0  0
   15.0593   67.8728    2.7029 C   0  0  0  0  0  0
   15.0204   66.5648    7.1902 C   0  0  0  0  0  0
   15.1179   65.6328    6.1532 C   0  0  0  0  0  0
   12.6121   66.2413    7.2320 C   0  0  0  0  0  0
   13.7630   66.8568    7.7284 C   0  0  0  0  0  0
   12.7069   65.3580    6.1645 C   0  0  0  0  0  0
   13.9577   65.0703    5.6198 C   0  0  0  0  0  0
   14.0135   64.2189    4.3753 C   0  0  0  0  0  0
   12.7886   63.6945    4.0345 N   0  0  0  0  0  0
   11.6040   63.9663    4.6849 C   0  0  0  0  0  0
   11.5375   64.7572    5.6882 N   0  0  0  0  0  0
   15.0520   64.0572    3.7274 O   0  0  0  0  0  0
   12.7774   62.8689    2.8295 C   0  0  0  0  0  0
   15.9946   67.2248    9.9159 H   0  0  0  0  0  0
   18.2868   68.6138    9.8715 H   0  0  0  0  0  0
   17.5918   68.5367    1.7464 H   0  0  0  0  0  0
   19.6294   68.8668    3.1417 H   0  0  0  0  0  0
   19.5071   68.5586    5.5859 H   0  0  0  0  0  0
   15.1713   68.0666    1.6352 H   0  0  0  0  0  0
   14.2944   68.5509    3.0806 H   0  0  0  0  0  0
   14.6834   66.8578    2.8323 H   0  0  0  0  0  0
   16.0857   65.4052    5.7255 H   0  0  0  0  0  0
   11.6404   66.4566    7.6500 H   0  0  0  0  0  0
   13.6717   67.5861    8.5170 H   0  0  0  0  0  0
   10.7015   63.4871    4.3144 H   0  0  0  0  0  0
   13.4926   62.0571    2.9168 H   0  0  0  0  0  0
   11.7920   62.4574    2.6221 H   0  0  0  0  0  0
   13.0670   63.4649    1.9646 H   0  0  0  0  0  0
  1  2  1  0  0  0
  1  5  2  0  0  0
  2  6  1  0  0  0
  2  3  1  0  0  0
  3 13  1  0  0  0
  3  4  2  0  0  0
  4  5  1  0  0  0
  4 25  1  0  0  0
  5 26  1  0  0  0
  6  7  2  0  0  0
  6 11  1  0  0  0
  7  8  1  0  0  0
  8 12  1  0  0  0
  8  9  2  0  0  0
  9 10  1  0  0  0
  9 27  1  0  0  0
 10 11  2  0  0  0
 10 28  1  0  0  0
 11 29  1  0  0  0
 12 30  1  0  0  0
 12 31  1  0  0  0
 12 32  1  0  0  0
 13 14  2  0  0  0
 13 16  1  0  0  0
 14 18  1  0  0  0
 14 33  1  0  0  0
 15 17  1  0  0  0
 15 16  2  0  0  0
 15 34  1  0  0  0
 16 35  1  0  0  0
 17 18  2  0  0  0
 17 22  1  0  0  0
 18 19  1  0  0  0
 19 20  1  0  0  0
 19 23  2  0  0  0
 20 21  1  0  0  0
 20 24  1  0  0  0
 21 22  2  0  0  0
 21 36  1  0  0  0
 24 37  1  0  0  0
 24 38  1  0  0  0
 24 39  1  0  0  0
M  END
> <s_m_entry_id>
34457

> <s_m_entry_name>
dock_pv.200

> <s_m_Source_Path>
/home/csk/Desktop/cluster/DUD-E-result/tgfr1

> <s_m_Source_File>
dock_pv.maegz

> <i_m_Source_File_Index>
200

> <chembl_id>
CHEMBL2024684

> <chembl_pref_name>
None

> <i_lp_mmshare_version>
53161

> <r_lp_tautomer_probability>
1

> <s_lp_Force_Field>
OPLS_2005

> <r_lp_Energy>
24.292432

> <b_lp_Chiralities_Consistent>
1

> <s_lp_Variant>
CHEMBL4439_lig521-1

> <s_i_glide_gridfile>
glide-grid_3hmm

> <i_i_glide_lignum>
696

> <i_i_glide_rotatable_bonds>
2

> <r_i_docking_score>
-8.43488174032661

> <r_i_glide_ligand_efficiency>
-0.351453405846942

> <r_i_glide_ligand_efficiency_sa>
-1.01376704605772

> <r_i_glide_ligand_efficiency_ln>
-2.01885425196261

> <r_i_glide_gscore>
-8.43488174032661

> <r_i_glide_lipo>
-3.48177325763099

> <r_i_glide_hbond>
0

> <r_i_glide_metal>
0

> <r_i_glide_rewards>
-2.69972749281522

> <r_i_glide_evdw>
-48.9962196350098

> <r_i_glide_ecoul>
-1.15695416927338

> <r_i_glide_erotb>
0.36997311726109

> <r_i_glide_esite>
0

> <r_i_glide_emodel>
-74.2037269920346

> <r_i_glide_energy>
-50.1531738042831

> <r_i_glide_einternal>
0.437316089868546

> <i_i_glide_confnum>
9

> <i_i_glide_posenum>
163

> <r_i_glide_eff_state_penalty>
0

> <s_user_duplicate_titles>
CHEMBL4439_lig521

> <i_f3d_flags>
0

> <s_m_subgroup_title>
dock_pv

> <s_m_subgroupid>
dock_pv

> <b_m_subgroup_collapsed>
1

$$$$
CHEMBL4439_lig854
                    3D
 Schrodinger Suite 2021-1.
 49 52  0  0  1  0            999 V2000
   18.7781   67.2069   10.3448 C   0  0  0  0  0  0
   17.4982   67.3973    9.5030 C   0  0  0  0  0  0
   16.5415   68.3620   10.2411 C   0  0  0  0  0  0
   15.7396   67.8158    3.5884 C   0  0  0  0  0  0
   16.1961   68.4569    2.4326 C   0  0  0  0  0  0
   17.4692   68.9051    2.2935 N   0  0  0  0  0  0
   18.3226   68.7201    3.3332 C   0  0  0  0  0  0
   17.9331   68.0990    4.5188 C   0  0  0  0  0  0
   16.6183   67.6447    4.6656 C   0  0  0  0  0  0
   16.1927   66.9945    5.9459 C   0  0  0  0  0  0
   15.1307   65.6569    7.4304 N   0  0  0  0  0  0
   15.1918   66.0014    6.1624 C   0  0  0  0  0  0
   16.1181   66.2883    8.0300 N   0  0  0  0  0  0
   16.7541   67.1729    7.2207 C   0  0  0  0  0  0
   17.8411   67.8468    8.0443 C   0  0  1  0  0  0
   16.7532   66.0688    9.3073 C   0  0  0  0  0  0
   14.3505   65.1982    5.2143 C   0  0  0  0  0  0
   13.1069   64.8701    5.6636 N   0  0  0  0  0  0
   12.3946   63.9325    4.9919 C   0  0  0  0  0  0
   12.8688   63.3115    3.8354 C   0  0  0  0  0  0
   14.1185   63.6930    3.3499 C   0  0  0  0  0  0
   14.8743   64.6433    4.0419 C   0  0  0  0  0  0
   11.0682   63.5404    5.6126 C   0  0  0  0  0  0
   17.9617   69.3703    7.8327 C   0  0  0  0  0  0
    9.8674   63.9950    4.7808 C   0  0  0  0  0  0
   19.9523   69.2639    3.1979 Cl  0  0  0  0  0  0
   19.4532   66.4786    9.8939 H   0  0  0  0  0  0
   19.3296   68.1429   10.4441 H   0  0  0  0  0  0
   18.5490   66.8580   11.3522 H   0  0  0  0  0  0
   15.6828   68.6473    9.6314 H   0  0  0  0  0  0
   16.1571   67.9269   11.1653 H   0  0  0  0  0  0
   17.0686   69.2619   10.5235 H   0  0  0  0  0  0
   14.7125   67.4871    3.6515 H   0  0  0  0  0  0
   15.5329   68.6173    1.5938 H   0  0  0  0  0  0
   18.6558   67.9657    5.3086 H   0  0  0  0  0  0
   18.7950   67.4046    7.7498 H   0  0  0  0  0  0
   16.0289   65.8452   10.0925 H   0  0  0  0  0  0
   17.4380   65.2221    9.2330 H   0  0  0  0  0  0
   12.2834   62.5656    3.3182 H   0  0  0  0  0  0
   14.5002   63.2489    2.4458 H   0  0  0  0  0  0
   15.8670   64.8947    3.7039 H   0  0  0  0  0  0
   10.9867   63.9307    6.6294 H   0  0  0  0  0  0
   11.0651   62.4580    5.7145 H   0  0  0  0  0  0
   18.2683   69.6176    6.8190 H   0  0  0  0  0  0
   17.0221   69.8870    8.0320 H   0  0  0  0  0  0
   18.7100   69.7953    8.5006 H   0  0  0  0  0  0
    8.9401   63.6496    5.2329 H   0  0  0  0  0  0
    9.8250   65.0825    4.7074 H   0  0  0  0  0  0
    9.9107   63.5896    3.7691 H   0  0  0  0  0  0
  1  2  1  0  0  0
  1 27  1  0  0  0
  1 28  1  0  0  0
  1 29  1  0  0  0
  2  3  1  0  0  0
  2 15  1  0  0  0
  2 16  1  0  0  0
  3 30  1  0  0  0
  3 31  1  0  0  0
  3 32  1  0  0  0
  4  5  2  0  0  0
  4  9  1  0  0  0
  4 33  1  0  0  0
  5  6  1  0  0  0
  5 34  1  0  0  0
  6  7  2  0  0  0
  7  8  1  0  0  0
  7 26  1  0  0  0
  8  9  2  0  0  0
  8 35  1  0  0  0
  9 10  1  0  0  0
 10 14  2  0  0  0
 10 12  1  0  0  0
 11 13  1  0  0  0
 11 12  2  0  0  0
 12 17  1  0  0  0
 13 14  1  0  0  0
 13 16  1  0  0  0
 14 15  1  0  0  0
 15 24  1  0  0  0
 15 36  1  0  0  0
 16 37  1  0  0  0
 16 38  1  0  0  0
 17 18  2  0  0  0
 17 22  1  0  0  0
 18 19  1  0  0  0
 19 20  2  0  0  0
 19 23  1  0  0  0
 20 21  1  0  0  0
 20 39  1  0  0  0
 21 22  2  0  0  0
 21 40  1  0  0  0
 22 41  1  0  0  0
 23 25  1  0  0  0
 23 42  1  0  0  0
 23 43  1  0  0  0
 24 44  1  0  0  0
 24 45  1  0  0  0
 24 46  1  0  0  0
 25 47  1  0  0  0
 25 48  1  0  0  0
 25 49  1  0  0  0
M  END
> <s_m_entry_id>
34458

> <s_m_entry_name>
dock_pv.201

> <s_m_Source_Path>
/home/csk/Desktop/cluster/DUD-E-result/tgfr1

> <s_m_Source_File>
dock_pv.maegz

> <i_m_Source_File_Index>
201

> <chembl_id>
CHEMBL4287412

> <chembl_pref_name>
None

> <i_lp_mmshare_version>
53161

> <r_lp_tautomer_probability>
1

> <s_lp_Force_Field>
OPLS_2005

> <r_lp_Energy>
34.143895

> <b_lp_Chiralities_Consistent>
1

> <s_lp_Variant>
CHEMBL4439_lig854-1

> <s_i_glide_gridfile>
glide-grid_3hmm

> <i_i_glide_lignum>
1178

> <i_i_glide_rotatable_bonds>
3

> <r_i_docking_score>
-8.42920599475213

> <r_i_glide_ligand_efficiency>
-0.32420023056739

> <r_i_glide_ligand_efficiency_sa>
-0.960441907389584

> <r_i_glide_ligand_efficiency_ln>
-1.97957136938674

> <r_i_glide_gscore>
-8.42920599475213

> <r_i_glide_lipo>
-4.75869510146164

> <r_i_glide_hbond>
-0.0816379064344059

> <r_i_glide_metal>
0

> <r_i_glide_rewards>
-1.38370945425905

> <r_i_glide_evdw>
-46.925220489502

> <r_i_glide_ecoul>
-0.966395735740662

> <r_i_glide_erotb>
0.28605685223916

> <r_i_glide_esite>
0

> <r_i_glide_emodel>
-67.3254901051694

> <r_i_glide_energy>
-47.8916162252426

> <r_i_glide_einternal>
1.99578654766083

> <i_i_glide_confnum>
6

> <i_i_glide_posenum>
60

> <r_i_glide_eff_state_penalty>
0

> <s_user_duplicate_titles>
CHEMBL4439_lig854

> <i_f3d_flags>
0

> <s_m_subgroup_title>
dock_pv

> <s_m_subgroupid>
dock_pv

> <b_m_subgroup_collapsed>
1

$$$$
CHEMBL4439_lig786
                    3D
 Schrodinger Suite 2021-1.
 38 41  0  0  1  0            999 V2000
   18.1676   69.2572    1.3720 N   0  0  0  0  0  0
   17.8925   68.4728    4.1235 C   0  0  0  0  0  0
   16.8142   68.4573    3.2231 C   0  0  0  0  0  0
   16.9850   68.8569    1.8994 C   0  0  0  0  0  0
   19.1012   68.9333    3.5819 C   0  0  0  0  0  0
   19.2023   69.2985    2.2154 C   0  0  0  0  0  0
   20.5655   69.6691    2.0332 C   0  0  0  0  0  0
   21.2242   69.6237    3.1645 N   0  0  0  0  0  0
   20.3694   69.1542    4.0966 N   0  0  0  0  0  0
   17.7733   68.1345    5.4810 N   0  0  0  0  0  0
   16.7430   67.5311    6.2183 C   0  0  0  0  0  0
   16.6421   67.7617    7.6005 C   0  0  0  0  0  0
   15.5884   67.1573    8.2914 C   0  0  0  0  0  0
   14.6623   66.3699    7.6903 N   0  0  0  0  0  0
   14.7710   66.1278    6.3566 C   0  0  0  0  0  0
   15.8196   66.6747    5.6108 C   0  0  0  0  0  0
   13.7249   65.2698    5.7109 C   0  0  0  0  0  0
   12.3816   65.2650    6.1370 C   0  0  0  0  0  0
   11.4340   64.4595    5.5029 C   0  0  0  0  0  0
   11.8011   63.6562    4.4301 C   0  0  0  0  0  0
   13.1184   63.6468    3.9954 C   0  0  0  0  0  0
   14.0669   64.4529    4.6213 C   0  0  0  0  0  0
   11.9705   66.0568    7.1539 F   0  0  0  0  0  0
   13.4697   62.8608    2.9547 F   0  0  0  0  0  0
   17.6265   68.6510    8.3564 C   0  0  0  0  0  0
   15.8179   68.1978    3.5340 H   0  0  0  0  0  0
   16.1366   68.8662    1.2319 H   0  0  0  0  0  0
   21.0494   70.0078    1.1288 H   0  0  0  0  0  0
   20.6900   69.0102    5.0435 H   0  0  0  0  0  0
   18.5352   68.4682    6.0504 H   0  0  0  0  0  0
   15.4675   67.3106    9.3533 H   0  0  0  0  0  0
   15.9106   66.4255    4.5670 H   0  0  0  0  0  0
   10.4080   64.4574    5.8278 H   0  0  0  0  0  0
   11.0687   63.0479    3.9222 H   0  0  0  0  0  0
   15.0796   64.4130    4.2500 H   0  0  0  0  0  0
   17.3916   68.7214    9.4193 H   0  0  0  0  0  0
   18.6433   68.2681    8.2563 H   0  0  0  0  0  0
   17.6163   69.6603    7.9442 H   0  0  0  0  0  0
  1  6  2  0  0  0
  1  4  1  0  0  0
  2  5  2  0  0  0
  2  3  1  0  0  0
  2 10  1  0  0  0
  3  4  2  0  0  0
  3 26  1  0  0  0
  4 27  1  0  0  0
  5  6  1  0  0  0
  5  9  1  0  0  0
  6  7  1  0  0  0
  7  8  2  0  0  0
  7 28  1  0  0  0
  8  9  1  0  0  0
  9 29  1  0  0  0
 10 11  1  0  0  0
 10 30  1  0  0  0
 11 12  2  0  0  0
 11 16  1  0  0  0
 12 13  1  0  0  0
 12 25  1  0  0  0
 13 14  2  0  0  0
 13 31  1  0  0  0
 14 15  1  0  0  0
 15 16  2  0  0  0
 15 17  1  0  0  0
 16 32  1  0  0  0
 17 18  2  0  0  0
 17 22  1  0  0  0
 18 19  1  0  0  0
 18 23  1  0  0  0
 19 20  2  0  0  0
 19 33  1  0  0  0
 20 21  1  0  0  0
 20 34  1  0  0  0
 21 22  2  0  0  0
 21 24  1  0  0  0
 22 35  1  0  0  0
 25 36  1  0  0  0
 25 37  1  0  0  0
 25 38  1  0  0  0
M  END
> <s_m_entry_id>
34459

> <s_m_entry_name>
dock_pv.202

> <s_m_Source_Path>
/home/csk/Desktop/cluster/DUD-E-result/tgfr1

> <s_m_Source_File>
dock_pv.maegz

> <i_m_Source_File_Index>
202

> <chembl_id>
CHEMBL4102696

> <chembl_pref_name>
None

> <i_lp_mmshare_version>
53161

> <r_lp_tautomer_probability>
0.999999106000799

> <s_lp_Force_Field>
OPLS_2005

> <r_lp_Energy>
24.442501

> <b_lp_Chiralities_Consistent>
1

> <s_lp_Variant>
CHEMBL4439_lig786-1

> <s_i_glide_gridfile>
glide-grid_3hmm

> <i_i_glide_lignum>
1100

> <i_i_glide_rotatable_bonds>
3

> <r_i_docking_score>
-8.42838991918341

> <r_i_glide_ligand_efficiency>
-0.337135596767336

> <r_i_glide_ligand_efficiency_sa>
-0.985790464072959

> <r_i_glide_ligand_efficiency_ln>
-1.99778098931051

> <r_i_glide_gscore>
-8.42838991918341

> <r_i_glide_lipo>
-4.04318851958067

> <r_i_glide_hbond>
-0.179494639610739

> <r_i_glide_metal>
0

> <r_i_glide_rewards>
-2.03609707248808

> <r_i_glide_evdw>
-46.3233795166016

> <r_i_glide_ecoul>
-2.34448719024658

> <r_i_glide_erotb>
0.498232366863145

> <r_i_glide_esite>
0

> <r_i_glide_emodel>
-73.1363071147723

> <r_i_glide_energy>
-48.6678667068481

> <r_i_glide_einternal>
0.483735054731369

> <i_i_glide_confnum>
22

> <i_i_glide_posenum>
301

> <r_i_glide_eff_state_penalty>
0

> <s_user_duplicate_titles>
CHEMBL4439_lig786

> <i_f3d_flags>
0

> <s_m_subgroup_title>
dock_pv

> <s_m_subgroupid>
dock_pv

> <b_m_subgroup_collapsed>
1

$$$$
CHEMBL4439_lig275
                    3D
 Schrodinger Suite 2021-1.
 40 44  0  0  1  0            999 V2000
   16.0527   67.1253    5.9733 C   0  0  0  0  0  0
   15.1548   66.0771    6.3327 C   0  0  0  0  0  0
   15.1231   65.8950    7.6376 N   0  0  0  0  0  0
   14.2968   65.1958    5.4731 C   0  0  0  0  0  0
   14.7823   64.5424    4.3342 C   0  0  0  0  0  0
   13.9276   63.6864    3.6322 C   0  0  0  0  0  0
   12.6144   63.5105    4.0692 C   0  0  0  0  0  0
   12.1921   64.2101    5.1997 C   0  0  0  0  0  0
   13.0100   65.0385    5.8978 N   0  0  0  0  0  0
   16.4021   67.6467    4.6079 C   0  0  0  0  0  0
   16.7929   68.8570    2.0705 N   0  0  0  0  0  0
   15.6076   68.3186    2.4320 C   0  0  0  0  0  0
   15.3844   67.6907    3.6506 C   0  0  0  0  0  0
   16.4670   67.6317    7.2113 C   0  0  0  0  0  0
   15.9403   66.8041    8.1530 N   0  0  0  0  0  0
   16.2935   67.1329    9.5192 C   0  0  0  0  0  0
   17.4631   68.0958    9.3046 C   0  0  0  0  0  0
   17.2465   68.7196    7.9243 C   0  0  0  0  0  0
   17.8256   68.7748    2.9509 C   0  0  0  0  0  0
   17.6921   68.1575    4.2366 C   0  0  0  0  0  0
   18.8511   68.0778    5.0594 C   0  0  0  0  0  0
   20.0624   68.6244    4.6493 C   0  0  0  0  0  0
   20.1645   69.2570    3.4188 C   0  0  0  0  0  0
   19.0669   69.3287    2.5650 C   0  0  0  0  0  0
   15.8028   64.6830    4.0098 H   0  0  0  0  0  0
   14.2738   63.1703    2.7499 H   0  0  0  0  0  0
   11.9390   62.8618    3.5307 H   0  0  0  0  0  0
   11.1797   64.1142    5.5651 H   0  0  0  0  0  0
   14.8125   68.3984    1.7044 H   0  0  0  0  0  0
   14.3950   67.3203    3.8701 H   0  0  0  0  0  0
   16.5809   66.2468   10.0858 H   0  0  0  0  0  0
   15.4671   67.6273   10.0232 H   0  0  0  0  0  0
   18.4029   67.5397    9.3129 H   0  0  0  0  0  0
   17.5337   68.8497   10.0906 H   0  0  0  0  0  0
   18.2012   68.9949    7.4812 H   0  0  0  0  0  0
   16.6620   69.6376    8.0033 H   0  0  0  0  0  0
   18.8100   67.5586    6.0030 H   0  0  0  0  0  0
   20.9341   68.5466    5.2842 H   0  0  0  0  0  0
   21.1126   69.6756    3.1123 H   0  0  0  0  0  0
   19.1610   69.8098    1.6014 H   0  0  0  0  0  0
  1 10  1  0  0  0
  1 14  2  0  0  0
  1  2  1  0  0  0
  2  3  2  0  0  0
  2  4  1  0  0  0
  3 15  1  0  0  0
  4  9  1  0  0  0
  4  5  2  0  0  0
  5  6  1  0  0  0
  5 25  1  0  0  0
  6  7  2  0  0  0
  6 26  1  0  0  0
  7  8  1  0  0  0
  7 27  1  0  0  0
  8  9  2  0  0  0
  8 28  1  0  0  0
 10 13  1  0  0  0
 10 20  2  0  0  0
 11 19  2  0  0  0
 11 12  1  0  0  0
 12 13  2  0  0  0
 12 29  1  0  0  0
 13 30  1  0  0  0
 14 15  1  0  0  0
 14 18  1  0  0  0
 15 16  1  0  0  0
 16 17  1  0  0  0
 16 31  1  0  0  0
 16 32  1  0  0  0
 17 18  1  0  0  0
 17 33  1  0  0  0
 17 34  1  0  0  0
 18 35  1  0  0  0
 18 36  1  0  0  0
 19 20  1  0  0  0
 19 24  1  0  0  0
 20 21  1  0  0  0
 21 22  2  0  0  0
 21 37  1  0  0  0
 22 23  1  0  0  0
 22 38  1  0  0  0
 23 24  2  0  0  0
 23 39  1  0  0  0
 24 40  1  0  0  0
M  END
> <s_m_entry_id>
34460

> <s_m_entry_name>
dock_pv.203

> <s_m_Source_Path>
/home/csk/Desktop/cluster/DUD-E-result/tgfr1

> <s_m_Source_File>
dock_pv.maegz

> <i_m_Source_File_Index>
203

> <chembl_id>
CHEMBL121795

> <chembl_pref_name>
None

> <i_lp_mmshare_version>
53161

> <r_lp_tautomer_probability>
1

> <s_lp_Force_Field>
OPLS_2005

> <r_lp_Energy>
40.463579

> <b_lp_Chiralities_Consistent>
1

> <s_lp_Variant>
CHEMBL4439_lig275-1

> <s_i_glide_gridfile>
glide-grid_3hmm

> <i_i_glide_lignum>
388

> <i_i_glide_rotatable_bonds>
2

> <r_i_docking_score>
-8.42485738313852

> <r_i_glide_ligand_efficiency>
-0.351035724297438

> <r_i_glide_ligand_efficiency_sa>
-1.0125622439884

> <r_i_glide_ligand_efficiency_ln>
-2.01645496329972

> <r_i_glide_gscore>
-8.42485738313852

> <r_i_glide_lipo>
-4.42596578677195

> <r_i_glide_hbond>
-0.100147655745436

> <r_i_glide_metal>
0

> <r_i_glide_rewards>
-1.74406565819359

> <r_i_glide_evdw>
-43.0268325805664

> <r_i_glide_ecoul>
-2.55827045440674

> <r_i_glide_erotb>
0.380403914761782

> <r_i_glide_esite>
0

> <r_i_glide_emodel>
-66.7107582371006

> <r_i_glide_energy>
-45.5851030349731

> <r_i_glide_einternal>
4.0219783782959

> <i_i_glide_confnum>
11

> <i_i_glide_posenum>
26

> <r_i_glide_eff_state_penalty>
0

> <s_user_duplicate_titles>
CHEMBL4439_lig275,196689

> <i_f3d_flags>
0

> <s_m_subgroup_title>
dock_pv

> <s_m_subgroupid>
dock_pv

> <b_m_subgroup_collapsed>
1

$$$$
CHEMBL4439_lig761
                    3D
 Schrodinger Suite 2021-1.
 33 36  0  0  1  0            999 V2000
   14.5126   63.9027    3.9337 C   0  0  0  0  0  0
   14.0191   64.7150    5.1155 C   0  0  0  0  0  0
   12.6508   64.8755    5.3462 C   0  0  0  0  0  0
   12.2457   65.6570    6.4291 C   0  0  0  0  0  0
   13.2084   66.2693    7.2317 C   0  0  0  0  0  0
   14.5640   66.0563    6.9447 C   0  0  0  0  0  0
   14.9736   65.2697    5.9108 N   0  0  0  0  0  0
   15.5601   66.6417    7.7605 N   0  0  0  0  0  0
   15.4670   66.4571    9.0923 N   0  0  0  0  0  0
   16.4819   67.0944    9.6143 C   0  0  0  0  0  0
   17.2594   67.7074    8.6376 C   0  0  0  0  0  0
   16.6642   67.4129    7.4142 C   0  0  0  0  0  0
   17.0752   67.8362    6.0668 C   0  0  0  0  0  0
   16.3325   67.8577    4.8990 C   0  0  0  0  0  0
   17.0525   68.3255    3.7728 C   0  0  0  0  0  0
   16.6616   68.4572    2.4322 C   0  0  0  0  0  0
   17.4896   68.9288    1.4700 N   0  0  0  0  0  0
   18.7395   69.3043    1.8246 C   0  0  0  0  0  0
   19.2346   69.2550    3.1279 C   0  0  0  0  0  0
   18.3746   68.7274    4.1043 C   0  0  0  0  0  0
   18.7029   68.4573    5.8072 S   0  0  0  0  0  0
   13.9597   62.9662    3.8538 H   0  0  0  0  0  0
   15.5723   63.6596    4.0251 H   0  0  0  0  0  0
   14.3657   64.4591    3.0074 H   0  0  0  0  0  0
   11.9200   64.4183    4.6952 H   0  0  0  0  0  0
   11.1942   65.8020    6.6336 H   0  0  0  0  0  0
   12.9065   66.8863    8.0650 H   0  0  0  0  0  0
   16.6511   67.1235   10.6814 H   0  0  0  0  0  0
   18.1459   68.3036    8.8013 H   0  0  0  0  0  0
   15.3006   67.5553    4.8276 H   0  0  0  0  0  0
   15.6686   68.1785    2.1131 H   0  0  0  0  0  0
   19.3689   69.6572    1.0197 H   0  0  0  0  0  0
   20.2440   69.5616    3.3628 H   0  0  0  0  0  0
  1  2  1  0  0  0
  1 22  1  0  0  0
  1 23  1  0  0  0
  1 24  1  0  0  0
  2  3  2  0  0  0
  2  7  1  0  0  0
  3  4  1  0  0  0
  3 25  1  0  0  0
  4  5  2  0  0  0
  4 26  1  0  0  0
  5  6  1  0  0  0
  5 27  1  0  0  0
  6  7  2  0  0  0
  6  8  1  0  0  0
  8  9  1  0  0  0
  8 12  1  0  0  0
  9 10  2  0  0  0
 10 11  1  0  0  0
 10 28  1  0  0  0
 11 12  2  0  0  0
 11 29  1  0  0  0
 12 13  1  0  0  0
 13 14  2  0  0  0
 13 21  1  0  0  0
 14 15  1  0  0  0
 14 30  1  0  0  0
 15 16  2  0  0  0
 15 20  1  0  0  0
 16 17  1  0  0  0
 16 31  1  0  0  0
 17 18  2  0  0  0
 18 19  1  0  0  0
 18 32  1  0  0  0
 19 20  2  0  0  0
 19 33  1  0  0  0
 20 21  1  0  0  0
M  END
> <s_m_entry_id>
34461

> <s_m_entry_name>
dock_pv.204

> <s_m_Source_Path>
/home/csk/Desktop/cluster/DUD-E-result/tgfr1

> <s_m_Source_File>
dock_pv.maegz

> <i_m_Source_File_Index>
204

> <chembl_id>
CHEMBL3704648

> <chembl_pref_name>
None

> <i_lp_mmshare_version>
53161

> <r_lp_tautomer_probability>
1

> <s_lp_Force_Field>
OPLS_2005

> <r_lp_Energy>
12.068707

> <b_lp_Chiralities_Consistent>
1

> <s_lp_Variant>
CHEMBL4439_lig761-1

> <s_i_glide_gridfile>
glide-grid_3hmm

> <i_i_glide_lignum>
1075

> <i_i_glide_rotatable_bonds>
2

> <r_i_docking_score>
-8.41846164288902

> <r_i_glide_ligand_efficiency>
-0.400879125851858

> <r_i_glide_ligand_efficiency_sa>
-1.10599511099681

> <r_i_glide_ligand_efficiency_ln>
-2.08144763010082

> <r_i_glide_gscore>
-8.41846164288902

> <r_i_glide_lipo>
-3.59249075342015

> <r_i_glide_hbond>
-0.0857932423678842

> <r_i_glide_metal>
0

> <r_i_glide_rewards>
-2.64559262018868

> <r_i_glide_evdw>
-42.5031929016113

> <r_i_glide_ecoul>
-2.64393329620361

> <r_i_glide_erotb>
0.427164612598799

> <r_i_glide_esite>
0

> <r_i_glide_emodel>
-66.871934574318

> <r_i_glide_energy>
-45.1471261978149

> <r_i_glide_einternal>
2.24598598480225

> <i_i_glide_confnum>
11

> <i_i_glide_posenum>
17

> <r_i_glide_eff_state_penalty>
0

> <s_user_duplicate_titles>
CHEMBL4439_lig761

> <i_f3d_flags>
0

> <s_m_subgroup_title>
dock_pv

> <s_m_subgroupid>
dock_pv

> <b_m_subgroup_collapsed>
1

$$$$
CHEMBL4439_lig887 
                    3D
 Schrodinger Suite 2021-1.
 42 46  0  0  1  0            999 V2000
   16.1722   67.0500    7.8685 N   0  0  0  0  0  0
   15.8309   66.9115    6.6077 C   0  0  0  0  0  0
   16.7544   67.5429    5.7420 C   0  0  0  0  0  0
   16.6622   67.6567    4.2969 C   0  0  0  0  0  0
   17.8152   67.7975    3.6431 N   0  0  0  0  0  0
   15.5895   67.6570    3.7012 O   0  0  0  0  0  0
   14.5802   66.1734    6.2887 C   0  0  0  0  0  0
   14.5734   65.2095    5.2778 C   0  0  0  0  0  0
   12.2091   65.8289    6.7234 C   0  0  0  0  0  0
   13.4175   66.4569    7.0129 C   0  0  0  0  0  0
   12.1879   64.8986    5.6837 C   0  0  0  0  0  0
   13.3684   64.5758    4.9658 C   0  0  0  0  0  0
   13.2188   63.6342    4.0028 N   0  0  0  0  0  0
   11.9764   63.2569    3.9263 C   0  0  0  0  0  0
   10.8430   63.9826    5.0328 S   0  0  0  0  0  0
   17.8100   68.1933    9.1972 C   0  0  0  0  0  0
   19.3244   68.4697    9.2967 C   0  0  1  0  0  0
   20.2213   67.3002    8.8301 C   0  0  1  0  0  0
   17.3011   67.7603    7.8908 N   0  0  0  0  0  0
   17.6769   68.1373    6.6120 C   0  0  0  0  0  0
   18.7453   68.9493    6.2853 N   0  0  0  0  0  0
   19.9773   69.0434    7.0607 C   0  0  2  0  0  0
   20.5688   67.6570    7.3609 C   0  0  0  0  0  0
   19.7484   69.6558    8.4348 C   0  0  0  0  0  0
   19.5283   68.7232   10.3402 H   0  0  0  0  0  0
   20.7002   69.6496    6.5128 H   0  0  0  0  0  0
   21.3884   67.2572    9.6329 O   0  0  0  0  0  0
   17.7890   67.9400    2.6450 H   0  0  0  0  0  0
   18.6911   67.6347    4.1106 H   0  0  0  0  0  0
   15.4660   64.9781    4.7203 H   0  0  0  0  0  0
   11.3047   66.0592    7.2610 H   0  0  0  0  0  0
   13.4553   67.1911    7.8047 H   0  0  0  0  0  0
   11.6351   62.5391    3.2045 H   0  0  0  0  0  0
   17.2505   69.0874    9.4783 H   0  0  0  0  0  0
   17.5482   67.4311    9.9338 H   0  0  0  0  0  0
   19.6746   66.3576    8.8972 H   0  0  0  0  0  0
   18.8971   69.0371    5.2910 H   0  0  0  0  0  0
   21.6343   67.6659    7.1621 H   0  0  0  0  0  0
   20.1527   66.8988    6.6958 H   0  0  0  0  0  0
   19.0091   70.4570    8.4305 H   0  0  0  0  0  0
   20.6853   70.0730    8.8092 H   0  0  0  0  0  0
   21.1431   66.9139   10.4987 H   0  0  0  0  0  0
  1 19  1  0  0  0
  1  2  2  0  0  0
  2  3  1  0  0  0
  2  7  1  0  0  0
  3 20  2  0  0  0
  3  4  1  0  0  0
  4  5  1  0  0  0
  4  6  2  0  0  0
  5 28  1  0  0  0
  5 29  1  0  0  0
  7  8  2  0  0  0
  7 10  1  0  0  0
  8 12  1  0  0  0
  8 30  1  0  0  0
  9 11  1  0  0  0
  9 10  2  0  0  0
  9 31  1  0  0  0
 10 32  1  0  0  0
 11 12  2  0  0  0
 11 15  1  0  0  0
 12 13  1  0  0  0
 13 14  2  0  0  0
 14 15  1  0  0  0
 14 33  1  0  0  0
 16 17  1  0  0  0
 16 19  1  0  0  0
 16 34  1  0  0  0
 16 35  1  0  0  0
 17 18  1  0  0  0
 17 24  1  0  0  0
 17 25  1  0  0  0
 18 23  1  0  0  0
 18 27  1  0  0  0
 18 36  1  0  0  0
 19 20  1  0  0  0
 20 21  1  0  0  0
 21 22  1  0  0  0
 21 37  1  0  0  0
 22 23  1  0  0  0
 22 24  1  0  0  0
 22 26  1  0  0  0
 23 38  1  0  0  0
 23 39  1  0  0  0
 24 40  1  0  0  0
 24 41  1  0  0  0
 27 42  1  0  0  0
M  END
> <s_m_entry_id>
34462

> <s_m_entry_name>
dock_pv.205

> <s_m_Source_Path>
/home/csk/Desktop/cluster/DUD-E-result/tgfr1

> <s_m_Source_File>
dock_pv.maegz

> <i_m_Source_File_Index>
205

> <chembl_id>
CHEMBL4562422

> <chembl_pref_name>
None

> <i_lp_mmshare_version>
53161

> <r_lp_tautomer_probability>
1

> <s_lp_Force_Field>
OPLS_2005

> <r_lp_Energy>
44.34122

> <b_lp_Chiralities_Consistent>
1

> <s_lp_Variant>
CHEMBL4439_lig887 -1

> <s_i_glide_gridfile>
glide-grid_3hmm

> <i_i_glide_lignum>
1222

> <i_i_glide_rotatable_bonds>
3

> <r_i_docking_score>
-8.41464719736044

> <r_i_glide_ligand_efficiency>
-0.336585887894417

> <r_i_glide_ligand_efficiency_sa>
-0.984183105579416

> <r_i_glide_ligand_efficiency_ln>
-1.99452355240233

> <r_i_glide_gscore>
-8.41464719736044

> <r_i_glide_lipo>
-3.16873623099872

> <r_i_glide_hbond>
-0.495016694862272

> <r_i_glide_metal>
0

> <r_i_glide_rewards>
-2.01901793387697

> <r_i_glide_evdw>
-47.7016105651855

> <r_i_glide_ecoul>
-3.3210654258728

> <r_i_glide_erotb>
0.151364004517723

> <r_i_glide_esite>
0

> <r_i_glide_emodel>
-74.8968868137729

> <r_i_glide_energy>
-51.0226759910583

> <r_i_glide_einternal>
0.335124015808105

> <i_i_glide_confnum>
4

> <i_i_glide_posenum>
226

> <r_i_glide_eff_state_penalty>
0

> <s_user_duplicate_titles>
CHEMBL4439_lig887 

> <i_f3d_flags>
0

> <s_m_subgroup_title>
dock_pv

> <s_m_subgroupid>
dock_pv

> <b_m_subgroup_collapsed>
1

$$$$
CHEMBL4439_lig255
                    3D
 Schrodinger Suite 2021-1.
 43 47  0  0  1  0            999 V2000
   15.2407   66.1580    7.7394 N   0  0  0  0  0  0
   15.3168   66.3197    6.4291 C   0  0  0  0  0  0
   16.2172   67.3697    6.0742 C   0  0  0  0  0  0
   16.0101   67.1079    8.2575 N   0  0  0  0  0  0
   16.5569   67.9209    7.3132 C   0  0  0  0  0  0
   17.2970   69.0395    8.0169 C   0  0  0  0  0  0
   17.4648   68.4631    9.4248 C   0  0  0  0  0  0
   16.3139   67.4778    9.6244 C   0  0  0  0  0  0
   14.5239   65.4036    5.5475 C   0  0  0  0  0  0
   13.2619   65.1044    5.9727 N   0  0  0  0  0  0
   12.5165   64.2382    5.2351 C   0  0  0  0  0  0
   12.9879   63.6520    4.0605 C   0  0  0  0  0  0
   14.2726   63.9770    3.6299 C   0  0  0  0  0  0
   15.0526   64.8618    4.3730 C   0  0  0  0  0  0
   16.6650   67.8456    4.7146 C   0  0  0  0  0  0
   15.7260   67.9219    3.6771 C   0  0  0  0  0  0
   16.0822   68.4569    2.4429 C   0  0  0  0  0  0
   17.3246   68.8995    2.1574 N   0  0  0  0  0  0
   11.1301   63.9187    5.7606 C   0  0  0  0  0  0
   18.0049   68.2695    4.4263 C   0  0  0  0  0  0
   18.2726   68.8083    3.1279 C   0  0  0  0  0  0
   19.5699   69.2669    2.8220 C   0  0  0  0  0  0
   20.5892   69.2149    3.7675 C   0  0  0  0  0  0
   20.3561   68.6488    5.0123 C   0  0  0  0  0  0
   19.0927   68.1695    5.3422 C   0  0  0  0  0  0
   16.7062   69.9560    8.0333 H   0  0  0  0  0  0
   18.2663   69.3029    7.5981 H   0  0  0  0  0  0
   17.4663   69.2427   10.1863 H   0  0  0  0  0  0
   18.4199   67.9379    9.5000 H   0  0  0  0  0  0
   15.4676   67.9728   10.0913 H   0  0  0  0  0  0
   16.6013   66.6130   10.2235 H   0  0  0  0  0  0
   12.3751   62.9710    3.4873 H   0  0  0  0  0  0
   14.6587   63.5461    2.7201 H   0  0  0  0  0  0
   16.0423   65.1256    4.0346 H   0  0  0  0  0  0
   14.7021   67.6179    3.8406 H   0  0  0  0  0  0
   15.3517   68.5416    1.6498 H   0  0  0  0  0  0
   10.3860   64.5369    5.2562 H   0  0  0  0  0  0
   10.8809   62.8696    5.5902 H   0  0  0  0  0  0
   11.0591   64.1042    6.8316 H   0  0  0  0  0  0
   19.7664   69.6820    1.8426 H   0  0  0  0  0  0
   21.5772   69.5766    3.5209 H   0  0  0  0  0  0
   21.1695   68.5644    5.7194 H   0  0  0  0  0  0
   18.9544   67.6870    6.2962 H   0  0  0  0  0  0
  1  2  2  0  0  0
  1  4  1  0  0  0
  2  3  1  0  0  0
  2  9  1  0  0  0
  3  5  2  0  0  0
  3 15  1  0  0  0
  4  8  1  0  0  0
  4  5  1  0  0  0
  5  6  1  0  0  0
  6  7  1  0  0  0
  6 26  1  0  0  0
  6 27  1  0  0  0
  7  8  1  0  0  0
  7 28  1  0  0  0
  7 29  1  0  0  0
  8 30  1  0  0  0
  8 31  1  0  0  0
  9 14  1  0  0  0
  9 10  2  0  0  0
 10 11  1  0  0  0
 11 19  1  0  0  0
 11 12  2  0  0  0
 12 13  1  0  0  0
 12 32  1  0  0  0
 13 14  2  0  0  0
 13 33  1  0  0  0
 14 34  1  0  0  0
 15 16  2  0  0  0
 15 20  1  0  0  0
 16 17  1  0  0  0
 16 35  1  0  0  0
 17 18  2  0  0  0
 17 36  1  0  0  0
 18 21  1  0  0  0
 19 37  1  0  0  0
 19 38  1  0  0  0
 19 39  1  0  0  0
 20 21  1  0  0  0
 20 25  2  0  0  0
 21 22  2  0  0  0
 22 23  1  0  0  0
 22 40  1  0  0  0
 23 24  2  0  0  0
 23 41  1  0  0  0
 24 25  1  0  0  0
 24 42  1  0  0  0
 25 43  1  0  0  0
M  END
> <s_m_entry_id>
34465

> <s_m_entry_name>
dock_pv.208

> <s_m_Source_Path>
/home/csk/Desktop/cluster/DUD-E-result/tgfr1

> <s_m_Source_File>
dock_pv.maegz

> <i_m_Source_File_Index>
208

> <chembl_id>
CHEMBL119976

> <chembl_pref_name>
None

> <i_lp_mmshare_version>
53161

> <r_lp_tautomer_probability>
1

> <s_lp_Force_Field>
OPLS_2005

> <r_lp_Energy>
40.063787

> <b_lp_Chiralities_Consistent>
1

> <s_lp_Variant>
CHEMBL4439_lig255-1

> <s_i_glide_gridfile>
glide-grid_3hmm

> <i_i_glide_lignum>
361

> <i_i_glide_rotatable_bonds>
2

> <r_i_docking_score>
-8.4045333875111

> <r_i_glide_ligand_efficiency>
-0.336181335500444

> <r_i_glide_ligand_efficiency_sa>
-0.983000187204671

> <r_i_glide_ligand_efficiency_ln>
-1.99212627638161

> <r_i_glide_gscore>
-8.4045333875111

> <r_i_glide_lipo>
-4.46593153797872

> <r_i_glide_hbond>
-0.0398246224235175

> <r_i_glide_metal>
0

> <r_i_glide_rewards>
-1.6934595762892

> <r_i_glide_evdw>
-43.3763275146484

> <r_i_glide_ecoul>
-2.59054446220398

> <r_i_glide_erotb>
0.352080394243353

> <r_i_glide_esite>
0

> <r_i_glide_emodel>
-68.1103800941256

> <r_i_glide_energy>
-45.9668719768524

> <r_i_glide_einternal>
2.64323210716248

> <i_i_glide_confnum>
7

> <i_i_glide_posenum>
144

> <r_i_glide_eff_state_penalty>
0

> <s_user_duplicate_titles>
CHEMBL4439_lig255,197656

> <i_f3d_flags>
0

> <s_m_subgroup_title>
dock_pv

> <s_m_subgroupid>
dock_pv

> <b_m_subgroup_collapsed>
1

$$$$
CHEMBL4439_lig177
                    3D
 Schrodinger Suite 2021-1.
 43 47  0  0  1  0            999 V2000
   19.9761   68.7197    4.8534 C   0  0  0  0  0  0
   20.1522   69.2573    3.5866 C   0  0  0  0  0  0
   19.1065   69.2579    2.6644 C   0  0  0  0  0  0
   18.7719   68.1242    5.1981 C   0  0  0  0  0  0
   17.6599   68.1516    4.3155 C   0  0  0  0  0  0
   17.8481   68.7190    3.0149 C   0  0  0  0  0  0
   16.8482   68.7776    2.0952 N   0  0  0  0  0  0
   15.6463   68.2556    2.4322 C   0  0  0  0  0  0
   15.3755   67.6715    3.6647 C   0  0  0  0  0  0
   16.3587   67.6600    4.6585 C   0  0  0  0  0  0
   15.9793   67.2237    6.0439 C   0  0  0  0  0  0
   15.1021   66.1766    6.4395 C   0  0  0  0  0  0
   15.0568   66.0583    7.7556 N   0  0  0  0  0  0
   16.3608   67.8058    7.2585 C   0  0  0  0  0  0
   15.8597   67.0016    8.2327 N   0  0  0  0  0  0
   16.2617   67.3612    9.5789 C   0  0  0  0  0  0
   17.4180   68.3207    9.2975 C   0  0  0  0  0  0
   17.1218   68.9338    7.9284 C   0  0  0  0  0  0
   14.3101   65.2369    5.5746 C   0  0  0  0  0  0
   14.8541   64.6389    4.4314 C   0  0  0  0  0  0
   14.0671   63.7619    3.6815 C   0  0  0  0  0  0
   12.7594   63.4950    4.0852 C   0  0  0  0  0  0
   12.2777   64.1292    5.2322 C   0  0  0  0  0  0
   13.0283   64.9916    5.9699 N   0  0  0  0  0  0
   10.8695   63.8746    5.7325 C   0  0  0  0  0  0
   21.3513   68.8590    6.1595 Br  0  0  0  0  0  0
   21.1018   69.7015    3.3251 H   0  0  0  0  0  0
   19.2477   69.6945    1.6850 H   0  0  0  0  0  0
   18.6898   67.6552    6.1641 H   0  0  0  0  0  0
   14.8783   68.3158    1.6745 H   0  0  0  0  0  0
   14.3762   67.3178    3.8659 H   0  0  0  0  0  0
   16.5713   66.4890   10.1554 H   0  0  0  0  0  0
   15.4670   67.8786   10.1045 H   0  0  0  0  0  0
   18.3593   67.7682    9.2616 H   0  0  0  0  0  0
   17.5223   69.0746   10.0766 H   0  0  0  0  0  0
   18.0462   69.2534    7.4516 H   0  0  0  0  0  0
   16.5005   69.8242    8.0314 H   0  0  0  0  0  0
   15.8670   64.8482    4.1250 H   0  0  0  0  0  0
   14.4676   63.2902    2.7979 H   0  0  0  0  0  0
   12.1385   62.8188    3.5147 H   0  0  0  0  0  0
   10.5499   62.8584    5.5022 H   0  0  0  0  0  0
   10.8050   63.9972    6.8146 H   0  0  0  0  0  0
   10.1733   64.5700    5.2635 H   0  0  0  0  0  0
  1  2  2  0  0  0
  1  4  1  0  0  0
  1 26  1  0  0  0
  2  3  1  0  0  0
  2 27  1  0  0  0
  3  6  2  0  0  0
  3 28  1  0  0  0
  4  5  2  0  0  0
  4 29  1  0  0  0
  5  6  1  0  0  0
  5 10  1  0  0  0
  6  7  1  0  0  0
  7  8  2  0  0  0
  8  9  1  0  0  0
  8 30  1  0  0  0
  9 10  2  0  0  0
  9 31  1  0  0  0
 10 11  1  0  0  0
 11 14  2  0  0  0
 11 12  1  0  0  0
 12 13  2  0  0  0
 12 19  1  0  0  0
 13 15  1  0  0  0
 14 15  1  0  0  0
 14 18  1  0  0  0
 15 16  1  0  0  0
 16 17  1  0  0  0
 16 32  1  0  0  0
 16 33  1  0  0  0
 17 18  1  0  0  0
 17 34  1  0  0  0
 17 35  1  0  0  0
 18 36  1  0  0  0
 18 37  1  0  0  0
 19 20  2  0  0  0
 19 24  1  0  0  0
 20 21  1  0  0  0
 20 38  1  0  0  0
 21 22  2  0  0  0
 21 39  1  0  0  0
 22 23  1  0  0  0
 22 40  1  0  0  0
 23 24  2  0  0  0
 23 25  1  0  0  0
 25 41  1  0  0  0
 25 42  1  0  0  0
 25 43  1  0  0  0
M  END
> <s_m_entry_id>
34466

> <s_m_entry_name>
dock_pv.209

> <s_m_Source_Path>
/home/csk/Desktop/cluster/DUD-E-result/tgfr1

> <s_m_Source_File>
dock_pv.maegz

> <i_m_Source_File_Index>
209

> <chembl_id>
CHEMBL260923

> <chembl_pref_name>
None

> <i_lp_mmshare_version>
53161

> <r_lp_tautomer_probability>
1

> <s_lp_Force_Field>
OPLS_2005

> <r_lp_Energy>
38.532897

> <b_lp_Chiralities_Consistent>
1

> <s_lp_Variant>
CHEMBL4439_lig177-1

> <s_i_glide_gridfile>
glide-grid_3hmm

> <i_i_glide_lignum>
269

> <i_i_glide_rotatable_bonds>
2

> <r_i_docking_score>
-8.39547709713717

> <r_i_glide_ligand_efficiency>
-0.322902965274507

> <r_i_glide_ligand_efficiency_sa>
-0.95659876406391

> <r_i_glide_ligand_efficiency_ln>
-1.97165024845541

> <r_i_glide_gscore>
-8.39547709713717

> <r_i_glide_lipo>
-4.80249037725186

> <r_i_glide_hbond>
-0.105115123855773

> <r_i_glide_metal>
0

> <r_i_glide_rewards>
-1.21798993363749

> <r_i_glide_evdw>
-45.1933479309082

> <r_i_glide_ecoul>
-1.66322958469391

> <r_i_glide_erotb>
0.239270171857457

> <r_i_glide_esite>
0

> <r_i_glide_emodel>
-68.7400927075486

> <r_i_glide_energy>
-46.8565775156021

> <r_i_glide_einternal>
4.13474798202515

> <i_i_glide_confnum>
7

> <i_i_glide_posenum>
382

> <r_i_glide_eff_state_penalty>
0

> <s_user_duplicate_titles>
CHEMBL4439_lig177,428947

> <i_f3d_flags>
0

> <s_m_subgroup_title>
dock_pv

> <s_m_subgroupid>
dock_pv

> <b_m_subgroup_collapsed>
1

$$$$
CHEMBL4439_lig85
                    3D
 Schrodinger Suite 2021-1.
 34 37  0  0  1  0            999 V2000
   17.0404   68.4526   10.1333 N   0  0  0  0  0  0
   16.7383   67.9781    8.8904 C   0  0  0  0  0  0
   17.3557   68.3179    7.8018 N   0  0  0  0  0  0
   16.8815   67.7317    6.7109 C   0  0  0  0  0  0
   15.7723   66.8678    6.9341 C   0  0  0  0  0  0
   15.4608   66.8569    8.6621 S   0  0  0  0  0  0
   14.9228   66.0077    6.0244 C   0  0  0  0  0  0
   15.4670   65.4389    4.8752 C   0  0  0  0  0  0
   14.7229   64.5570    4.0972 C   0  0  0  0  0  0
   13.3945   64.2780    4.4707 C   0  0  0  0  0  0
   12.6556   63.4246    3.7106 N   0  0  0  0  0  0
   11.3543   63.2590    4.0363 C   0  0  0  0  0  0
   10.7516   63.8559    5.1432 C   0  0  0  0  0  0
   11.5140   64.6883    5.9623 C   0  0  0  0  0  0
   12.8712   64.9288    5.6298 C   0  0  0  0  0  0
   13.6360   65.7567    6.4069 N   0  0  0  0  0  0
   17.5596   68.1105    5.4250 C   0  0  0  0  0  0
   18.9327   68.4174    5.4065 C   0  0  0  0  0  0
   19.5582   68.8494    4.2372 C   0  0  0  0  0  0
   18.8164   68.9920    3.0675 C   0  0  0  0  0  0
   17.4577   68.6873    3.0710 C   0  0  0  0  0  0
   16.5382   68.8698    1.6321 Cl  0  0  0  0  0  0
   16.8345   68.2506    4.2382 C   0  0  0  0  0  0
   17.7558   69.1590   10.2699 H   0  0  0  0  0  0
   16.5363   68.1463   10.9534 H   0  0  0  0  0  0
   16.4836   65.6590    4.6007 H   0  0  0  0  0  0
   15.1418   64.0879    3.2198 H   0  0  0  0  0  0
   10.7846   62.6318    3.3647 H   0  0  0  0  0  0
    9.7082   63.6789    5.3611 H   0  0  0  0  0  0
   11.0728   65.1630    6.8274 H   0  0  0  0  0  0
   19.5251   68.3238    6.3049 H   0  0  0  0  0  0
   20.6143   69.0752    4.2407 H   0  0  0  0  0  0
   19.2954   69.3346    2.1621 H   0  0  0  0  0  0
   15.7720   68.0566    4.2233 H   0  0  0  0  0  0
  1  2  1  0  0  0
  1 24  1  0  0  0
  1 25  1  0  0  0
  2  3  2  0  0  0
  2  6  1  0  0  0
  3  4  1  0  0  0
  4  5  2  0  0  0
  4 17  1  0  0  0
  5  6  1  0  0  0
  5  7  1  0  0  0
  7  8  2  0  0  0
  7 16  1  0  0  0
  8  9  1  0  0  0
  8 26  1  0  0  0
  9 10  2  0  0  0
  9 27  1  0  0  0
 10 11  1  0  0  0
 10 15  1  0  0  0
 11 12  2  0  0  0
 12 13  1  0  0  0
 12 28  1  0  0  0
 13 14  2  0  0  0
 13 29  1  0  0  0
 14 15  1  0  0  0
 14 30  1  0  0  0
 15 16  2  0  0  0
 17 18  2  0  0  0
 17 23  1  0  0  0
 18 19  1  0  0  0
 18 31  1  0  0  0
 19 20  2  0  0  0
 19 32  1  0  0  0
 20 21  1  0  0  0
 20 33  1  0  0  0
 21 22  1  0  0  0
 21 23  2  0  0  0
 23 34  1  0  0  0
M  END
> <s_m_entry_id>
34467

> <s_m_entry_name>
dock_pv.210

> <s_m_Source_Path>
/home/csk/Desktop/cluster/DUD-E-result/tgfr1

> <s_m_Source_File>
dock_pv.maegz

> <i_m_Source_File_Index>
210

> <chembl_id>
CHEMBL365663

> <chembl_pref_name>
GW780159X

> <i_lp_mmshare_version>
53161

> <r_lp_tautomer_probability>
1

> <s_lp_Force_Field>
OPLS_2005

> <r_lp_Energy>
20.412362

> <b_lp_Chiralities_Consistent>
1

> <s_lp_Variant>
CHEMBL4439_lig85-1

> <s_i_glide_gridfile>
glide-grid_3hmm

> <i_i_glide_lignum>
122

> <i_i_glide_rotatable_bonds>
2

> <r_i_docking_score>
-8.39370219375113

> <r_i_glide_ligand_efficiency>
-0.364943573641354

> <r_i_glide_ligand_efficiency_sa>
-1.03785097750295

> <r_i_glide_ligand_efficiency_ln>
-2.02967330033256

> <r_i_glide_gscore>
-8.39370219375113

> <r_i_glide_lipo>
-4.30296993997025

> <r_i_glide_hbond>
-0.249751981217357

> <r_i_glide_metal>
0

> <r_i_glide_rewards>
-1.55732374242424

> <r_i_glide_evdw>
-46.4922981262207

> <r_i_glide_ecoul>
-1.92410230636597

> <r_i_glide_erotb>
0.329573722126651

> <r_i_glide_esite>
0

> <r_i_glide_emodel>
-72.0120943878437

> <r_i_glide_energy>
-48.4164004325867

> <r_i_glide_einternal>
0.444494783878326

> <i_i_glide_confnum>
3

> <i_i_glide_posenum>
98

> <r_i_glide_eff_state_penalty>
0

> <s_user_duplicate_titles>
CHEMBL4439_lig85,312519

> <i_f3d_flags>
0

> <s_m_subgroup_title>
dock_pv

> <s_m_subgroupid>
dock_pv

> <b_m_subgroup_collapsed>
1

$$$$
CHEMBL4439_lig326
                    3D
 Schrodinger Suite 2021-1.
 50 54  0  0  1  0            999 V2000
   21.7583   68.0010   10.1147 C   0  0  0  0  0  0
   20.3951   67.8560   10.3900 C   0  0  0  0  0  0
   19.4377   68.4601    9.5708 C   0  0  0  0  0  0
   19.8772   69.2687    8.5165 C   0  0  0  0  0  0
   21.2274   69.3582    8.1915 C   0  0  0  0  0  0
   22.1773   68.7337    9.0018 C   0  0  0  0  0  0
   17.9329   68.2418    9.8061 C   0  0  0  0  0  0
   17.1792   67.6912    8.6683 N   0  0  0  0  0  0
   17.5277   68.0127    7.4258 N   0  0  0  0  0  0
   16.6475   67.5037    6.5964 C   0  0  0  0  0  0
   15.6469   66.8252    7.3347 C   0  0  0  0  0  0
   16.0034   66.9953    8.6725 C   0  0  0  0  0  0
   12.0364   65.8991    6.8320 C   0  0  0  0  0  0
   13.1962   66.4570    7.3558 C   0  0  0  0  0  0
   14.4438   66.1324    6.8292 C   0  0  0  0  0  0
   14.5544   65.1988    5.8002 C   0  0  0  0  0  0
   16.8154   67.7761    5.1160 C   0  0  0  0  0  0
   18.0476   68.2440    4.7616 N   0  0  0  0  0  0
   18.2798   68.6226    3.4852 C   0  0  0  0  0  0
   17.3061   68.5433    2.4905 C   0  0  0  0  0  0
   16.0452   68.0577    2.8435 C   0  0  0  0  0  0
   15.7951   67.6571    4.1609 C   0  0  0  0  0  0
   19.6652   69.1792    3.2329 C   0  0  0  0  0  0
   13.3929   64.6325    5.2318 C   0  0  0  0  0  0
   12.1117   64.9955    5.7514 C   0  0  0  0  0  0
   10.9544   64.5059    5.2318 N   0  0  0  0  0  0
   11.0409   63.6551    4.1860 C   0  0  0  0  0  0
   12.2470   63.2373    3.6318 C   0  0  0  0  0  0
   13.4409   63.7218    4.1519 C   0  0  0  0  0  0
   21.5963   70.0563    6.9716 C   0  0  0  0  0  0
   21.8670   70.6102    5.9945 N   0  0  0  0  0  0
   22.4875   67.5216   10.7507 H   0  0  0  0  0  0
   20.0885   67.2571   11.2342 H   0  0  0  0  0  0
   19.1551   69.7916    7.9051 H   0  0  0  0  0  0
   23.2310   68.8033    8.7690 H   0  0  0  0  0  0
   17.7821   67.5761   10.6571 H   0  0  0  0  0  0
   17.4685   69.1951   10.0637 H   0  0  0  0  0  0
   15.5353   66.7004    9.5994 H   0  0  0  0  0  0
   11.0668   66.1626    7.2313 H   0  0  0  0  0  0
   13.1208   67.1774    8.1577 H   0  0  0  0  0  0
   15.5223   64.9402    5.3942 H   0  0  0  0  0  0
   17.5118   68.8653    1.4806 H   0  0  0  0  0  0
   15.2594   68.0087    2.1038 H   0  0  0  0  0  0
   14.8006   67.3401    4.4292 H   0  0  0  0  0  0
   19.8184   69.4570    2.1890 H   0  0  0  0  0  0
   19.8192   70.0570    3.8547 H   0  0  0  0  0  0
   20.4286   68.4578    3.5260 H   0  0  0  0  0  0
   10.1051   63.2894    3.7893 H   0  0  0  0  0  0
   12.2612   62.5538    2.7962 H   0  0  0  0  0  0
   14.3906   63.4250    3.7303 H   0  0  0  0  0  0
  1  2  1  0  0  0
  1  6  2  0  0  0
  1 32  1  0  0  0
  2  3  2  0  0  0
  2 33  1  0  0  0
  3  7  1  0  0  0
  3  4  1  0  0  0
  4  5  2  0  0  0
  4 34  1  0  0  0
  5  6  1  0  0  0
  5 30  1  0  0  0
  6 35  1  0  0  0
  7  8  1  0  0  0
  7 36  1  0  0  0
  7 37  1  0  0  0
  8 12  1  0  0  0
  8  9  1  0  0  0
  9 10  2  0  0  0
 10 11  1  0  0  0
 10 17  1  0  0  0
 11 12  2  0  0  0
 11 15  1  0  0  0
 12 38  1  0  0  0
 13 14  2  0  0  0
 13 25  1  0  0  0
 13 39  1  0  0  0
 14 15  1  0  0  0
 14 40  1  0  0  0
 15 16  2  0  0  0
 16 24  1  0  0  0
 16 41  1  0  0  0
 17 18  1  0  0  0
 17 22  2  0  0  0
 18 19  2  0  0  0
 19 20  1  0  0  0
 19 23  1  0  0  0
 20 21  2  0  0  0
 20 42  1  0  0  0
 21 22  1  0  0  0
 21 43  1  0  0  0
 22 44  1  0  0  0
 23 45  1  0  0  0
 23 46  1  0  0  0
 23 47  1  0  0  0
 24 25  1  0  0  0
 24 29  2  0  0  0
 25 26  2  0  0  0
 26 27  1  0  0  0
 27 28  2  0  0  0
 27 48  1  0  0  0
 28 29  1  0  0  0
 28 49  1  0  0  0
 29 50  1  0  0  0
 30 31  3  0  0  0
M  END
> <s_m_entry_id>
34468

> <s_m_entry_name>
dock_pv.211

> <s_m_Source_Path>
/home/csk/Desktop/cluster/DUD-E-result/tgfr1

> <s_m_Source_File>
dock_pv.maegz

> <i_m_Source_File_Index>
211

> <chembl_id>
CHEMBL1163955

> <chembl_pref_name>
None

> <i_lp_mmshare_version>
53161

> <r_lp_tautomer_probability>
1

> <s_lp_Force_Field>
OPLS_2005

> <r_lp_Energy>
23.919165

> <b_lp_Chiralities_Consistent>
1

> <s_lp_Variant>
CHEMBL4439_lig326-1

> <s_i_glide_gridfile>
glide-grid_3hmm

> <i_i_glide_lignum>
459

> <i_i_glide_rotatable_bonds>
4

> <r_i_docking_score>
-8.39147402116279

> <r_i_glide_ligand_efficiency>
-0.27069271036009

> <r_i_glide_ligand_efficiency_sa>
-0.850348842095211

> <r_i_glide_ligand_efficiency_ln>
-1.89253455956627

> <r_i_glide_gscore>
-8.39147402116279

> <r_i_glide_lipo>
-4.3682825887945

> <r_i_glide_hbond>
-0.127846003328397

> <r_i_glide_metal>
0

> <r_i_glide_rewards>
-1.42695822671647

> <r_i_glide_evdw>
-55.9072532653809

> <r_i_glide_ecoul>
-1.06543672084808

> <r_i_glide_erotb>
0.486790969072829

> <r_i_glide_esite>
0

> <r_i_glide_emodel>
-84.4242389280579

> <r_i_glide_energy>
-56.9726899862289

> <r_i_glide_einternal>
3.83935475349426

> <i_i_glide_confnum>
25

> <i_i_glide_posenum>
142

> <r_i_glide_eff_state_penalty>
0

> <s_user_duplicate_titles>
CHEMBL4439_lig326,645944

> <i_f3d_flags>
0

> <s_m_subgroup_title>
dock_pv

> <s_m_subgroupid>
dock_pv

> <b_m_subgroup_collapsed>
1

$$$$
CHEMBL4439_lig951 
                    3D
 Schrodinger Suite 2021-1.
 50 54  0  0  1  0            999 V2000
   17.0042   68.5171    2.0857 C   0  0  0  0  0  0
   18.3350   68.9262    2.1707 C   0  0  0  0  0  0
   18.9672   68.8571    3.4132 C   0  0  0  0  0  0
   18.3258   68.4398    4.5318 N   0  0  0  0  0  0
   17.0148   68.0960    4.4592 C   0  0  0  0  0  0
   16.3376   68.0705    3.2307 C   0  0  0  0  0  0
   18.8411   69.0541    7.3666 C   0  0  0  0  0  0
   17.9939   68.0310    7.8132 C   0  0  0  0  0  0
   18.3799   67.2585    8.9224 C   0  0  0  0  0  0
   19.6043   67.4397    9.5690 C   0  0  0  0  0  0
   20.1062   69.1874    7.9509 C   0  0  0  0  0  0
   20.4815   68.3900    9.0422 C   0  0  0  0  0  0
   21.7250   68.6141    9.5287 N   0  0  0  0  0  0
   22.3498   69.8165    8.5487 S   0  0  0  0  0  0
   21.0499   70.0570    7.5231 N   0  0  0  0  0  0
   16.6801   67.7490    7.1284 C   0  0  0  0  0  0
   16.3149   67.8039    5.7588 C   0  0  0  0  0  0
   14.9777   67.4967    5.7836 N   0  0  0  0  0  0
   14.6563   67.1180    7.0506 C   0  0  0  0  0  0
   15.6538   67.3333    7.8662 N   0  0  0  0  0  0
   13.3355   66.4993    7.4817 C   0  0  0  0  0  0
   12.4924   65.7805    6.5185 N   0  0  0  0  0  0
   12.8571   64.8595    5.5136 C   0  0  0  0  0  0
   14.1871   64.6450    5.1237 C   0  0  0  0  0  0
   14.4846   63.8983    3.9909 C   0  0  0  0  0  0
   13.4670   63.2558    3.2972 C   0  0  0  0  0  0
   12.1535   63.3454    3.7431 C   0  0  0  0  0  0
   11.8371   64.1654    4.8293 C   0  0  0  0  0  0
   20.4179   69.2577    3.6023 C   0  0  0  0  0  0
   10.3741   64.2764    5.2326 C   0  0  0  0  0  0
   16.4776   68.5612    1.1438 H   0  0  0  0  0  0
   18.8608   69.2756    1.2940 H   0  0  0  0  0  0
   15.2995   67.7903    3.1577 H   0  0  0  0  0  0
   18.5515   69.7092    6.5643 H   0  0  0  0  0  0
   17.7179   66.4928    9.2973 H   0  0  0  0  0  0
   19.8701   66.8573   10.4362 H   0  0  0  0  0  0
   14.3718   67.4137    4.9802 H   0  0  0  0  0  0
   12.6905   67.2564    7.9311 H   0  0  0  0  0  0
   13.5389   65.8078    8.2850 H   0  0  0  0  0  0
   11.5041   65.7997    6.7283 H   0  0  0  0  0  0
   15.0203   65.0564    5.6641 H   0  0  0  0  0  0
   15.5097   63.7811    3.6699 H   0  0  0  0  0  0
   13.6977   62.6525    2.4315 H   0  0  0  0  0  0
   11.3785   62.8214    3.2040 H   0  0  0  0  0  0
   20.8504   69.6516    2.6828 H   0  0  0  0  0  0
   20.5068   70.0215    4.3749 H   0  0  0  0  0  0
   21.0131   68.3967    3.9130 H   0  0  0  0  0  0
   10.2680   64.0510    6.2918 H   0  0  0  0  0  0
   10.0101   65.2874    5.0544 H   0  0  0  0  0  0
    9.7381   63.5711    4.6955 H   0  0  0  0  0  0
  1  2  2  0  0  0
  1  6  1  0  0  0
  1 31  1  0  0  0
  2  3  1  0  0  0
  2 32  1  0  0  0
  3  4  2  0  0  0
  3 29  1  0  0  0
  4  5  1  0  0  0
  5  6  2  0  0  0
  5 17  1  0  0  0
  6 33  1  0  0  0
  7 11  1  0  0  0
  7  8  2  0  0  0
  7 34  1  0  0  0
  8  9  1  0  0  0
  8 16  1  0  0  0
  9 10  2  0  0  0
  9 35  1  0  0  0
 10 12  1  0  0  0
 10 36  1  0  0  0
 11 12  1  0  0  0
 11 15  2  0  0  0
 12 13  2  0  0  0
 13 14  1  0  0  0
 14 15  1  0  0  0
 16 17  2  0  0  0
 16 20  1  0  0  0
 17 18  1  0  0  0
 18 19  1  0  0  0
 18 37  1  0  0  0
 19 20  2  0  0  0
 19 21  1  0  0  0
 21 22  1  0  0  0
 21 38  1  0  0  0
 21 39  1  0  0  0
 22 23  1  0  0  0
 22 40  1  0  0  0
 23 24  2  0  0  0
 23 28  1  0  0  0
 24 25  1  0  0  0
 24 41  1  0  0  0
 25 26  2  0  0  0
 25 42  1  0  0  0
 26 27  1  0  0  0
 26 43  1  0  0  0
 27 28  2  0  0  0
 27 44  1  0  0  0
 28 30  1  0  0  0
 29 45  1  0  0  0
 29 46  1  0  0  0
 29 47  1  0  0  0
 30 48  1  0  0  0
 30 49  1  0  0  0
 30 50  1  0  0  0
M  END
> <s_m_entry_id>
34469

> <s_m_entry_name>
dock_pv.212

> <s_m_Source_Path>
/home/csk/Desktop/cluster/DUD-E-result/tgfr1

> <s_m_Source_File>
dock_pv.maegz

> <i_m_Source_File_Index>
212

> <chembl_id>
CHEMBL4534375

> <chembl_pref_name>
None

> <i_lp_mmshare_version>
53161

> <r_lp_tautomer_probability>
0.499999999999999

> <s_lp_Force_Field>
OPLS_2005

> <r_lp_Energy>
15.143617

> <b_lp_Chiralities_Consistent>
1

> <s_lp_Variant>
CHEMBL4439_lig951 -1

> <s_i_glide_gridfile>
glide-grid_3hmm

> <i_i_glide_lignum>
1289

> <i_i_glide_rotatable_bonds>
5

> <r_i_docking_score>
-8.3860414861894

> <r_i_glide_ligand_efficiency>
-0.279534716206313

> <r_i_glide_ligand_efficiency_sa>
-0.868579355754107

> <r_i_glide_ligand_efficiency_ln>
-1.90539999890264

> <r_i_glide_gscore>
-8.3860414861894

> <r_i_glide_lipo>
-5.02580234526701

> <r_i_glide_hbond>
0

> <r_i_glide_metal>
0

> <r_i_glide_rewards>
-1.2325743205503

> <r_i_glide_evdw>
-54.9461936950684

> <r_i_glide_ecoul>
0.268132925033569

> <r_i_glide_erotb>
0.5794249256263

> <r_i_glide_esite>
0

> <r_i_glide_emodel>
-83.3274753506319

> <r_i_glide_energy>
-54.6780607700348

> <r_i_glide_einternal>
4.93800830841064

> <i_i_glide_confnum>
33

> <i_i_glide_posenum>
297

> <r_i_glide_eff_state_penalty>
0

> <s_user_duplicate_titles>
CHEMBL4439_lig951 ,CHEMBL4439_lig951 

> <i_f3d_flags>
0

> <s_m_subgroup_title>
dock_pv

> <s_m_subgroupid>
dock_pv

> <b_m_subgroup_collapsed>
1

$$$$
CHEMBL4439_lig287
                    3D
 Schrodinger Suite 2021-1.
 44 48  0  0  1  0            999 V2000
   17.0837   67.6785    6.5860 C   0  0  0  0  0  0
   17.8481   68.1326    7.5707 N   0  0  0  0  0  0
   17.3233   67.6529    8.6919 N   0  0  0  0  0  0
   17.7477   67.7142   10.0745 C   0  0  0  0  0  0
   16.4916   67.2026   10.7918 C   0  0  0  0  0  0
   15.7460   66.3205    9.7826 C   0  0  0  0  0  0
   16.0141   66.8825    7.0980 C   0  0  0  0  0  0
   16.2340   66.8724    8.4695 C   0  0  0  0  0  0
   14.9075   66.1553    6.4097 C   0  0  0  0  0  0
   15.1957   65.3252    5.3251 C   0  0  0  0  0  0
   12.5283   65.5691    6.3119 C   0  0  0  0  0  0
   13.5950   66.2710    6.8817 C   0  0  0  0  0  0
   17.4193   68.0580    5.1631 C   0  0  0  0  0  0
   16.4837   68.0530    4.1198 C   0  0  0  0  0  0
   16.8810   68.4568    2.8419 C   0  0  0  0  0  0
   18.1974   68.8679    2.6261 C   0  0  0  0  0  0
   19.0794   68.8538    3.7083 C   0  0  0  0  0  0
   18.7074   68.4555    4.9495 N   0  0  0  0  0  0
   12.8366   64.7199    5.2416 C   0  0  0  0  0  0
   14.1580   64.5847    4.7427 C   0  0  0  0  0  0
   14.2139   63.6804    3.7148 N   0  0  0  0  0  0
   12.9810   63.2593    3.5937 C   0  0  0  0  0  0
   12.0886   63.8722    4.4482 N   0  0  0  0  0  0
   20.5298   69.2735    3.5690 C   0  0  0  0  0  0
   10.6540   63.6552    4.5125 C   0  0  0  0  0  0
   18.6049   67.0588   10.2367 H   0  0  0  0  0  0
   18.0136   68.7318   10.3662 H   0  0  0  0  0  0
   15.8686   68.0550   11.0672 H   0  0  0  0  0  0
   16.7181   66.6759   11.7195 H   0  0  0  0  0  0
   14.6696   66.4095    9.9037 H   0  0  0  0  0  0
   16.0074   65.2682    9.8984 H   0  0  0  0  0  0
   16.2048   65.2569    4.9543 H   0  0  0  0  0  0
   11.5204   65.6677    6.6918 H   0  0  0  0  0  0
   13.3945   66.9253    7.7184 H   0  0  0  0  0  0
   15.4572   67.7687    4.2908 H   0  0  0  0  0  0
   16.1681   68.4618    2.0303 H   0  0  0  0  0  0
   18.5217   69.1897    1.6470 H   0  0  0  0  0  0
   12.6299   62.5401    2.8674 H   0  0  0  0  0  0
   20.7447   69.6587    2.5717 H   0  0  0  0  0  0
   20.7722   70.0534    4.2908 H   0  0  0  0  0  0
   21.1912   68.4270    3.7562 H   0  0  0  0  0  0
   10.3311   63.0164    3.6887 H   0  0  0  0  0  0
   10.4001   63.1912    5.4665 H   0  0  0  0  0  0
   10.1435   64.6158    4.4357 H   0  0  0  0  0  0
  1 13  1  0  0  0
  1  7  1  0  0  0
  1  2  2  0  0  0
  2  3  1  0  0  0
  3  8  1  0  0  0
  3  4  1  0  0  0
  4  5  1  0  0  0
  4 26  1  0  0  0
  4 27  1  0  0  0
  5  6  1  0  0  0
  5 28  1  0  0  0
  5 29  1  0  0  0
  6  8  1  0  0  0
  6 30  1  0  0  0
  6 31  1  0  0  0
  7  9  1  0  0  0
  7  8  2  0  0  0
  9 12  1  0  0  0
  9 10  2  0  0  0
 10 20  1  0  0  0
 10 32  1  0  0  0
 11 12  2  0  0  0
 11 19  1  0  0  0
 11 33  1  0  0  0
 12 34  1  0  0  0
 13 14  2  0  0  0
 13 18  1  0  0  0
 14 15  1  0  0  0
 14 35  1  0  0  0
 15 16  2  0  0  0
 15 36  1  0  0  0
 16 17  1  0  0  0
 16 37  1  0  0  0
 17 18  2  0  0  0
 17 24  1  0  0  0
 19 20  2  0  0  0
 19 23  1  0  0  0
 20 21  1  0  0  0
 21 22  2  0  0  0
 22 23  1  0  0  0
 22 38  1  0  0  0
 23 25  1  0  0  0
 24 39  1  0  0  0
 24 40  1  0  0  0
 24 41  1  0  0  0
 25 42  1  0  0  0
 25 43  1  0  0  0
 25 44  1  0  0  0
M  END
> <s_m_entry_id>
34470

> <s_m_entry_name>
dock_pv.213

> <s_m_Source_Path>
/home/csk/Desktop/cluster/DUD-E-result/tgfr1

> <s_m_Source_File>
dock_pv.maegz

> <i_m_Source_File_Index>
213

> <chembl_id>
CHEMBL584901

> <chembl_pref_name>
None

> <i_lp_mmshare_version>
53161

> <r_lp_tautomer_probability>
1

> <s_lp_Force_Field>
OPLS_2005

> <r_lp_Energy>
37.410582

> <b_lp_Chiralities_Consistent>
1

> <s_lp_Variant>
CHEMBL4439_lig287-1

> <s_i_glide_gridfile>
glide-grid_3hmm

> <i_i_glide_lignum>
404

> <i_i_glide_rotatable_bonds>
2

> <r_i_docking_score>
-8.38282328856135

> <r_i_glide_ligand_efficiency>
-0.335312931542454

> <r_i_glide_ligand_efficiency_sa>
-0.980460958630297

> <r_i_glide_ligand_efficiency_ln>
-1.98698033233136

> <r_i_glide_gscore>
-8.38282328856135

> <r_i_glide_lipo>
-3.92244259452385

> <r_i_glide_hbond>
0

> <r_i_glide_metal>
0

> <r_i_glide_rewards>
-2.25467836878518

> <r_i_glide_evdw>
-50.1296081542969

> <r_i_glide_ecoul>
-0.304339587688446

> <r_i_glide_erotb>
0.34642902061579

> <r_i_glide_esite>
0

> <r_i_glide_emodel>
-73.1793442409917

> <r_i_glide_energy>
-50.4339477419853

> <r_i_glide_einternal>
0.981899321079254

> <i_i_glide_confnum>
8

> <i_i_glide_posenum>
47

> <r_i_glide_eff_state_penalty>
0

> <s_user_duplicate_titles>
CHEMBL4439_lig287

> <i_f3d_flags>
0

> <s_m_subgroup_title>
dock_pv

> <s_m_subgroupid>
dock_pv

> <b_m_subgroup_collapsed>
1

$$$$
CHEMBL4439_lig829
                    3D
 Schrodinger Suite 2021-1.
 50 53  0  0  1  0            999 V2000
   16.6678   67.4509    6.3750 C   0  0  0  0  0  0
   14.8402   66.0668    7.9825 N   0  0  0  0  0  0
   14.8034   66.0819    6.6250 C   0  0  0  0  0  0
   15.6747   66.7277    5.8161 N   0  0  0  0  0  0
   15.8428   66.8017    8.5003 N   0  0  0  0  0  0
   16.8008   67.5461    7.7728 C   0  0  0  0  0  0
   17.6308   68.2084    8.7224 C   0  0  0  0  0  0
   17.1849   67.8237    9.9805 C   0  0  0  0  0  0
   16.1096   66.9533    9.8406 C   0  0  0  0  0  0
   13.7248   65.3106    5.9450 C   0  0  0  0  0  0
   14.1034   64.6458    4.8187 N   0  0  0  0  0  0
   13.1844   63.9286    4.1358 C   0  0  0  0  0  0
   11.8570   63.8180    4.5473 C   0  0  0  0  0  0
   11.4682   64.4972    5.7026 C   0  0  0  0  0  0
   12.4041   65.2571    6.4157 C   0  0  0  0  0  0
   17.5867   68.1016    5.5389 N   0  0  0  0  0  0
   17.5993   68.4577    4.1697 C   0  0  0  0  0  0
   16.4675   68.2815    3.3564 C   0  0  0  0  0  0
   16.4974   68.7051    2.0317 C   0  0  0  0  0  0
   17.5878   69.2565    1.4577 N   0  0  0  0  0  0
   18.6855   69.4145    2.2316 C   0  0  0  0  0  0
   18.7455   69.0514    3.5852 C   0  0  0  0  0  0
   13.6972   63.2921    2.8662 C   0  0  0  0  0  0
   20.0484   69.2516    4.3180 C   0  0  0  0  0  0
   19.9685   69.8005    5.5456 N   0  0  0  0  0  0
   21.1037   68.9036    3.7947 O   0  0  0  0  0  0
   21.0245   69.8193    6.5639 C   0  0  0  0  0  0
   22.3568   70.4409    6.1093 C   0  0  0  0  0  0
   21.2369   68.4312    7.1912 C   0  0  0  0  0  0
   18.4439   68.8969    8.5443 H   0  0  0  0  0  0
   17.6045   68.1597   10.9177 H   0  0  0  0  0  0
   15.5102   66.4672   10.5944 H   0  0  0  0  0  0
   11.1461   63.2429    3.9759 H   0  0  0  0  0  0
   10.4438   64.4380    6.0403 H   0  0  0  0  0  0
   12.1054   65.7905    7.3053 H   0  0  0  0  0  0
   18.4086   68.4183    6.0327 H   0  0  0  0  0  0
   15.5451   67.8691    3.7248 H   0  0  0  0  0  0
   15.6284   68.5856    1.3989 H   0  0  0  0  0  0
   19.5379   69.8542    1.7313 H   0  0  0  0  0  0
   13.0287   62.5264    2.4738 H   0  0  0  0  0  0
   13.8662   64.0534    2.1036 H   0  0  0  0  0  0
   14.6670   62.8561    3.0660 H   0  0  0  0  0  0
   19.0894   70.2203    5.8057 H   0  0  0  0  0  0
   20.6475   70.4563    7.3647 H   0  0  0  0  0  0
   23.0604   70.4567    6.9440 H   0  0  0  0  0  0
   22.2604   71.4627    5.7448 H   0  0  0  0  0  0
   22.8493   69.8519    5.3358 H   0  0  0  0  0  0
   22.0795   68.4460    7.8832 H   0  0  0  0  0  0
   20.3723   68.0994    7.7645 H   0  0  0  0  0  0
   21.4623   67.6761    6.4328 H   0  0  0  0  0  0
  1  6  1  0  0  0
  1  4  2  0  0  0
  1 16  1  0  0  0
  2  5  1  0  0  0
  2  3  2  0  0  0
  3  4  1  0  0  0
  3 10  1  0  0  0
  5  6  1  0  0  0
  5  9  1  0  0  0
  6  7  2  0  0  0
  7  8  1  0  0  0
  7 30  1  0  0  0
  8  9  2  0  0  0
  8 31  1  0  0  0
  9 32  1  0  0  0
 10 11  2  0  0  0
 10 15  1  0  0  0
 11 12  1  0  0  0
 12 13  2  0  0  0
 12 23  1  0  0  0
 13 14  1  0  0  0
 13 33  1  0  0  0
 14 15  2  0  0  0
 14 34  1  0  0  0
 15 35  1  0  0  0
 16 17  1  0  0  0
 16 36  1  0  0  0
 17 18  2  0  0  0
 17 22  1  0  0  0
 18 19  1  0  0  0
 18 37  1  0  0  0
 19 20  2  0  0  0
 19 38  1  0  0  0
 20 21  1  0  0  0
 21 22  2  0  0  0
 21 39  1  0  0  0
 22 24  1  0  0  0
 23 40  1  0  0  0
 23 41  1  0  0  0
 23 42  1  0  0  0
 24 25  1  0  0  0
 24 26  2  0  0  0
 25 27  1  0  0  0
 25 43  1  0  0  0
 27 28  1  0  0  0
 27 29  1  0  0  0
 27 44  1  0  0  0
 28 45  1  0  0  0
 28 46  1  0  0  0
 28 47  1  0  0  0
 29 48  1  0  0  0
 29 49  1  0  0  0
 29 50  1  0  0  0
M  END
> <s_m_entry_id>
34471

> <s_m_entry_name>
dock_pv.214

> <s_m_Source_Path>
/home/csk/Desktop/cluster/DUD-E-result/tgfr1

> <s_m_Source_File>
dock_pv.maegz

> <i_m_Source_File_Index>
214

> <chembl_id>
CHEMBL4210079

> <chembl_pref_name>
None

> <i_lp_mmshare_version>
53161

> <r_lp_tautomer_probability>
0.999999106000799

> <s_lp_Force_Field>
OPLS_2005

> <r_lp_Energy>
37.939116

> <b_lp_Chiralities_Consistent>
1

> <s_lp_Variant>
CHEMBL4439_lig829-1

> <s_i_glide_gridfile>
glide-grid_3hmm

> <i_i_glide_lignum>
1147

> <i_i_glide_rotatable_bonds>
6

> <r_i_docking_score>
-8.37922616601608

> <r_i_glide_ligand_efficiency>
-0.288938833310899

> <r_i_glide_ligand_efficiency_sa>
-0.887711638178718

> <r_i_glide_ligand_efficiency_ln>
-1.91863031317529

> <r_i_glide_gscore>
-8.37922616601608

> <r_i_glide_lipo>
-3.47759427475345

> <r_i_glide_hbond>
-0.299705649088892

> <r_i_glide_metal>
0

> <r_i_glide_rewards>
-2.07316494030721

> <r_i_glide_evdw>
-54.9760704040527

> <r_i_glide_ecoul>
-2.85743093490601

> <r_i_glide_erotb>
0.648656858572012

> <r_i_glide_esite>
0

> <r_i_glide_emodel>
-83.9706872723397

> <r_i_glide_energy>
-57.8335013389587

> <r_i_glide_einternal>
7.00210189819336

> <i_i_glide_confnum>
29

> <i_i_glide_posenum>
320

> <r_i_glide_eff_state_penalty>
0

> <s_user_duplicate_titles>
CHEMBL4439_lig829

> <i_f3d_flags>
0

> <s_m_subgroup_title>
dock_pv

> <s_m_subgroupid>
dock_pv

> <b_m_subgroup_collapsed>
1

$$$$
CHEMBL4439_lig874
                    3D
 Schrodinger Suite 2021-1.
 60 64  0  0  1  0            999 V2000
   25.1129   69.6005    2.0581 O   0  0  0  0  0  0
   24.0874   70.4619    1.4753 S   0  0  0  0  0  0
   23.8313   70.4571    0.0332 O   0  0  0  0  0  0
   22.5758   70.0515    2.3101 C   0  0  0  0  0  0
   22.6452   69.6716    3.6486 C   0  0  0  0  0  0
   21.5009   69.2571    4.3085 C   0  0  0  0  0  0
   20.2824   69.2126    3.6439 C   0  0  0  0  0  0
   20.1984   69.6567    2.3151 C   0  0  0  0  0  0
   21.3542   70.0572    1.6377 C   0  0  0  0  0  0
   19.2261   68.6628    4.3821 N   0  0  0  0  0  0
   17.9001   68.3291    4.0983 C   0  0  0  0  0  0
   17.1766   67.6667    5.0940 C   0  0  0  0  0  0
   15.8247   67.3544    4.9058 C   0  0  0  0  0  0
   15.2865   67.6573    3.6498 C   0  0  0  0  0  0
   16.0641   68.3025    2.6852 C   0  0  0  0  0  0
   17.3550   68.6496    2.9015 N   0  0  0  0  0  0
   13.7519   66.4567    7.8956 N   0  0  0  0  0  0
   13.1302   65.8644    6.8921 N   0  0  0  0  0  0
   13.8244   65.9488    5.7362 C   0  0  0  0  0  0
   14.9119   66.7952    5.9699 C   0  0  0  0  0  0
   14.8764   66.9430    7.3970 C   0  0  0  0  0  0
   13.1210   65.1301    4.6969 C   0  0  0  0  0  0
   11.7587   64.7394    5.3392 C   0  0  0  0  0  0
   11.8727   65.1510    6.8273 C   0  0  0  0  0  0
   15.8486   67.5325    8.3834 C   0  0  0  0  0  0
   15.8948   67.0950    9.7158 C   0  0  0  0  0  0
   16.8947   67.5787   10.5600 C   0  0  0  0  0  0
   17.8456   68.4547   10.0512 C   0  0  0  0  0  0
   17.7355   68.8583    8.7192 C   0  0  0  0  0  0
   16.7303   68.4462    7.9118 N   0  0  0  0  0  0
   18.7815   69.7494    8.0774 C   0  0  0  0  0  0
   10.5428   65.4479    4.6842 C   0  0  0  0  0  0
   11.5723   63.2102    5.1969 C   0  0  0  0  0  0
   24.4200   72.0925    1.9871 N   0  0  0  0  0  0
   23.5923   69.6596    4.1754 H   0  0  0  0  0  0
   21.5833   68.9252    5.3360 H   0  0  0  0  0  0
   19.2719   69.6573    1.7678 H   0  0  0  0  0  0
   21.2904   70.3615    0.6010 H   0  0  0  0  0  0
   19.5044   68.3661    5.2975 H   0  0  0  0  0  0
   17.6772   67.3837    6.0058 H   0  0  0  0  0  0
   14.2690   67.4418    3.4088 H   0  0  0  0  0  0
   15.6469   68.5620    1.7216 H   0  0  0  0  0  0
   13.0363   65.6407    3.7515 H   0  0  0  0  0  0
   13.7303   64.2551    4.4645 H   0  0  0  0  0  0
   11.8684   64.2631    7.4490 H   0  0  0  0  0  0
   11.0685   65.8017    7.1717 H   0  0  0  0  0  0
   15.1814   66.3842   10.1048 H   0  0  0  0  0  0
   16.9523   67.2639   11.5919 H   0  0  0  0  0  0
   18.6509   68.8165   10.6701 H   0  0  0  0  0  0
   19.4483   70.1822    8.8244 H   0  0  0  0  0  0
   19.3996   69.1676    7.3838 H   0  0  0  0  0  0
   18.3221   70.5668    7.5244 H   0  0  0  0  0  0
    9.6443   64.8349    4.7322 H   0  0  0  0  0  0
   10.2674   66.3983    5.1436 H   0  0  0  0  0  0
   10.7236   65.6634    3.6323 H   0  0  0  0  0  0
   10.6657   62.8640    5.6991 H   0  0  0  0  0  0
   11.5040   62.9021    4.1498 H   0  0  0  0  0  0
   12.4171   62.6745    5.6308 H   0  0  0  0  0  0
   23.8108   72.7735    1.5278 H   0  0  0  0  0  0
   24.4645   72.2086    3.0034 H   0  0  0  0  0  0
  1  2  2  0  0  0
  2  3  2  0  0  0
  2  4  1  0  0  0
  2 34  1  0  0  0
  4  5  1  0  0  0
  4  9  2  0  0  0
  5  6  2  0  0  0
  5 35  1  0  0  0
  6  7  1  0  0  0
  6 36  1  0  0  0
  7  8  2  0  0  0
  7 10  1  0  0  0
  8  9  1  0  0  0
  8 37  1  0  0  0
  9 38  1  0  0  0
 10 11  1  0  0  0
 10 39  1  0  0  0
 11 12  1  0  0  0
 11 16  2  0  0  0
 12 13  2  0  0  0
 12 40  1  0  0  0
 13 14  1  0  0  0
 13 20  1  0  0  0
 14 15  2  0  0  0
 14 41  1  0  0  0
 15 16  1  0  0  0
 15 42  1  0  0  0
 17 18  1  0  0  0
 17 21  2  0  0  0
 18 19  1  0  0  0
 18 24  1  0  0  0
 19 20  2  0  0  0
 19 22  1  0  0  0
 20 21  1  0  0  0
 21 25  1  0  0  0
 22 23  1  0  0  0
 22 43  1  0  0  0
 22 44  1  0  0  0
 23 24  1  0  0  0
 23 32  1  0  0  0
 23 33  1  0  0  0
 24 45  1  0  0  0
 24 46  1  0  0  0
 25 26  1  0  0  0
 25 30  2  0  0  0
 26 27  2  0  0  0
 26 47  1  0  0  0
 27 28  1  0  0  0
 27 48  1  0  0  0
 28 29  2  0  0  0
 28 49  1  0  0  0
 29 30  1  0  0  0
 29 31  1  0  0  0
 31 50  1  0  0  0
 31 51  1  0  0  0
 31 52  1  0  0  0
 32 53  1  0  0  0
 32 54  1  0  0  0
 32 55  1  0  0  0
 33 56  1  0  0  0
 33 57  1  0  0  0
 33 58  1  0  0  0
 34 59  1  0  0  0
 34 60  1  0  0  0
M  END
> <s_m_entry_id>
34472

> <s_m_entry_name>
dock_pv.215

> <s_m_Source_Path>
/home/csk/Desktop/cluster/DUD-E-result/tgfr1

> <s_m_Source_File>
dock_pv.maegz

> <i_m_Source_File_Index>
215

> <chembl_id>
CHEMBL4292491

> <chembl_pref_name>
None

> <i_lp_mmshare_version>
53161

> <r_lp_tautomer_probability>
0.999999772200052

> <s_lp_Force_Field>
OPLS_2005

> <r_lp_Energy>
45.503111

> <b_lp_Chiralities_Consistent>
1

> <s_lp_Variant>
CHEMBL4439_lig874-1

> <s_i_glide_gridfile>
glide-grid_3hmm

> <i_i_glide_lignum>
1209

> <i_i_glide_rotatable_bonds>
5

> <r_i_docking_score>
-8.37063865791055

> <r_i_glide_ligand_efficiency>
-0.246195254644428

> <r_i_glide_ligand_efficiency_sa>
-0.797577051427089

> <r_i_glide_ligand_efficiency_ln>
-1.84930886799398

> <r_i_glide_gscore>
-8.37063865791055

> <r_i_glide_lipo>
-4.06990562496609

> <r_i_glide_hbond>
-0.214204364941296

> <r_i_glide_metal>
0

> <r_i_glide_rewards>
-0.614015894217652

> <r_i_glide_evdw>
-43.1553840637207

> <r_i_glide_ecoul>
-11.1609010696411

> <r_i_glide_erotb>
0.359391589846698

> <r_i_glide_esite>
0

> <r_i_glide_emodel>
-61.1844100237379

> <r_i_glide_energy>
-54.3162851333618

> <r_i_glide_einternal>
1.43741476535797

> <i_i_glide_confnum>
2

> <i_i_glide_posenum>
348

> <r_i_glide_eff_state_penalty>
0

> <s_user_duplicate_titles>
CHEMBL4439_lig874

> <i_f3d_flags>
0

> <s_m_subgroup_title>
dock_pv

> <s_m_subgroupid>
dock_pv

> <b_m_subgroup_collapsed>
1

$$$$
CHEMBL4439_lig903 
                    3D
 Schrodinger Suite 2021-1.
 50 54  0  0  1  0            999 V2000
   14.8691   66.1810    6.2288 C   0  0  0  0  0  0
   15.8185   67.0531    6.9104 C   0  0  0  0  0  0
   16.9021   67.8287    6.4131 C   0  0  0  0  0  0
   17.5336   68.4374    7.4033 N   0  0  0  0  0  0
   16.9115   68.0891    8.5296 N   0  0  0  0  0  0
   15.8232   67.3006    8.2760 C   0  0  0  0  0  0
   17.3514   68.0802    4.9990 C   0  0  0  0  0  0
   16.4735   68.0528    3.9107 C   0  0  0  0  0  0
   16.9312   68.4509    2.6530 C   0  0  0  0  0  0
   18.2581   68.8573    2.5013 C   0  0  0  0  0  0
   19.0888   68.8482    3.6237 C   0  0  0  0  0  0
   18.6550   68.4580    4.8491 N   0  0  0  0  0  0
   20.5463   69.2611    3.5414 C   0  0  0  0  0  0
   17.3388   68.7116    9.7836 C   0  0  0  0  0  0
   17.4113   67.7944   11.0096 C   0  0  0  0  0  0
   18.3488   68.1258   11.9174 N   0  0  0  0  0  0
   16.6245   66.8570   11.1326 O   0  0  0  0  0  0
   18.5778   67.5288   13.1650 C   0  0  0  0  0  0
   17.5525   67.0071   13.9737 C   0  0  0  0  0  0
   17.8573   66.4567   15.2204 C   0  0  0  0  0  0
   19.1802   66.4137   15.6645 C   0  0  0  0  0  0
   20.2013   66.9329   14.8662 C   0  0  0  0  0  0
   19.8976   67.5010   13.6292 C   0  0  0  0  0  0
   15.1179   65.3550    5.1524 C   0  0  0  0  0  0
   13.2082   66.0586    6.7852 S   0  0  0  0  0  0
   12.8384   64.8879    5.5314 C   0  0  0  0  0  0
   13.9878   64.6038    4.7387 C   0  0  0  0  0  0
   13.8365   63.6572    3.7127 C   0  0  0  0  0  0
   12.6546   63.0483    3.4519 N   0  0  0  0  0  0
   11.5800   63.3592    4.2134 C   0  0  0  0  0  0
   11.6072   64.2650    5.2716 C   0  0  0  0  0  0
   21.4831   66.9013   15.3046 F   0  0  0  0  0  0
   15.1760   66.9728    9.0743 H   0  0  0  0  0  0
   15.4345   67.7863    4.0411 H   0  0  0  0  0  0
   16.2591   68.4572    1.8077 H   0  0  0  0  0  0
   18.6262   69.1729    1.5380 H   0  0  0  0  0  0
   20.7853   69.6705    2.5589 H   0  0  0  0  0  0
   20.7742   70.0168    4.2919 H   0  0  0  0  0  0
   21.1959   68.4021    3.7180 H   0  0  0  0  0  0
   16.6667   69.5358    9.9982 H   0  0  0  0  0  0
   18.3237   69.1591    9.6290 H   0  0  0  0  0  0
   19.0196   68.8236   11.6326 H   0  0  0  0  0  0
   16.5211   67.0317   13.6481 H   0  0  0  0  0  0
   17.0693   66.0600   15.8451 H   0  0  0  0  0  0
   19.4153   65.9757   16.6253 H   0  0  0  0  0  0
   20.7043   67.8938   13.0260 H   0  0  0  0  0  0
   16.0773   65.2916    4.6634 H   0  0  0  0  0  0
   14.6597   63.3925    3.0658 H   0  0  0  0  0  0
   10.6597   62.8599    3.9455 H   0  0  0  0  0  0
   10.7251   64.4837    5.8595 H   0  0  0  0  0  0
  1  2  1  0  0  0
  1 24  2  0  0  0
  1 25  1  0  0  0
  2  3  1  0  0  0
  2  6  2  0  0  0
  3  4  2  0  0  0
  3  7  1  0  0  0
  4  5  1  0  0  0
  5  6  1  0  0  0
  5 14  1  0  0  0
  6 33  1  0  0  0
  7  8  2  0  0  0
  7 12  1  0  0  0
  8  9  1  0  0  0
  8 34  1  0  0  0
  9 10  2  0  0  0
  9 35  1  0  0  0
 10 11  1  0  0  0
 10 36  1  0  0  0
 11 12  2  0  0  0
 11 13  1  0  0  0
 13 37  1  0  0  0
 13 38  1  0  0  0
 13 39  1  0  0  0
 14 15  1  0  0  0
 14 40  1  0  0  0
 14 41  1  0  0  0
 15 16  1  0  0  0
 15 17  2  0  0  0
 16 18  1  0  0  0
 16 42  1  0  0  0
 18 19  2  0  0  0
 18 23  1  0  0  0
 19 20  1  0  0  0
 19 43  1  0  0  0
 20 21  2  0  0  0
 20 44  1  0  0  0
 21 22  1  0  0  0
 21 45  1  0  0  0
 22 23  2  0  0  0
 22 32  1  0  0  0
 23 46  1  0  0  0
 24 27  1  0  0  0
 24 47  1  0  0  0
 25 26  1  0  0  0
 26 27  2  0  0  0
 26 31  1  0  0  0
 27 28  1  0  0  0
 28 29  2  0  0  0
 28 48  1  0  0  0
 29 30  1  0  0  0
 30 31  2  0  0  0
 30 49  1  0  0  0
 31 50  1  0  0  0
M  END
> <s_m_entry_id>
34473

> <s_m_entry_name>
dock_pv.216

> <s_m_Source_Path>
/home/csk/Desktop/cluster/DUD-E-result/tgfr1

> <s_m_Source_File>
dock_pv.maegz

> <i_m_Source_File_Index>
216

> <chembl_id>
CHEMBL4520187

> <chembl_pref_name>
None

> <i_lp_mmshare_version>
53161

> <r_lp_tautomer_probability>
1

> <s_lp_Force_Field>
OPLS_2005

> <r_lp_Energy>
27.809795

> <b_lp_Chiralities_Consistent>
1

> <s_lp_Variant>
CHEMBL4439_lig903 -1

> <s_i_glide_gridfile>
glide-grid_3hmm

> <i_i_glide_lignum>
1238

> <i_i_glide_rotatable_bonds>
6

> <r_i_docking_score>
-8.37037888498056

> <r_i_glide_ligand_efficiency>
-0.261574340155643

> <r_i_glide_ligand_efficiency_sa>
-0.83044676450254

> <r_i_glide_ligand_efficiency_ln>
-1.87435600025807

> <r_i_glide_gscore>
-8.37037888498056

> <r_i_glide_lipo>
-4.19002561010794

> <r_i_glide_hbond>
0

> <r_i_glide_metal>
0

> <r_i_glide_rewards>
-1.33743869248119

> <r_i_glide_evdw>
-59.3426132202148

> <r_i_glide_ecoul>
-2.55999851226807

> <r_i_glide_erotb>
0.508215855459513

> <r_i_glide_esite>
0

> <r_i_glide_emodel>
-88.9299177382168

> <r_i_glide_energy>
-61.9026117324829

> <r_i_glide_einternal>
5.43556880950928

> <i_i_glide_confnum>
3

> <i_i_glide_posenum>
88

> <r_i_glide_eff_state_penalty>
0

> <s_user_duplicate_titles>
CHEMBL4439_lig903 

> <i_f3d_flags>
0

> <s_m_subgroup_title>
dock_pv

> <s_m_subgroupid>
dock_pv

> <b_m_subgroup_collapsed>
1

$$$$
CHEMBL4439_lig769
                    3D
 Schrodinger Suite 2021-1.
 40 44  0  0  1  0            999 V2000
   19.9520   67.3759   10.0493 C   0  0  0  0  0  0
   18.5986   67.6868    9.4495 C   0  0  0  0  0  0
   17.5058   68.0314   10.2477 C   0  0  0  0  0  0
   16.3179   68.4041    9.6186 C   0  0  0  0  0  0
   16.2525   68.4305    8.2239 C   0  0  0  0  0  0
   17.3732   68.0185    7.4929 C   0  0  0  0  0  0
   18.5403   67.6573    8.0950 N   0  0  0  0  0  0
   17.3886   68.0564    6.0812 N   0  0  0  0  0  0
   18.3403   68.8282    5.5044 N   0  0  0  0  0  0
   18.1136   68.7268    4.2262 C   0  0  0  0  0  0
   18.6769   69.3836    3.0012 C   0  0  0  0  0  0
   17.6617   68.9823    1.9205 C   0  0  0  0  0  0
   16.9347   67.7385    2.4427 C   0  0  0  0  0  0
   17.0794   67.8783    3.9296 C   0  0  0  0  0  0
   16.5709   67.4256    5.1393 C   0  0  0  0  0  0
   15.4633   66.4684    5.2875 C   0  0  0  0  0  0
   15.2455   65.3893    4.4472 C   0  0  0  0  0  0
   14.0052   64.7361    4.6532 C   0  0  0  0  0  0
   13.4265   63.6563    3.9683 C   0  0  0  0  0  0
   12.1446   63.2563    4.3384 C   0  0  0  0  0  0
   11.4378   63.8229    5.3444 N   0  0  0  0  0  0
   11.9938   64.8487    6.0327 C   0  0  0  0  0  0
   13.2747   65.3235    5.7196 C   0  0  0  0  0  0
   14.1766   66.6262    6.4682 S   0  0  0  0  0  0
   19.8915   67.2586   11.1314 H   0  0  0  0  0  0
   20.3565   66.4570    9.6295 H   0  0  0  0  0  0
   20.6503   68.1854    9.8343 H   0  0  0  0  0  0
   17.5821   68.0455   11.3250 H   0  0  0  0  0  0
   15.4673   68.6979   10.2137 H   0  0  0  0  0  0
   15.3597   68.7851    7.7314 H   0  0  0  0  0  0
   19.6937   69.0643    2.7736 H   0  0  0  0  0  0
   18.6672   70.4583    3.1051 H   0  0  0  0  0  0
   18.1343   68.8113    0.9523 H   0  0  0  0  0  0
   16.9397   69.7896    1.7793 H   0  0  0  0  0  0
   17.4671   66.8540    2.0945 H   0  0  0  0  0  0
   15.8975   67.6950    2.1100 H   0  0  0  0  0  0
   15.9229   65.1046    3.6576 H   0  0  0  0  0  0
   13.9330   63.1829    3.1410 H   0  0  0  0  0  0
   11.6523   62.4585    3.8028 H   0  0  0  0  0  0
   11.4053   65.2763    6.8329 H   0  0  0  0  0  0
  1  2  1  0  0  0
  1 25  1  0  0  0
  1 26  1  0  0  0
  1 27  1  0  0  0
  2  3  2  0  0  0
  2  7  1  0  0  0
  3  4  1  0  0  0
  3 28  1  0  0  0
  4  5  2  0  0  0
  4 29  1  0  0  0
  5  6  1  0  0  0
  5 30  1  0  0  0
  6  7  2  0  0  0
  6  8  1  0  0  0
  8  9  1  0  0  0
  8 15  1  0  0  0
  9 10  2  0  0  0
 10 11  1  0  0  0
 10 14  1  0  0  0
 11 12  1  0  0  0
 11 31  1  0  0  0
 11 32  1  0  0  0
 12 13  1  0  0  0
 12 33  1  0  0  0
 12 34  1  0  0  0
 13 14  1  0  0  0
 13 35  1  0  0  0
 13 36  1  0  0  0
 14 15  2  0  0  0
 15 16  1  0  0  0
 16 17  2  0  0  0
 16 24  1  0  0  0
 17 18  1  0  0  0
 17 37  1  0  0  0
 18 19  2  0  0  0
 18 23  1  0  0  0
 19 20  1  0  0  0
 19 38  1  0  0  0
 20 21  2  0  0  0
 20 39  1  0  0  0
 21 22  1  0  0  0
 22 23  2  0  0  0
 22 40  1  0  0  0
 23 24  1  0  0  0
M  END
> <s_m_entry_id>
34474

> <s_m_entry_name>
dock_pv.217

> <s_m_Source_Path>
/home/csk/Desktop/cluster/DUD-E-result/tgfr1

> <s_m_Source_File>
dock_pv.maegz

> <i_m_Source_File_Index>
217

> <chembl_id>
CHEMBL3704655

> <chembl_pref_name>
None

> <i_lp_mmshare_version>
53161

> <r_lp_tautomer_probability>
1

> <s_lp_Force_Field>
OPLS_2005

> <r_lp_Energy>
29.60741

> <b_lp_Chiralities_Consistent>
1

> <s_lp_Variant>
CHEMBL4439_lig769-1

> <s_i_glide_gridfile>
glide-grid_3hmm

> <i_i_glide_lignum>
1083

> <i_i_glide_rotatable_bonds>
2

> <r_i_docking_score>
-8.36806292432697

> <r_i_glide_ligand_efficiency>
-0.348669288513624

> <r_i_glide_ligand_efficiency_sa>
-1.0057362620109

> <r_i_glide_ligand_efficiency_ln>
-2.00286144317822

> <r_i_glide_gscore>
-8.36806292432697

> <r_i_glide_lipo>
-4.63199618110592

> <r_i_glide_hbond>
0

> <r_i_glide_metal>
0

> <r_i_glide_rewards>
-1.89348898800789

> <r_i_glide_evdw>
-44.8751678466797

> <r_i_glide_ecoul>
0.402033627033234

> <r_i_glide_erotb>
0.340875593065842

> <r_i_glide_esite>
0

> <r_i_glide_emodel>
-63.3797075582906

> <r_i_glide_energy>
-44.4731342196465

> <r_i_glide_einternal>
1.7240161895752

> <i_i_glide_confnum>
3

> <i_i_glide_posenum>
117

> <r_i_glide_eff_state_penalty>
0

> <s_user_duplicate_titles>
CHEMBL4439_lig769

> <i_f3d_flags>
0

> <s_m_subgroup_title>
dock_pv

> <s_m_subgroupid>
dock_pv

> <b_m_subgroup_collapsed>
1

$$$$
CHEMBL4439_lig308
                    3D
 Schrodinger Suite 2021-1.
 44 47  0  0  1  0            999 V2000
   16.1479   66.9761    7.2699 C   0  0  0  0  0  0
   17.2165   67.7335    6.9025 C   0  0  0  0  0  0
   17.8838   68.1114    8.0600 N   0  0  0  0  0  0
   17.2190   67.5263    9.1201 N   0  0  0  0  0  0
   16.1841   66.7750    8.7080 C   0  0  0  0  0  0
   15.4670   66.0570    9.4047 O   0  0  0  0  0  0
   17.7722   67.5088   10.4803 C   0  0  0  0  0  0
   18.1272   69.5338    8.3115 C   0  0  0  0  0  0
   17.6964   68.1508    5.5471 C   0  0  0  0  0  0
   16.8322   68.2429    4.4481 C   0  0  0  0  0  0
   17.2796   68.5962    3.1784 C   0  0  0  0  0  0
   19.0488   68.4728    5.3557 C   0  0  0  0  0  0
   19.5307   68.8888    4.0950 C   0  0  0  0  0  0
   18.6345   68.9276    2.9840 C   0  0  0  0  0  0
   19.0670   69.2941    1.7463 N   0  0  0  0  0  0
   20.3729   69.6570    1.6320 C   0  0  0  0  0  0
   21.2429   69.6570    2.7225 C   0  0  0  0  0  0
   20.8373   69.2569    3.9547 N   0  0  0  0  0  0
   15.1800   66.2345    6.4101 C   0  0  0  0  0  0
   13.8110   66.1554    6.7054 C   0  0  0  0  0  0
   12.9354   65.4464    5.8712 C   0  0  0  0  0  0
   13.4317   64.7936    4.7390 C   0  0  0  0  0  0
   14.7807   64.8651    4.4320 C   0  0  0  0  0  0
   15.6298   65.5884    5.2595 C   0  0  0  0  0  0
   11.4535   65.4231    6.1923 C   0  0  0  0  0  0
   10.6761   64.4359    5.4309 C   0  0  0  0  0  0
   10.0707   63.6570    4.8320 N   0  0  0  0  0  0
   17.1903   66.8921   11.1679 H   0  0  0  0  0  0
   18.7911   67.1190   10.4697 H   0  0  0  0  0  0
   17.7966   68.5163   10.8968 H   0  0  0  0  0  0
   18.5512   70.0348    7.4423 H   0  0  0  0  0  0
   17.2066   70.0569    8.5742 H   0  0  0  0  0  0
   18.8446   69.6570    9.1231 H   0  0  0  0  0  0
   15.7764   68.0570    4.5712 H   0  0  0  0  0  0
   16.5921   68.6477    2.3458 H   0  0  0  0  0  0
   19.7523   68.4176    6.1743 H   0  0  0  0  0  0
   20.7040   69.9814    0.6558 H   0  0  0  0  0  0
   22.2753   69.9600    2.6195 H   0  0  0  0  0  0
   13.4214   66.6613    7.5774 H   0  0  0  0  0  0
   12.7806   64.2514    4.0681 H   0  0  0  0  0  0
   15.1635   64.3739    3.5494 H   0  0  0  0  0  0
   16.6670   65.6570    4.9960 H   0  0  0  0  0  0
   11.0203   66.4059    6.0347 H   0  0  0  0  0  0
   11.3245   65.1749    7.2320 H   0  0  0  0  0  0
  1  5  1  0  0  0
  1  2  2  0  0  0
  1 19  1  0  0  0
  2  3  1  0  0  0
  2  9  1  0  0  0
  3  8  1  0  0  0
  3  4  1  0  0  0
  4  7  1  0  0  0
  4  5  1  0  0  0
  5  6  2  0  0  0
  7 28  1  0  0  0
  7 29  1  0  0  0
  7 30  1  0  0  0
  8 31  1  0  0  0
  8 32  1  0  0  0
  8 33  1  0  0  0
  9 10  2  0  0  0
  9 12  1  0  0  0
 10 11  1  0  0  0
 10 34  1  0  0  0
 11 14  2  0  0  0
 11 35  1  0  0  0
 12 13  2  0  0  0
 12 36  1  0  0  0
 13 14  1  0  0  0
 13 18  1  0  0  0
 14 15  1  0  0  0
 15 16  2  0  0  0
 16 17  1  0  0  0
 16 37  1  0  0  0
 17 18  2  0  0  0
 17 38  1  0  0  0
 19 20  2  0  0  0
 19 24  1  0  0  0
 20 21  1  0  0  0
 20 39  1  0  0  0
 21 22  2  0  0  0
 21 25  1  0  0  0
 22 23  1  0  0  0
 22 40  1  0  0  0
 23 24  2  0  0  0
 23 41  1  0  0  0
 24 42  1  0  0  0
 25 26  1  0  0  0
 25 43  1  0  0  0
 25 44  1  0  0  0
 26 27  3  0  0  0
M  END
> <s_m_entry_id>
34475

> <s_m_entry_name>
dock_pv.218

> <s_m_Source_Path>
/home/csk/Desktop/cluster/DUD-E-result/tgfr1

> <s_m_Source_File>
dock_pv.maegz

> <i_m_Source_File_Index>
218

> <chembl_id>
CHEMBL593710

> <chembl_pref_name>
None

> <i_lp_mmshare_version>
53161

> <r_lp_tautomer_probability>
1

> <s_lp_Force_Field>
OPLS_2005

> <r_lp_Energy>
42.386514

> <b_lp_Chiralities_Consistent>
1

> <s_lp_Variant>
CHEMBL4439_lig308-1

> <s_i_glide_gridfile>
glide-grid_3hmm

> <i_i_glide_lignum>
440

> <i_i_glide_rotatable_bonds>
3

> <r_i_docking_score>
-8.36018036381917

> <r_i_glide_ligand_efficiency>
-0.309636309771081

> <r_i_glide_ligand_efficiency_sa>
-0.928908928292731

> <r_i_glide_ligand_efficiency_ln>
-1.94611216035194

> <r_i_glide_gscore>
-8.36018036381917

> <r_i_glide_lipo>
-3.52623611347169

> <r_i_glide_hbond>
-0.156549281395094

> <r_i_glide_metal>
0

> <r_i_glide_rewards>
-2.22576027390618

> <r_i_glide_evdw>
-40.9008903503418

> <r_i_glide_ecoul>
-5.73822402954102

> <r_i_glide_erotb>
0.454143426902038

> <r_i_glide_esite>
0

> <r_i_glide_emodel>
-71.3080824728739

> <r_i_glide_energy>
-46.6391143798828

> <r_i_glide_einternal>
0.552023112773895

> <i_i_glide_confnum>
49

> <i_i_glide_posenum>
50

> <r_i_glide_eff_state_penalty>
0

> <s_user_duplicate_titles>
CHEMBL4439_lig308,593943

> <i_f3d_flags>
0

> <s_m_subgroup_title>
dock_pv

> <s_m_subgroupid>
dock_pv

> <b_m_subgroup_collapsed>
1

$$$$
CHEMBL4439_lig882 
                    3D
 Schrodinger Suite 2021-1.
 40 43  0  0  1  0            999 V2000
   16.7653   67.7213    5.6394 N   0  0  0  0  0  0
   16.0335   67.2142    6.6067 C   0  0  0  0  0  0
   16.5236   67.6126    7.8802 C   0  0  0  0  0  0
   16.0598   67.1499    9.1684 C   0  0  0  0  0  0
   16.2748   67.9635   10.1981 N   0  0  0  0  0  0
   15.5032   66.0663    9.3197 O   0  0  0  0  0  0
   14.8524   66.3591    6.2393 C   0  0  0  0  0  0
   14.9593   65.4833    5.1506 C   0  0  0  0  0  0
   12.5206   65.7000    6.5859 C   0  0  0  0  0  0
   13.6415   66.4568    6.9353 C   0  0  0  0  0  0
   12.6420   64.8183    5.5059 C   0  0  0  0  0  0
   13.8598   64.7040    4.7878 C   0  0  0  0  0  0
   13.8612   63.8097    3.7655 N   0  0  0  0  0  0
   12.6899   63.2568    3.6424 C   0  0  0  0  0  0
   11.4615   63.7273    4.7966 S   0  0  0  0  0  0
   18.6703   69.1519    5.3783 C   0  0  0  0  0  0
   19.9153   68.2920    5.1022 C   0  0  0  0  0  0
   20.5495   67.6588    6.3551 C   0  0  0  0  0  0
   17.7104   68.4543    6.2305 N   0  0  0  0  0  0
   17.6436   68.4123    7.6058 C   0  0  0  0  0  0
   18.5439   69.0866    8.4031 N   0  0  0  0  0  0
   19.9110   68.6574    8.6801 C   0  0  0  0  0  0
   20.8872   68.6589    7.4848 C   0  0  0  0  0  0
   15.9615   67.6827   11.1168 H   0  0  0  0  0  0
   16.7283   68.8534   10.0597 H   0  0  0  0  0  0
   15.8671   65.4172    4.5801 H   0  0  0  0  0  0
   11.5906   65.7959    7.1288 H   0  0  0  0  0  0
   13.5608   67.1419    7.7646 H   0  0  0  0  0  0
   12.4715   62.5527    2.8575 H   0  0  0  0  0  0
   18.1853   69.4421    4.4455 H   0  0  0  0  0  0
   18.9534   70.0746    5.8846 H   0  0  0  0  0  0
   20.6621   68.9071    4.5965 H   0  0  0  0  0  0
   19.6650   67.5052    4.3898 H   0  0  0  0  0  0
   21.4579   67.1576    6.0335 H   0  0  0  0  0  0
   19.9166   66.8562    6.7345 H   0  0  0  0  0  0
   18.1950   69.6016    9.2002 H   0  0  0  0  0  0
   19.8424   67.6434    9.0760 H   0  0  0  0  0  0
   20.3127   69.2671    9.4921 H   0  0  0  0  0  0
   21.8792   68.4221    7.8706 H   0  0  0  0  0  0
   20.9836   69.6676    7.0844 H   0  0  0  0  0  0
  1 19  1  0  0  0
  1  2  2  0  0  0
  2  3  1  0  0  0
  2  7  1  0  0  0
  3 20  2  0  0  0
  3  4  1  0  0  0
  4  5  1  0  0  0
  4  6  2  0  0  0
  5 24  1  0  0  0
  5 25  1  0  0  0
  7  8  2  0  0  0
  7 10  1  0  0  0
  8 12  1  0  0  0
  8 26  1  0  0  0
  9 11  1  0  0  0
  9 10  2  0  0  0
  9 27  1  0  0  0
 10 28  1  0  0  0
 11 12  2  0  0  0
 11 15  1  0  0  0
 12 13  1  0  0  0
 13 14  2  0  0  0
 14 15  1  0  0  0
 14 29  1  0  0  0
 16 17  1  0  0  0
 16 19  1  0  0  0
 16 30  1  0  0  0
 16 31  1  0  0  0
 17 18  1  0  0  0
 17 32  1  0  0  0
 17 33  1  0  0  0
 18 23  1  0  0  0
 18 34  1  0  0  0
 18 35  1  0  0  0
 19 20  1  0  0  0
 20 21  1  0  0  0
 21 22  1  0  0  0
 21 36  1  0  0  0
 22 23  1  0  0  0
 22 37  1  0  0  0
 22 38  1  0  0  0
 23 39  1  0  0  0
 23 40  1  0  0  0
M  END
> <s_m_entry_id>
34477

> <s_m_entry_name>
dock_pv.220

> <s_m_Source_Path>
/home/csk/Desktop/cluster/DUD-E-result/tgfr1

> <s_m_Source_File>
dock_pv.maegz

> <i_m_Source_File_Index>
220

> <chembl_id>
CHEMBL4475766

> <chembl_pref_name>
None

> <i_lp_mmshare_version>
53161

> <r_lp_tautomer_probability>
1

> <s_lp_Force_Field>
OPLS_2005

> <r_lp_Energy>
27.089836

> <b_lp_Chiralities_Consistent>
1

> <s_lp_Variant>
CHEMBL4439_lig882 -1

> <s_i_glide_gridfile>
glide-grid_3hmm

> <i_i_glide_lignum>
1217

> <i_i_glide_rotatable_bonds>
2

> <r_i_docking_score>
-8.34394815061707

> <r_i_glide_ligand_efficiency>
-0.362780354374655

> <r_i_glide_ligand_efficiency_sa>
-1.03169906966664

> <r_i_glide_ligand_efficiency_ln>
-2.01764232155802

> <r_i_glide_gscore>
-8.34394815061707

> <r_i_glide_lipo>
-3.13005618795019

> <r_i_glide_hbond>
-0.39300643457611

> <r_i_glide_metal>
0

> <r_i_glide_rewards>
-1.93231743048482

> <r_i_glide_evdw>
-44.6946029663086

> <r_i_glide_ecoul>
-5.52613162994385

> <r_i_glide_erotb>
0.175081795201052

> <r_i_glide_esite>
0

> <r_i_glide_emodel>
-74.9100546266001

> <r_i_glide_energy>
-50.2207345962524

> <r_i_glide_einternal>
1.62874662876129

> <i_i_glide_confnum>
4

> <i_i_glide_posenum>
217

> <r_i_glide_eff_state_penalty>
0

> <s_user_duplicate_titles>
CHEMBL4439_lig882 

> <i_f3d_flags>
0

> <s_m_subgroup_title>
dock_pv

> <s_m_subgroupid>
dock_pv

> <b_m_subgroup_collapsed>
1

$$$$
CHEMBL4439_lig425
                    3D
 Schrodinger Suite 2021-1.
 39 42  0  0  1  0            999 V2000
   14.8119   66.7148    6.8596 C   0  0  0  0  0  0
   15.0054   67.0363    8.1618 N   0  0  0  0  0  0
   16.1222   67.7421    8.4475 C   0  0  0  0  0  0
   17.0481   68.1589    7.5541 N   0  0  0  0  0  0
   16.8275   67.8671    6.2398 C   0  0  0  0  0  0
   15.6910   67.1388    5.8539 C   0  0  0  0  0  0
   17.8606   68.3488    5.2604 C   0  0  0  0  0  0
   19.1906   68.5462    5.6750 C   0  0  0  0  0  0
   18.4312   69.0752    2.9851 C   0  0  0  0  0  0
   17.5095   68.6123    3.9258 C   0  0  0  0  0  0
   19.7625   69.2570    3.3853 C   0  0  0  0  0  0
   20.1160   68.9898    4.7274 C   0  0  0  0  0  0
   21.4670   69.2570    4.8093 N   0  0  0  0  0  0
   21.9782   69.6570    3.6320 N   0  0  0  0  0  0
   20.9958   69.6570    2.7736 C   0  0  0  0  0  0
   21.1603   70.0570    1.4777 N   0  0  0  0  0  0
   16.3456   68.0570    9.7781 N   0  0  0  0  0  0
   13.6670   65.9485    6.6142 N   0  0  0  0  0  0
   13.3008   65.0839    5.5703 C   0  0  0  0  0  0
   11.9647   64.6802    5.5039 C   0  0  0  0  0  0
   11.5558   63.7647    4.5367 C   0  0  0  0  0  0
   12.4854   63.2570    3.6320 C   0  0  0  0  0  0
   13.8177   63.6569    3.6845 C   0  0  0  0  0  0
   14.2289   64.5558    4.6637 C   0  0  0  0  0  0
   15.5001   66.9174    4.8172 H   0  0  0  0  0  0
   19.4954   68.3485    6.6922 H   0  0  0  0  0  0
   18.1301   69.2744    1.9673 H   0  0  0  0  0  0
   16.4876   68.4813    3.6017 H   0  0  0  0  0  0
   22.0795   69.1310    5.6047 H   0  0  0  0  0  0
   20.4452   70.6198    1.0242 H   0  0  0  0  0  0
   22.0938   70.2635    1.1524 H   0  0  0  0  0  0
   17.1395   68.6365   10.0087 H   0  0  0  0  0  0
   15.6626   67.7861   10.4686 H   0  0  0  0  0  0
   12.9701   66.0438    7.3362 H   0  0  0  0  0  0
   11.2384   65.0644    6.2066 H   0  0  0  0  0  0
   10.5227   63.4535    4.4866 H   0  0  0  0  0  0
   12.1710   62.5560    2.8731 H   0  0  0  0  0  0
   14.5306   63.2570    2.9788 H   0  0  0  0  0  0
   15.2771   64.7995    4.7208 H   0  0  0  0  0  0
  1  6  1  0  0  0
  1  2  2  0  0  0
  1 18  1  0  0  0
  2  3  1  0  0  0
  3  4  2  0  0  0
  3 17  1  0  0  0
  4  5  1  0  0  0
  5  6  2  0  0  0
  5  7  1  0  0  0
  6 25  1  0  0  0
  7  8  2  0  0  0
  7 10  1  0  0  0
  8 12  1  0  0  0
  8 26  1  0  0  0
  9 11  1  0  0  0
  9 10  2  0  0  0
  9 27  1  0  0  0
 10 28  1  0  0  0
 11 15  1  0  0  0
 11 12  2  0  0  0
 12 13  1  0  0  0
 13 14  1  0  0  0
 13 29  1  0  0  0
 14 15  2  0  0  0
 15 16  1  0  0  0
 16 30  1  0  0  0
 16 31  1  0  0  0
 17 32  1  0  0  0
 17 33  1  0  0  0
 18 19  1  0  0  0
 18 34  1  0  0  0
 19 20  2  0  0  0
 19 24  1  0  0  0
 20 21  1  0  0  0
 20 35  1  0  0  0
 21 22  2  0  0  0
 21 36  1  0  0  0
 22 23  1  0  0  0
 22 37  1  0  0  0
 23 24  2  0  0  0
 23 38  1  0  0  0
 24 39  1  0  0  0
M  END
> <s_m_entry_id>
34478

> <s_m_entry_name>
dock_pv.221

> <s_m_Source_Path>
/home/csk/Desktop/cluster/DUD-E-result/tgfr1

> <s_m_Source_File>
dock_pv.maegz

> <i_m_Source_File_Index>
221

> <chembl_id>
CHEMBL1765876

> <chembl_pref_name>
None

> <i_lp_mmshare_version>
53161

> <r_lp_tautomer_probability>
0.999999624730965

> <s_lp_Force_Field>
OPLS_2005

> <r_lp_Energy>
8.956741

> <b_lp_Chiralities_Consistent>
1

> <s_lp_Variant>
CHEMBL4439_lig425-1

> <s_i_glide_gridfile>
glide-grid_3hmm

> <i_i_glide_lignum>
565

> <i_i_glide_rotatable_bonds>
3

> <r_i_docking_score>
-8.34172350455821

> <r_i_glide_ligand_efficiency>
-0.347571812689925

> <r_i_glide_ligand_efficiency_sa>
-1.00257059394395

> <r_i_glide_ligand_efficiency_ln>
-1.99655721139034

> <r_i_glide_gscore>
-8.34172350455821

> <r_i_glide_lipo>
-3.61901324377441

> <r_i_glide_hbond>
-0.334083648838343

> <r_i_glide_metal>
0

> <r_i_glide_rewards>
-1.89992032810769

> <r_i_glide_evdw>
-45.2945213317871

> <r_i_glide_ecoul>
-5.19286489486694

> <r_i_glide_erotb>
0.554949516981636

> <r_i_glide_esite>
0

> <r_i_glide_emodel>
-73.3010748664278

> <r_i_glide_energy>
-50.4873862266541

> <r_i_glide_einternal>
6.69559335708618

> <i_i_glide_confnum>
11

> <i_i_glide_posenum>
52

> <r_i_glide_eff_state_penalty>
0

> <s_user_duplicate_titles>
CHEMBL4439_lig425

> <i_f3d_flags>
0

> <s_m_subgroup_title>
dock_pv

> <s_m_subgroupid>
dock_pv

> <b_m_subgroup_collapsed>
1

$$$$
CHEMBL4439_lig267
                    3D
 Schrodinger Suite 2021-1.
 43 47  0  0  1  0            999 V2000
   16.1990   67.3896    6.0597 C   0  0  0  0  0  0
   15.3109   66.3328    6.4198 C   0  0  0  0  0  0
   15.2376   66.1750    7.7303 N   0  0  0  0  0  0
   14.5207   65.4129    5.5409 C   0  0  0  0  0  0
   15.0487   64.8572    4.3714 C   0  0  0  0  0  0
   14.2660   63.9688    3.6328 C   0  0  0  0  0  0
   12.9769   63.6572    4.0681 C   0  0  0  0  0  0
   12.5035   64.2700    5.2312 C   0  0  0  0  0  0
   13.2551   65.1325    5.9632 N   0  0  0  0  0  0
   16.6164   67.8674    4.6921 C   0  0  0  0  0  0
   17.2072   68.9274    2.1212 N   0  0  0  0  0  0
   15.9809   68.4569    2.4316 C   0  0  0  0  0  0
   15.6588   67.9188    3.6719 C   0  0  0  0  0  0
   16.5521   67.9375    7.2980 C   0  0  0  0  0  0
   16.0100   67.1237    8.2447 N   0  0  0  0  0  0
   16.3138   67.4950    9.6103 C   0  0  0  0  0  0
   17.4674   68.4757    9.4085 C   0  0  0  0  0  0
   17.2968   69.0535    8.0021 C   0  0  0  0  0  0
   11.1009   64.0165    5.7498 C   0  0  0  0  0  0
   18.1784   68.8475    3.0695 C   0  0  0  0  0  0
   17.9437   68.3046    4.3737 C   0  0  0  0  0  0
   19.0500   68.2032    5.2634 C   0  0  0  0  0  0
   20.3122   68.6503    4.8895 C   0  0  0  0  0  0
   20.5190   69.2001    3.6323 C   0  0  0  0  0  0
   19.4672   69.3038    2.7264 C   0  0  0  0  0  0
   22.1099   69.6572    3.1549 Cl  0  0  0  0  0  0
   16.0403   65.1133    4.0334 H   0  0  0  0  0  0
   14.6510   63.5263    2.7280 H   0  0  0  0  0  0
   12.3578   62.9793    3.4989 H   0  0  0  0  0  0
   15.2335   68.5234    1.6528 H   0  0  0  0  0  0
   14.6451   67.5954    3.8535 H   0  0  0  0  0  0
   16.5980   66.6312   10.2131 H   0  0  0  0  0  0
   15.4671   67.9942   10.0729 H   0  0  0  0  0  0
   18.4207   67.9483    9.4814 H   0  0  0  0  0  0
   17.4684   69.2543   10.1702 H   0  0  0  0  0  0
   18.2648   69.3161    7.5804 H   0  0  0  0  0  0
   16.7086   69.9715    8.0321 H   0  0  0  0  0  0
   10.6442   63.1533    5.2663 H   0  0  0  0  0  0
   11.1039   63.8329    6.8262 H   0  0  0  0  0  0
   10.4719   64.8859    5.5553 H   0  0  0  0  0  0
   18.9310   67.7257    6.2226 H   0  0  0  0  0  0
   21.1474   68.5380    5.5673 H   0  0  0  0  0  0
   19.6423   69.7116    1.7398 H   0  0  0  0  0  0
  1 10  1  0  0  0
  1 14  2  0  0  0
  1  2  1  0  0  0
  2  4  1  0  0  0
  2  3  2  0  0  0
  3 15  1  0  0  0
  4  9  1  0  0  0
  4  5  2  0  0  0
  5  6  1  0  0  0
  5 27  1  0  0  0
  6  7  2  0  0  0
  6 28  1  0  0  0
  7  8  1  0  0  0
  7 29  1  0  0  0
  8  9  2  0  0  0
  8 19  1  0  0  0
 10 13  1  0  0  0
 10 21  2  0  0  0
 11 12  1  0  0  0
 11 20  2  0  0  0
 12 13  2  0  0  0
 12 30  1  0  0  0
 13 31  1  0  0  0
 14 15  1  0  0  0
 14 18  1  0  0  0
 15 16  1  0  0  0
 16 17  1  0  0  0
 16 32  1  0  0  0
 16 33  1  0  0  0
 17 18  1  0  0  0
 17 34  1  0  0  0
 17 35  1  0  0  0
 18 36  1  0  0  0
 18 37  1  0  0  0
 19 38  1  0  0  0
 19 39  1  0  0  0
 19 40  1  0  0  0
 20 21  1  0  0  0
 20 25  1  0  0  0
 21 22  1  0  0  0
 22 23  2  0  0  0
 22 41  1  0  0  0
 23 24  1  0  0  0
 23 42  1  0  0  0
 24 25  2  0  0  0
 24 26  1  0  0  0
 25 43  1  0  0  0
M  END
> <s_m_entry_id>
34479

> <s_m_entry_name>
dock_pv.222

> <s_m_Source_Path>
/home/csk/Desktop/cluster/DUD-E-result/tgfr1

> <s_m_Source_File>
dock_pv.maegz

> <i_m_Source_File_Index>
222

> <chembl_id>
CHEMBL332344

> <chembl_pref_name>
None

> <i_lp_mmshare_version>
53161

> <r_lp_tautomer_probability>
1

> <s_lp_Force_Field>
OPLS_2005

> <r_lp_Energy>
38.905632

> <b_lp_Chiralities_Consistent>
1

> <s_lp_Variant>
CHEMBL4439_lig267-1

> <s_i_glide_gridfile>
glide-grid_3hmm

> <i_i_glide_lignum>
380

> <i_i_glide_rotatable_bonds>
2

> <r_i_docking_score>
-8.3398561484776

> <r_i_glide_ligand_efficiency>
-0.320763698018369

> <r_i_glide_ligand_efficiency_sa>
-0.950261193235213

> <r_i_glide_ligand_efficiency_ln>
-1.95858785116993

> <r_i_glide_gscore>
-8.3398561484776

> <r_i_glide_lipo>
-4.48573795486748

> <r_i_glide_hbond>
-0.0340699077309038

> <r_i_glide_metal>
0

> <r_i_glide_rewards>
-1.52588408944506

> <r_i_glide_evdw>
-45.4912757873535

> <r_i_glide_ecoul>
-2.09512281417847

> <r_i_glide_erotb>
0.294668015060295

> <r_i_glide_esite>
0

> <r_i_glide_emodel>
-69.4866335887668

> <r_i_glide_energy>
-47.586398601532

> <r_i_glide_einternal>
2.56980466842651

> <i_i_glide_confnum>
12

> <i_i_glide_posenum>
280

> <r_i_glide_eff_state_penalty>
0

> <s_user_duplicate_titles>
CHEMBL4439_lig267,197645

> <i_f3d_flags>
0

> <s_m_subgroup_title>
dock_pv

> <s_m_subgroupid>
dock_pv

> <b_m_subgroup_collapsed>
1

$$$$
CHEMBL4439_lig564
                    3D
 Schrodinger Suite 2021-1.
 47 51  0  0  1  0            999 V2000
   17.7208   68.0573   11.3274 C   0  0  0  0  0  0
   19.0660   67.8827   11.0083 C   0  0  0  0  0  0
   19.3941   67.5229    9.7002 C   0  0  0  0  0  0
   18.4622   67.3181    8.7346 N   0  0  0  0  0  0
   17.1559   67.5282    9.0364 C   0  0  0  0  0  0
   16.7565   67.8914   10.3337 C   0  0  0  0  0  0
   16.1536   67.3343    7.9295 C   0  0  0  0  0  0
   17.1148   67.9166    4.1771 C   0  0  0  0  0  0
   17.3110   68.0754    5.5621 C   0  0  0  0  0  0
   18.4544   68.7816    5.9774 C   0  0  0  0  0  0
   19.3777   69.3187    5.0703 C   0  0  0  0  0  0
   17.9798   68.5009    3.3008 N   0  0  0  0  0  0
   19.1143   69.2006    3.6972 C   0  0  0  0  0  0
   19.7365   69.6570    2.5859 N   0  0  0  0  0  0
   18.9226   69.2570    1.6279 C   0  0  0  0  0  0
   17.8662   68.5396    1.9579 N   0  0  0  0  0  0
   16.2501   67.5782    6.5261 C   0  0  0  0  0  0
   14.9855   66.8350    8.3171 N   0  0  0  0  0  0
   14.1210   66.6711    7.3606 C   0  0  0  0  0  0
   14.6671   67.2569    5.8475 S   0  0  0  0  0  0
   20.8322   67.3487    9.2699 C   0  0  0  0  0  0
   12.9030   66.0570    7.5442 N   0  0  0  0  0  0
   11.8584   65.6089    6.6200 C   0  0  0  0  0  0
   12.2208   64.6157    5.5134 C   0  0  0  0  0  0
   11.1662   64.0715    4.7737 C   0  0  0  0  0  0
   11.4256   63.2571    3.6746 C   0  0  0  0  0  0
   12.7416   63.0267    3.2887 C   0  0  0  0  0  0
   13.7969   63.5312    4.0318 C   0  0  0  0  0  0
   13.5357   64.2869    5.1663 C   0  0  0  0  0  0
   17.4259   68.3369   12.3277 H   0  0  0  0  0  0
   19.8326   68.0239   11.7552 H   0  0  0  0  0  0
   15.7173   68.0517   10.5754 H   0  0  0  0  0  0
   16.2802   67.4083    3.7197 H   0  0  0  0  0  0
   18.6182   68.9877    7.0206 H   0  0  0  0  0  0
   20.2444   69.8612    5.4164 H   0  0  0  0  0  0
   19.1390   69.4887    0.5945 H   0  0  0  0  0  0
   21.4984   67.2449   10.1265 H   0  0  0  0  0  0
   20.9202   66.4573    8.6560 H   0  0  0  0  0  0
   21.1583   68.2054    8.6803 H   0  0  0  0  0  0
   12.5261   66.0570    8.4819 H   0  0  0  0  0  0
   11.3638   66.4570    6.1686 H   0  0  0  0  0  0
   11.0818   65.1470    7.2247 H   0  0  0  0  0  0
   10.1422   64.3015    5.0317 H   0  0  0  0  0  0
   10.6093   62.8565    3.0915 H   0  0  0  0  0  0
   12.9507   62.4569    2.3981 H   0  0  0  0  0  0
   14.8146   63.3218    3.7366 H   0  0  0  0  0  0
   14.3799   64.6128    5.7475 H   0  0  0  0  0  0
  1  6  1  0  0  0
  1  2  2  0  0  0
  1 30  1  0  0  0
  2  3  1  0  0  0
  2 31  1  0  0  0
  3  4  2  0  0  0
  3 21  1  0  0  0
  4  5  1  0  0  0
  5  6  2  0  0  0
  5  7  1  0  0  0
  6 32  1  0  0  0
  7 17  2  0  0  0
  7 18  1  0  0  0
  8 12  1  0  0  0
  8  9  2  0  0  0
  8 33  1  0  0  0
  9 17  1  0  0  0
  9 10  1  0  0  0
 10 11  2  0  0  0
 10 34  1  0  0  0
 11 13  1  0  0  0
 11 35  1  0  0  0
 12 16  1  0  0  0
 12 13  1  0  0  0
 13 14  2  0  0  0
 14 15  1  0  0  0
 15 16  2  0  0  0
 15 36  1  0  0  0
 17 20  1  0  0  0
 18 19  2  0  0  0
 19 20  1  0  0  0
 19 22  1  0  0  0
 21 37  1  0  0  0
 21 38  1  0  0  0
 21 39  1  0  0  0
 22 23  1  0  0  0
 22 40  1  0  0  0
 23 24  1  0  0  0
 23 41  1  0  0  0
 23 42  1  0  0  0
 24 25  2  0  0  0
 24 29  1  0  0  0
 25 26  1  0  0  0
 25 43  1  0  0  0
 26 27  2  0  0  0
 26 44  1  0  0  0
 27 28  1  0  0  0
 27 45  1  0  0  0
 28 29  2  0  0  0
 28 46  1  0  0  0
 29 47  1  0  0  0
M  END
> <s_m_entry_id>
34480

> <s_m_entry_name>
dock_pv.223

> <s_m_Source_Path>
/home/csk/Desktop/cluster/DUD-E-result/tgfr1

> <s_m_Source_File>
dock_pv.maegz

> <i_m_Source_File_Index>
223

> <chembl_id>
CHEMBL2087965

> <chembl_pref_name>
None

> <i_lp_mmshare_version>
53161

> <r_lp_tautomer_probability>
1

> <s_lp_Force_Field>
OPLS_2005

> <r_lp_Energy>
11.927734

> <b_lp_Chiralities_Consistent>
1

> <s_lp_Variant>
CHEMBL4439_lig564-1

> <s_i_glide_gridfile>
glide-grid_3hmm

> <i_i_glide_lignum>
743

> <i_i_glide_rotatable_bonds>
5

> <r_i_docking_score>
-8.32425472553139

> <r_i_glide_ligand_efficiency>
-0.287043266397634

> <r_i_glide_ligand_efficiency_sa>
-0.881887856063417

> <r_i_glide_ligand_efficiency_ln>
-1.90604324725975

> <r_i_glide_gscore>
-8.32425472553139

> <r_i_glide_lipo>
-4.43756017261137

> <r_i_glide_hbond>
0

> <r_i_glide_metal>
0

> <r_i_glide_rewards>
-2.08108309828065

> <r_i_glide_evdw>
-48.3735961914062

> <r_i_glide_ecoul>
0.155836015939713

> <r_i_glide_erotb>
0.616698592930783

> <r_i_glide_esite>
-0.0270056403907991

> <r_i_glide_emodel>
-73.6937812177582

> <r_i_glide_energy>
-48.2177601754665

> <r_i_glide_einternal>
3.16352939605713

> <i_i_glide_confnum>
212

> <i_i_glide_posenum>
162

> <r_i_glide_eff_state_penalty>
0

> <s_user_duplicate_titles>
CHEMBL4439_lig564

> <i_f3d_flags>
0

> <s_m_subgroup_title>
dock_pv

> <s_m_subgroupid>
dock_pv

> <b_m_subgroup_collapsed>
1

$$$$
CHEMBL4439_lig591
                    3D
 Schrodinger Suite 2021-1.
 43 47  0  0  1  0            999 V2000
   16.5647   68.8416    7.9423 S   0  0  0  0  0  0
   15.7311   67.3322    8.0186 C   0  0  0  0  0  0
   15.8244   66.7474    9.1981 N   0  0  0  0  0  0
   16.5656   67.4332   10.0536 C   0  0  0  0  0  0
   17.1430   68.5710    9.5383 C   0  0  0  0  0  0
   16.7138   66.9293   11.4668 C   0  0  0  0  0  0
   14.9597   66.7785    6.8962 C   0  0  0  0  0  0
   15.1100   66.8826    5.4869 C   0  0  0  0  0  0
   14.1471   66.0297    5.0167 N   0  0  0  0  0  0
   13.4242   65.5769    6.0776 C   0  0  0  0  0  0
   13.8924   66.0502    7.1980 N   0  0  0  0  0  0
   15.9982   67.5987    4.5130 C   0  0  0  0  0  0
   15.4791   67.9591    3.2580 C   0  0  0  0  0  0
   16.2540   68.5686    2.2761 C   0  0  0  0  0  0
   17.3275   67.8984    4.8260 C   0  0  0  0  0  0
   18.1090   68.5557    3.8628 C   0  0  0  0  0  0
   17.5812   68.8714    2.5820 C   0  0  0  0  0  0
   18.4424   69.4650    1.7190 N   0  0  0  0  0  0
   19.5972   69.6564    2.2888 C   0  0  0  0  0  0
   19.7696   69.1219    3.9499 S   0  0  0  0  0  0
   12.2489   64.6265    5.9556 C   0  0  0  0  0  0
   11.0643   65.2110    5.1909 C   0  0  0  0  0  0
   10.4661   64.0268    4.4605 C   0  0  0  0  0  0
   11.6980   63.2668    4.0022 C   0  0  0  0  0  0
   12.5987   63.3089    5.2273 C   0  0  0  0  0  0
   17.8122   69.2538   10.0352 H   0  0  0  0  0  0
   17.7730   66.8577   11.7397 H   0  0  0  0  0  0
   16.2589   65.9490   11.6349 H   0  0  0  0  0  0
   16.2616   67.6196   12.1828 H   0  0  0  0  0  0
   13.9660   65.8073    4.0475 H   0  0  0  0  0  0
   14.4451   67.7456    3.0177 H   0  0  0  0  0  0
   15.8311   68.8198    1.3112 H   0  0  0  0  0  0
   17.7480   67.6087    5.7744 H   0  0  0  0  0  0
   20.4280   70.1140    1.7715 H   0  0  0  0  0  0
   11.8787   64.3847    6.9550 H   0  0  0  0  0  0
   10.3621   65.7472    5.8243 H   0  0  0  0  0  0
   11.3911   65.9229    4.4430 H   0  0  0  0  0  0
    9.8479   63.4200    5.1277 H   0  0  0  0  0  0
    9.8626   64.3549    3.6322 H   0  0  0  0  0  0
   11.4784   62.2670    3.6533 H   0  0  0  0  0  0
   12.1811   63.7833    3.1742 H   0  0  0  0  0  0
   13.6344   63.2580    4.9068 H   0  0  0  0  0  0
   12.3816   62.4544    5.8727 H   0  0  0  0  0  0
  1  2  1  0  0  0
  1  5  1  0  0  0
  2  3  2  0  0  0
  2  7  1  0  0  0
  3  4  1  0  0  0
  4  5  2  0  0  0
  4  6  1  0  0  0
  5 26  1  0  0  0
  6 27  1  0  0  0
  6 28  1  0  0  0
  6 29  1  0  0  0
  7  8  2  0  0  0
  7 11  1  0  0  0
  8  9  1  0  0  0
  8 12  1  0  0  0
  9 10  1  0  0  0
  9 30  1  0  0  0
 10 11  2  0  0  0
 10 21  1  0  0  0
 12 13  2  0  0  0
 12 15  1  0  0  0
 13 14  1  0  0  0
 13 31  1  0  0  0
 14 17  2  0  0  0
 14 32  1  0  0  0
 15 16  2  0  0  0
 15 33  1  0  0  0
 16 17  1  0  0  0
 16 20  1  0  0  0
 17 18  1  0  0  0
 18 19  2  0  0  0
 19 20  1  0  0  0
 19 34  1  0  0  0
 21 22  1  0  0  0
 21 25  1  0  0  0
 21 35  1  0  0  0
 22 23  1  0  0  0
 22 36  1  0  0  0
 22 37  1  0  0  0
 23 24  1  0  0  0
 23 38  1  0  0  0
 23 39  1  0  0  0
 24 25  1  0  0  0
 24 40  1  0  0  0
 24 41  1  0  0  0
 25 42  1  0  0  0
 25 43  1  0  0  0
M  END
> <s_m_entry_id>
34481

> <s_m_entry_name>
dock_pv.224

> <s_m_Source_Path>
/home/csk/Desktop/cluster/DUD-E-result/tgfr1

> <s_m_Source_File>
dock_pv.maegz

> <i_m_Source_File_Index>
224

> <chembl_id>
CHEMBL2207998

> <chembl_pref_name>
None

> <i_lp_mmshare_version>
53161

> <r_lp_tautomer_probability>
0.499999999999999

> <s_lp_Force_Field>
OPLS_2005

> <r_lp_Energy>
26.346754

> <b_lp_Chiralities_Consistent>
1

> <s_lp_Variant>
CHEMBL4439_lig591-1

> <s_i_glide_gridfile>
glide-grid_3hmm

> <i_i_glide_lignum>
795

> <i_i_glide_rotatable_bonds>
3

> <r_i_docking_score>
-8.31636494761089

> <r_i_glide_ligand_efficiency>
-0.332654597904436

> <r_i_glide_ligand_efficiency_sa>
-0.972687943926984

> <r_i_glide_ligand_efficiency_ln>
-1.97122771393033

> <r_i_glide_gscore>
-8.31636494761089

> <r_i_glide_lipo>
-4.56858876004597

> <r_i_glide_hbond>
-0.0307052048078752

> <r_i_glide_metal>
0

> <r_i_glide_rewards>
-1.56620757059922

> <r_i_glide_evdw>
-38.3860321044922

> <r_i_glide_ecoul>
-4.40963745117188

> <r_i_glide_erotb>
0.429883810742566

> <r_i_glide_esite>
0

> <r_i_glide_emodel>
-65.0833773923931

> <r_i_glide_energy>
-42.7956695556641

> <r_i_glide_einternal>
3.14307069778442

> <i_i_glide_confnum>
33

> <i_i_glide_posenum>
397

> <r_i_glide_eff_state_penalty>
0

> <s_user_duplicate_titles>
CHEMBL4439_lig591,CHEMBL4439_lig591

> <i_f3d_flags>
0

> <s_m_subgroup_title>
dock_pv

> <s_m_subgroupid>
dock_pv

> <b_m_subgroup_collapsed>
1

$$$$
CHEMBL4439_lig290
                    3D
 Schrodinger Suite 2021-1.
 41 44  0  0  1  0            999 V2000
   14.9558   66.4551    8.3557 N   0  0  0  0  0  0
   16.1558   67.2704    6.5967 C   0  0  0  0  0  0
   15.0315   66.5045    7.0382 C   0  0  0  0  0  0
   16.7946   67.5963    7.7934 C   0  0  0  0  0  0
   16.0345   67.0844    8.7984 N   0  0  0  0  0  0
   16.6086   67.2075   10.1201 C   0  0  0  0  0  0
   17.6561   68.2977    9.8869 C   0  0  0  0  0  0
   17.9947   68.2866    8.3925 C   0  0  0  0  0  0
   16.6138   67.6542    5.2125 C   0  0  0  0  0  0
   15.7413   67.6570    4.1157 C   0  0  0  0  0  0
   16.1805   68.0701    2.8594 C   0  0  0  0  0  0
   17.4972   68.4966    2.6860 C   0  0  0  0  0  0
   18.3815   68.4747    3.7625 C   0  0  0  0  0  0
   17.9407   68.0572    5.0145 C   0  0  0  0  0  0
   14.0129   65.7317    6.2605 C   0  0  0  0  0  0
   12.6670   65.6578    6.6472 C   0  0  0  0  0  0
   11.7942   64.8599    5.9080 C   0  0  0  0  0  0
   12.2712   64.1653    4.7982 C   0  0  0  0  0  0
   13.6196   64.2982    4.4631 C   0  0  0  0  0  0
   14.4880   65.0485    5.1860 N   0  0  0  0  0  0
   14.1976   63.6383    3.2328 C   0  0  0  0  0  0
   17.9753   68.9834    1.3300 C   0  0  0  0  0  0
   17.0666   66.2665   10.4258 H   0  0  0  0  0  0
   15.8683   67.4992   10.8647 H   0  0  0  0  0  0
   18.5416   68.1714   10.5126 H   0  0  0  0  0  0
   17.2120   69.2548   10.1499 H   0  0  0  0  0  0
   18.9183   67.7391    8.1995 H   0  0  0  0  0  0
   18.1327   69.3016    8.0207 H   0  0  0  0  0  0
   14.7016   67.3912    4.2298 H   0  0  0  0  0  0
   15.4846   68.0902    2.0332 H   0  0  0  0  0  0
   19.4066   68.7917    3.6369 H   0  0  0  0  0  0
   18.6471   68.0585    5.8291 H   0  0  0  0  0  0
   12.3015   66.1961    7.5091 H   0  0  0  0  0  0
   10.7547   64.7842    6.1896 H   0  0  0  0  0  0
   11.6049   63.5625    4.1998 H   0  0  0  0  0  0
   13.5756   62.8115    2.8863 H   0  0  0  0  0  0
   14.2669   64.3732    2.4312 H   0  0  0  0  0  0
   15.1987   63.2569    3.4305 H   0  0  0  0  0  0
   19.0423   68.8080    1.1972 H   0  0  0  0  0  0
   17.4666   68.4573    0.5246 H   0  0  0  0  0  0
   17.7879   70.0523    1.2323 H   0  0  0  0  0  0
  1  3  2  0  0  0
  1  5  1  0  0  0
  2  4  2  0  0  0
  2  3  1  0  0  0
  2  9  1  0  0  0
  3 15  1  0  0  0
  4  8  1  0  0  0
  4  5  1  0  0  0
  5  6  1  0  0  0
  6  7  1  0  0  0
  6 23  1  0  0  0
  6 24  1  0  0  0
  7  8  1  0  0  0
  7 25  1  0  0  0
  7 26  1  0  0  0
  8 27  1  0  0  0
  8 28  1  0  0  0
  9 14  1  0  0  0
  9 10  2  0  0  0
 10 11  1  0  0  0
 10 29  1  0  0  0
 11 12  2  0  0  0
 11 30  1  0  0  0
 12 13  1  0  0  0
 12 22  1  0  0  0
 13 14  2  0  0  0
 13 31  1  0  0  0
 14 32  1  0  0  0
 15 16  2  0  0  0
 15 20  1  0  0  0
 16 17  1  0  0  0
 16 33  1  0  0  0
 17 18  2  0  0  0
 17 34  1  0  0  0
 18 19  1  0  0  0
 18 35  1  0  0  0
 19 20  2  0  0  0
 19 21  1  0  0  0
 21 36  1  0  0  0
 21 37  1  0  0  0
 21 38  1  0  0  0
 22 39  1  0  0  0
 22 40  1  0  0  0
 22 41  1  0  0  0
M  END
> <s_m_entry_id>
34483

> <s_m_entry_name>
dock_pv.226

> <s_m_Source_Path>
/home/csk/Desktop/cluster/DUD-E-result/tgfr1

> <s_m_Source_File>
dock_pv.maegz

> <i_m_Source_File_Index>
226

> <chembl_id>
CHEMBL118339

> <chembl_pref_name>
None

> <i_lp_mmshare_version>
53161

> <r_lp_tautomer_probability>
1

> <s_lp_Force_Field>
OPLS_2005

> <r_lp_Energy>
36.614492

> <b_lp_Chiralities_Consistent>
1

> <s_lp_Variant>
CHEMBL4439_lig290-1

> <s_i_glide_gridfile>
glide-grid_3hmm

> <i_i_glide_lignum>
407

> <i_i_glide_rotatable_bonds>
2

> <r_i_docking_score>
-8.31241713488845

> <r_i_glide_ligand_efficiency>
-0.37783714249493

> <r_i_glide_ligand_efficiency_sa>
-1.05871453276239

> <r_i_glide_ligand_efficiency_ln>
-2.03185795054872

> <r_i_glide_gscore>
-8.31241713488845

> <r_i_glide_lipo>
-4.19972138970934

> <r_i_glide_hbond>
-0.126986321055568

> <r_i_glide_metal>
0

> <r_i_glide_rewards>
-2.0710008001316

> <r_i_glide_evdw>
-43.0524101257324

> <r_i_glide_ecoul>
-1.31311750411987

> <r_i_glide_erotb>
0.434879507912659

> <r_i_glide_esite>
0

> <r_i_glide_emodel>
-64.5504775045732

> <r_i_glide_energy>
-44.3655276298523

> <r_i_glide_einternal>
2.84801292419434

> <i_i_glide_confnum>
11

> <i_i_glide_posenum>
188

> <r_i_glide_eff_state_penalty>
0

> <s_user_duplicate_titles>
CHEMBL4439_lig290

> <i_f3d_flags>
0

> <s_m_subgroup_title>
dock_pv

> <s_m_subgroupid>
dock_pv

> <b_m_subgroup_collapsed>
1

$$$$
CHEMBL4439_lig570
                    3D
 Schrodinger Suite 2021-1.
 50 53  0  0  1  0            999 V2000
   12.0648   65.6570    6.5463 S   0  0  0  0  0  0
   13.7696   65.7186    6.2546 C   0  0  0  0  0  0
   14.1671   64.9472    5.2674 N   0  0  0  0  0  0
   13.1695   64.2994    4.6883 C   0  0  0  0  0  0
   11.9166   64.5229    5.2449 C   0  0  0  0  0  0
   13.5034   63.4319    3.4968 C   0  0  0  0  0  0
   14.6676   66.6221    6.9794 C   0  0  0  0  0  0
   15.7227   67.4434    6.5629 C   0  0  0  0  0  0
   16.3446   67.9875    7.6034 N   0  0  0  0  0  0
   15.7241   67.5763    8.6751 C   0  0  0  0  0  0
   14.6324   66.8262    8.3379 N   0  0  0  0  0  0
   16.1859   67.7605    5.1766 C   0  0  0  0  0  0
   15.3336   67.6552    4.0726 C   0  0  0  0  0  0
   15.7292   68.0570    2.7987 C   0  0  0  0  0  0
   17.4733   68.2703    5.0066 C   0  0  0  0  0  0
   17.9018   68.6190    3.7311 C   0  0  0  0  0  0
   17.0412   68.5071    2.6146 C   0  0  0  0  0  0
   17.5917   68.8762    1.4284 N   0  0  0  0  0  0
   18.8255   69.2578    1.5996 C   0  0  0  0  0  0
   19.4475   69.2570    3.2314 S   0  0  0  0  0  0
   16.1696   67.8240   10.1138 C   0  0  0  0  0  0
   17.4965   68.4379   10.2382 N   0  0  0  0  0  0
   18.6573   67.7161   10.0184 C   0  0  0  0  0  0
   19.7138   68.5128   10.2563 O   0  0  0  0  0  0
   18.7187   66.5472    9.6320 O   0  0  0  0  0  0
   21.0118   68.2066    9.7571 C   0  0  0  0  0  0
   21.3263   69.0603    8.5097 C   0  0  0  0  0  0
   20.3867   68.8361    7.3071 C   0  0  0  0  0  0
   20.4764   67.4192    6.7217 C   0  0  0  0  0  0
   10.9587   64.1202    4.9501 H   0  0  0  0  0  0
   12.6287   63.2547    2.8696 H   0  0  0  0  0  0
   14.2604   63.8776    2.8497 H   0  0  0  0  0  0
   13.8670   62.4566    3.8054 H   0  0  0  0  0  0
   13.9573   66.4536    8.9856 H   0  0  0  0  0  0
   14.3171   67.3192    4.2021 H   0  0  0  0  0  0
   15.0449   68.0009    1.9649 H   0  0  0  0  0  0
   18.1118   68.4306    5.8546 H   0  0  0  0  0  0
   19.4481   69.6136    0.7897 H   0  0  0  0  0  0
   16.1695   66.8814   10.6662 H   0  0  0  0  0  0
   15.4671   68.4568   10.6403 H   0  0  0  0  0  0
   17.5883   69.4202   10.4698 H   0  0  0  0  0  0
   21.1383   67.1427    9.5498 H   0  0  0  0  0  0
   21.7309   68.4469   10.5403 H   0  0  0  0  0  0
   22.3555   68.8723    8.2006 H   0  0  0  0  0  0
   21.2937   70.1142    8.7904 H   0  0  0  0  0  0
   20.6341   69.5543    6.5238 H   0  0  0  0  0  0
   19.3606   69.0615    7.5967 H   0  0  0  0  0  0
   19.8187   67.2571    5.8753 H   0  0  0  0  0  0
   20.2661   66.6448    7.4579 H   0  0  0  0  0  0
   21.4670   67.2570    6.3303 H   0  0  0  0  0  0
  1  2  1  0  0  0
  1  5  1  0  0  0
  2  3  2  0  0  0
  2  7  1  0  0  0
  3  4  1  0  0  0
  4  5  2  0  0  0
  4  6  1  0  0  0
  5 30  1  0  0  0
  6 31  1  0  0  0
  6 32  1  0  0  0
  6 33  1  0  0  0
  7  8  2  0  0  0
  7 11  1  0  0  0
  8 12  1  0  0  0
  8  9  1  0  0  0
  9 10  2  0  0  0
 10 11  1  0  0  0
 10 21  1  0  0  0
 11 34  1  0  0  0
 12 13  2  0  0  0
 12 15  1  0  0  0
 13 14  1  0  0  0
 13 35  1  0  0  0
 14 17  2  0  0  0
 14 36  1  0  0  0
 15 16  2  0  0  0
 15 37  1  0  0  0
 16 17  1  0  0  0
 16 20  1  0  0  0
 17 18  1  0  0  0
 18 19  2  0  0  0
 19 20  1  0  0  0
 19 38  1  0  0  0
 21 22  1  0  0  0
 21 39  1  0  0  0
 21 40  1  0  0  0
 22 23  1  0  0  0
 22 41  1  0  0  0
 23 24  1  0  0  0
 23 25  2  0  0  0
 24 26  1  0  0  0
 26 27  1  0  0  0
 26 42  1  0  0  0
 26 43  1  0  0  0
 27 28  1  0  0  0
 27 44  1  0  0  0
 27 45  1  0  0  0
 28 29  1  0  0  0
 28 46  1  0  0  0
 28 47  1  0  0  0
 29 48  1  0  0  0
 29 49  1  0  0  0
 29 50  1  0  0  0
M  END
> <s_m_entry_id>
34485

> <s_m_entry_name>
dock_pv.228

> <s_m_Source_Path>
/home/csk/Desktop/cluster/DUD-E-result/tgfr1

> <s_m_Source_File>
dock_pv.maegz

> <i_m_Source_File_Index>
228

> <chembl_id>
CHEMBL2208020

> <chembl_pref_name>
None

> <i_lp_mmshare_version>
53161

> <r_lp_tautomer_probability>
0.499999999999999

> <s_lp_Force_Field>
OPLS_2005

> <r_lp_Energy>
6.764623

> <b_lp_Chiralities_Consistent>
1

> <s_lp_Variant>
CHEMBL4439_lig570-2

> <s_i_glide_gridfile>
glide-grid_3hmm

> <i_i_glide_lignum>
754

> <i_i_glide_rotatable_bonds>
9

> <r_i_docking_score>
-8.30508673379088

> <r_i_glide_ligand_efficiency>
-0.286382301165203

> <r_i_glide_ligand_efficiency_sa>
-0.879857161460905

> <r_i_glide_ligand_efficiency_ln>
-1.90165426320951

> <r_i_glide_gscore>
-8.30508673379088

> <r_i_glide_lipo>
-3.98999881957637

> <r_i_glide_hbond>
-0.338273475128299

> <r_i_glide_metal>
0

> <r_i_glide_rewards>
-2.0358182348663

> <r_i_glide_evdw>
-51.2527122497559

> <r_i_glide_ecoul>
-1.52748453617096

> <r_i_glide_erotb>
0.868989751757105

> <r_i_glide_esite>
-0.0182276630635829

> <r_i_glide_emodel>
-75.399347834674

> <r_i_glide_energy>
-52.7801967859268

> <r_i_glide_einternal>
5.07640266418457

> <i_i_glide_confnum>
27

> <i_i_glide_posenum>
112

> <r_i_glide_eff_state_penalty>
0

> <s_user_duplicate_titles>
CHEMBL4439_lig570

> <i_f3d_flags>
0

> <s_m_subgroup_title>
dock_pv

> <s_m_subgroupid>
dock_pv

> <b_m_subgroup_collapsed>
1

$$$$
CHEMBL4439_lig43
                    3D
 Schrodinger Suite 2021-1.
 39 42  0  0  1  0            999 V2000
   15.2182   67.2260    6.4299 C   0  0  0  0  0  0
   14.1948   66.2589    6.4005 C   0  0  0  0  0  0
   13.5643   66.4187    7.6032 N   0  0  0  0  0  0
   16.1570   67.6095    5.3151 C   0  0  0  0  0  0
   14.1601   67.2580    8.4276 N   0  0  0  0  0  0
   15.0957   67.8241    7.7140 C   0  0  0  0  0  0
   13.7147   65.2423    5.4111 C   0  0  0  0  0  0
   12.4077   64.8771    5.5359 N   0  0  0  0  0  0
   17.5384   67.9716    5.4724 C   0  0  0  0  0  0
   17.6791   68.4896    3.0839 N   0  0  0  0  0  0
   18.2530   68.4254    4.3150 C   0  0  0  0  0  0
   11.9114   63.9299    4.7005 C   0  0  0  0  0  0
   15.6187   67.6570    4.0248 C   0  0  0  0  0  0
   16.3947   68.0943    2.9593 C   0  0  0  0  0  0
   14.5573   64.6471    4.4667 C   0  0  0  0  0  0
   15.8025   69.0031    8.3482 C   0  0  0  0  0  0
   18.2576   67.8605    6.6954 C   0  0  0  0  0  0
   14.0366   63.6571    3.6318 C   0  0  0  0  0  0
   12.6986   63.2755    3.7509 C   0  0  0  0  0  0
   19.6135   68.7986    4.4288 C   0  0  0  0  0  0
   10.4262   63.6568    4.8312 C   0  0  0  0  0  0
   19.5991   68.2248    6.7732 C   0  0  0  0  0  0
   20.2684   68.6973    5.6517 C   0  0  0  0  0  0
   12.7374   65.9009    7.8687 H   0  0  0  0  0  0
   14.5859   67.4024    3.8441 H   0  0  0  0  0  0
   15.9655   68.1640    1.9710 H   0  0  0  0  0  0
   15.5957   64.9292    4.3887 H   0  0  0  0  0  0
   16.3534   69.6047    7.6324 H   0  0  0  0  0  0
   15.0901   69.6723    8.8309 H   0  0  0  0  0  0
   16.5025   68.6903    9.1222 H   0  0  0  0  0  0
   17.7741   67.4596    7.5711 H   0  0  0  0  0  0
   14.6647   63.1959    2.8862 H   0  0  0  0  0  0
   12.2800   62.5287    3.0920 H   0  0  0  0  0  0
   20.1466   69.1444    3.5552 H   0  0  0  0  0  0
   10.0559   63.0615    3.9948 H   0  0  0  0  0  0
    9.8645   64.5929    4.8387 H   0  0  0  0  0  0
   10.2171   63.1260    5.7622 H   0  0  0  0  0  0
   20.1303   68.1305    7.7098 H   0  0  0  0  0  0
   21.3127   68.9654    5.7237 H   0  0  0  0  0  0
  1  2  2  0  0  0
  1  4  1  0  0  0
  1  6  1  0  0  0
  2  3  1  0  0  0
  2  7  1  0  0  0
  3  5  1  0  0  0
  3 24  1  0  0  0
  4  9  1  0  0  0
  4 13  2  0  0  0
  5  6  2  0  0  0
  6 16  1  0  0  0
  7  8  2  0  0  0
  7 15  1  0  0  0
  8 12  1  0  0  0
  9 11  2  0  0  0
  9 17  1  0  0  0
 10 14  2  0  0  0
 10 11  1  0  0  0
 11 20  1  0  0  0
 12 21  1  0  0  0
 12 19  2  0  0  0
 13 14  1  0  0  0
 13 25  1  0  0  0
 14 26  1  0  0  0
 15 18  2  0  0  0
 15 27  1  0  0  0
 16 28  1  0  0  0
 16 29  1  0  0  0
 16 30  1  0  0  0
 17 22  2  0  0  0
 17 31  1  0  0  0
 18 19  1  0  0  0
 18 32  1  0  0  0
 19 33  1  0  0  0
 20 23  2  0  0  0
 20 34  1  0  0  0
 21 35  1  0  0  0
 21 36  1  0  0  0
 21 37  1  0  0  0
 22 23  1  0  0  0
 22 38  1  0  0  0
 23 39  1  0  0  0
M  END
> <s_m_entry_id>
34486

> <s_m_entry_name>
dock_pv.229

> <s_m_Source_Path>
/home/csk/Desktop/cluster/DUD-E-result/tgfr1

> <s_m_Source_File>
dock_pv.maegz

> <i_m_Source_File_Index>
229

> <chembl_id>
CHEMBL129153

> <chembl_pref_name>
None

> <i_lp_mmshare_version>
53161

> <r_lp_tautomer_probability>
0.5

> <s_lp_Force_Field>
OPLS_2005

> <r_lp_Energy>
16.347327

> <b_lp_Chiralities_Consistent>
1

> <s_lp_Variant>
CHEMBL4439_lig43-1

> <s_i_glide_gridfile>
glide-grid_3hmm

> <i_i_glide_lignum>
58

> <i_i_glide_rotatable_bonds>
2

> <r_i_docking_score>
-8.30174423335042

> <r_i_glide_ligand_efficiency>
-0.360945401450018

> <r_i_glide_ligand_efficiency_sa>
-1.02648070764013

> <r_i_glide_ligand_efficiency_ln>
-2.00743703167899

> <r_i_glide_gscore>
-8.30174423335042

> <r_i_glide_lipo>
-4.79399754188692

> <r_i_glide_hbond>
0

> <r_i_glide_metal>
0

> <r_i_glide_rewards>
-1.70206197570338

> <r_i_glide_evdw>
-43.7527236938477

> <r_i_glide_ecoul>
-0.170216754078865

> <r_i_glide_erotb>
0.40748398204409

> <r_i_glide_esite>
0

> <r_i_glide_emodel>
-61.3489648703856

> <r_i_glide_energy>
-43.9229404479265

> <r_i_glide_einternal>
3.11005687713623

> <i_i_glide_confnum>
4

> <i_i_glide_posenum>
34

> <r_i_glide_eff_state_penalty>
0

> <s_user_duplicate_titles>
CHEMBL4439_lig43,CHEMBL4439_lig43,211930

> <i_f3d_flags>
0

> <s_m_subgroup_title>
dock_pv

> <s_m_subgroupid>
dock_pv

> <b_m_subgroup_collapsed>
1

$$$$
CHEMBL4439_lig601
                    3D
 Schrodinger Suite 2021-1.
 30 33  0  0  1  0            999 V2000
   12.0172   65.6555    6.4320 S   0  0  0  0  0  0
   13.7297   65.6516    6.1528 C   0  0  0  0  0  0
   14.1128   64.8545    5.1835 N   0  0  0  0  0  0
   13.0998   64.2092    4.6286 C   0  0  0  0  0  0
   11.8472   64.4935    5.1604 C   0  0  0  0  0  0
   13.4237   63.2571    3.5035 C   0  0  0  0  0  0
   14.6468   66.4473    6.9631 C   0  0  0  0  0  0
   15.7180   67.2534    6.5449 C   0  0  0  0  0  0
   16.2235   67.7488    7.7216 N   0  0  0  0  0  0
   15.4677   67.2359    8.7322 C   0  0  0  0  0  0
   14.5166   66.4636    8.2839 N   0  0  0  0  0  0
   16.2718   67.6316    5.2127 C   0  0  0  0  0  0
   15.4603   67.6225    4.0732 C   0  0  0  0  0  0
   15.9232   68.0570    2.8319 C   0  0  0  0  0  0
   17.5999   68.0612    5.1255 C   0  0  0  0  0  0
   18.0654   68.5333    3.8944 C   0  0  0  0  0  0
   17.2441   68.5064    2.7374 C   0  0  0  0  0  0
   17.8392   68.9367    1.5948 N   0  0  0  0  0  0
   19.0633   69.3117    1.8311 C   0  0  0  0  0  0
   19.6113   69.2567    3.4905 S   0  0  0  0  0  0
   10.8829   64.1020    4.8761 H   0  0  0  0  0  0
   12.5344   62.9696    2.9417 H   0  0  0  0  0  0
   13.8669   62.3443    3.8850 H   0  0  0  0  0  0
   14.1231   63.6869    2.7849 H   0  0  0  0  0  0
   17.0010   68.3867    7.8171 H   0  0  0  0  0  0
   15.6743   67.4961    9.7612 H   0  0  0  0  0  0
   14.4310   67.3077    4.1496 H   0  0  0  0  0  0
   15.2747   68.0565    1.9683 H   0  0  0  0  0  0
   18.2452   68.0830    5.9909 H   0  0  0  0  0  0
   19.7224   69.6620    1.0494 H   0  0  0  0  0  0
  1  2  1  0  0  0
  1  5  1  0  0  0
  2  3  2  0  0  0
  2  7  1  0  0  0
  3  4  1  0  0  0
  4  5  2  0  0  0
  4  6  1  0  0  0
  5 21  1  0  0  0
  6 22  1  0  0  0
  6 23  1  0  0  0
  6 24  1  0  0  0
  7  8  2  0  0  0
  7 11  1  0  0  0
  8  9  1  0  0  0
  8 12  1  0  0  0
  9 10  1  0  0  0
  9 25  1  0  0  0
 10 11  2  0  0  0
 10 26  1  0  0  0
 12 13  2  0  0  0
 12 15  1  0  0  0
 13 14  1  0  0  0
 13 27  1  0  0  0
 14 17  2  0  0  0
 14 28  1  0  0  0
 15 16  2  0  0  0
 15 29  1  0  0  0
 16 17  1  0  0  0
 16 20  1  0  0  0
 17 18  1  0  0  0
 18 19  2  0  0  0
 19 20  1  0  0  0
 19 30  1  0  0  0
M  END
> <s_m_entry_id>
34487

> <s_m_entry_name>
dock_pv.230

> <s_m_Source_Path>
/home/csk/Desktop/cluster/DUD-E-result/tgfr1

> <s_m_Source_File>
dock_pv.maegz

> <i_m_Source_File_Index>
230

> <chembl_id>
CHEMBL2207988

> <chembl_pref_name>
None

> <i_lp_mmshare_version>
53161

> <r_lp_tautomer_probability>
0.499999999999999

> <s_lp_Force_Field>
OPLS_2005

> <r_lp_Energy>
9.159274

> <b_lp_Chiralities_Consistent>
1

> <s_lp_Variant>
CHEMBL4439_lig601-1

> <s_i_glide_gridfile>
glide-grid_3hmm

> <i_i_glide_lignum>
815

> <i_i_glide_rotatable_bonds>
2

> <r_i_docking_score>
-8.30119168329367

> <r_i_glide_ligand_efficiency>
-0.415059584164684

> <r_i_glide_ligand_efficiency_sa>
-1.12664504606813

> <r_i_glide_ligand_efficiency_ln>
-2.07751448670264

> <r_i_glide_gscore>
-8.30119168329367

> <r_i_glide_lipo>
-3.52448889324292

> <r_i_glide_hbond>
-0.16

> <r_i_glide_metal>
0

> <r_i_glide_rewards>
-2.59668752937895

> <r_i_glide_evdw>
-40.2134742736816

> <r_i_glide_ecoul>
-2.81028008460999

> <r_i_glide_erotb>
0.412200465703776

> <r_i_glide_esite>
0

> <r_i_glide_emodel>
-64.0502020351985

> <r_i_glide_energy>
-43.0237543582916

> <r_i_glide_einternal>
2.0752546787262

> <i_i_glide_confnum>
6

> <i_i_glide_posenum>
355

> <r_i_glide_eff_state_penalty>
0

> <s_user_duplicate_titles>
CHEMBL4439_lig601,CHEMBL4439_lig601

> <i_f3d_flags>
0

> <s_m_subgroup_title>
dock_pv

> <s_m_subgroupid>
dock_pv

> <b_m_subgroup_collapsed>
1

$$$$
CHEMBL4439_lig328
                    3D
 Schrodinger Suite 2021-1.
 53 57  0  0  1  0            999 V2000
   22.2748   70.1310    8.2535 C   0  0  0  0  0  0
   21.5689   69.3962    9.3711 C   0  0  0  0  0  0
   20.1899   69.1704    9.2746 C   0  0  0  0  0  0
   19.4808   68.4571   10.2526 C   0  0  0  0  0  0
   20.1670   68.0570   11.4011 C   0  0  0  0  0  0
   21.5368   68.2832   11.5284 C   0  0  0  0  0  0
   22.2389   68.9352   10.5148 C   0  0  0  0  0  0
   17.9671   68.2001   10.1438 C   0  0  0  0  0  0
   17.4014   67.8506    8.7685 C   0  0  0  0  0  0
   17.9166   68.1819    7.6165 N   0  0  0  0  0  0
   17.1107   67.7509    6.6559 C   0  0  0  0  0  0
   16.0124   67.0794    7.2269 C   0  0  0  0  0  0
   16.2236   67.1875    8.5820 N   0  0  0  0  0  0
   12.4962   65.7390    6.7163 C   0  0  0  0  0  0
   13.5758   66.4569    7.2317 C   0  0  0  0  0  0
   14.8475   66.3472    6.6639 C   0  0  0  0  0  0
   15.0471   65.5146    5.5652 C   0  0  0  0  0  0
   17.4653   68.0650    5.2193 C   0  0  0  0  0  0
   18.7566   68.4563    5.0054 N   0  0  0  0  0  0
   19.1368   68.8417    3.7637 C   0  0  0  0  0  0
   18.2588   68.8563    2.6786 C   0  0  0  0  0  0
   16.9398   68.4515    2.8921 C   0  0  0  0  0  0
   16.5354   68.0560    4.1708 C   0  0  0  0  0  0
   13.9731   64.7928    5.0056 C   0  0  0  0  0  0
   12.6754   64.8956    5.5944 C   0  0  0  0  0  0
   11.6090   64.1990    5.1107 N   0  0  0  0  0  0
   11.8036   63.3999    4.0321 C   0  0  0  0  0  0
   13.0314   63.2564    3.3924 C   0  0  0  0  0  0
   14.1319   63.9562    3.8761 C   0  0  0  0  0  0
   20.5886   69.2583    3.6333 C   0  0  0  0  0  0
   21.6878   70.4571    7.2219 O   0  0  0  0  0  0
   23.5528   70.4569    8.4321 N   0  0  0  0  0  0
   19.6686   69.5827    8.4255 H   0  0  0  0  0  0
   19.6447   67.5360   12.1912 H   0  0  0  0  0  0
   22.0569   67.9390   12.4102 H   0  0  0  0  0  0
   23.3006   69.0803   10.6443 H   0  0  0  0  0  0
   17.7001   67.4165   10.8539 H   0  0  0  0  0  0
   17.4623   69.0951   10.5095 H   0  0  0  0  0  0
   15.6254   66.8355    9.3135 H   0  0  0  0  0  0
   11.5157   65.8188    7.1653 H   0  0  0  0  0  0
   13.4178   67.1062    8.0800 H   0  0  0  0  0  0
   16.0297   65.4191    5.1258 H   0  0  0  0  0  0
   18.5868   69.1721    1.6986 H   0  0  0  0  0  0
   16.2298   68.4592    2.0778 H   0  0  0  0  0  0
   15.5049   67.7899    4.3408 H   0  0  0  0  0  0
   10.9362   62.8734    3.6628 H   0  0  0  0  0  0
   13.1278   62.6171    2.5256 H   0  0  0  0  0  0
   15.0973   63.8635    3.4005 H   0  0  0  0  0  0
   20.8371   69.5517    2.6100 H   0  0  0  0  0  0
   20.8018   70.1012    4.2948 H   0  0  0  0  0  0
   21.2498   68.4360    3.9223 H   0  0  0  0  0  0
   23.9950   71.0444    7.7270 H   0  0  0  0  0  0
   24.0458   70.2411    9.2803 H   0  0  0  0  0  0
  1  2  1  0  0  0
  1 31  2  0  0  0
  1 32  1  0  0  0
  2  3  1  0  0  0
  2  7  2  0  0  0
  3  4  2  0  0  0
  3 33  1  0  0  0
  4  8  1  0  0  0
  4  5  1  0  0  0
  5  6  2  0  0  0
  5 34  1  0  0  0
  6  7  1  0  0  0
  6 35  1  0  0  0
  7 36  1  0  0  0
  8 37  1  0  0  0
  8 38  1  0  0  0
  8  9  1  0  0  0
  9 13  1  0  0  0
  9 10  2  0  0  0
 10 11  1  0  0  0
 11 18  1  0  0  0
 11 12  2  0  0  0
 12 16  1  0  0  0
 12 13  1  0  0  0
 13 39  1  0  0  0
 14 15  2  0  0  0
 14 25  1  0  0  0
 14 40  1  0  0  0
 15 16  1  0  0  0
 15 41  1  0  0  0
 16 17  2  0  0  0
 17 24  1  0  0  0
 17 42  1  0  0  0
 18 19  1  0  0  0
 18 23  2  0  0  0
 19 20  2  0  0  0
 20 21  1  0  0  0
 20 30  1  0  0  0
 21 22  2  0  0  0
 21 43  1  0  0  0
 22 23  1  0  0  0
 22 44  1  0  0  0
 23 45  1  0  0  0
 24 25  1  0  0  0
 24 29  2  0  0  0
 25 26  2  0  0  0
 26 27  1  0  0  0
 27 28  2  0  0  0
 27 46  1  0  0  0
 28 29  1  0  0  0
 28 47  1  0  0  0
 29 48  1  0  0  0
 30 49  1  0  0  0
 30 50  1  0  0  0
 30 51  1  0  0  0
 32 52  1  0  0  0
 32 53  1  0  0  0
M  END
> <s_m_entry_id>
34488

> <s_m_entry_name>
dock_pv.231

> <s_m_Source_Path>
/home/csk/Desktop/cluster/DUD-E-result/tgfr1

> <s_m_Source_File>
dock_pv.maegz

> <i_m_Source_File_Index>
231

> <chembl_id>
CHEMBL1164957

> <chembl_pref_name>
None

> <i_lp_mmshare_version>
53161

> <r_lp_tautomer_probability>
0.499999999999999

> <s_lp_Force_Field>
OPLS_2005

> <r_lp_Energy>
22.762131

> <b_lp_Chiralities_Consistent>
1

> <s_lp_Variant>
CHEMBL4439_lig328-2

> <s_i_glide_gridfile>
glide-grid_3hmm

> <i_i_glide_lignum>
463

> <i_i_glide_rotatable_bonds>
5

> <r_i_docking_score>
-8.30049764353544

> <r_i_glide_ligand_efficiency>
-0.259390551360482

> <r_i_glide_ligand_efficiency_sa>
-0.823513667249122

> <r_i_glide_ligand_efficiency_ln>
-1.85870768540781

> <r_i_glide_gscore>
-8.30049764353544

> <r_i_glide_lipo>
-4.14193674666479

> <r_i_glide_hbond>
-0.16

> <r_i_glide_metal>
0

> <r_i_glide_rewards>
-1.20863643731915

> <r_i_glide_evdw>
-56.7280464172363

> <r_i_glide_ecoul>
-2.68833494186401

> <r_i_glide_erotb>
0.449728102589922

> <r_i_glide_esite>
0

> <r_i_glide_emodel>
-86.0517233570474

> <r_i_glide_energy>
-59.4163813591003

> <r_i_glide_einternal>
6.29728841781616

> <i_i_glide_confnum>
15

> <i_i_glide_posenum>
68

> <r_i_glide_eff_state_penalty>
0

> <s_user_duplicate_titles>
CHEMBL4439_lig328,645885

> <i_f3d_flags>
0

> <s_m_subgroup_title>
dock_pv

> <s_m_subgroupid>
dock_pv

> <b_m_subgroup_collapsed>
1

$$$$
CHEMBL4439_lig292
                    3D
 Schrodinger Suite 2021-1.
 49 53  0  0  1  0            999 V2000
   12.8143   63.2625    3.2104 O   0  0  0  0  0  0
   12.5337   63.7871    4.5516 S   0  0  0  0  0  0
   12.2670   62.8571    5.6301 O   0  0  0  0  0  0
   19.7087   69.1291    4.3864 N   0  0  0  0  0  0
   17.7780   68.2895    5.2390 C   0  0  0  0  0  0
   19.1338   68.6625    5.4836 C   0  0  0  0  0  0
   17.6088   68.5364    3.8811 C   0  0  0  0  0  0
   18.7794   69.0558    3.4358 N   0  0  0  0  0  0
   18.7753   69.4359    2.0409 C   0  0  0  0  0  0
   17.3094   69.2591    1.6320 C   0  0  0  0  0  0
   16.6228   68.4594    2.7424 C   0  0  0  0  0  0
   16.7026   67.8011    6.1681 C   0  0  0  0  0  0
   14.5592   67.1241    7.8957 N   0  0  0  0  0  0
   15.4649   68.0790    8.2200 C   0  0  0  0  0  0
   16.5189   68.4528    7.3930 C   0  0  0  0  0  0
   19.9362   68.5889    6.7535 C   0  0  0  0  0  0
   21.0468   69.4159    6.9827 C   0  0  0  0  0  0
   21.7420   69.3019    8.1882 C   0  0  0  0  0  0
   21.3223   68.3686    9.1368 C   0  0  0  0  0  0
   20.2167   67.5710    8.8398 C   0  0  0  0  0  0
   19.5324   67.6679    7.6715 N   0  0  0  0  0  0
   14.6991   66.4830    6.7023 C   0  0  0  0  0  0
   15.7806   66.7647    5.8134 C   0  0  0  0  0  0
   15.8742   66.0030    4.6219 C   0  0  0  0  0  0
   14.9167   65.0720    4.2655 C   0  0  0  0  0  0
   13.8352   64.8583    5.0956 C   0  0  0  0  0  0
   13.7286   65.5245    6.3212 C   0  0  0  0  0  0
   11.0861   64.9559    4.5648 C   0  0  0  0  0  0
    9.8656   64.1105    4.8355 C   0  0  0  0  0  0
   19.4646   68.8575    1.4368 H   0  0  0  0  0  0
   19.0938   70.4570    1.9321 H   0  0  0  0  0  0
   17.2287   68.7527    0.6723 H   0  0  0  0  0  0
   16.8319   70.2341    1.5081 H   0  0  0  0  0  0
   16.4542   67.4390    2.4256 H   0  0  0  0  0  0
   15.6397   68.8571    2.9896 H   0  0  0  0  0  0
   15.3162   68.5754    9.1682 H   0  0  0  0  0  0
   17.1821   69.2500    7.6965 H   0  0  0  0  0  0
   21.3705   70.1339    6.2441 H   0  0  0  0  0  0
   22.5992   69.9318    8.3805 H   0  0  0  0  0  0
   21.8438   68.2669   10.0771 H   0  0  0  0  0  0
   19.8613   66.8343    9.5458 H   0  0  0  0  0  0
   16.7376   66.1053    3.9906 H   0  0  0  0  0  0
   15.0102   64.5289    3.3343 H   0  0  0  0  0  0
   12.8862   65.3381    6.9727 H   0  0  0  0  0  0
   11.0740   65.5160    3.6382 H   0  0  0  0  0  0
   11.2159   65.6708    5.3747 H   0  0  0  0  0  0
    8.9839   64.7453    4.8311 H   0  0  0  0  0  0
    9.7654   63.3199    4.0906 H   0  0  0  0  0  0
    9.8985   63.6395    5.8188 H   0  0  0  0  0  0
  1  2  2  0  0  0
  2  3  2  0  0  0
  2 26  1  0  0  0
  2 28  1  0  0  0
  4  8  1  0  0  0
  4  6  2  0  0  0
  5 12  1  0  0  0
  5  7  2  0  0  0
  5  6  1  0  0  0
  6 16  1  0  0  0
  7 11  1  0  0  0
  7  8  1  0  0  0
  8  9  1  0  0  0
  9 10  1  0  0  0
  9 30  1  0  0  0
  9 31  1  0  0  0
 10 11  1  0  0  0
 10 32  1  0  0  0
 10 33  1  0  0  0
 11 34  1  0  0  0
 11 35  1  0  0  0
 12 15  1  0  0  0
 12 23  2  0  0  0
 13 22  2  0  0  0
 13 14  1  0  0  0
 14 15  2  0  0  0
 14 36  1  0  0  0
 15 37  1  0  0  0
 16 17  2  0  0  0
 16 21  1  0  0  0
 17 18  1  0  0  0
 17 38  1  0  0  0
 18 19  2  0  0  0
 18 39  1  0  0  0
 19 20  1  0  0  0
 19 40  1  0  0  0
 20 21  2  0  0  0
 20 41  1  0  0  0
 22 23  1  0  0  0
 22 27  1  0  0  0
 23 24  1  0  0  0
 24 25  2  0  0  0
 24 42  1  0  0  0
 25 26  1  0  0  0
 25 43  1  0  0  0
 26 27  2  0  0  0
 27 44  1  0  0  0
 28 29  1  0  0  0
 28 45  1  0  0  0
 28 46  1  0  0  0
 29 47  1  0  0  0
 29 48  1  0  0  0
 29 49  1  0  0  0
M  END
> <s_m_entry_id>
34489

> <s_m_entry_name>
dock_pv.232

> <s_m_Source_Path>
/home/csk/Desktop/cluster/DUD-E-result/tgfr1

> <s_m_Source_File>
dock_pv.maegz

> <i_m_Source_File_Index>
232

> <chembl_id>
CHEMBL331703

> <chembl_pref_name>
None

> <i_lp_mmshare_version>
53161

> <r_lp_tautomer_probability>
1

> <s_lp_Force_Field>
OPLS_2005

> <r_lp_Energy>
35.125317

> <b_lp_Chiralities_Consistent>
1

> <s_lp_Variant>
CHEMBL4439_lig292-1

> <s_i_glide_gridfile>
glide-grid_3hmm

> <i_i_glide_lignum>
424

> <i_i_glide_rotatable_bonds>
4

> <r_i_docking_score>
-8.29679104800474

> <r_i_glide_ligand_efficiency>
-0.286096243034646

> <r_i_glide_ligand_efficiency_sa>
-0.878978300254257

> <r_i_glide_ligand_efficiency_ln>
-1.89975476152492

> <r_i_glide_gscore>
-8.29679104800474

> <r_i_glide_lipo>
-4.44592407759818

> <r_i_glide_hbond>
0

> <r_i_glide_metal>
0

> <r_i_glide_rewards>
-1.5893307714178

> <r_i_glide_evdw>
-49.9872398376465

> <r_i_glide_ecoul>
-0.815780520439148

> <r_i_glide_erotb>
0.360192870959439

> <r_i_glide_esite>
0

> <r_i_glide_emodel>
-67.8812696970879

> <r_i_glide_energy>
-50.8030203580856

> <r_i_glide_einternal>
5.30928897857666

> <i_i_glide_confnum>
34

> <i_i_glide_posenum>
27

> <r_i_glide_eff_state_penalty>
0

> <s_user_duplicate_titles>
CHEMBL4439_lig292

> <i_f3d_flags>
0

> <s_m_subgroup_title>
dock_pv

> <s_m_subgroupid>
dock_pv

> <b_m_subgroup_collapsed>
1

$$$$
CHEMBL4439_lig225
                    3D
 Schrodinger Suite 2021-1.
 44 47  0  0  1  0            999 V2000
   18.4838   67.9436   11.3982 C   0  0  0  0  0  0
   17.3453   67.3574   11.9400 C   0  0  0  0  0  0
   16.3457   66.8571   11.1106 C   0  0  0  0  0  0
   18.6348   68.0595   10.0185 C   0  0  0  0  0  0
   17.6212   67.5760    9.1432 C   0  0  0  0  0  0
   16.4662   66.9561    9.7080 C   0  0  0  0  0  0
   15.4663   66.4574    8.9333 N   0  0  0  0  0  0
   15.6021   66.5806    7.5889 C   0  0  0  0  0  0
   16.6511   67.1540    6.9511 N   0  0  0  0  0  0
   17.6493   67.6567    7.7187 C   0  0  0  0  0  0
   14.4917   66.0320    6.7581 C   0  0  0  0  0  0
   18.7501   68.2522    7.0791 N   0  0  0  0  0  0
   13.1486   66.1679    7.1402 C   0  0  0  0  0  0
   12.1554   65.5698    6.3652 C   0  0  0  0  0  0
   12.5157   64.8509    5.2252 C   0  0  0  0  0  0
   13.8699   64.7562    4.8959 C   0  0  0  0  0  0
   14.8478   65.3347    5.6410 N   0  0  0  0  0  0
   14.3277   63.9832    3.6725 C   0  0  0  0  0  0
   19.0699   68.5472    5.7437 C   0  0  0  0  0  0
   20.3926   68.9046    5.4805 C   0  0  0  0  0  0
   20.7859   69.2569    4.1948 C   0  0  0  0  0  0
   19.8538   69.2574    3.1616 C   0  0  0  0  0  0
   18.5204   68.8882    3.3822 C   0  0  0  0  0  0
   18.1416   68.5396    4.6903 C   0  0  0  0  0  0
   17.5413   68.8829    2.2242 C   0  0  0  0  0  0
   16.2986   68.4570    2.4555 N   0  0  0  0  0  0
   17.8670   69.2550    1.0996 O   0  0  0  0  0  0
   19.2570   68.3204   12.0515 H   0  0  0  0  0  0
   17.2363   67.2787   13.0118 H   0  0  0  0  0  0
   15.4683   66.3934   11.5381 H   0  0  0  0  0  0
   19.5190   68.5350    9.6210 H   0  0  0  0  0  0
   19.4909   68.4869    7.7203 H   0  0  0  0  0  0
   12.8784   66.7202    8.0284 H   0  0  0  0  0  0
   11.1156   65.6611    6.6465 H   0  0  0  0  0  0
   11.7610   64.3846    4.6085 H   0  0  0  0  0  0
   13.7005   63.1064    3.5065 H   0  0  0  0  0  0
   14.2671   64.6133    2.7870 H   0  0  0  0  0  0
   15.3582   63.6395    3.7733 H   0  0  0  0  0  0
   21.1315   68.9115    6.2692 H   0  0  0  0  0  0
   21.8135   69.5297    4.0009 H   0  0  0  0  0  0
   20.1867   69.5448    2.1727 H   0  0  0  0  0  0
   17.1133   68.2938    4.8881 H   0  0  0  0  0  0
   15.6311   68.4572    1.6984 H   0  0  0  0  0  0
   16.0345   68.1073    3.3626 H   0  0  0  0  0  0
  1  2  2  0  0  0
  1  4  1  0  0  0
  1 28  1  0  0  0
  2  3  1  0  0  0
  2 29  1  0  0  0
  3  6  2  0  0  0
  3 30  1  0  0  0
  4  5  2  0  0  0
  4 31  1  0  0  0
  5 10  1  0  0  0
  5  6  1  0  0  0
  6  7  1  0  0  0
  7  8  2  0  0  0
  8  9  1  0  0  0
  8 11  1  0  0  0
  9 10  2  0  0  0
 10 12  1  0  0  0
 11 13  2  0  0  0
 11 17  1  0  0  0
 12 19  1  0  0  0
 12 32  1  0  0  0
 13 14  1  0  0  0
 13 33  1  0  0  0
 14 15  2  0  0  0
 14 34  1  0  0  0
 15 16  1  0  0  0
 15 35  1  0  0  0
 16 17  2  0  0  0
 16 18  1  0  0  0
 18 36  1  0  0  0
 18 37  1  0  0  0
 18 38  1  0  0  0
 19 20  2  0  0  0
 19 24  1  0  0  0
 20 21  1  0  0  0
 20 39  1  0  0  0
 21 22  2  0  0  0
 21 40  1  0  0  0
 22 23  1  0  0  0
 22 41  1  0  0  0
 23 24  2  0  0  0
 23 25  1  0  0  0
 24 42  1  0  0  0
 25 26  1  0  0  0
 25 27  2  0  0  0
 26 43  1  0  0  0
 26 44  1  0  0  0
M  END
> <s_m_entry_id>
34490

> <s_m_entry_name>
dock_pv.233

> <s_m_Source_Path>
/home/csk/Desktop/cluster/DUD-E-result/tgfr1

> <s_m_Source_File>
dock_pv.maegz

> <i_m_Source_File_Index>
233

> <chembl_id>
CHEMBL563421

> <chembl_pref_name>
None

> <i_lp_mmshare_version>
53161

> <r_lp_tautomer_probability>
0.999978000241998

> <s_lp_Force_Field>
OPLS_2005

> <r_lp_Energy>
20.654399

> <b_lp_Chiralities_Consistent>
1

> <s_lp_Variant>
CHEMBL4439_lig225-1

> <s_i_glide_gridfile>
glide-grid_3hmm

> <i_i_glide_lignum>
327

> <i_i_glide_rotatable_bonds>
4

> <r_i_docking_score>
-8.29252431510556

> <r_i_glide_ligand_efficiency>
-0.307130530189095

> <r_i_glide_ligand_efficiency_sa>
-0.921391589555033

> <r_i_glide_ligand_efficiency_ln>
-1.93036294760854

> <r_i_glide_gscore>
-8.29252431510556

> <r_i_glide_lipo>
-3.23424236500499

> <r_i_glide_hbond>
-0.387596355344731

> <r_i_glide_metal>
0

> <r_i_glide_rewards>
-1.87617184277909

> <r_i_glide_evdw>
-51.109790802002

> <r_i_glide_ecoul>
-4.62111759185791

> <r_i_glide_erotb>
0.454143426902038

> <r_i_glide_esite>
0

> <r_i_glide_emodel>
-81.554989362619

> <r_i_glide_energy>
-55.7309083938599

> <r_i_glide_einternal>
2.58833312988281

> <i_i_glide_confnum>
3

> <i_i_glide_posenum>
141

> <r_i_glide_eff_state_penalty>
0

> <s_user_duplicate_titles>
CHEMBL4439_lig225,566636

> <i_f3d_flags>
0

> <s_m_subgroup_title>
dock_pv

> <s_m_subgroupid>
dock_pv

> <b_m_subgroup_collapsed>
1

$$$$
CHEMBL4439_lig451
                    3D
 Schrodinger Suite 2021-1.
 34 37  0  0  1  0            999 V2000
   16.1385   67.0196    8.3404 C   0  0  0  0  0  0
   15.1856   66.3997    7.3592 C   0  0  0  0  0  0
   15.6172   65.7575    6.1925 C   0  0  0  0  0  0
   14.6694   65.2157    5.3215 C   0  0  0  0  0  0
   13.3145   65.3057    5.6397 C   0  0  0  0  0  0
   12.9520   65.9337    6.8319 C   0  0  0  0  0  0
   13.8638   66.4594    7.6897 N   0  0  0  0  0  0
   17.6781   68.1868    5.7882 C   0  0  0  0  0  0
   18.5160   68.4638    4.6982 C   0  0  0  0  0  0
   19.8702   68.5228    4.8234 N   0  0  0  0  0  0
   20.4081   68.2899    6.0451 C   0  0  0  0  0  0
   19.6374   67.9886    7.1679 C   0  0  0  0  0  0
   18.2434   67.9342    7.0418 C   0  0  0  0  0  0
   17.3945   67.6441    8.2362 C   0  0  0  0  0  0
   15.8676   67.0811    9.6849 N   0  0  0  0  0  0
   16.8060   67.6592   10.4287 N   0  0  0  0  0  0
   17.7184   67.9997    9.5584 C   0  0  0  0  0  0
   17.9820   68.7095    3.4123 N   0  0  0  0  0  0
   18.6175   69.2324    2.3031 C   0  0  0  0  0  0
   17.8680   69.2972    1.2320 N   0  0  0  0  0  0
   16.6915   68.8621    1.6320 C   0  0  0  0  0  0
   16.7091   68.4565    2.9536 C   0  0  0  0  0  0
   16.6673   65.6765    5.9619 H   0  0  0  0  0  0
   14.9832   64.7274    4.4087 H   0  0  0  0  0  0
   12.5659   64.8980    4.9749 H   0  0  0  0  0  0
   11.9125   66.0151    7.1176 H   0  0  0  0  0  0
   16.6044   68.1966    5.6809 H   0  0  0  0  0  0
   21.4847   68.3488    6.1105 H   0  0  0  0  0  0
   20.1205   67.8080    8.1168 H   0  0  0  0  0  0
   15.0123   66.7461   10.1010 H   0  0  0  0  0  0
   18.6086   68.5275    9.8717 H   0  0  0  0  0  0
   19.6550   69.5268    2.3599 H   0  0  0  0  0  0
   15.8479   68.8291    0.9614 H   0  0  0  0  0  0
   15.9425   68.0302    3.5840 H   0  0  0  0  0  0
  1 15  1  0  0  0
  1  2  1  0  0  0
  1 14  2  0  0  0
  2  3  2  0  0  0
  2  7  1  0  0  0
  3  4  1  0  0  0
  3 23  1  0  0  0
  4  5  2  0  0  0
  4 24  1  0  0  0
  5  6  1  0  0  0
  5 25  1  0  0  0
  6  7  2  0  0  0
  6 26  1  0  0  0
  8 13  1  0  0  0
  8  9  2  0  0  0
  8 27  1  0  0  0
  9 10  1  0  0  0
  9 18  1  0  0  0
 10 11  2  0  0  0
 11 12  1  0  0  0
 11 28  1  0  0  0
 12 13  2  0  0  0
 12 29  1  0  0  0
 13 14  1  0  0  0
 14 17  1  0  0  0
 15 16  1  0  0  0
 15 30  1  0  0  0
 16 17  2  0  0  0
 17 31  1  0  0  0
 18 19  1  0  0  0
 18 22  1  0  0  0
 19 20  2  0  0  0
 19 32  1  0  0  0
 20 21  1  0  0  0
 21 22  2  0  0  0
 21 33  1  0  0  0
 22 34  1  0  0  0
M  END
> <s_m_entry_id>
34491

> <s_m_entry_name>
dock_pv.234

> <s_m_Source_Path>
/home/csk/Desktop/cluster/DUD-E-result/tgfr1

> <s_m_Source_File>
dock_pv.maegz

> <i_m_Source_File_Index>
234

> <chembl_id>
CHEMBL1829505

> <chembl_pref_name>
None

> <i_lp_mmshare_version>
53161

> <r_lp_tautomer_probability>
0.5

> <s_lp_Force_Field>
OPLS_2005

> <r_lp_Energy>
15.381331

> <b_lp_Chiralities_Consistent>
1

> <s_lp_Variant>
CHEMBL4439_lig451-2

> <s_i_glide_gridfile>
glide-grid_3hmm

> <i_i_glide_lignum>
595

> <i_i_glide_rotatable_bonds>
3

> <r_i_docking_score>
-8.28993109989336

> <r_i_glide_ligand_efficiency>
-0.376815049995153

> <r_i_glide_ligand_efficiency_sa>
-1.0558505893814

> <r_i_glide_ligand_efficiency_ln>
-2.02636154339787

> <r_i_glide_gscore>
-8.28993109989336

> <r_i_glide_lipo>
-2.65152865606355

> <r_i_glide_hbond>
-0.352529091939778

> <r_i_glide_metal>
0

> <r_i_glide_rewards>
-3.45485673333065

> <r_i_glide_evdw>
-41.9391059875488

> <r_i_glide_ecoul>
-2.60397434234619

> <r_i_glide_erotb>
0.65653483216998

> <r_i_glide_esite>
0

> <r_i_glide_emodel>
-67.0746429728864

> <r_i_glide_energy>
-44.543080329895

> <r_i_glide_einternal>
0.527919769287109

> <i_i_glide_confnum>
1

> <i_i_glide_posenum>
277

> <r_i_glide_eff_state_penalty>
0

> <s_user_duplicate_titles>
CHEMBL4439_lig451,CHEMBL4439_lig451

> <i_f3d_flags>
0

> <s_m_subgroup_title>
dock_pv

> <s_m_subgroupid>
dock_pv

> <b_m_subgroup_collapsed>
1

$$$$
CHEMBL4439_lig173
                    3D
 Schrodinger Suite 2021-1.
 41 45  0  0  1  0            999 V2000
   20.4668   68.5393    5.2442 C   0  0  0  0  0  0
   20.7361   69.1562    4.0308 C   0  0  0  0  0  0
   19.7437   69.2576    3.0633 C   0  0  0  0  0  0
   19.1923   68.0570    5.5192 C   0  0  0  0  0  0
   18.1282   68.2086    4.5828 C   0  0  0  0  0  0
   18.4367   68.7884    3.3109 C   0  0  0  0  0  0
   17.5154   68.9052    2.3166 N   0  0  0  0  0  0
   16.2664   68.4530    2.5548 C   0  0  0  0  0  0
   15.8669   67.9052    3.7669 C   0  0  0  0  0  0
   16.7745   67.7962    4.8255 C   0  0  0  0  0  0
   16.2885   67.2946    6.1590 C   0  0  0  0  0  0
   15.3619   66.2552    6.4718 C   0  0  0  0  0  0
   15.2784   66.0587    7.7763 N   0  0  0  0  0  0
   16.6084   67.8218    7.4127 C   0  0  0  0  0  0
   16.0442   66.9921    8.3308 N   0  0  0  0  0  0
   16.3523   67.2946    9.7109 C   0  0  0  0  0  0
   17.3446   68.4532    9.5900 C   0  0  0  0  0  0
   17.3313   68.9359    8.1374 C   0  0  0  0  0  0
   14.5485   65.3841    5.5618 C   0  0  0  0  0  0
   15.0664   64.8495    4.3779 C   0  0  0  0  0  0
   14.2702   63.9756    3.6320 C   0  0  0  0  0  0
   12.9811   63.6642    4.0647 C   0  0  0  0  0  0
   12.5150   64.2711    5.2308 C   0  0  0  0  0  0
   13.2765   65.1123    5.9770 N   0  0  0  0  0  0
   21.9854   69.6418    3.7670 O   0  0  0  0  0  0
   21.2517   68.4244    5.9776 H   0  0  0  0  0  0
   19.9694   69.7100    2.1074 H   0  0  0  0  0  0
   19.0207   67.5357    6.4459 H   0  0  0  0  0  0
   15.5598   68.5573    1.7412 H   0  0  0  0  0  0
   14.8354   67.6130    3.8937 H   0  0  0  0  0  0
   16.7926   66.4350   10.2171 H   0  0  0  0  0  0
   15.4677   67.5954   10.2625 H   0  0  0  0  0  0
   18.3463   68.1132    9.8596 H   0  0  0  0  0  0
   17.0842   69.2570   10.2777 H   0  0  0  0  0  0
   18.3480   69.1310    7.8031 H   0  0  0  0  0  0
   16.7956   69.8808    8.0374 H   0  0  0  0  0  0
   16.0569   65.0987    4.0362 H   0  0  0  0  0  0
   14.6484   63.5472    2.7163 H   0  0  0  0  0  0
   12.3501   63.0012    3.4884 H   0  0  0  0  0  0
   11.5150   64.0810    5.5902 H   0  0  0  0  0  0
   22.6345   69.3910    4.4313 H   0  0  0  0  0  0
  1  2  2  0  0  0
  1  4  1  0  0  0
  1 26  1  0  0  0
  2  3  1  0  0  0
  2 25  1  0  0  0
  3  6  2  0  0  0
  3 27  1  0  0  0
  4  5  2  0  0  0
  4 28  1  0  0  0
  5  6  1  0  0  0
  5 10  1  0  0  0
  6  7  1  0  0  0
  7  8  2  0  0  0
  8  9  1  0  0  0
  8 29  1  0  0  0
  9 10  2  0  0  0
  9 30  1  0  0  0
 10 11  1  0  0  0
 11 14  2  0  0  0
 11 12  1  0  0  0
 12 13  2  0  0  0
 12 19  1  0  0  0
 13 15  1  0  0  0
 14 15  1  0  0  0
 14 18  1  0  0  0
 15 16  1  0  0  0
 16 17  1  0  0  0
 16 31  1  0  0  0
 16 32  1  0  0  0
 17 18  1  0  0  0
 17 33  1  0  0  0
 17 34  1  0  0  0
 18 35  1  0  0  0
 18 36  1  0  0  0
 19 20  2  0  0  0
 19 24  1  0  0  0
 20 21  1  0  0  0
 20 37  1  0  0  0
 21 22  2  0  0  0
 21 38  1  0  0  0
 22 23  1  0  0  0
 22 39  1  0  0  0
 23 24  2  0  0  0
 23 40  1  0  0  0
 25 41  1  0  0  0
M  END
> <s_m_entry_id>
34492

> <s_m_entry_name>
dock_pv.235

> <s_m_Source_Path>
/home/csk/Desktop/cluster/DUD-E-result/tgfr1

> <s_m_Source_File>
dock_pv.maegz

> <i_m_Source_File_Index>
235

> <chembl_id>
CHEMBL260147

> <chembl_pref_name>
None

> <i_lp_mmshare_version>
53161

> <r_lp_tautomer_probability>
1

> <s_lp_Force_Field>
OPLS_2005

> <r_lp_Energy>
40.904333

> <b_lp_Chiralities_Consistent>
1

> <s_lp_Variant>
CHEMBL4439_lig173-1

> <s_i_glide_gridfile>
glide-grid_3hmm

> <i_i_glide_lignum>
265

> <i_i_glide_rotatable_bonds>
3

> <r_i_docking_score>
-8.28571958653001

> <r_i_glide_ligand_efficiency>
-0.3314287834612

> <r_i_glide_ligand_efficiency_sa>
-0.969103640755053

> <r_i_glide_ligand_efficiency_ln>
-1.9639638449868

> <r_i_glide_gscore>
-8.28571958653001

> <r_i_glide_lipo>
-4.07864133060139

> <r_i_glide_hbond>
-0.0647039843718034

> <r_i_glide_metal>
0

> <r_i_glide_rewards>
-1.68341799485659

> <r_i_glide_evdw>
-44.2602081298828

> <r_i_glide_ecoul>
-3.96199488639832

> <r_i_glide_erotb>
0.348353362753669

> <r_i_glide_esite>
0

> <r_i_glide_emodel>
-70.0368071314996

> <r_i_glide_energy>
-48.2222030162811

> <r_i_glide_einternal>
4.46603345870972

> <i_i_glide_confnum>
8

> <i_i_glide_posenum>
222

> <r_i_glide_eff_state_penalty>
0

> <s_user_duplicate_titles>
CHEMBL4439_lig173,428805

> <i_f3d_flags>
0

> <s_m_subgroup_title>
dock_pv

> <s_m_subgroupid>
dock_pv

> <b_m_subgroup_collapsed>
1

$$$$
CHEMBL4439_lig269
                    3D
 Schrodinger Suite 2021-1.
 42 46  0  0  1  0            999 V2000
   16.2328   67.3562    6.0796 C   0  0  0  0  0  0
   15.3243   66.3132    6.4299 C   0  0  0  0  0  0
   15.2391   66.1526    7.7398 N   0  0  0  0  0  0
   14.5245   65.4075    5.5439 C   0  0  0  0  0  0
   15.0501   64.8582    4.3710 C   0  0  0  0  0  0
   14.2675   63.9701    3.6321 C   0  0  0  0  0  0
   12.9791   63.6568    4.0672 C   0  0  0  0  0  0
   12.5073   64.2655    5.2307 C   0  0  0  0  0  0
   13.2586   65.1252    5.9659 N   0  0  0  0  0  0
   16.6694   67.8404    4.7191 C   0  0  0  0  0  0
   17.3108   68.9258    2.1710 N   0  0  0  0  0  0
   16.0767   68.4570    2.4544 C   0  0  0  0  0  0
   15.7272   67.9137    3.6860 C   0  0  0  0  0  0
   16.5858   67.8932    7.3221 C   0  0  0  0  0  0
   16.0199   67.0899    8.2630 N   0  0  0  0  0  0
   16.3132   67.4580    9.6322 C   0  0  0  0  0  0
   17.4768   68.4306    9.4464 C   0  0  0  0  0  0
   17.3426   68.9960    8.0320 C   0  0  0  0  0  0
   18.2651   68.8352    3.1357 C   0  0  0  0  0  0
   18.0069   68.2702    4.4256 C   0  0  0  0  0  0
   19.1016   68.1472    5.3276 C   0  0  0  0  0  0
   20.3649   68.6211    4.9909 C   0  0  0  0  0  0
   20.5898   69.2115    3.7555 C   0  0  0  0  0  0
   19.5573   69.3130    2.8286 C   0  0  0  0  0  0
   21.8670   69.6569    3.4300 N   0  0  0  0  0  0
   16.0424   65.1130    4.0334 H   0  0  0  0  0  0
   14.6526   63.5294    2.7263 H   0  0  0  0  0  0
   12.3575   62.9782    3.5013 H   0  0  0  0  0  0
   11.5093   64.0670    5.5940 H   0  0  0  0  0  0
   15.3438   68.5367    1.6632 H   0  0  0  0  0  0
   14.7059   67.6012    3.8486 H   0  0  0  0  0  0
   16.5832   66.5911   10.2363 H   0  0  0  0  0  0
   15.4671   67.9634   10.0880 H   0  0  0  0  0  0
   18.4249   67.8978    9.5450 H   0  0  0  0  0  0
   17.4689   69.2189   10.1993 H   0  0  0  0  0  0
   18.3244   69.2345    7.6281 H   0  0  0  0  0  0
   16.7744   69.9273    8.0322 H   0  0  0  0  0  0
   18.9695   67.6498    6.2742 H   0  0  0  0  0  0
   21.1800   68.5073    5.6920 H   0  0  0  0  0  0
   19.7391   69.7491    1.8559 H   0  0  0  0  0  0
   22.0439   70.0454    2.5154 H   0  0  0  0  0  0
   22.6313   69.4531    4.0617 H   0  0  0  0  0  0
  1 10  1  0  0  0
  1 14  2  0  0  0
  1  2  1  0  0  0
  2  3  2  0  0  0
  2  4  1  0  0  0
  3 15  1  0  0  0
  4  9  1  0  0  0
  4  5  2  0  0  0
  5  6  1  0  0  0
  5 26  1  0  0  0
  6  7  2  0  0  0
  6 27  1  0  0  0
  7  8  1  0  0  0
  7 28  1  0  0  0
  8  9  2  0  0  0
  8 29  1  0  0  0
 10 13  1  0  0  0
 10 20  2  0  0  0
 11 12  1  0  0  0
 11 19  2  0  0  0
 12 13  2  0  0  0
 12 30  1  0  0  0
 13 31  1  0  0  0
 14 15  1  0  0  0
 14 18  1  0  0  0
 15 16  1  0  0  0
 16 17  1  0  0  0
 16 32  1  0  0  0
 16 33  1  0  0  0
 17 18  1  0  0  0
 17 34  1  0  0  0
 17 35  1  0  0  0
 18 36  1  0  0  0
 18 37  1  0  0  0
 19 20  1  0  0  0
 19 24  1  0  0  0
 20 21  1  0  0  0
 21 22  2  0  0  0
 21 38  1  0  0  0
 22 23  1  0  0  0
 22 39  1  0  0  0
 23 24  2  0  0  0
 23 25  1  0  0  0
 24 40  1  0  0  0
 25 41  1  0  0  0
 25 42  1  0  0  0
M  END
> <s_m_entry_id>
34493

> <s_m_entry_name>
dock_pv.236

> <s_m_Source_Path>
/home/csk/Desktop/cluster/DUD-E-result/tgfr1

> <s_m_Source_File>
dock_pv.maegz

> <i_m_Source_File_Index>
236

> <chembl_id>
CHEMBL585700

> <chembl_pref_name>
None

> <i_lp_mmshare_version>
53161

> <r_lp_tautomer_probability>
1

> <s_lp_Force_Field>
OPLS_2005

> <r_lp_Energy>
45.935651

> <b_lp_Chiralities_Consistent>
1

> <s_lp_Variant>
CHEMBL4439_lig269-1

> <s_i_glide_gridfile>
glide-grid_3hmm

> <i_i_glide_lignum>
382

> <i_i_glide_rotatable_bonds>
2

> <r_i_docking_score>
-8.28021683279427

> <r_i_glide_ligand_efficiency>
-0.331208673311771

> <r_i_glide_ligand_efficiency_sa>
-0.968460034774451

> <r_i_glide_ligand_efficiency_ln>
-1.96265952744721

> <r_i_glide_gscore>
-8.28021683279427

> <r_i_glide_lipo>
-4.13690093369421

> <r_i_glide_hbond>
-0.0415697410514877

> <r_i_glide_metal>
0

> <r_i_glide_rewards>
-1.70032142944757

> <r_i_glide_evdw>
-43.8269882202148

> <r_i_glide_ecoul>
-3.73521065711975

> <r_i_glide_erotb>
0.350206280977703

> <r_i_glide_esite>
0

> <r_i_glide_emodel>
-69.5710696040205

> <r_i_glide_energy>
-47.5621988773346

> <r_i_glide_einternal>
2.85843014717102

> <i_i_glide_confnum>
2

> <i_i_glide_posenum>
33

> <r_i_glide_eff_state_penalty>
0

> <s_user_duplicate_titles>
CHEMBL4439_lig269,582100

> <i_f3d_flags>
0

> <s_m_subgroup_title>
dock_pv

> <s_m_subgroupid>
dock_pv

> <b_m_subgroup_collapsed>
1

$$$$
CHEMBL4439_lig627
                    3D
 Schrodinger Suite 2021-1.
 50 54  0  0  1  0            999 V2000
   18.9794   67.9838   11.7429 C   0  0  0  0  0  0
   20.3987   68.4598   11.6318 C   0  0  0  0  0  0
   20.7752   69.3593   10.6154 C   0  0  0  0  0  0
   22.0767   69.8432   10.5192 C   0  0  0  0  0  0
   23.0339   69.4299   11.4384 C   0  0  0  0  0  0
   22.6973   68.5343   12.4481 C   0  0  0  0  0  0
   21.3920   68.0570   12.5437 C   0  0  0  0  0  0
   18.3660   67.8765   10.5243 N   0  0  0  0  0  0
   18.2688   67.6574   13.2327 S   0  0  0  0  0  0
   16.9332   67.6123   10.3313 C   0  0  0  0  0  0
   16.5549   67.4309    8.8708 C   0  0  0  0  0  0
   15.5032   66.7662    8.4674 N   0  0  0  0  0  0
   15.5116   66.8163    7.1390 C   0  0  0  0  0  0
   16.5811   67.5940    6.6554 C   0  0  0  0  0  0
   17.2297   67.9659    7.8068 N   0  0  0  0  0  0
   17.0698   67.9928    5.2923 C   0  0  0  0  0  0
   16.2667   67.9329    4.1470 C   0  0  0  0  0  0
   16.7996   68.3397    2.9217 C   0  0  0  0  0  0
   18.1156   68.7993    2.8587 C   0  0  0  0  0  0
   18.8606   68.8376    4.0394 C   0  0  0  0  0  0
   18.3521   68.4566    5.2405 N   0  0  0  0  0  0
   20.3074   69.2976    4.0508 C   0  0  0  0  0  0
   12.5584   64.4774    5.0691 C   0  0  0  0  0  0
   12.1665   65.2734    6.1582 C   0  0  0  0  0  0
   13.1339   66.0565    6.7999 C   0  0  0  0  0  0
   14.4763   66.0454    6.3919 C   0  0  0  0  0  0
   14.8541   65.2503    5.3086 C   0  0  0  0  0  0
   13.9001   64.5017    4.6787 N   0  0  0  0  0  0
   14.0804   63.6742    3.6318 N   0  0  0  0  0  0
   12.8559   63.2228    3.4457 C   0  0  0  0  0  0
   11.8944   63.6199    4.2616 N   0  0  0  0  0  0
   20.0540   69.7127    9.8945 H   0  0  0  0  0  0
   22.3405   70.5394    9.7358 H   0  0  0  0  0  0
   24.0445   69.7999   11.3585 H   0  0  0  0  0  0
   23.4461   68.2014   13.1521 H   0  0  0  0  0  0
   21.1688   67.3521   13.3297 H   0  0  0  0  0  0
   18.8941   68.1680    9.7161 H   0  0  0  0  0  0
   16.6428   66.7336   10.9076 H   0  0  0  0  0  0
   16.3837   68.4567   10.7503 H   0  0  0  0  0  0
   18.0602   68.5379    7.8485 H   0  0  0  0  0  0
   15.2380   67.6110    4.1988 H   0  0  0  0  0  0
   16.1911   68.3092    2.0293 H   0  0  0  0  0  0
   18.5461   69.1149    1.9179 H   0  0  0  0  0  0
   20.6284   69.6427    3.0663 H   0  0  0  0  0  0
   20.4425   70.1209    4.7543 H   0  0  0  0  0  0
   20.9656   68.4803    4.3533 H   0  0  0  0  0  0
   11.1385   65.2775    6.4935 H   0  0  0  0  0  0
   12.8396   66.6667    7.6424 H   0  0  0  0  0  0
   15.8631   65.1726    4.9336 H   0  0  0  0  0  0
   12.6484   62.5250    2.6466 H   0  0  0  0  0  0
  1  2  1  0  0  0
  1  8  1  0  0  0
  1  9  2  0  0  0
  2  3  1  0  0  0
  2  7  2  0  0  0
  3  4  2  0  0  0
  3 32  1  0  0  0
  4  5  1  0  0  0
  4 33  1  0  0  0
  5  6  2  0  0  0
  5 34  1  0  0  0
  6  7  1  0  0  0
  6 35  1  0  0  0
  7 36  1  0  0  0
  8 10  1  0  0  0
  8 37  1  0  0  0
 10 11  1  0  0  0
 10 38  1  0  0  0
 10 39  1  0  0  0
 11 12  2  0  0  0
 11 15  1  0  0  0
 12 13  1  0  0  0
 13 14  2  0  0  0
 13 26  1  0  0  0
 14 15  1  0  0  0
 14 16  1  0  0  0
 15 40  1  0  0  0
 16 17  1  0  0  0
 16 21  2  0  0  0
 17 18  2  0  0  0
 17 41  1  0  0  0
 18 19  1  0  0  0
 18 42  1  0  0  0
 19 20  2  0  0  0
 19 43  1  0  0  0
 20 21  1  0  0  0
 20 22  1  0  0  0
 22 44  1  0  0  0
 22 45  1  0  0  0
 22 46  1  0  0  0
 23 24  1  0  0  0
 23 28  1  0  0  0
 23 31  2  0  0  0
 24 25  2  0  0  0
 24 47  1  0  0  0
 25 26  1  0  0  0
 25 48  1  0  0  0
 26 27  2  0  0  0
 27 28  1  0  0  0
 27 49  1  0  0  0
 28 29  1  0  0  0
 29 30  2  0  0  0
 30 31  1  0  0  0
 30 50  1  0  0  0
M  END
> <s_m_entry_id>
34494

> <s_m_entry_name>
dock_pv.237

> <s_m_Source_Path>
/home/csk/Desktop/cluster/DUD-E-result/tgfr1

> <s_m_Source_File>
dock_pv.maegz

> <i_m_Source_File_Index>
237

> <chembl_id>
CHEMBL3261087

> <chembl_pref_name>
None

> <i_lp_mmshare_version>
53161

> <r_lp_tautomer_probability>
0.499999999999999

> <s_lp_Force_Field>
OPLS_2005

> <r_lp_Energy>
23.802696

> <b_lp_Chiralities_Consistent>
1

> <s_lp_Variant>
CHEMBL4439_lig627-1

> <s_i_glide_gridfile>
glide-grid_3hmm

> <i_i_glide_lignum>
846

> <i_i_glide_rotatable_bonds>
6

> <r_i_docking_score>
-8.2761541555295

> <r_i_glide_ligand_efficiency>
-0.2669727146945

> <r_i_glide_ligand_efficiency_sa>
-0.838662919697724

> <r_i_glide_ligand_efficiency_ln>
-1.86652639573652

> <r_i_glide_gscore>
-8.2761541555295

> <r_i_glide_lipo>
-3.34678645275229

> <r_i_glide_hbond>
0

> <r_i_glide_metal>
0

> <r_i_glide_rewards>
-1.96344906593491

> <r_i_glide_evdw>
-60.9615211486816

> <r_i_glide_ecoul>
-2.93393135070801

> <r_i_glide_erotb>
0.54782972301741

> <r_i_glide_esite>
-0.0255825998194316

> <r_i_glide_emodel>
-93.3881477917419

> <r_i_glide_energy>
-63.8954524993896

> <r_i_glide_einternal>
6.46380186080933

> <i_i_glide_confnum>
3

> <i_i_glide_posenum>
53

> <r_i_glide_eff_state_penalty>
0

> <s_user_duplicate_titles>
CHEMBL4439_lig627

> <i_f3d_flags>
0

> <s_m_subgroup_title>
dock_pv

> <s_m_subgroupid>
dock_pv

> <b_m_subgroup_collapsed>
1

$$$$
CHEMBL4439_lig597
                    3D
 Schrodinger Suite 2021-1.
 39 42  0  0  1  0            999 V2000
   15.4673   67.6570    3.6148 S   0  0  0  0  0  0
   16.7375   67.8625    4.7764 C   0  0  0  0  0  0
   17.8085   68.4518    4.2890 N   0  0  0  0  0  0
   17.6876   68.7636    3.0085 C   0  0  0  0  0  0
   16.4595   68.4570    2.4390 C   0  0  0  0  0  0
   18.8703   69.4093    2.3273 C   0  0  0  0  0  0
   16.5770   67.4907    6.1911 C   0  0  0  0  0  0
   15.6414   66.7378    6.9243 C   0  0  0  0  0  0
   15.9171   66.7449    8.2230 N   0  0  0  0  0  0
   16.9925   67.4810    8.3663 C   0  0  0  0  0  0
   17.4420   67.9359    7.1577 N   0  0  0  0  0  0
   14.4372   66.0060    6.4385 C   0  0  0  0  0  0
   13.1912   66.2854    7.0086 C   0  0  0  0  0  0
   12.0271   65.6571    6.5684 C   0  0  0  0  0  0
   14.5538   65.0620    5.4132 C   0  0  0  0  0  0
   13.3872   64.4393    4.9500 C   0  0  0  0  0  0
   12.1205   64.7335    5.5218 C   0  0  0  0  0  0
   11.0690   64.0628    4.9826 N   0  0  0  0  0  0
   11.4671   63.2831    4.0202 C   0  0  0  0  0  0
   13.1742   63.2570    3.6660 S   0  0  0  0  0  0
   17.7030   67.7917    9.6776 C   0  0  0  0  0  0
   19.0498   67.0520    9.7584 C   0  0  0  0  0  0
   16.8299   67.5076   10.9180 C   0  0  0  0  0  0
   16.1096   68.6248    1.4307 H   0  0  0  0  0  0
   19.0810   68.9325    1.3699 H   0  0  0  0  0  0
   18.6682   70.4568    2.1084 H   0  0  0  0  0  0
   19.7888   69.3675    2.9147 H   0  0  0  0  0  0
   18.2514   68.5204    7.0073 H   0  0  0  0  0  0
   13.1235   67.0128    7.8053 H   0  0  0  0  0  0
   11.0724   65.8861    7.0184 H   0  0  0  0  0  0
   15.5134   64.8417    4.9688 H   0  0  0  0  0  0
   10.7832   62.7072    3.4143 H   0  0  0  0  0  0
   17.9253   68.8598    9.6966 H   0  0  0  0  0  0
   19.7232   67.3570    8.9565 H   0  0  0  0  0  0
   19.5567   67.2560   10.7029 H   0  0  0  0  0  0
   18.9132   65.9729    9.6793 H   0  0  0  0  0  0
   15.8891   68.0576   10.8780 H   0  0  0  0  0  0
   16.5838   66.4490   11.0006 H   0  0  0  0  0  0
   17.3393   67.7971   11.8378 H   0  0  0  0  0  0
  1  2  1  0  0  0
  1  5  1  0  0  0
  2  3  2  0  0  0
  2  7  1  0  0  0
  3  4  1  0  0  0
  4  5  2  0  0  0
  4  6  1  0  0  0
  5 24  1  0  0  0
  6 25  1  0  0  0
  6 26  1  0  0  0
  6 27  1  0  0  0
  7  8  2  0  0  0
  7 11  1  0  0  0
  8 12  1  0  0  0
  8  9  1  0  0  0
  9 10  2  0  0  0
 10 11  1  0  0  0
 10 21  1  0  0  0
 11 28  1  0  0  0
 12 13  2  0  0  0
 12 15  1  0  0  0
 13 14  1  0  0  0
 13 29  1  0  0  0
 14 17  2  0  0  0
 14 30  1  0  0  0
 15 16  2  0  0  0
 15 31  1  0  0  0
 16 17  1  0  0  0
 16 20  1  0  0  0
 17 18  1  0  0  0
 18 19  2  0  0  0
 19 20  1  0  0  0
 19 32  1  0  0  0
 21 22  1  0  0  0
 21 23  1  0  0  0
 21 33  1  0  0  0
 22 34  1  0  0  0
 22 35  1  0  0  0
 22 36  1  0  0  0
 23 37  1  0  0  0
 23 38  1  0  0  0
 23 39  1  0  0  0
M  END
> <s_m_entry_id>
34495

> <s_m_entry_name>
dock_pv.238

> <s_m_Source_Path>
/home/csk/Desktop/cluster/DUD-E-result/tgfr1

> <s_m_Source_File>
dock_pv.maegz

> <i_m_Source_File_Index>
238

> <chembl_id>
CHEMBL2207992

> <chembl_pref_name>
None

> <i_lp_mmshare_version>
53161

> <r_lp_tautomer_probability>
0.499999999999999

> <s_lp_Force_Field>
OPLS_2005

> <r_lp_Energy>
7.308654

> <b_lp_Chiralities_Consistent>
1

> <s_lp_Variant>
CHEMBL4439_lig597-2

> <s_i_glide_gridfile>
glide-grid_3hmm

> <i_i_glide_lignum>
808

> <i_i_glide_rotatable_bonds>
3

> <r_i_docking_score>
-8.26739505116375

> <r_i_glide_ligand_efficiency>
-0.35945195874625

> <r_i_glide_ligand_efficiency_sa>
-1.02223355525303

> <r_i_glide_ligand_efficiency_ln>
-1.99913108796508

> <r_i_glide_gscore>
-8.26739505116375

> <r_i_glide_lipo>
-4.36107979155749

> <r_i_glide_hbond>
0

> <r_i_glide_metal>
0

> <r_i_glide_rewards>
-1.74517739713162

> <r_i_glide_evdw>
-48.0155754089355

> <r_i_glide_ecoul>
-0.580679178237915

> <r_i_glide_erotb>
0.326742784707816

> <r_i_glide_esite>
0

> <r_i_glide_emodel>
-71.1169159538996

> <r_i_glide_energy>
-48.5962545871735

> <r_i_glide_einternal>
1.88285160064697

> <i_i_glide_confnum>
3

> <i_i_glide_posenum>
27

> <r_i_glide_eff_state_penalty>
0

> <s_user_duplicate_titles>
CHEMBL4439_lig597,CHEMBL4439_lig597

> <i_f3d_flags>
0

> <s_m_subgroup_title>
dock_pv

> <s_m_subgroupid>
dock_pv

> <b_m_subgroup_collapsed>
1

$$$$
CHEMBL4439_lig530
                    3D
 Schrodinger Suite 2021-1.
 43 47  0  0  1  0            999 V2000
   18.3916   68.1397    7.5095 N   0  0  0  0  0  0
   17.3601   67.7606    6.7138 N   0  0  0  0  0  0
   16.3509   67.1387    7.4617 C   0  0  0  0  0  0
   17.4316   68.0588    5.3155 C   0  0  0  0  0  0
   16.2853   67.9402    4.5921 N   0  0  0  0  0  0
   16.3057   68.1857    3.2606 C   0  0  0  0  0  0
   17.4639   68.5824    2.5899 C   0  0  0  0  0  0
   18.6415   68.7224    3.3267 C   0  0  0  0  0  0
   18.6340   68.4577    4.6990 C   0  0  0  0  0  0
   14.9674   68.0519    2.5590 C   0  0  0  0  0  0
   15.0741   66.5340    6.9770 C   0  0  0  0  0  0
   15.0741   65.6065    5.9285 C   0  0  0  0  0  0
   12.6775   66.2358    7.2311 C   0  0  0  0  0  0
   13.8707   66.8557    7.6175 C   0  0  0  0  0  0
   12.6815   65.3355    6.1699 C   0  0  0  0  0  0
   13.8721   65.0294    5.5006 C   0  0  0  0  0  0
   13.8453   64.0749    4.3118 C   0  0  0  0  0  0
   12.6212   63.4270    4.0896 N   0  0  0  0  0  0
   11.5733   63.7487    4.7441 C   0  0  0  0  0  0
   11.5152   64.6800    5.7641 N   0  0  0  0  0  0
   14.8602   63.9373    3.6323 O   0  0  0  0  0  0
   18.0532   67.7701    8.7158 C   0  0  0  0  0  0
   16.8157   67.1755    8.7684 C   0  0  0  0  0  0
   16.4910   66.7246   10.1662 C   0  0  0  0  0  0
   17.5085   67.5268   10.9966 C   0  0  0  0  0  0
   18.6955   67.8643   10.0732 C   0  0  0  0  0  0
   17.4502   68.7850    1.5302 H   0  0  0  0  0  0
   19.5539   69.0307    2.8398 H   0  0  0  0  0  0
   19.5538   68.5533    5.2566 H   0  0  0  0  0  0
   15.0697   68.0695    1.4803 H   0  0  0  0  0  0
   14.4894   67.1089    2.8303 H   0  0  0  0  0  0
   14.2898   68.8574    2.8342 H   0  0  0  0  0  0
   16.0077   65.3596    5.4363 H   0  0  0  0  0  0
   11.7540   66.4515    7.7431 H   0  0  0  0  0  0
   13.8674   67.5671    8.4318 H   0  0  0  0  0  0
   10.6563   64.8537    6.2583 H   0  0  0  0  0  0
   10.6155   63.2782    4.5373 H   0  0  0  0  0  0
   16.6669   65.6560   10.2789 H   0  0  0  0  0  0
   15.4674   66.9247   10.4747 H   0  0  0  0  0  0
   17.8186   66.9941   11.8953 H   0  0  0  0  0  0
   17.0423   68.4565   11.3271 H   0  0  0  0  0  0
   19.5114   67.1486   10.1869 H   0  0  0  0  0  0
   19.0904   68.8547   10.2959 H   0  0  0  0  0  0
  1 22  2  0  0  0
  1  2  1  0  0  0
  2  3  1  0  0  0
  2  4  1  0  0  0
  3 23  2  0  0  0
  3 11  1  0  0  0
  4  9  1  0  0  0
  4  5  2  0  0  0
  5  6  1  0  0  0
  6  7  2  0  0  0
  6 10  1  0  0  0
  7  8  1  0  0  0
  7 27  1  0  0  0
  8  9  2  0  0  0
  8 28  1  0  0  0
  9 29  1  0  0  0
 10 30  1  0  0  0
 10 31  1  0  0  0
 10 32  1  0  0  0
 11 12  2  0  0  0
 11 14  1  0  0  0
 12 16  1  0  0  0
 12 33  1  0  0  0
 13 14  2  0  0  0
 13 34  1  0  0  0
 13 15  1  0  0  0
 14 35  1  0  0  0
 15 16  2  0  0  0
 15 20  1  0  0  0
 16 17  1  0  0  0
 17 21  2  0  0  0
 17 18  1  0  0  0
 18 19  2  0  0  0
 19 20  1  0  0  0
 19 37  1  0  0  0
 20 36  1  0  0  0
 22 23  1  0  0  0
 22 26  1  0  0  0
 23 24  1  0  0  0
 24 25  1  0  0  0
 24 38  1  0  0  0
 24 39  1  0  0  0
 25 26  1  0  0  0
 25 40  1  0  0  0
 25 41  1  0  0  0
 26 42  1  0  0  0
 26 43  1  0  0  0
M  END
> <s_m_entry_id>
34497

> <s_m_entry_name>
dock_pv.240

> <s_m_Source_Path>
/home/csk/Desktop/cluster/DUD-E-result/tgfr1

> <s_m_Source_File>
dock_pv.maegz

> <i_m_Source_File_Index>
240

> <chembl_id>
CHEMBL2024693

> <chembl_pref_name>
None

> <i_lp_mmshare_version>
53161

> <r_lp_tautomer_probability>
0.116051

> <s_lp_Force_Field>
OPLS_2005

> <r_lp_Energy>
38.832494

> <b_lp_Chiralities_Consistent>
1

> <s_lp_Variant>
CHEMBL4439_lig530-2

> <s_i_glide_gridfile>
glide-grid_3hmm

> <i_i_glide_lignum>
709

> <i_i_glide_rotatable_bonds>
2

> <r_i_docking_score>
-8.2655659844716

> <r_i_glide_ligand_efficiency>
-0.317906384018138

> <r_i_glide_ligand_efficiency_sa>
-0.941796411752517

> <r_i_glide_ligand_efficiency_ln>
-1.94114104991903

> <r_i_glide_gscore>
-8.2655659844716

> <r_i_glide_lipo>
-3.81439449275526

> <r_i_glide_hbond>
0

> <r_i_glide_metal>
0

> <r_i_glide_rewards>
-2.19407019634904

> <r_i_glide_evdw>
-51.979175567627

> <r_i_glide_ecoul>
0.133446201682091

> <r_i_glide_erotb>
0.321840552761742

> <r_i_glide_esite>
0

> <r_i_glide_emodel>
-76.4575392946045

> <r_i_glide_energy>
-51.8457293659449

> <r_i_glide_einternal>
0.535187005996704

> <i_i_glide_confnum>
8

> <i_i_glide_posenum>
75

> <r_i_glide_eff_state_penalty>
0

> <s_user_duplicate_titles>
CHEMBL4439_lig530,CHEMBL4439_lig530

> <i_f3d_flags>
0

> <s_m_subgroup_title>
dock_pv

> <s_m_subgroupid>
dock_pv

> <b_m_subgroup_collapsed>
1

$$$$
CHEMBL4439_lig298
                    3D
 Schrodinger Suite 2021-1.
 41 44  0  0  1  0            999 V2000
   16.6670   66.9048   11.1859 C   0  0  0  0  0  0
   16.2142   66.0277   10.2103 C   0  0  0  0  0  0
   16.4544   66.2911    8.8660 C   0  0  0  0  0  0
   17.0945   67.4698    8.4550 C   0  0  0  0  0  0
   17.5429   68.3458    9.4618 C   0  0  0  0  0  0
   17.3618   68.0464   10.8151 C   0  0  0  0  0  0
   17.3067   67.7501    6.9969 C   0  0  0  0  0  0
   16.5744   67.3114    5.9382 C   0  0  0  0  0  0
   17.2475   67.6610    4.7789 N   0  0  0  0  0  0
   18.3463   68.4154    5.1587 N   0  0  0  0  0  0
   18.4803   68.4570    6.4977 C   0  0  0  0  0  0
   19.4001   68.9793    7.1299 O   0  0  0  0  0  0
   15.2806   66.5744    5.9125 C   0  0  0  0  0  0
   14.2593   66.8970    6.8123 C   0  0  0  0  0  0
   13.0311   66.2397    6.7957 C   0  0  0  0  0  0
   15.0670   65.5464    4.9849 C   0  0  0  0  0  0
   13.8332   64.8574    4.9366 C   0  0  0  0  0  0
   12.7905   65.2315    5.8394 C   0  0  0  0  0  0
   11.5710   64.6258    5.7902 N   0  0  0  0  0  0
   11.3978   63.6570    4.8587 C   0  0  0  0  0  0
   12.4265   63.2602    4.0047 C   0  0  0  0  0  0
   13.6474   63.8528    4.0320 N   0  0  0  0  0  0
   17.8670   68.8570   11.7930 O   0  0  0  0  0  0
   16.5699   68.1882    3.5950 C   0  0  0  0  0  0
   19.3708   68.8653    4.2075 C   0  0  0  0  0  0
   16.4990   66.6875   12.2310 H   0  0  0  0  0  0
   15.7112   65.1221   10.5085 H   0  0  0  0  0  0
   16.1482   65.5533    8.1418 H   0  0  0  0  0  0
   18.0591   69.2570    9.2015 H   0  0  0  0  0  0
   14.4121   67.6915    7.5295 H   0  0  0  0  0  0
   12.2433   66.5075    7.4856 H   0  0  0  0  0  0
   15.8447   65.2662    4.2887 H   0  0  0  0  0  0
   10.4178   63.2073    4.8101 H   0  0  0  0  0  0
   12.2784   62.4848    3.2668 H   0  0  0  0  0  0
   18.1189   69.7235   11.4347 H   0  0  0  0  0  0
   15.6083   67.7041    3.4252 H   0  0  0  0  0  0
   16.3979   69.2570    3.6876 H   0  0  0  0  0  0
   17.1760   68.0190    2.7044 H   0  0  0  0  0  0
   20.2310   69.3288    4.6949 H   0  0  0  0  0  0
   19.7423   68.0181    3.6320 H   0  0  0  0  0  0
   18.9596   69.5988    3.5137 H   0  0  0  0  0  0
  1  6  1  0  0  0
  1  2  2  0  0  0
  1 26  1  0  0  0
  2  3  1  0  0  0
  2 27  1  0  0  0
  3  4  2  0  0  0
  3 28  1  0  0  0
  4  5  1  0  0  0
  4  7  1  0  0  0
  5  6  2  0  0  0
  5 29  1  0  0  0
  6 23  1  0  0  0
  7  8  2  0  0  0
  7 11  1  0  0  0
  8 13  1  0  0  0
  8  9  1  0  0  0
  9 10  1  0  0  0
  9 24  1  0  0  0
 10 11  1  0  0  0
 10 25  1  0  0  0
 11 12  2  0  0  0
 13 14  2  0  0  0
 13 16  1  0  0  0
 14 15  1  0  0  0
 14 30  1  0  0  0
 15 18  2  0  0  0
 15 31  1  0  0  0
 16 17  2  0  0  0
 16 32  1  0  0  0
 17 18  1  0  0  0
 17 22  1  0  0  0
 18 19  1  0  0  0
 19 20  2  0  0  0
 20 21  1  0  0  0
 20 33  1  0  0  0
 21 22  2  0  0  0
 21 34  1  0  0  0
 23 35  1  0  0  0
 24 36  1  0  0  0
 24 37  1  0  0  0
 24 38  1  0  0  0
 25 39  1  0  0  0
 25 40  1  0  0  0
 25 41  1  0  0  0
M  END
> <s_m_entry_id>
34500

> <s_m_entry_name>
dock_pv.243

> <s_m_Source_Path>
/home/csk/Desktop/cluster/DUD-E-result/tgfr1

> <s_m_Source_File>
dock_pv.maegz

> <i_m_Source_File_Index>
243

> <chembl_id>
CHEMBL593965

> <chembl_pref_name>
None

> <i_lp_mmshare_version>
53161

> <r_lp_tautomer_probability>
0.999999999997365

> <s_lp_Force_Field>
OPLS_2005

> <r_lp_Energy>
42.869014

> <b_lp_Chiralities_Consistent>
1

> <s_lp_Variant>
CHEMBL4439_lig298-1

> <s_i_glide_gridfile>
glide-grid_3hmm

> <i_i_glide_lignum>
430

> <i_i_glide_rotatable_bonds>
3

> <r_i_docking_score>
-8.25776806823429

> <r_i_glide_ligand_efficiency>
-0.330310722729372

> <r_i_glide_ligand_efficiency_sa>
-0.965834411346294

> <r_i_glide_ligand_efficiency_ln>
-1.9573384975113

> <r_i_glide_gscore>
-8.25776806823429

> <r_i_glide_lipo>
-3.64602621117533

> <r_i_glide_hbond>
-0.32

> <r_i_glide_metal>
0

> <r_i_glide_rewards>
-1.84055633523768

> <r_i_glide_evdw>
-45.0263595581055

> <r_i_glide_ecoul>
-3.60576701164246

> <r_i_glide_erotb>
0.340997507830363

> <r_i_glide_esite>
0

> <r_i_glide_emodel>
-71.7749838126572

> <r_i_glide_energy>
-48.6321265697479

> <r_i_glide_einternal>
1.31220757961273

> <i_i_glide_confnum>
2

> <i_i_glide_posenum>
239

> <r_i_glide_eff_state_penalty>
0

> <s_user_duplicate_titles>
CHEMBL4439_lig298

> <i_f3d_flags>
0

> <s_m_subgroup_title>
dock_pv

> <s_m_subgroupid>
dock_pv

> <b_m_subgroup_collapsed>
1

$$$$
CHEMBL4439_lig851
                    3D
 Schrodinger Suite 2021-1.
 46 49  0  0  1  0            999 V2000
   18.7128   66.9414    9.8137 C   0  0  0  0  0  0
   17.3297   67.4418    9.3171 C   0  0  0  0  0  0
   16.7749   68.4399   10.3517 C   0  0  0  0  0  0
   15.2562   67.6692    3.5315 C   0  0  0  0  0  0
   15.4909   68.3879    2.3617 C   0  0  0  0  0  0
   16.7148   68.8603    2.0235 N   0  0  0  0  0  0
   17.7371   68.6568    2.8900 C   0  0  0  0  0  0
   17.5641   67.9838    4.1010 C   0  0  0  0  0  0
   16.2968   67.5003    4.4463 C   0  0  0  0  0  0
   16.0155   66.8375    5.7528 C   0  0  0  0  0  0
   15.0670   65.4545    7.2555 N   0  0  0  0  0  0
   15.0889   65.7861    5.9939 C   0  0  0  0  0  0
   15.9318   66.2379    7.8639 N   0  0  0  0  0  0
   16.5150   67.1408    7.0337 C   0  0  0  0  0  0
   17.3541   68.0836    7.8817 C   0  0  2  0  0  0
   16.3502   66.2504    9.2393 C   0  0  0  0  0  0
   14.2064   64.9892    5.0903 C   0  0  0  0  0  0
   12.9198   64.8279    5.5139 N   0  0  0  0  0  0
   12.1151   63.9773    4.8285 C   0  0  0  0  0  0
   12.5560   63.2572    3.7180 C   0  0  0  0  0  0
   13.8669   63.4515    3.2816 C   0  0  0  0  0  0
   14.7055   64.3350    3.9637 C   0  0  0  0  0  0
   10.6986   63.8456    5.3503 C   0  0  0  0  0  0
   18.7339   68.4403    7.2939 C   0  0  0  0  0  0
   19.2957   69.2706    2.4844 Cl  0  0  0  0  0  0
   19.1628   66.2163    9.1369 H   0  0  0  0  0  0
   19.4209   67.7619    9.9340 H   0  0  0  0  0  0
   18.6360   66.4577   10.7890 H   0  0  0  0  0  0
   15.8193   68.8568   10.0321 H   0  0  0  0  0  0
   16.6203   67.9739   11.3262 H   0  0  0  0  0  0
   17.4676   69.2566   10.5011 H   0  0  0  0  0  0
   14.2670   67.3064    3.7457 H   0  0  0  0  0  0
   14.6939   68.5617    1.6538 H   0  0  0  0  0  0
   18.4112   67.8209    4.7430 H   0  0  0  0  0  0
   16.8065   69.0270    7.9097 H   0  0  0  0  0  0
   15.4816   66.3599    9.8915 H   0  0  0  0  0  0
   16.8219   65.2984    9.4873 H   0  0  0  0  0  0
   11.9008   62.5790    3.1914 H   0  0  0  0  0  0
   14.2355   62.9026    2.4320 H   0  0  0  0  0  0
   15.7319   64.4613    3.6537 H   0  0  0  0  0  0
   10.0594   63.3021    4.6541 H   0  0  0  0  0  0
   10.6894   63.3200    6.3070 H   0  0  0  0  0  0
   10.2670   64.8346    5.5006 H   0  0  0  0  0  0
   18.6377   69.1042    6.4365 H   0  0  0  0  0  0
   19.3412   68.9850    8.0164 H   0  0  0  0  0  0
   19.2898   67.5521    6.9911 H   0  0  0  0  0  0
  1  2  1  0  0  0
  1 26  1  0  0  0
  1 27  1  0  0  0
  1 28  1  0  0  0
  2  3  1  0  0  0
  2 15  1  0  0  0
  2 16  1  0  0  0
  3 29  1  0  0  0
  3 30  1  0  0  0
  3 31  1  0  0  0
  4  5  2  0  0  0
  4  9  1  0  0  0
  4 32  1  0  0  0
  5  6  1  0  0  0
  5 33  1  0  0  0
  6  7  2  0  0  0
  7  8  1  0  0  0
  7 25  1  0  0  0
  8  9  2  0  0  0
  8 34  1  0  0  0
  9 10  1  0  0  0
 10 14  2  0  0  0
 10 12  1  0  0  0
 11 13  1  0  0  0
 11 12  2  0  0  0
 12 17  1  0  0  0
 13 14  1  0  0  0
 13 16  1  0  0  0
 14 15  1  0  0  0
 15 24  1  0  0  0
 15 35  1  0  0  0
 16 36  1  0  0  0
 16 37  1  0  0  0
 17 18  2  0  0  0
 17 22  1  0  0  0
 18 19  1  0  0  0
 19 20  2  0  0  0
 19 23  1  0  0  0
 20 21  1  0  0  0
 20 38  1  0  0  0
 21 22  2  0  0  0
 21 39  1  0  0  0
 22 40  1  0  0  0
 23 41  1  0  0  0
 23 42  1  0  0  0
 23 43  1  0  0  0
 24 44  1  0  0  0
 24 45  1  0  0  0
 24 46  1  0  0  0
M  END
> <s_m_entry_id>
34501

> <s_m_entry_name>
dock_pv.244

> <s_m_Source_Path>
/home/csk/Desktop/cluster/DUD-E-result/tgfr1

> <s_m_Source_File>
dock_pv.maegz

> <i_m_Source_File_Index>
244

> <chembl_id>
CHEMBL4284434

> <chembl_pref_name>
None

> <i_lp_mmshare_version>
53161

> <r_lp_tautomer_probability>
1

> <s_lp_Force_Field>
OPLS_2005

> <r_lp_Energy>
36.30949

> <b_lp_Chiralities_Consistent>
1

> <s_lp_Variant>
CHEMBL4439_lig851-2

> <s_i_glide_gridfile>
glide-grid_3hmm

> <i_i_glide_lignum>
1173

> <i_i_glide_rotatable_bonds>
2

> <r_i_docking_score>
-8.25175358314652

> <r_i_glide_ligand_efficiency>
-0.330070143325861

> <r_i_glide_ligand_efficiency_sa>
-0.965130952903735

> <r_i_glide_ligand_efficiency_ln>
-1.95591288430593

> <r_i_glide_gscore>
-8.25175358314652

> <r_i_glide_lipo>
-4.64815132455093

> <r_i_glide_hbond>
-0.0610361433797871

> <r_i_glide_metal>
0

> <r_i_glide_rewards>
-1.5094419862784

> <r_i_glide_evdw>
-43.5584449768066

> <r_i_glide_ecoul>
-1.0789475440979

> <r_i_glide_erotb>
0.306640251517617

> <r_i_glide_esite>
0

> <r_i_glide_emodel>
-62.3755929304524

> <r_i_glide_energy>
-44.6373925209045

> <r_i_glide_einternal>
2.69364190101624

> <i_i_glide_confnum>
6

> <i_i_glide_posenum>
319

> <r_i_glide_eff_state_penalty>
0

> <s_user_duplicate_titles>
CHEMBL4439_lig851

> <i_f3d_flags>
0

> <s_m_subgroup_title>
dock_pv

> <s_m_subgroupid>
dock_pv

> <b_m_subgroup_collapsed>
1

$$$$
CHEMBL4439_lig296
                    3D
 Schrodinger Suite 2021-1.
 43 46  0  0  1  0            999 V2000
   15.8294   66.7900    7.5861 C   0  0  0  0  0  0
   16.8108   67.5292    7.0105 C   0  0  0  0  0  0
   17.6425   67.9956    8.0249 N   0  0  0  0  0  0
   17.1623   67.4662    9.2080 N   0  0  0  0  0  0
   16.0751   66.7012    9.0139 C   0  0  0  0  0  0
   15.4669   66.0570    9.8647 O   0  0  0  0  0  0
   17.9144   67.5401   10.4666 C   0  0  0  0  0  0
   17.8539   69.4417    8.1591 C   0  0  0  0  0  0
   17.0388   67.8532    5.5701 C   0  0  0  0  0  0
   16.0458   67.6842    4.5912 C   0  0  0  0  0  0
   16.2776   67.9496    3.2457 C   0  0  0  0  0  0
   18.2895   68.3413    5.1668 C   0  0  0  0  0  0
   18.5365   68.6859    3.8284 C   0  0  0  0  0  0
   17.5289   68.4467    2.8470 C   0  0  0  0  0  0
   17.7560   68.7113    1.5358 N   0  0  0  0  0  0
   18.9515   69.2589    1.2319 C   0  0  0  0  0  0
   19.8883   69.6257    2.1961 C   0  0  0  0  0  0
   19.7235   69.2637    3.4934 N   0  0  0  0  0  0
   14.7157   66.0648    6.9244 C   0  0  0  0  0  0
   13.3855   66.3537    7.2494 C   0  0  0  0  0  0
   12.3294   65.7383    6.5776 C   0  0  0  0  0  0
   12.5915   64.8583    5.5291 C   0  0  0  0  0  0
   13.9119   64.5682    5.1772 C   0  0  0  0  0  0
   14.9623   65.1400    5.9009 C   0  0  0  0  0  0
   14.1988   63.6434    4.0101 C   0  0  0  0  0  0
   17.4705   66.9420   11.2645 H   0  0  0  0  0  0
   18.9343   67.1796   10.3198 H   0  0  0  0  0  0
   17.9632   68.5661   10.8311 H   0  0  0  0  0  0
   18.2183   69.8955    7.2384 H   0  0  0  0  0  0
   16.9308   69.9557    8.4321 H   0  0  0  0  0  0
   18.6067   69.6580    8.9161 H   0  0  0  0  0  0
   15.0418   67.4016    4.8508 H   0  0  0  0  0  0
   15.4985   67.8052    2.5114 H   0  0  0  0  0  0
   19.0944   68.4754    5.8732 H   0  0  0  0  0  0
   19.1179   69.4980    0.1928 H   0  0  0  0  0  0
   20.8200   70.1004    1.9229 H   0  0  0  0  0  0
   13.1679   67.0644    8.0355 H   0  0  0  0  0  0
   11.3073   65.9676    6.8468 H   0  0  0  0  0  0
   11.7696   64.4121    4.9883 H   0  0  0  0  0  0
   15.9820   64.9127    5.6329 H   0  0  0  0  0  0
   13.5396   62.7739    4.0413 H   0  0  0  0  0  0
   15.2232   63.2710    4.0317 H   0  0  0  0  0  0
   14.0301   64.1575    3.0641 H   0  0  0  0  0  0
  1  5  1  0  0  0
  1  2  2  0  0  0
  1 19  1  0  0  0
  2  9  1  0  0  0
  2  3  1  0  0  0
  3  8  1  0  0  0
  3  4  1  0  0  0
  4  7  1  0  0  0
  4  5  1  0  0  0
  5  6  2  0  0  0
  7 26  1  0  0  0
  7 27  1  0  0  0
  7 28  1  0  0  0
  8 29  1  0  0  0
  8 30  1  0  0  0
  8 31  1  0  0  0
  9 12  1  0  0  0
  9 10  2  0  0  0
 10 11  1  0  0  0
 10 32  1  0  0  0
 11 14  2  0  0  0
 11 33  1  0  0  0
 12 13  2  0  0  0
 12 34  1  0  0  0
 13 14  1  0  0  0
 13 18  1  0  0  0
 14 15  1  0  0  0
 15 16  2  0  0  0
 16 17  1  0  0  0
 16 35  1  0  0  0
 17 18  2  0  0  0
 17 36  1  0  0  0
 19 20  2  0  0  0
 19 24  1  0  0  0
 20 21  1  0  0  0
 20 37  1  0  0  0
 21 22  2  0  0  0
 21 38  1  0  0  0
 22 23  1  0  0  0
 22 39  1  0  0  0
 23 24  2  0  0  0
 23 25  1  0  0  0
 24 40  1  0  0  0
 25 41  1  0  0  0
 25 42  1  0  0  0
 25 43  1  0  0  0
M  END
> <s_m_entry_id>
34502

> <s_m_entry_name>
dock_pv.245

> <s_m_Source_Path>
/home/csk/Desktop/cluster/DUD-E-result/tgfr1

> <s_m_Source_File>
dock_pv.maegz

> <i_m_Source_File_Index>
245

> <chembl_id>
CHEMBL604261

> <chembl_pref_name>
None

> <i_lp_mmshare_version>
53161

> <r_lp_tautomer_probability>
1

> <s_lp_Force_Field>
OPLS_2005

> <r_lp_Energy>
42.995458

> <b_lp_Chiralities_Consistent>
1

> <s_lp_Variant>
CHEMBL4439_lig296-1

> <s_i_glide_gridfile>
glide-grid_3hmm

> <i_i_glide_lignum>
428

> <i_i_glide_rotatable_bonds>
2

> <r_i_docking_score>
-8.24361808771243

> <r_i_glide_ligand_efficiency>
-0.329744723508497

> <r_i_glide_ligand_efficiency_sa>
-0.964179419586418

> <r_i_glide_ligand_efficiency_ln>
-1.95398452808693

> <r_i_glide_gscore>
-8.24361808771243

> <r_i_glide_lipo>
-3.723948272444

> <r_i_glide_hbond>
-0.105741001327271

> <r_i_glide_metal>
0

> <r_i_glide_rewards>
-1.83833991411827

> <r_i_glide_evdw>
-42.083683013916

> <r_i_glide_ecoul>
-5.44007253646851

> <r_i_glide_erotb>
0.344606131343196

> <r_i_glide_esite>
0

> <r_i_glide_emodel>
-69.7485589425119

> <r_i_glide_energy>
-47.5237555503845

> <r_i_glide_einternal>
2.37901067733765

> <i_i_glide_confnum>
12

> <i_i_glide_posenum>
321

> <r_i_glide_eff_state_penalty>
0

> <s_user_duplicate_titles>
CHEMBL4439_lig296,593896

> <i_f3d_flags>
0

> <s_m_subgroup_title>
dock_pv

> <s_m_subgroupid>
dock_pv

> <b_m_subgroup_collapsed>
1

$$$$
CHEMBL4439_lig88
                    3D
 Schrodinger Suite 2021-1.
 41 45  0  0  1  0            999 V2000
   18.3027   68.4563    6.4060 N   0  0  0  0  0  0
   16.4898   67.2785    5.7161 C   0  0  0  0  0  0
   17.2609   67.7520    6.8214 C   0  0  0  0  0  0
   17.0778   67.5493    8.3021 C   0  0  0  0  0  0
   17.6633   68.4190    9.2360 C   0  0  0  0  0  0
   17.4591   68.1950   10.5972 C   0  0  0  0  0  0
   16.6677   67.1242   11.0044 C   0  0  0  0  0  0
   16.1308   66.2895   10.0270 C   0  0  0  0  0  0
   16.3286   66.4819    8.6974 N   0  0  0  0  0  0
   17.1484   67.7922    4.6051 C   0  0  0  0  0  0
   18.2180   68.4814    5.0794 N   0  0  0  0  0  0
   19.0686   69.0472    4.0547 C   0  0  0  0  0  0
   18.1368   68.9989    2.8354 C   0  0  0  0  0  0
   17.1370   67.8661    3.0992 C   0  0  0  0  0  0
   15.2617   66.4331    5.6522 C   0  0  0  0  0  0
   13.7903   63.6307    3.7011 N   0  0  0  0  0  0
   12.5743   63.2603    4.0086 C   0  0  0  0  0  0
   12.0017   63.9986    5.0220 N   0  0  0  0  0  0
   12.9627   64.8967    5.4385 C   0  0  0  0  0  0
   13.0040   65.8828    6.4319 C   0  0  0  0  0  0
   14.1741   66.6458    6.5064 C   0  0  0  0  0  0
   15.2095   65.4305    4.6788 C   0  0  0  0  0  0
   14.0541   64.6541    4.5693 C   0  0  0  0  0  0
   10.6665   63.8511    5.5632 C   0  0  0  0  0  0
   18.2644   69.2600    8.9210 H   0  0  0  0  0  0
   17.8990   68.8580   11.3274 H   0  0  0  0  0  0
   16.4752   66.9439   12.0525 H   0  0  0  0  0  0
   15.5225   65.4486   10.3153 H   0  0  0  0  0  0
   19.9559   68.4273    3.9169 H   0  0  0  0  0  0
   19.3775   70.0622    4.3059 H   0  0  0  0  0  0
   18.6827   68.8609    1.9008 H   0  0  0  0  0  0
   17.5992   69.9464    2.7515 H   0  0  0  0  0  0
   17.4671   66.9291    2.6493 H   0  0  0  0  0  0
   16.1547   68.1021    2.6880 H   0  0  0  0  0  0
   12.0088   62.4799    3.5201 H   0  0  0  0  0  0
   12.1646   66.0654    7.0879 H   0  0  0  0  0  0
   14.2342   67.4376    7.2394 H   0  0  0  0  0  0
   16.0421   65.2579    4.0163 H   0  0  0  0  0  0
   10.2244   64.8433    5.6318 H   0  0  0  0  0  0
   10.0499   63.2447    4.9013 H   0  0  0  0  0  0
   10.7162   63.4027    6.5563 H   0  0  0  0  0  0
  1  3  2  0  0  0
  1 11  1  0  0  0
  2 10  2  0  0  0
  2  3  1  0  0  0
  2 15  1  0  0  0
  3  4  1  0  0  0
  4  5  2  0  0  0
  4  9  1  0  0  0
  5  6  1  0  0  0
  5 25  1  0  0  0
  6  7  2  0  0  0
  6 26  1  0  0  0
  7  8  1  0  0  0
  7 27  1  0  0  0
  8  9  2  0  0  0
  8 28  1  0  0  0
 10 14  1  0  0  0
 10 11  1  0  0  0
 11 12  1  0  0  0
 12 13  1  0  0  0
 12 29  1  0  0  0
 12 30  1  0  0  0
 13 14  1  0  0  0
 13 31  1  0  0  0
 13 32  1  0  0  0
 14 33  1  0  0  0
 14 34  1  0  0  0
 15 21  1  0  0  0
 15 22  2  0  0  0
 16 17  2  0  0  0
 16 23  1  0  0  0
 17 18  1  0  0  0
 17 35  1  0  0  0
 18 19  1  0  0  0
 18 24  1  0  0  0
 19 23  2  0  0  0
 19 20  1  0  0  0
 20 21  2  0  0  0
 20 36  1  0  0  0
 21 37  1  0  0  0
 22 23  1  0  0  0
 22 38  1  0  0  0
 24 39  1  0  0  0
 24 40  1  0  0  0
 24 41  1  0  0  0
M  END
> <s_m_entry_id>
34503

> <s_m_entry_name>
dock_pv.246

> <s_m_Source_Path>
/home/csk/Desktop/cluster/DUD-E-result/tgfr1

> <s_m_Source_File>
dock_pv.maegz

> <i_m_Source_File_Index>
246

> <chembl_id>
CHEMBL203214

> <chembl_pref_name>
None

> <i_lp_mmshare_version>
53161

> <r_lp_tautomer_probability>
1

> <s_lp_Force_Field>
OPLS_2005

> <r_lp_Energy>
38.017128

> <b_lp_Chiralities_Consistent>
1

> <s_lp_Variant>
CHEMBL4439_lig88-1

> <s_i_glide_gridfile>
glide-grid_3hmm

> <i_i_glide_lignum>
127

> <i_i_glide_rotatable_bonds>
2

> <r_i_docking_score>
-8.24154856494976

> <r_i_glide_ligand_efficiency>
-0.343397856872907

> <r_i_glide_ligand_efficiency_sa>
-0.990530821989549

> <r_i_glide_ligand_efficiency_ln>
-1.97258075161358

> <r_i_glide_gscore>
-8.24154856494976

> <r_i_glide_lipo>
-3.80964188838295

> <r_i_glide_hbond>
0

> <r_i_glide_metal>
0

> <r_i_glide_rewards>
-2.46852801159272

> <r_i_glide_evdw>
-47.9398651123047

> <r_i_glide_ecoul>
0.397059351205826

> <r_i_glide_erotb>
0.374055687960268

> <r_i_glide_esite>
0

> <r_i_glide_emodel>
-70.0053521772485

> <r_i_glide_energy>
-47.5428057610989

> <r_i_glide_einternal>
1.1268196105957

> <i_i_glide_confnum>
10

> <i_i_glide_posenum>
77

> <r_i_glide_eff_state_penalty>
0

> <s_user_duplicate_titles>
CHEMBL4439_lig88

> <i_f3d_flags>
0

> <s_m_subgroup_title>
dock_pv

> <s_m_subgroupid>
dock_pv

> <b_m_subgroup_collapsed>
1

$$$$
CHEMBL4439_lig867
                    3D
 Schrodinger Suite 2021-1.
 50 53  0  0  1  0            999 V2000
   18.7494   66.9272    9.8477 C   0  0  0  0  0  0
   17.3772   67.4711    9.3715 C   0  0  0  0  0  0
   16.8482   68.4472   10.4336 C   0  0  0  0  0  0
   17.5837   68.0077    4.1470 C   0  0  0  0  0  0
   17.8049   68.6290    2.9165 C   0  0  0  0  0  0
   16.8134   68.8583    2.0238 N   0  0  0  0  0  0
   15.5646   68.4504    2.3582 C   0  0  0  0  0  0
   15.2764   67.7732    3.5468 C   0  0  0  0  0  0
   16.2942   67.5856    4.4897 C   0  0  0  0  0  0
   15.9816   66.9586    5.8179 C   0  0  0  0  0  0
   14.9621   65.6568    7.3542 N   0  0  0  0  0  0
   15.0260   65.9338    6.0785 C   0  0  0  0  0  0
   15.8862   66.3800    7.9402 N   0  0  0  0  0  0
   16.4947   67.2564    7.1006 C   0  0  0  0  0  0
   17.3876   68.1528    7.9511 C   0  0  2  0  0  0
   16.3664   66.3120    9.2902 C   0  0  0  0  0  0
   14.1672   65.1004    5.1802 C   0  0  0  0  0  0
   12.9002   64.8568    5.6251 N   0  0  0  0  0  0
   12.1262   63.9872    4.9282 C   0  0  0  0  0  0
   12.5784   63.3166    3.7900 C   0  0  0  0  0  0
   13.8670   63.5929    3.3317 C   0  0  0  0  0  0
   14.6767   64.4909    4.0309 C   0  0  0  0  0  0
   10.7205   63.7976    5.4582 C   0  0  0  0  0  0
   18.7578   68.5240    7.3443 C   0  0  0  0  0  0
   19.4483   67.3578    6.9229 O   0  0  0  0  0  0
   20.6788   67.6232    6.2768 C   0  0  0  0  0  0
   19.1565   66.1695    9.1799 H   0  0  0  0  0  0
   19.4967   67.7163    9.9413 H   0  0  0  0  0  0
   18.6671   66.4587   10.8297 H   0  0  0  0  0  0
   15.8842   68.8571   10.1318 H   0  0  0  0  0  0
   16.7112   67.9624   11.4029 H   0  0  0  0  0  0
   17.5473   69.2569   10.5871 H   0  0  0  0  0  0
   18.4135   67.8253    4.8024 H   0  0  0  0  0  0
   18.7939   68.9512    2.6285 H   0  0  0  0  0  0
   14.7865   68.6407    1.6335 H   0  0  0  0  0  0
   14.2671   67.4556    3.7537 H   0  0  0  0  0  0
   16.8621   69.1063    8.0258 H   0  0  0  0  0  0
   15.5327   66.4005    9.9889 H   0  0  0  0  0  0
   16.8304   65.3383    9.4594 H   0  0  0  0  0  0
   11.9405   62.6319    3.2508 H   0  0  0  0  0  0
   14.2324   63.1128    2.4374 H   0  0  0  0  0  0
   15.6865   64.6818    3.7030 H   0  0  0  0  0  0
   10.0890   63.2580    4.7529 H   0  0  0  0  0  0
   10.7340   63.2550    6.4048 H   0  0  0  0  0  0
   10.2676   64.7722    5.6318 H   0  0  0  0  0  0
   19.3538   69.0773    8.0713 H   0  0  0  0  0  0
   18.6059   69.2057    6.5068 H   0  0  0  0  0  0
   21.0672   66.6798    5.8994 H   0  0  0  0  0  0
   20.5657   68.2973    5.4268 H   0  0  0  0  0  0
   21.4045   68.0553    6.9674 H   0  0  0  0  0  0
  1  2  1  0  0  0
  1 27  1  0  0  0
  1 28  1  0  0  0
  1 29  1  0  0  0
  2  3  1  0  0  0
  2 15  1  0  0  0
  2 16  1  0  0  0
  3 30  1  0  0  0
  3 31  1  0  0  0
  3 32  1  0  0  0
  4  5  2  0  0  0
  4  9  1  0  0  0
  4 33  1  0  0  0
  5  6  1  0  0  0
  5 34  1  0  0  0
  6  7  2  0  0  0
  7  8  1  0  0  0
  7 35  1  0  0  0
  8  9  2  0  0  0
  8 36  1  0  0  0
  9 10  1  0  0  0
 10 14  2  0  0  0
 10 12  1  0  0  0
 11 13  1  0  0  0
 11 12  2  0  0  0
 12 17  1  0  0  0
 13 14  1  0  0  0
 13 16  1  0  0  0
 14 15  1  0  0  0
 15 24  1  0  0  0
 15 37  1  0  0  0
 16 38  1  0  0  0
 16 39  1  0  0  0
 17 18  2  0  0  0
 17 22  1  0  0  0
 18 19  1  0  0  0
 19 20  2  0  0  0
 19 23  1  0  0  0
 20 21  1  0  0  0
 20 40  1  0  0  0
 21 22  2  0  0  0
 21 41  1  0  0  0
 22 42  1  0  0  0
 23 43  1  0  0  0
 23 44  1  0  0  0
 23 45  1  0  0  0
 24 25  1  0  0  0
 24 46  1  0  0  0
 24 47  1  0  0  0
 25 26  1  0  0  0
 26 48  1  0  0  0
 26 49  1  0  0  0
 26 50  1  0  0  0
M  END
> <s_m_entry_id>
34504

> <s_m_entry_name>
dock_pv.247

> <s_m_Source_Path>
/home/csk/Desktop/cluster/DUD-E-result/tgfr1

> <s_m_Source_File>
dock_pv.maegz

> <i_m_Source_File_Index>
247

> <chembl_id>
CHEMBL4292878

> <chembl_pref_name>
None

> <i_lp_mmshare_version>
53161

> <r_lp_tautomer_probability>
1

> <s_lp_Force_Field>
OPLS_2005

> <r_lp_Energy>
37.315966

> <b_lp_Chiralities_Consistent>
1

> <s_lp_Variant>
CHEMBL4439_lig867-2

> <s_i_glide_gridfile>
glide-grid_3hmm

> <i_i_glide_lignum>
1201

> <i_i_glide_rotatable_bonds>
4

> <r_i_docking_score>
-8.23532587273553

> <r_i_glide_ligand_efficiency>
-0.31674330279752

> <r_i_glide_ligand_efficiency_sa>
-0.93835078821294

> <r_i_glide_ligand_efficiency_ln>
-1.93403925890371

> <r_i_glide_gscore>
-8.23532587273553

> <r_i_glide_lipo>
-4.4769641312946

> <r_i_glide_hbond>
-0.0854809198555629

> <r_i_glide_metal>
0

> <r_i_glide_rewards>
-1.53395174755521

> <r_i_glide_evdw>
-45.5773315429688

> <r_i_glide_ecoul>
-2.2029709815979

> <r_i_glide_erotb>
0.470383150357962

> <r_i_glide_esite>
0

> <r_i_glide_emodel>
-62.4755082541215

> <r_i_glide_energy>
-47.7803025245667

> <r_i_glide_einternal>
3.49816966056824

> <i_i_glide_confnum>
12

> <i_i_glide_posenum>
12

> <r_i_glide_eff_state_penalty>
0

> <s_user_duplicate_titles>
CHEMBL4439_lig867

> <i_f3d_flags>
0

> <s_m_subgroup_title>
dock_pv

> <s_m_subgroupid>
dock_pv

> <b_m_subgroup_collapsed>
1

$$$$
CHEMBL4439_lig83
                    3D
 Schrodinger Suite 2021-1.
 34 37  0  0  1  0            999 V2000
   15.7611   66.8735    6.7948 C   0  0  0  0  0  0
   16.8400   67.7569    6.5280 C   0  0  0  0  0  0
   17.3383   68.3443    7.6103 N   0  0  0  0  0  0
   16.7468   67.9939    8.7160 C   0  0  0  0  0  0
   15.4674   66.8688    8.5216 S   0  0  0  0  0  0
   14.9271   65.9837    5.9183 C   0  0  0  0  0  0
   13.6561   65.7191    6.3346 N   0  0  0  0  0  0
   17.4368   68.1322    5.1927 C   0  0  0  0  0  0
   12.8793   64.8852    5.5878 C   0  0  0  0  0  0
   18.7630   68.4568    5.1896 N   0  0  0  0  0  0
   15.4667   65.4059    4.7723 C   0  0  0  0  0  0
   17.0671   68.4570    9.9587 N   0  0  0  0  0  0
   13.3867   64.2268    4.4285 C   0  0  0  0  0  0
   14.7143   64.4992    4.0328 C   0  0  0  0  0  0
   19.3363   68.8595    4.0281 C   0  0  0  0  0  0
   11.5279   64.6846    5.9566 C   0  0  0  0  0  0
   16.6673   68.2213    4.0240 C   0  0  0  0  0  0
   12.5416   63.3751    3.6807 C   0  0  0  0  0  0
   18.6259   68.9668    2.8335 C   0  0  0  0  0  0
   10.7033   63.8850    5.1689 C   0  0  0  0  0  0
   17.2705   68.6370    2.8355 C   0  0  0  0  0  0
   11.2021   63.2570    4.0320 C   0  0  0  0  0  0
   16.4676   65.6571    4.4612 H   0  0  0  0  0  0
   17.7862   69.1588   10.0842 H   0  0  0  0  0  0
   16.5780   68.1483   10.7873 H   0  0  0  0  0  0
   15.1184   64.0350    3.1441 H   0  0  0  0  0  0
   20.3891   69.1024    4.0718 H   0  0  0  0  0  0
   11.1306   65.1807    6.8321 H   0  0  0  0  0  0
   15.6093   68.0018    4.0369 H   0  0  0  0  0  0
   12.9175   62.8918    2.7912 H   0  0  0  0  0  0
   19.1140   69.2997    1.9282 H   0  0  0  0  0  0
    9.6631   63.7637    5.4306 H   0  0  0  0  0  0
   16.6876   68.7163    1.9294 H   0  0  0  0  0  0
   10.5443   62.6767    3.4019 H   0  0  0  0  0  0
  1  2  2  0  0  0
  1  5  1  0  0  0
  1  6  1  0  0  0
  2  3  1  0  0  0
  2  8  1  0  0  0
  3  4  2  0  0  0
  4  5  1  0  0  0
  4 12  1  0  0  0
  6  7  2  0  0  0
  6 11  1  0  0  0
  7  9  1  0  0  0
  8 10  1  0  0  0
  8 17  2  0  0  0
  9 16  2  0  0  0
  9 13  1  0  0  0
 10 15  2  0  0  0
 11 14  2  0  0  0
 11 23  1  0  0  0
 12 24  1  0  0  0
 12 25  1  0  0  0
 13 14  1  0  0  0
 13 18  2  0  0  0
 14 26  1  0  0  0
 15 19  1  0  0  0
 15 27  1  0  0  0
 16 20  1  0  0  0
 16 28  1  0  0  0
 17 21  1  0  0  0
 17 29  1  0  0  0
 18 22  1  0  0  0
 18 30  1  0  0  0
 19 21  2  0  0  0
 19 31  1  0  0  0
 20 22  2  0  0  0
 20 32  1  0  0  0
 21 33  1  0  0  0
 22 34  1  0  0  0
M  END
> <s_m_entry_id>
34506

> <s_m_entry_name>
dock_pv.249

> <s_m_Source_Path>
/home/csk/Desktop/cluster/DUD-E-result/tgfr1

> <s_m_Source_File>
dock_pv.maegz

> <i_m_Source_File_Index>
249

> <chembl_id>
CHEMBL186966

> <chembl_pref_name>
None

> <i_lp_mmshare_version>
53161

> <r_lp_tautomer_probability>
1

> <s_lp_Force_Field>
OPLS_2005

> <r_lp_Energy>
16.517717

> <b_lp_Chiralities_Consistent>
1

> <s_lp_Variant>
CHEMBL4439_lig83-1

> <s_i_glide_gridfile>
glide-grid_3hmm

> <i_i_glide_lignum>
120

> <i_i_glide_rotatable_bonds>
2

> <r_i_docking_score>
-8.23149681255556

> <r_i_glide_ligand_efficiency>
-0.374158946025253

> <r_i_glide_ligand_efficiency_sa>
-1.0484080815991

> <r_i_glide_ligand_efficiency_ln>
-2.01207807213009

> <r_i_glide_gscore>
-8.23149681255556

> <r_i_glide_lipo>
-4.06102953697364

> <r_i_glide_hbond>
-0.213258139988279

> <r_i_glide_metal>
0

> <r_i_glide_rewards>
-1.86763088173207

> <r_i_glide_evdw>
-43.7685394287109

> <r_i_glide_ecoul>
-1.99515020847321

> <r_i_glide_erotb>
0.398121248844959

> <r_i_glide_esite>
0

> <r_i_glide_emodel>
-68.8978874108612

> <r_i_glide_energy>
-45.7636896371841

> <r_i_glide_einternal>
0.365704208612442

> <i_i_glide_confnum>
7

> <i_i_glide_posenum>
361

> <r_i_glide_eff_state_penalty>
0

> <s_user_duplicate_titles>
CHEMBL4439_lig83

> <i_f3d_flags>
0

> <s_m_subgroup_title>
dock_pv

> <s_m_subgroupid>
dock_pv

> <b_m_subgroup_collapsed>
1

$$$$
CHEMBL4439_lig178
                    3D
 Schrodinger Suite 2021-1.
 43 47  0  0  1  0            999 V2000
   20.3718   68.6710    5.1602 C   0  0  0  0  0  0
   20.6594   69.2074    3.9149 C   0  0  0  0  0  0
   19.6829   69.2570    2.9248 C   0  0  0  0  0  0
   19.0937   68.2059    5.4450 C   0  0  0  0  0  0
   18.0399   68.3075    4.4913 C   0  0  0  0  0  0
   18.3599   68.8240    3.1943 C   0  0  0  0  0  0
   17.4392   68.8918    2.1920 N   0  0  0  0  0  0
   16.1861   68.4568    2.4432 C   0  0  0  0  0  0
   15.7841   67.9516    3.6740 C   0  0  0  0  0  0
   16.6877   67.8891    4.7403 C   0  0  0  0  0  0
   16.2040   67.4139    6.0866 C   0  0  0  0  0  0
   15.3008   66.3601    6.4241 C   0  0  0  0  0  0
   15.2178   66.1873    7.7328 N   0  0  0  0  0  0
   16.5193   67.9643    7.3314 C   0  0  0  0  0  0
   15.9807   67.1336    8.2641 N   0  0  0  0  0  0
   16.3023   67.4726    9.6342 C   0  0  0  0  0  0
   17.4509   68.4595    9.4368 C   0  0  0  0  0  0
   17.2464   69.0799    8.0519 C   0  0  0  0  0  0
   14.5180   65.4416    5.5350 C   0  0  0  0  0  0
   15.0527   64.8893    4.3675 C   0  0  0  0  0  0
   14.2783   63.9896    3.6322 C   0  0  0  0  0  0
   12.9961   63.6567    4.0682 C   0  0  0  0  0  0
   12.5171   64.2636    5.2298 C   0  0  0  0  0  0
   13.2557   65.1432    5.9567 N   0  0  0  0  0  0
   20.0343   69.6572    1.6816 F   0  0  0  0  0  0
   11.1265   63.9645    5.7541 C   0  0  0  0  0  0
   21.1583   68.5852    5.8968 H   0  0  0  0  0  0
   21.6660   69.5319    3.6927 H   0  0  0  0  0  0
   18.9194   67.7323    6.3969 H   0  0  0  0  0  0
   15.4816   68.5266    1.6263 H   0  0  0  0  0  0
   14.7554   67.6498    3.8074 H   0  0  0  0  0  0
   16.5978   66.5950   10.2100 H   0  0  0  0  0  0
   15.4672   67.9597   10.1263 H   0  0  0  0  0  0
   18.4051   67.9286    9.4668 H   0  0  0  0  0  0
   17.4721   69.2018   10.2317 H   0  0  0  0  0  0
   18.2019   69.3822    7.6289 H   0  0  0  0  0  0
   16.6319   69.9794    8.1031 H   0  0  0  0  0  0
   16.0435   65.1523    4.0322 H   0  0  0  0  0  0
   14.6683   63.5491    2.7287 H   0  0  0  0  0  0
   12.3875   62.9657    3.5028 H   0  0  0  0  0  0
   10.3958   64.6145    5.2720 H   0  0  0  0  0  0
   10.8485   62.9285    5.5577 H   0  0  0  0  0  0
   11.0647   64.1216    6.8316 H   0  0  0  0  0  0
  1  2  2  0  0  0
  1  4  1  0  0  0
  1 27  1  0  0  0
  2  3  1  0  0  0
  2 28  1  0  0  0
  3  6  2  0  0  0
  3 25  1  0  0  0
  4  5  2  0  0  0
  4 29  1  0  0  0
  5  6  1  0  0  0
  5 10  1  0  0  0
  6  7  1  0  0  0
  7  8  2  0  0  0
  8  9  1  0  0  0
  8 30  1  0  0  0
  9 10  2  0  0  0
  9 31  1  0  0  0
 10 11  1  0  0  0
 11 14  2  0  0  0
 11 12  1  0  0  0
 12 13  2  0  0  0
 12 19  1  0  0  0
 13 15  1  0  0  0
 14 15  1  0  0  0
 14 18  1  0  0  0
 15 16  1  0  0  0
 16 17  1  0  0  0
 16 32  1  0  0  0
 16 33  1  0  0  0
 17 18  1  0  0  0
 17 34  1  0  0  0
 17 35  1  0  0  0
 18 36  1  0  0  0
 18 37  1  0  0  0
 19 20  2  0  0  0
 19 24  1  0  0  0
 20 21  1  0  0  0
 20 38  1  0  0  0
 21 22  2  0  0  0
 21 39  1  0  0  0
 22 23  1  0  0  0
 22 40  1  0  0  0
 23 24  2  0  0  0
 23 26  1  0  0  0
 26 41  1  0  0  0
 26 42  1  0  0  0
 26 43  1  0  0  0
M  END
> <s_m_entry_id>
34507

> <s_m_entry_name>
dock_pv.250

> <s_m_Source_Path>
/home/csk/Desktop/cluster/DUD-E-result/tgfr1

> <s_m_Source_File>
dock_pv.maegz

> <i_m_Source_File_Index>
250

> <chembl_id>
CHEMBL411741

> <chembl_pref_name>
None

> <i_lp_mmshare_version>
53161

> <r_lp_tautomer_probability>
1

> <s_lp_Force_Field>
OPLS_2005

> <r_lp_Energy>
41.877237

> <b_lp_Chiralities_Consistent>
1

> <s_lp_Variant>
CHEMBL4439_lig178-1

> <s_i_glide_gridfile>
glide-grid_3hmm

> <i_i_glide_lignum>
270

> <i_i_glide_rotatable_bonds>
2

> <r_i_docking_score>
-8.2312962123331

> <r_i_glide_ligand_efficiency>
-0.316588315858966

> <r_i_glide_ligand_efficiency_sa>
-0.937891640017316

> <r_i_glide_ligand_efficiency_ln>
-1.9330929063806

> <r_i_glide_gscore>
-8.2312962123331

> <r_i_glide_lipo>
-4.45173550318646

> <r_i_glide_hbond>
-0.0355711577154058

> <r_i_glide_metal>
0

> <r_i_glide_rewards>
-1.57473378278066

> <r_i_glide_evdw>
-44.2244758605957

> <r_i_glide_ecoul>
-1.68817150592804

> <r_i_glide_erotb>
0.320178911398728

> <r_i_glide_esite>
-0.0249851611303112

> <r_i_glide_emodel>
-67.0872588811987

> <r_i_glide_energy>
-45.9126473665237

> <r_i_glide_einternal>
2.7953245639801

> <i_i_glide_confnum>
7

> <i_i_glide_posenum>
111

> <r_i_glide_eff_state_penalty>
0

> <s_user_duplicate_titles>
CHEMBL4439_lig178,428946

> <i_f3d_flags>
0

> <s_m_subgroup_title>
dock_pv

> <s_m_subgroupid>
dock_pv

> <b_m_subgroup_collapsed>
1

$$$$
CHEMBL4439_lig78
                    3D
 Schrodinger Suite 2021-1.
 34 37  0  0  1  0            999 V2000
   17.1370   68.4571    9.8611 N   0  0  0  0  0  0
   16.7624   67.9979    8.6338 C   0  0  0  0  0  0
   17.3150   68.3348    7.5030 N   0  0  0  0  0  0
   16.7719   67.7391    6.4479 C   0  0  0  0  0  0
   15.7157   66.8500    6.7681 C   0  0  0  0  0  0
   15.4688   66.8776    8.5010 S   0  0  0  0  0  0
   14.8727   65.9434    5.9234 C   0  0  0  0  0  0
   15.4057   65.3677    4.7721 C   0  0  0  0  0  0
   14.6507   64.4645    4.0321 C   0  0  0  0  0  0
   13.3227   64.1988    4.4345 C   0  0  0  0  0  0
   12.5472   63.3719    3.6829 N   0  0  0  0  0  0
   11.2439   63.2573    4.0259 C   0  0  0  0  0  0
   10.6742   63.8502    5.1509 C   0  0  0  0  0  0
   11.4747   64.6507    5.9628 C   0  0  0  0  0  0
   12.8303   64.8570    5.6058 C   0  0  0  0  0  0
   13.6097   65.6822    6.3550 N   0  0  0  0  0  0
   17.3074   68.0974    5.0826 C   0  0  0  0  0  0
   18.6522   68.4571    4.9105 C   0  0  0  0  0  0
   19.1288   68.8528    3.6624 C   0  0  0  0  0  0
   18.2674   68.8704    2.5673 C   0  0  0  0  0  0
   18.7225   69.2553    1.3557 F   0  0  0  0  0  0
   16.9354   68.5008    2.7147 C   0  0  0  0  0  0
   16.4584   68.1325    3.9678 C   0  0  0  0  0  0
   17.8629   69.1553    9.9690 H   0  0  0  0  0  0
   16.6849   68.1444   10.7068 H   0  0  0  0  0  0
   16.3942   65.6566    4.4510 H   0  0  0  0  0  0
   15.0411   64.0016    3.1379 H   0  0  0  0  0  0
   10.6436   62.6587    3.3558 H   0  0  0  0  0  0
    9.6311   63.6997    5.3849 H   0  0  0  0  0  0
   11.0675   65.1387    6.8357 H   0  0  0  0  0  0
   19.3322   68.4439    5.7498 H   0  0  0  0  0  0
   20.1636   69.1355    3.5401 H   0  0  0  0  0  0
   16.2688   68.5288    1.8660 H   0  0  0  0  0  0
   15.4077   67.9064    4.0681 H   0  0  0  0  0  0
  1  2  1  0  0  0
  1 24  1  0  0  0
  1 25  1  0  0  0
  2  3  2  0  0  0
  2  6  1  0  0  0
  3  4  1  0  0  0
  4  5  2  0  0  0
  4 17  1  0  0  0
  5  6  1  0  0  0
  5  7  1  0  0  0
  7  8  2  0  0  0
  7 16  1  0  0  0
  8  9  1  0  0  0
  8 26  1  0  0  0
  9 10  2  0  0  0
  9 27  1  0  0  0
 10 11  1  0  0  0
 10 15  1  0  0  0
 11 12  2  0  0  0
 12 13  1  0  0  0
 12 28  1  0  0  0
 13 14  2  0  0  0
 13 29  1  0  0  0
 14 15  1  0  0  0
 14 30  1  0  0  0
 15 16  2  0  0  0
 17 18  2  0  0  0
 17 23  1  0  0  0
 18 19  1  0  0  0
 18 31  1  0  0  0
 19 20  2  0  0  0
 19 32  1  0  0  0
 20 21  1  0  0  0
 20 22  1  0  0  0
 22 23  2  0  0  0
 22 33  1  0  0  0
 23 34  1  0  0  0
M  END
> <s_m_entry_id>
34508

> <s_m_entry_name>
dock_pv.251

> <s_m_Source_Path>
/home/csk/Desktop/cluster/DUD-E-result/tgfr1

> <s_m_Source_File>
dock_pv.maegz

> <i_m_Source_File_Index>
251

> <chembl_id>
CHEMBL361237

> <chembl_pref_name>
GW785804X

> <i_lp_mmshare_version>
53161

> <r_lp_tautomer_probability>
1

> <s_lp_Force_Field>
OPLS_2005

> <r_lp_Energy>
21.424588

> <b_lp_Chiralities_Consistent>
1

> <s_lp_Variant>
CHEMBL4439_lig78-1

> <s_i_glide_gridfile>
glide-grid_3hmm

> <i_i_glide_lignum>
114

> <i_i_glide_rotatable_bonds>
2

> <r_i_docking_score>
-8.22697766463717

> <r_i_glide_ligand_efficiency>
-0.357694681071181

> <r_i_glide_ligand_efficiency_sa>
-1.01723609130369

> <r_i_glide_ligand_efficiency_ln>
-1.98935779741836

> <r_i_glide_gscore>
-8.22697766463717

> <r_i_glide_lipo>
-4.14852171846988

> <r_i_glide_hbond>
-0.183632505039154

> <r_i_glide_metal>
0

> <r_i_glide_rewards>
-1.73357625433874

> <r_i_glide_evdw>
-45.6905174255371

> <r_i_glide_ecoul>
-1.57741606235504

> <r_i_glide_erotb>
0.359891093840725

> <r_i_glide_esite>
0

> <r_i_glide_emodel>
-71.444527963617

> <r_i_glide_energy>
-47.2679334878922

> <r_i_glide_einternal>
0.403753906488419

> <i_i_glide_confnum>
8

> <i_i_glide_posenum>
323

> <r_i_glide_eff_state_penalty>
0

> <s_user_duplicate_titles>
CHEMBL4439_lig78,306971

> <i_f3d_flags>
0

> <s_m_subgroup_title>
dock_pv

> <s_m_subgroupid>
dock_pv

> <b_m_subgroup_collapsed>
1

$$$$
CHEMBL4439_lig848
                    3D
 Schrodinger Suite 2021-1.
 46 49  0  0  1  0            999 V2000
   18.7505   66.9663    9.8570 C   0  0  0  0  0  0
   17.3724   67.4551    9.3364 C   0  0  0  0  0  0
   16.7842   68.4379   10.3683 C   0  0  0  0  0  0
   17.6276   68.0279    4.1277 C   0  0  0  0  0  0
   17.8397   68.6746    2.9104 C   0  0  0  0  0  0
   16.8443   68.9034    2.0197 N   0  0  0  0  0  0
   15.6037   68.4570    2.3386 C   0  0  0  0  0  0
   15.3254   67.7585    3.5147 C   0  0  0  0  0  0
   16.3442   67.5705    4.4541 C   0  0  0  0  0  0
   16.0326   66.9116    5.7631 C   0  0  0  0  0  0
   15.0596   65.5453    7.2682 N   0  0  0  0  0  0
   15.0849   65.8739    6.0050 C   0  0  0  0  0  0
   15.9490   66.3000    7.8741 N   0  0  0  0  0  0
   16.5444   67.1967    7.0470 C   0  0  0  0  0  0
   17.4133   68.1083    7.9039 C   0  0  2  0  0  0
   16.4115   66.2530    9.2332 C   0  0  0  0  0  0
   14.1981   65.0669    5.1083 C   0  0  0  0  0  0
   12.9246   64.8569    5.5557 N   0  0  0  0  0  0
   12.1357   63.9757    4.8875 C   0  0  0  0  0  0
   12.5783   63.2651    3.7695 C   0  0  0  0  0  0
   13.8670   63.5180    3.3009 C   0  0  0  0  0  0
   14.6897   64.4316    3.9669 C   0  0  0  0  0  0
   10.7330   63.8016    5.4376 C   0  0  0  0  0  0
   18.8014   68.4308    7.3188 C   0  0  0  0  0  0
   19.2262   66.2631    9.1736 H   0  0  0  0  0  0
   19.4418   67.7948   10.0146 H   0  0  0  0  0  0
   18.6554   66.4598   10.8181 H   0  0  0  0  0  0
   15.8353   68.8567   10.0310 H   0  0  0  0  0  0
   16.6048   67.9579   11.3317 H   0  0  0  0  0  0
   17.4683   69.2569   10.5504 H   0  0  0  0  0  0
   18.4630   67.8462    4.7805 H   0  0  0  0  0  0
   18.8230   69.0232    2.6324 H   0  0  0  0  0  0
   14.8146   68.6598    1.6320 H   0  0  0  0  0  0
   14.3181   67.4264    3.7107 H   0  0  0  0  0  0
   16.8928   69.0669    7.9411 H   0  0  0  0  0  0
   15.5642   66.3108    9.9213 H   0  0  0  0  0  0
   16.9102   65.2995    9.4124 H   0  0  0  0  0  0
   11.9362   62.5635    3.2574 H   0  0  0  0  0  0
   14.2325   62.9952    2.4320 H   0  0  0  0  0  0
   15.7036   64.5951    3.6332 H   0  0  0  0  0  0
   10.0928   63.2572    4.7423 H   0  0  0  0  0  0
   10.7569   63.2586    6.3824 H   0  0  0  0  0  0
   10.2744   64.7739    5.6167 H   0  0  0  0  0  0
   18.7220   69.1072    6.4693 H   0  0  0  0  0  0
   19.4255   68.9482    8.0483 H   0  0  0  0  0  0
   19.3312   67.5318    7.0037 H   0  0  0  0  0  0
  1  2  1  0  0  0
  1 25  1  0  0  0
  1 26  1  0  0  0
  1 27  1  0  0  0
  2  3  1  0  0  0
  2 15  1  0  0  0
  2 16  1  0  0  0
  3 28  1  0  0  0
  3 29  1  0  0  0
  3 30  1  0  0  0
  4  5  2  0  0  0
  4  9  1  0  0  0
  4 31  1  0  0  0
  5  6  1  0  0  0
  5 32  1  0  0  0
  6  7  2  0  0  0
  7  8  1  0  0  0
  7 33  1  0  0  0
  8  9  2  0  0  0
  8 34  1  0  0  0
  9 10  1  0  0  0
 10 14  2  0  0  0
 10 12  1  0  0  0
 11 13  1  0  0  0
 11 12  2  0  0  0
 12 17  1  0  0  0
 13 14  1  0  0  0
 13 16  1  0  0  0
 14 15  1  0  0  0
 15 24  1  0  0  0
 15 35  1  0  0  0
 16 36  1  0  0  0
 16 37  1  0  0  0
 17 18  2  0  0  0
 17 22  1  0  0  0
 18 19  1  0  0  0
 19 20  2  0  0  0
 19 23  1  0  0  0
 20 21  1  0  0  0
 20 38  1  0  0  0
 21 22  2  0  0  0
 21 39  1  0  0  0
 22 40  1  0  0  0
 23 41  1  0  0  0
 23 42  1  0  0  0
 23 43  1  0  0  0
 24 44  1  0  0  0
 24 45  1  0  0  0
 24 46  1  0  0  0
M  END
> <s_m_entry_id>
34509

> <s_m_entry_name>
dock_pv.252

> <s_m_Source_Path>
/home/csk/Desktop/cluster/DUD-E-result/tgfr1

> <s_m_Source_File>
dock_pv.maegz

> <i_m_Source_File_Index>
252

> <chembl_id>
CHEMBL4279935

> <chembl_pref_name>
None

> <i_lp_mmshare_version>
53161

> <r_lp_tautomer_probability>
1

> <s_lp_Force_Field>
OPLS_2005

> <r_lp_Energy>
37.149858

> <b_lp_Chiralities_Consistent>
1

> <s_lp_Variant>
CHEMBL4439_lig848-2

> <s_i_glide_gridfile>
glide-grid_3hmm

> <i_i_glide_lignum>
1167

> <i_i_glide_rotatable_bonds>
2

> <r_i_docking_score>
-8.2244610467625

> <r_i_glide_ligand_efficiency>
-0.342685876948437

> <r_i_glide_ligand_efficiency_sa>
-0.988477116511458

> <r_i_glide_ligand_efficiency_ln>
-1.96849092441625

> <r_i_glide_gscore>
-8.2244610467625

> <r_i_glide_lipo>
-4.47225525871528

> <r_i_glide_hbond>
-0.0576106083482664

> <r_i_glide_metal>
0

> <r_i_glide_rewards>
-1.74484471609833

> <r_i_glide_evdw>
-42.928092956543

> <r_i_glide_ecoul>
-1.14087295532227

> <r_i_glide_erotb>
0.367785127524864

> <r_i_glide_esite>
0

> <r_i_glide_emodel>
-61.2641416299697

> <r_i_glide_energy>
-44.0689659118652

> <r_i_glide_einternal>
2.82532978057861

> <i_i_glide_confnum>
8

> <i_i_glide_posenum>
147

> <r_i_glide_eff_state_penalty>
0

> <s_user_duplicate_titles>
CHEMBL4439_lig848

> <i_f3d_flags>
0

> <s_m_subgroup_title>
dock_pv

> <s_m_subgroupid>
dock_pv

> <b_m_subgroup_collapsed>
1

$$$$
CHEMBL4439_lig69
                    3D
 Schrodinger Suite 2021-1.
 35 38  0  0  1  0            999 V2000
   16.1002   67.2353    5.9475 C   0  0  0  0  0  0
   15.1805   66.2334    6.3456 C   0  0  0  0  0  0
   15.0919   66.0570    7.6562 N   0  0  0  0  0  0
   16.5412   67.7536    4.6008 C   0  0  0  0  0  0
   17.0648   68.9446    2.0717 N   0  0  0  0  0  0
   15.8478   68.4569    2.3949 C   0  0  0  0  0  0
   15.5611   67.8408    3.6076 C   0  0  0  0  0  0
   16.6464   68.0561    7.4007 S   0  0  0  0  0  0
   15.7897   66.9109    8.3444 C   0  0  0  0  0  0
   18.0605   68.8333    2.9894 C   0  0  0  0  0  0
   17.8635   68.2295    4.2744 C   0  0  0  0  0  0
   18.9955   68.1364    5.1383 C   0  0  0  0  0  0
   20.2344   68.6454    4.7637 C   0  0  0  0  0  0
   20.3965   69.2571    3.5304 C   0  0  0  0  0  0
   19.3299   69.3463    2.6400 C   0  0  0  0  0  0
   14.3073   65.3584    5.4949 C   0  0  0  0  0  0
   14.8368   64.6779    4.3925 C   0  0  0  0  0  0
   14.0503   63.7887    3.6575 C   0  0  0  0  0  0
   12.7203   63.5740    4.0165 C   0  0  0  0  0  0
   12.1645   64.2813    5.0803 C   0  0  0  0  0  0
   12.9476   65.1753    5.8098 C   0  0  0  0  0  0
   12.3754   65.8515    6.8341 F   0  0  0  0  0  0
   15.8672   66.9520    9.7054 N   0  0  0  0  0  0
   15.0839   68.5541    1.6339 H   0  0  0  0  0  0
   14.5551   67.4981    3.7945 H   0  0  0  0  0  0
   18.9198   67.6414    6.0915 H   0  0  0  0  0  0
   21.0812   68.5544    5.4304 H   0  0  0  0  0  0
   21.3661   69.6467    3.2505 H   0  0  0  0  0  0
   19.4697   69.8093    1.6713 H   0  0  0  0  0  0
   15.8678   64.8222    4.1124 H   0  0  0  0  0  0
   14.4744   63.2587    2.8186 H   0  0  0  0  0  0
   12.1132   62.8849    3.4476 H   0  0  0  0  0  0
   11.1261   64.1400    5.3420 H   0  0  0  0  0  0
   15.3459   66.3302   10.3030 H   0  0  0  0  0  0
   16.4223   67.6572   10.1711 H   0  0  0  0  0  0
  1  4  1  0  0  0
  1  8  1  0  0  0
  1  2  2  0  0  0
  2  3  1  0  0  0
  2 16  1  0  0  0
  3  9  2  0  0  0
  4  7  1  0  0  0
  4 11  2  0  0  0
  5 10  2  0  0  0
  5  6  1  0  0  0
  6  7  2  0  0  0
  6 24  1  0  0  0
  7 25  1  0  0  0
  8  9  1  0  0  0
  9 23  1  0  0  0
 10 11  1  0  0  0
 10 15  1  0  0  0
 11 12  1  0  0  0
 12 13  2  0  0  0
 12 26  1  0  0  0
 13 14  1  0  0  0
 13 27  1  0  0  0
 14 15  2  0  0  0
 14 28  1  0  0  0
 15 29  1  0  0  0
 16 17  2  0  0  0
 16 21  1  0  0  0
 17 18  1  0  0  0
 17 30  1  0  0  0
 18 19  2  0  0  0
 18 31  1  0  0  0
 19 20  1  0  0  0
 19 32  1  0  0  0
 20 21  2  0  0  0
 20 33  1  0  0  0
 21 22  1  0  0  0
 23 34  1  0  0  0
 23 35  1  0  0  0
M  END
> <s_m_entry_id>
34510

> <s_m_entry_name>
dock_pv.253

> <s_m_Source_Path>
/home/csk/Desktop/cluster/DUD-E-result/tgfr1

> <s_m_Source_File>
dock_pv.maegz

> <i_m_Source_File_Index>
253

> <chembl_id>
CHEMBL184746

> <chembl_pref_name>
None

> <i_lp_mmshare_version>
53161

> <r_lp_tautomer_probability>
1

> <s_lp_Force_Field>
OPLS_2005

> <r_lp_Energy>
22.478779

> <b_lp_Chiralities_Consistent>
1

> <s_lp_Variant>
CHEMBL4439_lig69-1

> <s_i_glide_gridfile>
glide-grid_3hmm

> <i_i_glide_lignum>
105

> <i_i_glide_rotatable_bonds>
2

> <r_i_docking_score>
-8.22082960839275

> <r_i_glide_ligand_efficiency>
-0.357427374277945

> <r_i_glide_ligand_efficiency_sa>
-1.01647590634171

> <r_i_glide_ligand_efficiency_ln>
-1.98787114167096

> <r_i_glide_gscore>
-8.22082960839275

> <r_i_glide_lipo>
-4.12733960516428

> <r_i_glide_hbond>
-0.073713030426911

> <r_i_glide_metal>
0

> <r_i_glide_rewards>
-1.95915041270713

> <r_i_glide_evdw>
-41.6725311279297

> <r_i_glide_ecoul>
-2.25896048545837

> <r_i_glide_erotb>
0.36184406912081

> <r_i_glide_esite>
0

> <r_i_glide_emodel>
-60.492775948496

> <r_i_glide_energy>
-43.9314916133881

> <r_i_glide_einternal>
6.17707490921021

> <i_i_glide_confnum>
10

> <i_i_glide_posenum>
398

> <r_i_glide_eff_state_penalty>
0

> <s_user_duplicate_titles>
CHEMBL4439_lig69

> <i_f3d_flags>
0

> <s_m_subgroup_title>
dock_pv

> <s_m_subgroupid>
dock_pv

> <b_m_subgroup_collapsed>
1

$$$$
CHEMBL4439_lig273
                    3D
 Schrodinger Suite 2021-1.
 47 51  0  0  1  0            999 V2000
   15.1390   66.4225    5.3782 C   0  0  0  0  0  0
   14.6070   66.4471    6.7002 C   0  0  0  0  0  0
   13.5557   65.6584    6.8313 N   0  0  0  0  0  0
   15.1093   67.2121    7.8706 C   0  0  0  0  0  0
   15.4709   68.5531    7.7563 C   0  0  0  0  0  0
   16.3029   69.0877    8.7370 C   0  0  0  0  0  0
   16.6677   68.3257    9.8459 C   0  0  0  0  0  0
   16.1897   67.0205    9.9327 C   0  0  0  0  0  0
   15.4276   66.4572    8.9605 N   0  0  0  0  0  0
   16.1553   67.2866    4.6654 C   0  0  0  0  0  0
   17.8179   68.9322    3.0430 N   0  0  0  0  0  0
   16.6325   68.4571    2.6018 C   0  0  0  0  0  0
   15.7919   67.6569    3.3661 C   0  0  0  0  0  0
   14.4847   65.3262    4.8254 C   0  0  0  0  0  0
   13.4873   64.9915    5.6832 N   0  0  0  0  0  0
   12.5196   64.0571    5.1476 C   0  0  0  0  0  0
   13.2772   63.4624    3.9532 C   0  0  0  0  0  0
   14.4373   64.4145    3.6322 C   0  0  0  0  0  0
   18.2134   68.6024    4.3016 C   0  0  0  0  0  0
   17.4136   67.7787    5.1601 C   0  0  0  0  0  0
   17.9442   67.4616    6.4329 C   0  0  0  0  0  0
   19.1757   67.9476    6.8515 C   0  0  0  0  0  0
   19.9472   68.7631    6.0203 C   0  0  0  0  0  0
   19.4727   69.0823    4.7478 C   0  0  0  0  0  0
   21.2350   69.2136    6.3641 N   0  0  0  0  0  0
   21.7906   69.3139    7.5899 C   0  0  0  0  0  0
   21.1944   69.1527    8.6543 O   0  0  0  0  0  0
   23.2740   69.6580    7.6249 C   0  0  0  0  0  0
   15.2433   69.1185    6.8643 H   0  0  0  0  0  0
   16.7187   70.0668    8.6019 H   0  0  0  0  0  0
   17.3152   68.7380   10.6069 H   0  0  0  0  0  0
   16.4342   66.3996   10.7813 H   0  0  0  0  0  0
   16.3467   68.7483    1.6016 H   0  0  0  0  0  0
   14.8502   67.3362    2.9433 H   0  0  0  0  0  0
   11.6228   64.5885    4.8235 H   0  0  0  0  0  0
   12.2273   63.3019    5.8763 H   0  0  0  0  0  0
   12.6231   63.3297    3.0894 H   0  0  0  0  0  0
   13.6617   62.4734    4.2042 H   0  0  0  0  0  0
   14.2670   64.9618    2.7124 H   0  0  0  0  0  0
   15.3698   63.8659    3.4919 H   0  0  0  0  0  0
   17.4221   66.7751    7.0742 H   0  0  0  0  0  0
   19.5335   67.6347    7.8203 H   0  0  0  0  0  0
   20.0663   69.6864    4.0768 H   0  0  0  0  0  0
   21.8296   69.4536    5.5864 H   0  0  0  0  0  0
   23.4395   70.5609    8.2133 H   0  0  0  0  0  0
   23.8369   68.8435    8.0787 H   0  0  0  0  0  0
   23.6763   69.8322    6.6262 H   0  0  0  0  0  0
  1 10  1  0  0  0
  1 14  2  0  0  0
  1  2  1  0  0  0
  2  4  1  0  0  0
  2  3  2  0  0  0
  3 15  1  0  0  0
  4  9  1  0  0  0
  4  5  2  0  0  0
  5  6  1  0  0  0
  5 29  1  0  0  0
  6  7  2  0  0  0
  6 30  1  0  0  0
  7  8  1  0  0  0
  7 31  1  0  0  0
  8  9  2  0  0  0
  8 32  1  0  0  0
 10 13  1  0  0  0
 10 20  2  0  0  0
 11 19  2  0  0  0
 11 12  1  0  0  0
 12 13  2  0  0  0
 12 33  1  0  0  0
 13 34  1  0  0  0
 14 15  1  0  0  0
 14 18  1  0  0  0
 15 16  1  0  0  0
 16 17  1  0  0  0
 16 35  1  0  0  0
 16 36  1  0  0  0
 17 18  1  0  0  0
 17 37  1  0  0  0
 17 38  1  0  0  0
 18 39  1  0  0  0
 18 40  1  0  0  0
 19 20  1  0  0  0
 19 24  1  0  0  0
 20 21  1  0  0  0
 21 22  2  0  0  0
 21 41  1  0  0  0
 22 23  1  0  0  0
 22 42  1  0  0  0
 23 24  2  0  0  0
 23 25  1  0  0  0
 24 43  1  0  0  0
 25 26  1  0  0  0
 25 44  1  0  0  0
 26 27  2  0  0  0
 26 28  1  0  0  0
 28 45  1  0  0  0
 28 46  1  0  0  0
 28 47  1  0  0  0
M  END
> <s_m_entry_id>
34511

> <s_m_entry_name>
dock_pv.254

> <s_m_Source_Path>
/home/csk/Desktop/cluster/DUD-E-result/tgfr1

> <s_m_Source_File>
dock_pv.maegz

> <i_m_Source_File_Index>
254

> <chembl_id>
CHEMBL565815

> <chembl_pref_name>
None

> <i_lp_mmshare_version>
53161

> <r_lp_tautomer_probability>
1

> <s_lp_Force_Field>
OPLS_2005

> <r_lp_Energy>
48.93936

> <b_lp_Chiralities_Consistent>
1

> <s_lp_Variant>
CHEMBL4439_lig273-1

> <s_i_glide_gridfile>
glide-grid_3hmm

> <i_i_glide_lignum>
386

> <i_i_glide_rotatable_bonds>
4

> <r_i_docking_score>
-8.21264061449796

> <r_i_glide_ligand_efficiency>
-0.293308593374927

> <r_i_glide_ligand_efficiency_sa>
-0.890657639009382

> <r_i_glide_ligand_efficiency_ln>
-1.89571858743248

> <r_i_glide_gscore>
-8.21264061449796

> <r_i_glide_lipo>
-4.45920695697961

> <r_i_glide_hbond>
-0.0782555465733966

> <r_i_glide_metal>
0

> <r_i_glide_rewards>
-1.17718526608927

> <r_i_glide_evdw>
-48.1280364990234

> <r_i_glide_ecoul>
-3.43624043464661

> <r_i_glide_erotb>
0.423845045292487

> <r_i_glide_esite>
0

> <r_i_glide_emodel>
-60.0438499162324

> <r_i_glide_energy>
-51.56427693367

> <r_i_glide_einternal>
10.2569646835327

> <i_i_glide_confnum>
34

> <i_i_glide_posenum>
149

> <r_i_glide_eff_state_penalty>
0

> <s_user_duplicate_titles>
CHEMBL4439_lig273

> <i_f3d_flags>
0

> <s_m_subgroup_title>
dock_pv

> <s_m_subgroupid>
dock_pv

> <b_m_subgroup_collapsed>
1

$$$$
CHEMBL4439_lig297
                    3D
 Schrodinger Suite 2021-1.
 41 44  0  0  1  0            999 V2000
   16.6674   67.2112   10.6715 C   0  0  0  0  0  0
   16.4648   66.1719    9.7704 C   0  0  0  0  0  0
   16.6670   66.3874    8.4096 C   0  0  0  0  0  0
   17.0643   67.6392    7.9112 C   0  0  0  0  0  0
   17.2500   68.6821    8.8342 C   0  0  0  0  0  0
   17.0680   68.4568   10.1997 C   0  0  0  0  0  0
   17.2304   67.8249    6.4383 C   0  0  0  0  0  0
   16.4216   67.3458    5.4645 C   0  0  0  0  0  0
   17.0025   67.6429    4.2443 N   0  0  0  0  0  0
   18.1464   68.3772    4.5098 N   0  0  0  0  0  0
   18.3955   68.4569    5.8305 C   0  0  0  0  0  0
   19.3933   68.9397    6.3684 O   0  0  0  0  0  0
   15.1344   66.6164    5.6063 C   0  0  0  0  0  0
   14.2329   66.9534    6.6220 C   0  0  0  0  0  0
   13.0235   66.2847    6.7854 C   0  0  0  0  0  0
   14.8235   65.5581    4.7465 C   0  0  0  0  0  0
   13.6034   64.8580    4.8800 C   0  0  0  0  0  0
   12.6780   65.2481    5.8967 C   0  0  0  0  0  0
   11.4673   64.6363    6.0163 N   0  0  0  0  0  0
   11.1791   63.6570    5.1249 C   0  0  0  0  0  0
   12.0929   63.2569    4.1508 C   0  0  0  0  0  0
   13.3150   63.8315    4.0319 N   0  0  0  0  0  0
   17.5765   69.9498    8.4320 O   0  0  0  0  0  0
   19.0648   68.8139    3.4550 C   0  0  0  0  0  0
   16.2417   68.1698    3.1128 C   0  0  0  0  0  0
   16.5165   67.0533   11.7307 H   0  0  0  0  0  0
   16.1684   65.1986   10.1290 H   0  0  0  0  0  0
   16.5183   65.5609    7.7302 H   0  0  0  0  0  0
   17.2273   69.2570   10.9023 H   0  0  0  0  0  0
   14.4601   67.7708    7.2912 H   0  0  0  0  0  0
   12.3265   66.5670    7.5610 H   0  0  0  0  0  0
   15.5120   65.2615    3.9697 H   0  0  0  0  0  0
   10.2064   63.1965    5.2112 H   0  0  0  0  0  0
   11.8583   62.4710    3.4483 H   0  0  0  0  0  0
   17.8673   70.4884    9.1788 H   0  0  0  0  0  0
   20.0912   68.9348    3.8046 H   0  0  0  0  0  0
   19.0666   68.0804    2.6519 H   0  0  0  0  0  0
   18.7360   69.7638    3.0355 H   0  0  0  0  0  0
   15.2021   67.8440    3.1262 H   0  0  0  0  0  0
   16.2669   69.2567    3.0965 H   0  0  0  0  0  0
   16.6820   67.8206    2.1797 H   0  0  0  0  0  0
  1  6  1  0  0  0
  1  2  2  0  0  0
  1 26  1  0  0  0
  2  3  1  0  0  0
  2 27  1  0  0  0
  3  4  2  0  0  0
  3 28  1  0  0  0
  4  5  1  0  0  0
  4  7  1  0  0  0
  5 23  1  0  0  0
  5  6  2  0  0  0
  6 29  1  0  0  0
  7  8  2  0  0  0
  7 11  1  0  0  0
  8 13  1  0  0  0
  8  9  1  0  0  0
  9 10  1  0  0  0
  9 25  1  0  0  0
 10 11  1  0  0  0
 10 24  1  0  0  0
 11 12  2  0  0  0
 13 14  2  0  0  0
 13 16  1  0  0  0
 14 15  1  0  0  0
 14 30  1  0  0  0
 15 18  2  0  0  0
 15 31  1  0  0  0
 16 17  2  0  0  0
 16 32  1  0  0  0
 17 18  1  0  0  0
 17 22  1  0  0  0
 18 19  1  0  0  0
 19 20  2  0  0  0
 20 21  1  0  0  0
 20 33  1  0  0  0
 21 22  2  0  0  0
 21 34  1  0  0  0
 23 35  1  0  0  0
 24 36  1  0  0  0
 24 37  1  0  0  0
 24 38  1  0  0  0
 25 39  1  0  0  0
 25 40  1  0  0  0
 25 41  1  0  0  0
M  END
> <s_m_entry_id>
34512

> <s_m_entry_name>
dock_pv.255

> <s_m_Source_Path>
/home/csk/Desktop/cluster/DUD-E-result/tgfr1

> <s_m_Source_File>
dock_pv.maegz

> <i_m_Source_File_Index>
255

> <chembl_id>
CHEMBL605302

> <chembl_pref_name>
None

> <i_lp_mmshare_version>
53161

> <r_lp_tautomer_probability>
0.999999999997365

> <s_lp_Force_Field>
OPLS_2005

> <r_lp_Energy>
43.204102

> <b_lp_Chiralities_Consistent>
1

> <s_lp_Variant>
CHEMBL4439_lig297-1

> <s_i_glide_gridfile>
glide-grid_3hmm

> <i_i_glide_lignum>
429

> <i_i_glide_rotatable_bonds>
3

> <r_i_docking_score>
-8.20243249349087

> <r_i_glide_ligand_efficiency>
-0.328097299739635

> <r_i_glide_ligand_efficiency_sa>
-0.95936232326908

> <r_i_glide_ligand_efficiency_ln>
-1.94422230802375

> <r_i_glide_gscore>
-8.20243249349087

> <r_i_glide_lipo>
-3.85553635097748

> <r_i_glide_hbond>
0

> <r_i_glide_metal>
0

> <r_i_glide_rewards>
-2.025894138625

> <r_i_glide_evdw>
-45.3170738220215

> <r_i_glide_ecoul>
-2.64097213745117

> <r_i_glide_erotb>
0.340997507830363

> <r_i_glide_esite>
0

> <r_i_glide_emodel>
-70.2138241708936

> <r_i_glide_energy>
-47.9580459594727

> <r_i_glide_einternal>
0.985581636428833

> <i_i_glide_confnum>
12

> <i_i_glide_posenum>
115

> <r_i_glide_eff_state_penalty>
0

> <s_user_duplicate_titles>
CHEMBL4439_lig297

> <i_f3d_flags>
0

> <s_m_subgroup_title>
dock_pv

> <s_m_subgroupid>
dock_pv

> <b_m_subgroup_collapsed>
1

$$$$
CHEMBL4439_lig309
                    3D
 Schrodinger Suite 2021-1.
 40 43  0  0  1  0            999 V2000
   16.1908   66.8480    7.9560 C   0  0  0  0  0  0
   17.2987   67.5205    7.5473 C   0  0  0  0  0  0
   18.0340   67.8462    8.6754 N   0  0  0  0  0  0
   17.3590   67.3265    9.7636 N   0  0  0  0  0  0
   16.2451   66.6735    9.3958 C   0  0  0  0  0  0
   15.4672   66.0570   10.1229 O   0  0  0  0  0  0
   17.9133   67.3519   11.1228 C   0  0  0  0  0  0
   18.3533   69.2569    8.8879 C   0  0  0  0  0  0
   17.7446   67.9475    6.1874 C   0  0  0  0  0  0
   19.0961   68.2526    5.9490 C   0  0  0  0  0  0
   19.5471   68.7041    4.7113 C   0  0  0  0  0  0
   16.8433   68.0529    5.1264 C   0  0  0  0  0  0
   17.2765   68.4385    3.8445 C   0  0  0  0  0  0
   18.6392   68.8134    3.6400 C   0  0  0  0  0  0
   19.0669   69.2565    2.4244 N   0  0  0  0  0  0
   18.1593   69.2578    1.4180 C   0  0  0  0  0  0
   16.8329   68.8776    1.6208 C   0  0  0  0  0  0
   16.3800   68.4570    2.8232 N   0  0  0  0  0  0
   15.0900   66.2409    7.1558 C   0  0  0  0  0  0
   15.3559   65.4477    6.0324 C   0  0  0  0  0  0
   14.3201   64.9098    5.2673 C   0  0  0  0  0  0
   12.9955   65.1434    5.6304 C   0  0  0  0  0  0
   12.7083   65.9146    6.7551 C   0  0  0  0  0  0
   13.7493   66.4574    7.5093 C   0  0  0  0  0  0
   14.6018   64.1666    4.1738 F   0  0  0  0  0  0
   17.2679   66.8578   11.8508 H   0  0  0  0  0  0
   18.8861   66.8590   11.1446 H   0  0  0  0  0  0
   18.0435   68.3776   11.4681 H   0  0  0  0  0  0
   18.7117   69.7585    7.9903 H   0  0  0  0  0  0
   17.4680   69.7969    9.2287 H   0  0  0  0  0  0
   19.1436   69.3473    9.6322 H   0  0  0  0  0  0
   19.8231   68.1471    6.7417 H   0  0  0  0  0  0
   20.5887   68.9528    4.5581 H   0  0  0  0  0  0
   15.7923   67.8587    5.2603 H   0  0  0  0  0  0
   18.5241   69.5872    0.4549 H   0  0  0  0  0  0
   16.1002   68.9007    0.8291 H   0  0  0  0  0  0
   16.3750   65.2569    5.7407 H   0  0  0  0  0  0
   12.1945   64.7290    5.0351 H   0  0  0  0  0  0
   11.6799   66.0901    7.0378 H   0  0  0  0  0  0
   13.5075   67.0652    8.3707 H   0  0  0  0  0  0
  1  5  1  0  0  0
  1  2  2  0  0  0
  1 19  1  0  0  0
  2  9  1  0  0  0
  2  3  1  0  0  0
  3  8  1  0  0  0
  3  4  1  0  0  0
  4  7  1  0  0  0
  4  5  1  0  0  0
  5  6  2  0  0  0
  7 26  1  0  0  0
  7 27  1  0  0  0
  7 28  1  0  0  0
  8 29  1  0  0  0
  8 30  1  0  0  0
  8 31  1  0  0  0
  9 12  1  0  0  0
  9 10  2  0  0  0
 10 11  1  0  0  0
 10 32  1  0  0  0
 11 14  2  0  0  0
 11 33  1  0  0  0
 12 13  2  0  0  0
 12 34  1  0  0  0
 13 14  1  0  0  0
 13 18  1  0  0  0
 14 15  1  0  0  0
 15 16  2  0  0  0
 16 17  1  0  0  0
 16 35  1  0  0  0
 17 18  2  0  0  0
 17 36  1  0  0  0
 19 20  2  0  0  0
 19 24  1  0  0  0
 20 21  1  0  0  0
 20 37  1  0  0  0
 21 22  2  0  0  0
 21 25  1  0  0  0
 22 23  1  0  0  0
 22 38  1  0  0  0
 23 24  2  0  0  0
 23 39  1  0  0  0
 24 40  1  0  0  0
M  END
> <s_m_entry_id>
34513

> <s_m_entry_name>
dock_pv.256

> <s_m_Source_Path>
/home/csk/Desktop/cluster/DUD-E-result/tgfr1

> <s_m_Source_File>
dock_pv.maegz

> <i_m_Source_File_Index>
256

> <chembl_id>
CHEMBL593000

> <chembl_pref_name>
None

> <i_lp_mmshare_version>
53161

> <r_lp_tautomer_probability>
1

> <s_lp_Force_Field>
OPLS_2005

> <r_lp_Energy>
43.152164

> <b_lp_Chiralities_Consistent>
1

> <s_lp_Variant>
CHEMBL4439_lig309-1

> <s_i_glide_gridfile>
glide-grid_3hmm

> <i_i_glide_lignum>
441

> <i_i_glide_rotatable_bonds>
2

> <r_i_docking_score>
-8.20067956256396

> <r_i_glide_ligand_efficiency>
-0.328027182502558

> <r_i_glide_ligand_efficiency_sa>
-0.959157299224333

> <r_i_glide_ligand_efficiency_ln>
-1.94380681086297

> <r_i_glide_gscore>
-8.20067956256396

> <r_i_glide_lipo>
-3.60568483388186

> <r_i_glide_hbond>
-0.0639870885807741

> <r_i_glide_metal>
0

> <r_i_glide_rewards>
-2.1255834532708

> <r_i_glide_evdw>
-43.9125785827637

> <r_i_glide_ecoul>
-3.64805507659912

> <r_i_glide_erotb>
0.337413003797535

> <r_i_glide_esite>
0

> <r_i_glide_emodel>
-69.2523217725208

> <r_i_glide_energy>
-47.5606336593628

> <r_i_glide_einternal>
0.596078932285309

> <i_i_glide_confnum>
13

> <i_i_glide_posenum>
343

> <r_i_glide_eff_state_penalty>
0

> <s_user_duplicate_titles>
CHEMBL4439_lig309,593947

> <i_f3d_flags>
0

> <s_m_subgroup_title>
dock_pv

> <s_m_subgroupid>
dock_pv

> <b_m_subgroup_collapsed>
1

$$$$
CHEMBL4439_lig58
                    3D
 Schrodinger Suite 2021-1.
 33 36  0  0  1  0            999 V2000
   15.1043   66.2241    6.6852 C   0  0  0  0  0  0
   15.0682   66.0798    8.0030 N   0  0  0  0  0  0
   16.1426   67.1032    6.2875 C   0  0  0  0  0  0
   16.5815   67.6104    4.9411 C   0  0  0  0  0  0
   15.6464   67.6577    3.9022 C   0  0  0  0  0  0
   15.9925   68.1868    2.6632 C   0  0  0  0  0  0
   17.2893   68.6393    2.4373 C   0  0  0  0  0  0
   18.2416   68.5685    3.4479 C   0  0  0  0  0  0
   17.8890   68.0571    4.6950 C   0  0  0  0  0  0
   14.1288   65.4351    5.8720 C   0  0  0  0  0  0
   12.7970   65.2579    6.2775 C   0  0  0  0  0  0
   11.9656   64.4309    5.5219 C   0  0  0  0  0  0
   12.4784   63.7982    4.3883 C   0  0  0  0  0  0
   13.8078   64.0401    4.0318 C   0  0  0  0  0  0
   14.6289   64.8440    4.7548 N   0  0  0  0  0  0
   17.6245   69.1481    1.2300 F   0  0  0  0  0  0
   16.7190   67.4602    7.4921 N   0  0  0  0  0  0
   16.0579   66.7845    8.4661 C   0  0  0  0  0  0
   16.6670   67.0693   10.0791 S   0  0  0  0  0  0
   17.6386   68.4582    9.4204 C   0  0  0  0  0  0
   17.9003   68.1701    7.9309 C   0  0  0  0  0  0
   14.6262   67.3473    4.0569 H   0  0  0  0  0  0
   15.2571   68.2483    1.8728 H   0  0  0  0  0  0
   19.2491   68.9131    3.2659 H   0  0  0  0  0  0
   18.6517   68.0009    5.4537 H   0  0  0  0  0  0
   12.4130   65.7392    7.1639 H   0  0  0  0  0  0
   10.9392   64.2730    5.8165 H   0  0  0  0  0  0
   11.8583   63.1530    3.7844 H   0  0  0  0  0  0
   14.2297   63.5879    3.1453 H   0  0  0  0  0  0
   18.5629   68.5661    9.9916 H   0  0  0  0  0  0
   17.0571   69.3703    9.5498 H   0  0  0  0  0  0
   18.7682   67.5096    7.8551 H   0  0  0  0  0  0
   18.0884   69.0722    7.3462 H   0  0  0  0  0  0
  1 10  1  0  0  0
  1  3  2  0  0  0
  1  2  1  0  0  0
  2 18  2  0  0  0
  3 17  1  0  0  0
  3  4  1  0  0  0
  4  5  2  0  0  0
  4  9  1  0  0  0
  5  6  1  0  0  0
  5 22  1  0  0  0
  6  7  2  0  0  0
  6 23  1  0  0  0
  7 16  1  0  0  0
  7  8  1  0  0  0
  8  9  2  0  0  0
  8 24  1  0  0  0
  9 25  1  0  0  0
 10 11  2  0  0  0
 10 15  1  0  0  0
 11 12  1  0  0  0
 11 26  1  0  0  0
 12 13  2  0  0  0
 12 27  1  0  0  0
 13 14  1  0  0  0
 13 28  1  0  0  0
 14 15  2  0  0  0
 14 29  1  0  0  0
 17 18  1  0  0  0
 17 21  1  0  0  0
 18 19  1  0  0  0
 19 20  1  0  0  0
 20 21  1  0  0  0
 20 30  1  0  0  0
 20 31  1  0  0  0
 21 32  1  0  0  0
 21 33  1  0  0  0
M  END
> <s_m_entry_id>
34514

> <s_m_entry_name>
dock_pv.257

> <s_m_Source_Path>
/home/csk/Desktop/cluster/DUD-E-result/tgfr1

> <s_m_Source_File>
dock_pv.maegz

> <i_m_Source_File_Index>
257

> <chembl_id>
CHEMBL266706

> <chembl_pref_name>
None

> <i_lp_mmshare_version>
53161

> <r_lp_tautomer_probability>
1

> <s_lp_Force_Field>
OPLS_2005

> <r_lp_Energy>
27.269002

> <b_lp_Chiralities_Consistent>
1

> <s_lp_Variant>
CHEMBL4439_lig58-1

> <s_i_glide_gridfile>
glide-grid_3hmm

> <i_i_glide_lignum>
87

> <i_i_glide_rotatable_bonds>
2

> <r_i_docking_score>
-8.18366762035592

> <r_i_glide_ligand_efficiency>
-0.389698458112187

> <r_i_glide_ligand_efficiency_sa>
-1.07514849649305

> <r_i_glide_ligand_efficiency_ln>
-2.02339528247551

> <r_i_glide_gscore>
-8.18366762035592

> <r_i_glide_lipo>
-3.55699957981591

> <r_i_glide_hbond>
-0.154846560059553

> <r_i_glide_metal>
0

> <r_i_glide_rewards>
-2.36153004974128

> <r_i_glide_evdw>
-41.2235794067383

> <r_i_glide_ecoul>
-3.09220004081726

> <r_i_glide_erotb>
0.414717545720328

> <r_i_glide_esite>
0

> <r_i_glide_emodel>
-63.755855452658

> <r_i_glide_energy>
-44.3157794475555

> <r_i_glide_einternal>
4.47045087814331

> <i_i_glide_confnum>
1

> <i_i_glide_posenum>
114

> <r_i_glide_eff_state_penalty>
0

> <s_user_duplicate_titles>
CHEMBL4439_lig58

> <i_f3d_flags>
0

> <s_m_subgroup_title>
dock_pv

> <s_m_subgroupid>
dock_pv

> <b_m_subgroup_collapsed>
1

$$$$
CHEMBL4439_lig949 
                    3D
 Schrodinger Suite 2021-1.
 47 51  0  0  1  0            999 V2000
   17.1992   68.8596    2.0590 C   0  0  0  0  0  0
   18.5497   69.2072    2.1065 C   0  0  0  0  0  0
   19.2239   69.0669    3.3212 C   0  0  0  0  0  0
   18.6133   68.6359    4.4517 N   0  0  0  0  0  0
   17.2858   68.3521    4.4228 C   0  0  0  0  0  0
   16.5610   68.4225    3.2219 C   0  0  0  0  0  0
   19.3365   69.2655    7.2690 C   0  0  0  0  0  0
   18.5305   68.1971    7.6851 C   0  0  0  0  0  0
   18.9686   67.3569    8.7229 C   0  0  0  0  0  0
   20.2143   67.5118    9.3312 C   0  0  0  0  0  0
   20.6108   69.3975    7.8366 C   0  0  0  0  0  0
   21.0425   68.5315    8.8572 C   0  0  0  0  0  0
   22.2875   68.7607    9.3291 N   0  0  0  0  0  0
   22.8409   70.0570    8.4304 S   0  0  0  0  0  0
   21.5076   70.3351    7.4587 N   0  0  0  0  0  0
   17.1945   67.9323    7.0528 C   0  0  0  0  0  0
   16.6473   67.9901    5.7447 C   0  0  0  0  0  0
   15.3550   67.6569    5.7664 N   0  0  0  0  0  0
   15.0743   67.2915    6.9916 C   0  0  0  0  0  0
   16.1445   67.4881    7.8105 N   0  0  0  0  0  0
   13.7730   66.7230    7.5375 C   0  0  0  0  0  0
   12.8092   66.0610    6.6438 N   0  0  0  0  0  0
   13.0363   65.1159    5.6193 C   0  0  0  0  0  0
   14.3016   64.7981    5.1047 C   0  0  0  0  0  0
   14.4346   63.9161    4.0316 C   0  0  0  0  0  0
   13.3200   63.2592    3.5178 C   0  0  0  0  0  0
   12.0607   63.5321    4.0430 C   0  0  0  0  0  0
   11.9163   64.4635    5.0721 C   0  0  0  0  0  0
   20.7035   69.3725    3.4567 C   0  0  0  0  0  0
   10.6698   64.7219    5.5325 F   0  0  0  0  0  0
   16.6422   68.9402    1.1371 H   0  0  0  0  0  0
   19.0617   69.5589    1.2224 H   0  0  0  0  0  0
   15.5095   68.1780    3.1908 H   0  0  0  0  0  0
   18.9998   69.9596    6.5153 H   0  0  0  0  0  0
   18.3421   66.5457    9.0628 H   0  0  0  0  0  0
   20.5319   66.8570   10.1279 H   0  0  0  0  0  0
   16.1710   67.3132    8.8042 H   0  0  0  0  0  0
   13.2280   67.5267    8.0318 H   0  0  0  0  0  0
   14.0066   66.0427    8.3470 H   0  0  0  0  0  0
   11.8372   66.1458    6.9141 H   0  0  0  0  0  0
   15.2063   65.2134    5.5098 H   0  0  0  0  0  0
   15.4143   63.7016    3.6296 H   0  0  0  0  0  0
   13.4293   62.5568    2.7038 H   0  0  0  0  0  0
   11.1903   63.0400    3.6351 H   0  0  0  0  0  0
   21.1077   69.8220    2.5488 H   0  0  0  0  0  0
   20.8797   70.0612    4.2829 H   0  0  0  0  0  0
   21.2634   68.4584    3.6607 H   0  0  0  0  0  0
  1  2  2  0  0  0
  1  6  1  0  0  0
  1 31  1  0  0  0
  2  3  1  0  0  0
  2 32  1  0  0  0
  3  4  2  0  0  0
  3 29  1  0  0  0
  4  5  1  0  0  0
  5  6  2  0  0  0
  5 17  1  0  0  0
  6 33  1  0  0  0
  7 11  1  0  0  0
  7  8  2  0  0  0
  7 34  1  0  0  0
  8  9  1  0  0  0
  8 16  1  0  0  0
  9 10  2  0  0  0
  9 35  1  0  0  0
 10 12  1  0  0  0
 10 36  1  0  0  0
 11 12  1  0  0  0
 11 15  2  0  0  0
 12 13  2  0  0  0
 13 14  1  0  0  0
 14 15  1  0  0  0
 16 17  2  0  0  0
 16 20  1  0  0  0
 17 18  1  0  0  0
 18 19  2  0  0  0
 19 20  1  0  0  0
 19 21  1  0  0  0
 20 37  1  0  0  0
 21 22  1  0  0  0
 21 38  1  0  0  0
 21 39  1  0  0  0
 22 23  1  0  0  0
 22 40  1  0  0  0
 23 24  2  0  0  0
 23 28  1  0  0  0
 24 25  1  0  0  0
 24 41  1  0  0  0
 25 26  2  0  0  0
 25 42  1  0  0  0
 26 27  1  0  0  0
 26 43  1  0  0  0
 27 28  2  0  0  0
 27 44  1  0  0  0
 28 30  1  0  0  0
 29 45  1  0  0  0
 29 46  1  0  0  0
 29 47  1  0  0  0
M  END
> <s_m_entry_id>
34515

> <s_m_entry_name>
dock_pv.258

> <s_m_Source_Path>
/home/csk/Desktop/cluster/DUD-E-result/tgfr1

> <s_m_Source_File>
dock_pv.maegz

> <i_m_Source_File_Index>
258

> <chembl_id>
CHEMBL4453060

> <chembl_pref_name>
None

> <i_lp_mmshare_version>
53161

> <r_lp_tautomer_probability>
0.499999999999999

> <s_lp_Force_Field>
OPLS_2005

> <r_lp_Energy>
21.133696

> <b_lp_Chiralities_Consistent>
1

> <s_lp_Variant>
CHEMBL4439_lig949 -2

> <s_i_glide_gridfile>
glide-grid_3hmm

> <i_i_glide_lignum>
1286

> <i_i_glide_rotatable_bonds>
5

> <r_i_docking_score>
-8.1770741764084

> <r_i_glide_ligand_efficiency>
-0.272569139213613

> <r_i_glide_ligand_efficiency_sa>
-0.846935688524204

> <r_i_glide_ligand_efficiency_ln>
-1.8579203492392

> <r_i_glide_gscore>
-8.1770741764084

> <r_i_glide_lipo>
-4.50033680283499

> <r_i_glide_hbond>
0

> <r_i_glide_metal>
0

> <r_i_glide_rewards>
-1.6078307408293

> <r_i_glide_evdw>
-54.3155059814453

> <r_i_glide_ecoul>
0.515754818916321

> <r_i_glide_erotb>
0.569505443490713

> <r_i_glide_esite>
0

> <r_i_glide_emodel>
-78.9196584669253

> <r_i_glide_energy>
-53.799751162529

> <r_i_glide_einternal>
2.31121015548706

> <i_i_glide_confnum>
167

> <i_i_glide_posenum>
309

> <r_i_glide_eff_state_penalty>
0

> <s_user_duplicate_titles>
CHEMBL4439_lig949 ,CHEMBL4439_lig949 

> <i_f3d_flags>
0

> <s_m_subgroup_title>
dock_pv

> <s_m_subgroupid>
dock_pv

> <b_m_subgroup_collapsed>
1

$$$$
CHEMBL4439_lig873
                    3D
 Schrodinger Suite 2021-1.
 43 46  0  0  1  0            999 V2000
   14.9666   65.6569    7.3518 N   0  0  0  0  0  0
   16.0065   66.2697    7.8826 N   0  0  0  0  0  0
   16.6827   67.0248    6.9829 C   0  0  0  0  0  0
   16.0296   66.8641    5.7637 C   0  0  0  0  0  0
   15.0192   65.9076    6.0626 C   0  0  0  0  0  0
   17.8532   67.6735    7.6743 C   0  0  0  0  0  0
   17.6540   67.2851    9.1642 C   0  0  0  0  0  0
   16.6514   66.1147    9.1624 C   0  0  0  0  0  0
   14.1452   65.0901    5.1651 C   0  0  0  0  0  0
   14.6670   64.4576    4.0319 C   0  0  0  0  0  0
   13.8666   63.5432    3.3449 C   0  0  0  0  0  0
   12.5719   63.2779    3.7950 C   0  0  0  0  0  0
   12.1069   63.9765    4.9121 C   0  0  0  0  0  0
   12.8742   64.8614    5.5986 N   0  0  0  0  0  0
   10.6987   63.7955    5.4378 C   0  0  0  0  0  0
   18.9929   66.8707    9.8076 C   0  0  0  0  0  0
   17.0412   68.4575    9.9516 C   0  0  0  0  0  0
   17.8897   68.7377    3.0325 C   0  0  0  0  0  0
   17.6449   68.0571    4.2272 C   0  0  0  0  0  0
   16.3685   67.5317    4.4718 C   0  0  0  0  0  0
   15.3813   67.7140    3.5004 C   0  0  0  0  0  0
   15.6868   68.4569    2.3605 C   0  0  0  0  0  0
   16.9258   68.9421    2.1007 N   0  0  0  0  0  0
   19.4678   69.3598    2.7328 Cl  0  0  0  0  0  0
   18.7896   67.2865    7.2695 H   0  0  0  0  0  0
   17.8832   68.7542    7.5278 H   0  0  0  0  0  0
   15.9304   66.1532    9.9808 H   0  0  0  0  0  0
   17.1494   65.1447    9.2056 H   0  0  0  0  0  0
   15.6838   64.6357    3.7146 H   0  0  0  0  0  0
   14.2454   63.0368    2.4702 H   0  0  0  0  0  0
   11.9415   62.5780    3.2669 H   0  0  0  0  0  0
   10.0672   63.2580    4.7306 H   0  0  0  0  0  0
   10.7085   63.2517    6.3824 H   0  0  0  0  0  0
   10.2484   64.7715    5.6150 H   0  0  0  0  0  0
   18.8487   66.5385   10.8346 H   0  0  0  0  0  0
   19.4677   66.0543    9.2622 H   0  0  0  0  0  0
   19.7018   67.6997    9.8278 H   0  0  0  0  0  0
   16.7845   68.1743   10.9737 H   0  0  0  0  0  0
   17.7669   69.2570   10.0152 H   0  0  0  0  0  0
   16.1408   68.8526    9.4782 H   0  0  0  0  0  0
   18.4394   67.9437    4.9483 H   0  0  0  0  0  0
   14.3754   67.3526    3.6495 H   0  0  0  0  0  0
   14.9192   68.6598    1.6319 H   0  0  0  0  0  0
  1  2  1  0  0  0
  1  5  2  0  0  0
  2  3  1  0  0  0
  2  8  1  0  0  0
  3  4  2  0  0  0
  3  6  1  0  0  0
  4  5  1  0  0  0
  4 20  1  0  0  0
  5  9  1  0  0  0
  6  7  1  0  0  0
  6 25  1  0  0  0
  6 26  1  0  0  0
  7  8  1  0  0  0
  7 16  1  0  0  0
  7 17  1  0  0  0
  8 27  1  0  0  0
  8 28  1  0  0  0
  9 10  1  0  0  0
  9 14  2  0  0  0
 10 11  2  0  0  0
 10 29  1  0  0  0
 11 12  1  0  0  0
 11 30  1  0  0  0
 12 13  2  0  0  0
 12 31  1  0  0  0
 13 14  1  0  0  0
 13 15  1  0  0  0
 15 32  1  0  0  0
 15 33  1  0  0  0
 15 34  1  0  0  0
 16 35  1  0  0  0
 16 36  1  0  0  0
 16 37  1  0  0  0
 17 38  1  0  0  0
 17 39  1  0  0  0
 17 40  1  0  0  0
 18 19  1  0  0  0
 18 23  2  0  0  0
 18 24  1  0  0  0
 19 20  2  0  0  0
 19 41  1  0  0  0
 20 21  1  0  0  0
 21 22  2  0  0  0
 21 42  1  0  0  0
 22 23  1  0  0  0
 22 43  1  0  0  0
M  END
> <s_m_entry_id>
34516

> <s_m_entry_name>
dock_pv.259

> <s_m_Source_Path>
/home/csk/Desktop/cluster/DUD-E-result/tgfr1

> <s_m_Source_File>
dock_pv.maegz

> <i_m_Source_File_Index>
259

> <chembl_id>
CHEMBL4284609

> <chembl_pref_name>
None

> <i_lp_mmshare_version>
53161

> <r_lp_tautomer_probability>
1

> <s_lp_Force_Field>
OPLS_2005

> <r_lp_Energy>
32.204444

> <b_lp_Chiralities_Consistent>
1

> <s_lp_Variant>
CHEMBL4439_lig873-1

> <s_i_glide_gridfile>
glide-grid_3hmm

> <i_i_glide_lignum>
1208

> <i_i_glide_rotatable_bonds>
2

> <r_i_docking_score>
-8.17675583995006

> <r_i_glide_ligand_efficiency>
-0.340698159997919

> <r_i_glide_ligand_efficiency_sa>
-0.982743548681977

> <r_i_glide_ligand_efficiency_ln>
-1.95707287937674

> <r_i_glide_gscore>
-8.17675583995006

> <r_i_glide_lipo>
-4.39512605687779

> <r_i_glide_hbond>
-0.0840705887295324

> <r_i_glide_metal>
0

> <r_i_glide_rewards>
-1.60536073866295

> <r_i_glide_evdw>
-44.3006210327148

> <r_i_glide_ecoul>
-1.37805676460266

> <r_i_glide_erotb>
0.329541110646352

> <r_i_glide_esite>
0

> <r_i_glide_emodel>
-64.897335816454

> <r_i_glide_energy>
-45.6786777973175

> <r_i_glide_einternal>
3.02243685722351

> <i_i_glide_confnum>
5

> <i_i_glide_posenum>
46

> <r_i_glide_eff_state_penalty>
0

> <s_user_duplicate_titles>
CHEMBL4439_lig873

> <i_f3d_flags>
0

> <s_m_subgroup_title>
dock_pv

> <s_m_subgroupid>
dock_pv

> <b_m_subgroup_collapsed>
1

$$$$
CHEMBL4439_lig848
                    3D
 Schrodinger Suite 2021-1.
 46 49  0  0  1  0            999 V2000
   18.8741   67.1914   10.2485 C   0  0  0  0  0  0
   17.5891   67.3745    9.4136 C   0  0  0  0  0  0
   16.6634   68.3893   10.1244 C   0  0  0  0  0  0
   17.8408   68.0570    4.3625 C   0  0  0  0  0  0
   18.1257   68.6990    3.1555 C   0  0  0  0  0  0
   17.1940   68.9060    2.1918 N   0  0  0  0  0  0
   15.9372   68.4557    2.4309 C   0  0  0  0  0  0
   15.5811   67.7795    3.6015 C   0  0  0  0  0  0
   16.5391   67.5967    4.6069 C   0  0  0  0  0  0
   16.1742   66.9444    5.9064 C   0  0  0  0  0  0
   15.1227   65.6569    7.4478 N   0  0  0  0  0  0
   15.1486   65.9885    6.1760 C   0  0  0  0  0  0
   16.1584   66.2544    8.0005 N   0  0  0  0  0  0
   16.7986   67.1024    7.1544 C   0  0  0  0  0  0
   17.9268   67.7550    7.9349 C   0  0  1  0  0  0
   16.8065   66.0606    9.2768 C   0  0  0  0  0  0
   14.2323   65.2193    5.2738 C   0  0  0  0  0  0
   12.9581   65.0412    5.7282 N   0  0  0  0  0  0
   12.1523   64.1678    5.0736 C   0  0  0  0  0  0
   12.5743   63.4393    3.9618 C   0  0  0  0  0  0
   13.8669   63.6575    3.4819 C   0  0  0  0  0  0
   14.7089   64.5613    4.1348 C   0  0  0  0  0  0
   10.7532   64.0251    5.6317 C   0  0  0  0  0  0
   18.1028   69.2603    7.6609 C   0  0  0  0  0  0
   19.5445   66.4591    9.7985 H   0  0  0  0  0  0
   19.4283   68.1275   10.3297 H   0  0  0  0  0  0
   18.6551   66.8580   11.2628 H   0  0  0  0  0  0
   15.8374   68.7194    9.4922 H   0  0  0  0  0  0
   16.2333   67.9795   11.0398 H   0  0  0  0  0  0
   17.2310   69.2570   10.4268 H   0  0  0  0  0  0
   18.6267   67.9122    5.0873 H   0  0  0  0  0  0
   19.1233   69.0584    2.9457 H   0  0  0  0  0  0
   15.2050   68.6285    1.6529 H   0  0  0  0  0  0
   14.5632   67.4452    3.7352 H   0  0  0  0  0  0
   18.8546   67.2614    7.6389 H   0  0  0  0  0  0
   16.0856   65.8860   10.0773 H   0  0  0  0  0  0
   17.4670   65.1945    9.2310 H   0  0  0  0  0  0
   11.9149   62.7508    3.4566 H   0  0  0  0  0  0
   14.2105   63.1262    2.6062 H   0  0  0  0  0  0
   15.7262   64.6989    3.7985 H   0  0  0  0  0  0
   10.1439   63.3403    5.0404 H   0  0  0  0  0  0
   10.7841   63.6576    6.6575 H   0  0  0  0  0  0
   10.2671   64.9981    5.6311 H   0  0  0  0  0  0
   18.4907   69.4558    6.6640 H   0  0  0  0  0  0
   17.1546   69.7860    7.7564 H   0  0  0  0  0  0
   18.7997   69.7062    8.3697 H   0  0  0  0  0  0
  1  2  1  0  0  0
  1 25  1  0  0  0
  1 26  1  0  0  0
  1 27  1  0  0  0
  2  3  1  0  0  0
  2 15  1  0  0  0
  2 16  1  0  0  0
  3 28  1  0  0  0
  3 29  1  0  0  0
  3 30  1  0  0  0
  4  5  2  0  0  0
  4  9  1  0  0  0
  4 31  1  0  0  0
  5  6  1  0  0  0
  5 32  1  0  0  0
  6  7  2  0  0  0
  7  8  1  0  0  0
  7 33  1  0  0  0
  8  9  2  0  0  0
  8 34  1  0  0  0
  9 10  1  0  0  0
 10 14  2  0  0  0
 10 12  1  0  0  0
 11 13  1  0  0  0
 11 12  2  0  0  0
 12 17  1  0  0  0
 13 14  1  0  0  0
 13 16  1  0  0  0
 14 15  1  0  0  0
 15 24  1  0  0  0
 15 35  1  0  0  0
 16 36  1  0  0  0
 16 37  1  0  0  0
 17 18  2  0  0  0
 17 22  1  0  0  0
 18 19  1  0  0  0
 19 20  2  0  0  0
 19 23  1  0  0  0
 20 21  1  0  0  0
 20 38  1  0  0  0
 21 22  2  0  0  0
 21 39  1  0  0  0
 22 40  1  0  0  0
 23 41  1  0  0  0
 23 42  1  0  0  0
 23 43  1  0  0  0
 24 44  1  0  0  0
 24 45  1  0  0  0
 24 46  1  0  0  0
M  END
> <s_m_entry_id>
34517

> <s_m_entry_name>
dock_pv.260

> <s_m_Source_Path>
/home/csk/Desktop/cluster/DUD-E-result/tgfr1

> <s_m_Source_File>
dock_pv.maegz

> <i_m_Source_File_Index>
260

> <chembl_id>
CHEMBL4279935

> <chembl_pref_name>
None

> <i_lp_mmshare_version>
53161

> <r_lp_tautomer_probability>
1

> <s_lp_Force_Field>
OPLS_2005

> <r_lp_Energy>
37.149855

> <b_lp_Chiralities_Consistent>
1

> <s_lp_Variant>
CHEMBL4439_lig848-1

> <s_i_glide_gridfile>
glide-grid_3hmm

> <i_i_glide_lignum>
1166

> <i_i_glide_rotatable_bonds>
2

> <r_i_docking_score>
-8.16382884907428

> <r_i_glide_ligand_efficiency>
-0.340159535378095

> <r_i_glide_ligand_efficiency_sa>
-0.981189886430626

> <r_i_glide_ligand_efficiency_ln>
-1.9539788572792

> <r_i_glide_gscore>
-8.16382884907428

> <r_i_glide_lipo>
-4.3465787550217

> <r_i_glide_hbond>
-0.088462839110096

> <r_i_glide_metal>
0

> <r_i_glide_rewards>
-1.70278509976204

> <r_i_glide_evdw>
-43.9221649169922

> <r_i_glide_ecoul>
-1.31786024570465

> <r_i_glide_erotb>
0.367785127524864

> <r_i_glide_esite>
0

> <r_i_glide_emodel>
-63.0859375984947

> <r_i_glide_energy>
-45.2400251626968

> <r_i_glide_einternal>
2.38460373878479

> <i_i_glide_confnum>
11

> <i_i_glide_posenum>
382

> <r_i_glide_eff_state_penalty>
0

> <s_user_duplicate_titles>
CHEMBL4439_lig848

> <i_f3d_flags>
0

> <s_m_subgroup_title>
dock_pv

> <s_m_subgroupid>
dock_pv

> <b_m_subgroup_collapsed>
1

$$$$
CHEMBL4439_lig853
                    3D
 Schrodinger Suite 2021-1.
 49 52  0  0  1  0            999 V2000
   18.7454   67.1879   10.3211 C   0  0  0  0  0  0
   17.4640   67.3769    9.4798 C   0  0  0  0  0  0
   16.5237   68.3647   10.2090 C   0  0  0  0  0  0
   17.8874   68.0836    4.4531 C   0  0  0  0  0  0
   18.2263   68.7094    3.2507 C   0  0  0  0  0  0
   17.3391   68.9041    2.2437 N   0  0  0  0  0  0
   16.0729   68.4569    2.4319 C   0  0  0  0  0  0
   15.6625   67.7981    3.5936 C   0  0  0  0  0  0
   16.5765   67.6241    4.6399 C   0  0  0  0  0  0
   16.1576   66.9711    5.9226 C   0  0  0  0  0  0
   15.0677   65.6569    7.4097 N   0  0  0  0  0  0
   15.1450   65.9874    6.1406 C   0  0  0  0  0  0
   16.0669   66.2757    8.0096 N   0  0  0  0  0  0
   16.7212   67.1437    7.1962 C   0  0  0  0  0  0
   17.8177   67.8049    8.0180 C   0  0  1  0  0  0
   16.6953   66.0592    9.2932 C   0  0  0  0  0  0
   14.3091   65.1869    5.1830 C   0  0  0  0  0  0
   13.0114   64.9562    5.5353 N   0  0  0  0  0  0
   12.2820   64.0898    4.7794 C   0  0  0  0  0  0
   12.8212   63.3938    3.6946 C   0  0  0  0  0  0
   14.1379   63.6583    3.3302 C   0  0  0  0  0  0
   14.8898   64.5746    4.0681 C   0  0  0  0  0  0
   10.8098   63.9639    5.1203 C   0  0  0  0  0  0
   17.9770   69.3233    7.8007 C   0  0  0  0  0  0
   10.0004   65.1939    4.6875 C   0  0  0  0  0  0
   19.4174   66.4567    9.8753 H   0  0  0  0  0  0
   19.3032   68.1206   10.4066 H   0  0  0  0  0  0
   18.5273   66.8572   11.3361 H   0  0  0  0  0  0
   15.6695   68.6590    9.5986 H   0  0  0  0  0  0
   16.1342   67.9464   11.1392 H   0  0  0  0  0  0
   17.0683   69.2576   10.4820 H   0  0  0  0  0  0
   18.6382   67.9491    5.2170 H   0  0  0  0  0  0
   19.2301   69.0687    3.0806 H   0  0  0  0  0  0
   15.3753   68.6255    1.6240 H   0  0  0  0  0  0
   14.6383   67.4696    3.6869 H   0  0  0  0  0  0
   18.7616   67.3372    7.7289 H   0  0  0  0  0  0
   15.9646   65.8572   10.0783 H   0  0  0  0  0  0
   17.3664   65.2009    9.2317 H   0  0  0  0  0  0
   12.2206   62.7172    3.1048 H   0  0  0  0  0  0
   14.5576   63.1752    2.4641 H   0  0  0  0  0  0
   15.9133   64.7753    3.7981 H   0  0  0  0  0  0
   10.6954   63.7858    6.1907 H   0  0  0  0  0  0
   10.4014   63.0861    4.6237 H   0  0  0  0  0  0
   18.2674   69.5624    6.7795 H   0  0  0  0  0  0
   17.0594   69.8657    8.0311 H   0  0  0  0  0  0
   18.7527   69.7258    8.4524 H   0  0  0  0  0  0
    8.9404   65.0109    4.8319 H   0  0  0  0  0  0
   10.2686   66.0579    5.2886 H   0  0  0  0  0  0
   10.1358   65.4715    3.6420 H   0  0  0  0  0  0
  1  2  1  0  0  0
  1 26  1  0  0  0
  1 27  1  0  0  0
  1 28  1  0  0  0
  2  3  1  0  0  0
  2 15  1  0  0  0
  2 16  1  0  0  0
  3 29  1  0  0  0
  3 30  1  0  0  0
  3 31  1  0  0  0
  4  5  2  0  0  0
  4  9  1  0  0  0
  4 32  1  0  0  0
  5  6  1  0  0  0
  5 33  1  0  0  0
  6  7  2  0  0  0
  7  8  1  0  0  0
  7 34  1  0  0  0
  8  9  2  0  0  0
  8 35  1  0  0  0
  9 10  1  0  0  0
 10 14  2  0  0  0
 10 12  1  0  0  0
 11 13  1  0  0  0
 11 12  2  0  0  0
 12 17  1  0  0  0
 13 14  1  0  0  0
 13 16  1  0  0  0
 14 15  1  0  0  0
 15 24  1  0  0  0
 15 36  1  0  0  0
 16 37  1  0  0  0
 16 38  1  0  0  0
 17 18  2  0  0  0
 17 22  1  0  0  0
 18 19  1  0  0  0
 19 20  2  0  0  0
 19 23  1  0  0  0
 20 21  1  0  0  0
 20 39  1  0  0  0
 21 22  2  0  0  0
 21 40  1  0  0  0
 22 41  1  0  0  0
 23 25  1  0  0  0
 23 42  1  0  0  0
 23 43  1  0  0  0
 24 44  1  0  0  0
 24 45  1  0  0  0
 24 46  1  0  0  0
 25 47  1  0  0  0
 25 48  1  0  0  0
 25 49  1  0  0  0
M  END
> <s_m_entry_id>
34518

> <s_m_entry_name>
dock_pv.261

> <s_m_Source_Path>
/home/csk/Desktop/cluster/DUD-E-result/tgfr1

> <s_m_Source_File>
dock_pv.maegz

> <i_m_Source_File_Index>
261

> <chembl_id>
CHEMBL4281030

> <chembl_pref_name>
None

> <i_lp_mmshare_version>
53161

> <r_lp_tautomer_probability>
1

> <s_lp_Force_Field>
OPLS_2005

> <r_lp_Energy>
34.938068

> <b_lp_Chiralities_Consistent>
1

> <s_lp_Variant>
CHEMBL4439_lig853-1

> <s_i_glide_gridfile>
glide-grid_3hmm

> <i_i_glide_lignum>
1176

> <i_i_glide_rotatable_bonds>
3

> <r_i_docking_score>
-8.15777760299855

> <r_i_glide_ligand_efficiency>
-0.326311104119942

> <r_i_glide_ligand_efficiency_sa>
-0.954139455598783

> <r_i_glide_ligand_efficiency_ln>
-1.93363776077799

> <r_i_glide_gscore>
-8.15777760299855

> <r_i_glide_lipo>
-4.55111754120583

> <r_i_glide_hbond>
-0.0863062392107736

> <r_i_glide_metal>
0

> <r_i_glide_rewards>
-1.56586857772561

> <r_i_glide_evdw>
-42.6557807922363

> <r_i_glide_ecoul>
-1.08358323574066

> <r_i_glide_erotb>
0.34084128011658

> <r_i_glide_esite>
0

> <r_i_glide_emodel>
-56.5644330925755

> <r_i_glide_energy>
-43.739364027977

> <r_i_glide_einternal>
1.89297986030579

> <i_i_glide_confnum>
5

> <i_i_glide_posenum>
302

> <r_i_glide_eff_state_penalty>
0

> <s_user_duplicate_titles>
CHEMBL4439_lig853

> <i_f3d_flags>
0

> <s_m_subgroup_title>
dock_pv

> <s_m_subgroupid>
dock_pv

> <b_m_subgroup_collapsed>
1

$$$$
CHEMBL4439_lig849
                    3D
 Schrodinger Suite 2021-1.
 49 52  0  0  1  0            999 V2000
   19.7970   66.9080    8.4290 C   0  0  0  0  0  0
   18.4631   67.6797    8.6536 C   0  0  0  0  0  0
   18.6661   68.6499    9.8309 C   0  0  0  0  0  0
   15.2560   67.7751    3.4354 C   0  0  0  0  0  0
   15.3416   68.4569    2.2208 C   0  0  0  0  0  0
   16.5035   68.9323    1.7086 N   0  0  0  0  0  0
   17.6320   68.7292    2.4315 C   0  0  0  0  0  0
   17.6330   68.0582    3.6577 C   0  0  0  0  0  0
   16.4196   67.6126    4.1993 C   0  0  0  0  0  0
   16.3582   67.0099    5.5656 C   0  0  0  0  0  0
   15.7422   65.6576    7.2840 N   0  0  0  0  0  0
   15.5390   65.9353    6.0129 C   0  0  0  0  0  0
   16.6630   66.5230    7.6901 N   0  0  0  0  0  0
   17.0438   67.4047    6.7239 C   0  0  0  0  0  0
   17.9738   68.4253    7.3750 C   0  0  2  0  0  0
   17.2833   66.7269    8.9791 C   0  0  0  0  0  0
   14.5496   65.1160    5.2524 C   0  0  0  0  0  0
   13.3161   65.0074    5.8200 N   0  0  0  0  0  0
   12.3891   64.2254    5.2075 C   0  0  0  0  0  0
   12.6535   63.5232    4.0324 C   0  0  0  0  0  0
   13.9139   63.6566    3.4519 C   0  0  0  0  0  0
   14.8795   64.4591    4.0626 C   0  0  0  0  0  0
   11.0279   64.1761    5.8680 C   0  0  0  0  0  0
   19.0717   69.0408    6.4821 C   0  0  0  0  0  0
   18.8954   69.3208    1.8434 C   0  0  0  0  0  0
   19.8674   66.4573    7.4404 H   0  0  0  0  0  0
   20.6578   67.5741    8.5023 H   0  0  0  0  0  0
   19.9400   66.1224    9.1730 H   0  0  0  0  0  0
   17.7589   69.2220   10.0320 H   0  0  0  0  0  0
   18.9261   68.1211   10.7489 H   0  0  0  0  0  0
   19.4674   69.3624    9.6314 H   0  0  0  0  0  0
   14.2878   67.4473    3.7940 H   0  0  0  0  0  0
   14.4560   68.6334    1.6322 H   0  0  0  0  0  0
   18.5594   67.9038    4.1844 H   0  0  0  0  0  0
   17.3398   69.2582    7.6858 H   0  0  0  0  0  0
   16.5549   67.1786    9.6549 H   0  0  0  0  0  0
   17.6042   65.7831    9.4221 H   0  0  0  0  0  0
   11.8994   62.9094    3.5617 H   0  0  0  0  0  0
   14.1377   63.1412    2.5302 H   0  0  0  0  0  0
   15.8651   64.5551    3.6325 H   0  0  0  0  0  0
   10.2957   63.6540    5.2502 H   0  0  0  0  0  0
   11.0791   63.6695    6.8312 H   0  0  0  0  0  0
   10.6684   65.1913    6.0321 H   0  0  0  0  0  0
   18.6529   69.6569    5.6893 H   0  0  0  0  0  0
   19.7248   69.6861    7.0717 H   0  0  0  0  0  0
   19.7072   68.2826    6.0238 H   0  0  0  0  0  0
   19.7401   69.2512    2.5301 H   0  0  0  0  0  0
   19.1584   68.8243    0.9094 H   0  0  0  0  0  0
   18.7361   70.3782    1.6331 H   0  0  0  0  0  0
  1  2  1  0  0  0
  1 26  1  0  0  0
  1 27  1  0  0  0
  1 28  1  0  0  0
  2  3  1  0  0  0
  2 15  1  0  0  0
  2 16  1  0  0  0
  3 29  1  0  0  0
  3 30  1  0  0  0
  3 31  1  0  0  0
  4  5  2  0  0  0
  4  9  1  0  0  0
  4 32  1  0  0  0
  5  6  1  0  0  0
  5 33  1  0  0  0
  6  7  2  0  0  0
  7  8  1  0  0  0
  7 25  1  0  0  0
  8  9  2  0  0  0
  8 34  1  0  0  0
  9 10  1  0  0  0
 10 14  2  0  0  0
 10 12  1  0  0  0
 11 13  1  0  0  0
 11 12  2  0  0  0
 12 17  1  0  0  0
 13 14  1  0  0  0
 13 16  1  0  0  0
 14 15  1  0  0  0
 15 24  1  0  0  0
 15 35  1  0  0  0
 16 36  1  0  0  0
 16 37  1  0  0  0
 17 18  2  0  0  0
 17 22  1  0  0  0
 18 19  1  0  0  0
 19 20  2  0  0  0
 19 23  1  0  0  0
 20 21  1  0  0  0
 20 38  1  0  0  0
 21 22  2  0  0  0
 21 39  1  0  0  0
 22 40  1  0  0  0
 23 41  1  0  0  0
 23 42  1  0  0  0
 23 43  1  0  0  0
 24 44  1  0  0  0
 24 45  1  0  0  0
 24 46  1  0  0  0
 25 47  1  0  0  0
 25 48  1  0  0  0
 25 49  1  0  0  0
M  END
> <s_m_entry_id>
34519

> <s_m_entry_name>
dock_pv.262

> <s_m_Source_Path>
/home/csk/Desktop/cluster/DUD-E-result/tgfr1

> <s_m_Source_File>
dock_pv.maegz

> <i_m_Source_File_Index>
262

> <chembl_id>
CHEMBL4287843

> <chembl_pref_name>
None

> <i_lp_mmshare_version>
53161

> <r_lp_tautomer_probability>
1

> <s_lp_Force_Field>
OPLS_2005

> <r_lp_Energy>
36.727585

> <b_lp_Chiralities_Consistent>
1

> <s_lp_Variant>
CHEMBL4439_lig849-2

> <s_i_glide_gridfile>
glide-grid_3hmm

> <i_i_glide_lignum>
1169

> <i_i_glide_rotatable_bonds>
2

> <r_i_docking_score>
-8.15467987261858

> <r_i_glide_ligand_efficiency>
-0.326187194904743

> <r_i_glide_ligand_efficiency_sa>
-0.953777142856003

> <r_i_glide_ligand_efficiency_ln>
-1.93290350584645

> <r_i_glide_gscore>
-8.15467987261858

> <r_i_glide_lipo>
-4.49762618235091

> <r_i_glide_hbond>
0

> <r_i_glide_metal>
0

> <r_i_glide_rewards>
-1.62109699627461

> <r_i_glide_evdw>
-40.6362342834473

> <r_i_glide_ecoul>
-2.29990839958191

> <r_i_glide_erotb>
0.34084128011658

> <r_i_glide_esite>
0

> <r_i_glide_emodel>
-59.9816510497534

> <r_i_glide_energy>
-42.9361426830292

> <r_i_glide_einternal>
3.28532934188843

> <i_i_glide_confnum>
12

> <i_i_glide_posenum>
137

> <r_i_glide_eff_state_penalty>
0

> <s_user_duplicate_titles>
CHEMBL4439_lig849

> <i_f3d_flags>
0

> <s_m_subgroup_title>
dock_pv

> <s_m_subgroupid>
dock_pv

> <b_m_subgroup_collapsed>
1

$$$$
CHEMBL4439_lig103
                    3D
 Schrodinger Suite 2021-1.
 37 40  0  0  1  0            999 V2000
   18.8975   68.3943    6.6017 C   0  0  0  0  0  0
   19.3013   68.7000    5.2611 C   0  0  0  0  0  0
   20.6019   68.9326    5.2102 N   0  0  0  0  0  0
   18.5056   68.8007    3.9804 C   0  0  0  0  0  0
   19.0664   69.2564    2.7768 C   0  0  0  0  0  0
   18.2768   69.3027    1.6272 C   0  0  0  0  0  0
   16.9451   68.9024    1.6926 C   0  0  0  0  0  0
   16.4478   68.4569    2.9119 C   0  0  0  0  0  0
   17.2025   68.4182    4.0354 N   0  0  0  0  0  0
   17.5588   68.0674    7.1880 C   0  0  0  0  0  0
   15.0055   67.5833    8.2269 N   0  0  0  0  0  0
   15.8537   68.4504    8.8326 C   0  0  0  0  0  0
   17.1283   68.7260    8.3424 C   0  0  0  0  0  0
   20.0662   68.4983    7.3417 C   0  0  0  0  0  0
   21.0522   68.8122    6.4552 N   0  0  0  0  0  0
   15.4120   66.9258    7.1045 C   0  0  0  0  0  0
   16.7085   67.1206    6.6058 C   0  0  0  0  0  0
   14.3913   66.0553    6.4198 C   0  0  0  0  0  0
   13.0480   66.0459    6.8322 C   0  0  0  0  0  0
   12.0986   65.2570    6.1893 C   0  0  0  0  0  0
   12.4759   64.4685    5.1078 C   0  0  0  0  0  0
   13.7959   64.4571    4.6739 C   0  0  0  0  0  0
   14.7418   65.2457    5.3226 C   0  0  0  0  0  0
   20.1001   69.5690    2.7239 H   0  0  0  0  0  0
   18.7007   69.6543    0.6996 H   0  0  0  0  0  0
   16.2972   68.9413    0.8320 H   0  0  0  0  0  0
   15.4194   68.1393    3.0075 H   0  0  0  0  0  0
   15.4816   68.9358    9.7211 H   0  0  0  0  0  0
   17.7618   69.4482    8.8361 H   0  0  0  0  0  0
   20.2765   68.3705    8.3933 H   0  0  0  0  0  0
   22.0303   68.9299    6.6801 H   0  0  0  0  0  0
   17.0653   66.5909    5.7400 H   0  0  0  0  0  0
   12.7172   66.6500    7.6643 H   0  0  0  0  0  0
   11.0716   65.2680    6.5224 H   0  0  0  0  0  0
   11.7371   63.8684    4.5951 H   0  0  0  0  0  0
   14.0839   63.8520    3.8266 H   0  0  0  0  0  0
   15.7503   65.2084    4.9495 H   0  0  0  0  0  0
  1 10  1  0  0  0
  1 14  2  0  0  0
  1  2  1  0  0  0
  2  3  2  0  0  0
  2  4  1  0  0  0
  3 15  1  0  0  0
  4  5  2  0  0  0
  4  9  1  0  0  0
  5  6  1  0  0  0
  5 24  1  0  0  0
  6  7  2  0  0  0
  6 25  1  0  0  0
  7  8  1  0  0  0
  7 26  1  0  0  0
  8  9  2  0  0  0
  8 27  1  0  0  0
 10 13  1  0  0  0
 10 17  2  0  0  0
 11 16  2  0  0  0
 11 12  1  0  0  0
 12 13  2  0  0  0
 12 28  1  0  0  0
 13 29  1  0  0  0
 14 15  1  0  0  0
 14 30  1  0  0  0
 15 31  1  0  0  0
 16 17  1  0  0  0
 16 18  1  0  0  0
 17 32  1  0  0  0
 18 19  2  0  0  0
 18 23  1  0  0  0
 19 20  1  0  0  0
 19 33  1  0  0  0
 20 21  2  0  0  0
 20 34  1  0  0  0
 21 22  1  0  0  0
 21 35  1  0  0  0
 22 23  2  0  0  0
 22 36  1  0  0  0
 23 37  1  0  0  0
M  END
> <s_m_entry_id>
34520

> <s_m_entry_name>
dock_pv.263

> <s_m_Source_Path>
/home/csk/Desktop/cluster/DUD-E-result/tgfr1

> <s_m_Source_File>
dock_pv.maegz

> <i_m_Source_File_Index>
263

> <chembl_id>
CHEMBL205736

> <chembl_pref_name>
None

> <i_lp_mmshare_version>
53161

> <r_lp_tautomer_probability>
0.5

> <s_lp_Force_Field>
OPLS_2005

> <r_lp_Energy>
21.389884

> <b_lp_Chiralities_Consistent>
1

> <s_lp_Variant>
CHEMBL4439_lig103-1

> <s_i_glide_gridfile>
glide-grid_3hmm

> <i_i_glide_lignum>
142

> <i_i_glide_rotatable_bonds>
3

> <r_i_docking_score>
-8.12624310274706

> <r_i_glide_ligand_efficiency>
-0.353314917510742

> <r_i_glide_ligand_efficiency_sa>
-1.00478062634762

> <r_i_glide_ligand_efficiency_ln>
-1.96499926694282

> <r_i_glide_gscore>
-8.12624310274706

> <r_i_glide_lipo>
-4.37581111767773

> <r_i_glide_hbond>
0

> <r_i_glide_metal>
0

> <r_i_glide_rewards>
-1.73327928787879

> <r_i_glide_evdw>
-45.5062713623047

> <r_i_glide_ecoul>
-2.40206170082092

> <r_i_glide_erotb>
0.618470126047828

> <r_i_glide_esite>
0

> <r_i_glide_emodel>
-71.6545253556803

> <r_i_glide_energy>
-47.9083330631256

> <r_i_glide_einternal>
1.03554511070251

> <i_i_glide_confnum>
46

> <i_i_glide_posenum>
294

> <r_i_glide_eff_state_penalty>
0

> <s_user_duplicate_titles>
CHEMBL4439_lig103,CHEMBL4439_lig103,343418

> <i_f3d_flags>
0

> <s_m_subgroup_title>
dock_pv

> <s_m_subgroupid>
dock_pv

> <b_m_subgroup_collapsed>
1

$$$$
CHEMBL4439_lig766
                    3D
 Schrodinger Suite 2021-1.
 39 42  0  0  1  0            999 V2000
   14.9995   68.0583    2.5277 C   0  0  0  0  0  0
   16.3583   68.2796    3.1598 C   0  0  0  0  0  0
   17.4616   68.7140    2.4237 C   0  0  0  0  0  0
   18.6703   68.8959    3.0962 C   0  0  0  0  0  0
   18.7500   68.6259    4.4638 C   0  0  0  0  0  0
   17.5945   68.2032    5.1441 C   0  0  0  0  0  0
   16.4125   68.0500    4.4909 N   0  0  0  0  0  0
   17.5987   67.9266    6.5469 N   0  0  0  0  0  0
   18.5922   68.4210    7.3019 N   0  0  0  0  0  0
   18.3483   68.0609    8.5371 C   0  0  0  0  0  0
   19.3199   68.4520    9.6281 C   0  0  0  0  0  0
   17.1517   67.3384    8.6452 C   0  0  0  0  0  0
   16.5819   66.7012    9.8942 C   0  0  0  0  0  0
   16.6876   67.2296    7.3331 C   0  0  0  0  0  0
   15.4967   66.5232    6.8588 C   0  0  0  0  0  0
   15.4171   65.5793    5.8518 C   0  0  0  0  0  0
   14.0996   65.1147    5.6107 C   0  0  0  0  0  0
   13.6043   64.1908    4.6755 C   0  0  0  0  0  0
   12.2968   63.8379    4.6139 N   0  0  0  0  0  0
   11.4321   64.4184    5.4769 C   0  0  0  0  0  0
   11.8002   65.3660    6.4317 C   0  0  0  0  0  0
   13.1568   65.7131    6.4919 C   0  0  0  0  0  0
   13.9371   66.8558    7.5771 S   0  0  0  0  0  0
   15.0746   68.0681    1.4463 H   0  0  0  0  0  0
   14.3036   68.8427    2.8269 H   0  0  0  0  0  0
   14.5795   67.0985    2.8320 H   0  0  0  0  0  0
   17.3862   68.9090    1.3635 H   0  0  0  0  0  0
   19.5430   69.2362    2.5601 H   0  0  0  0  0  0
   19.6919   68.7509    4.9791 H   0  0  0  0  0  0
   18.8168   68.5702   10.5888 H   0  0  0  0  0  0
   20.0973   67.6952    9.7606 H   0  0  0  0  0  0
   19.8213   69.4009    9.4232 H   0  0  0  0  0  0
   16.0744   65.7631    9.6740 H   0  0  0  0  0  0
   17.3635   66.4586   10.6145 H   0  0  0  0  0  0
   15.8674   67.3577   10.3888 H   0  0  0  0  0  0
   16.2658   65.2577    5.2748 H   0  0  0  0  0  0
   14.2592   63.7095    3.9654 H   0  0  0  0  0  0
   10.4016   64.1092    5.3914 H   0  0  0  0  0  0
   11.0671   65.8000    7.0983 H   0  0  0  0  0  0
  1  2  1  0  0  0
  1 24  1  0  0  0
  1 25  1  0  0  0
  1 26  1  0  0  0
  2  3  2  0  0  0
  2  7  1  0  0  0
  3  4  1  0  0  0
  3 27  1  0  0  0
  4  5  2  0  0  0
  4 28  1  0  0  0
  5  6  1  0  0  0
  5 29  1  0  0  0
  6  7  2  0  0  0
  6  8  1  0  0  0
  8  9  1  0  0  0
  8 14  1  0  0  0
  9 10  2  0  0  0
 10 11  1  0  0  0
 10 12  1  0  0  0
 11 30  1  0  0  0
 11 31  1  0  0  0
 11 32  1  0  0  0
 12 13  1  0  0  0
 12 14  2  0  0  0
 13 33  1  0  0  0
 13 34  1  0  0  0
 13 35  1  0  0  0
 14 15  1  0  0  0
 15 16  2  0  0  0
 15 23  1  0  0  0
 16 17  1  0  0  0
 16 36  1  0  0  0
 17 18  2  0  0  0
 17 22  1  0  0  0
 18 19  1  0  0  0
 18 37  1  0  0  0
 19 20  2  0  0  0
 20 21  1  0  0  0
 20 38  1  0  0  0
 21 22  2  0  0  0
 21 39  1  0  0  0
 22 23  1  0  0  0
M  END
> <s_m_entry_id>
34521

> <s_m_entry_name>
dock_pv.264

> <s_m_Source_Path>
/home/csk/Desktop/cluster/DUD-E-result/tgfr1

> <s_m_Source_File>
dock_pv.maegz

> <i_m_Source_File_Index>
264

> <chembl_id>
CHEMBL3704653

> <chembl_pref_name>
None

> <i_lp_mmshare_version>
53161

> <r_lp_tautomer_probability>
1

> <s_lp_Force_Field>
OPLS_2005

> <r_lp_Energy>
11.097811

> <b_lp_Chiralities_Consistent>
1

> <s_lp_Variant>
CHEMBL4439_lig766-1

> <s_i_glide_gridfile>
glide-grid_3hmm

> <i_i_glide_lignum>
1080

> <i_i_glide_rotatable_bonds>
2

> <r_i_docking_score>
-8.11396685932204

> <r_i_glide_ligand_efficiency>
-0.352781167796611

> <r_i_glide_ligand_efficiency_sa>
-1.00326271316168

> <r_i_glide_ligand_efficiency_ln>
-1.96203075996783

> <r_i_glide_gscore>
-8.11396685932204

> <r_i_glide_lipo>
-4.09417812273968

> <r_i_glide_hbond>
0

> <r_i_glide_metal>
0

> <r_i_glide_rewards>
-2.13291714550363

> <r_i_glide_evdw>
-42.838924407959

> <r_i_glide_ecoul>
-0.724547982215881

> <r_i_glide_erotb>
0.363756826651598

> <r_i_glide_esite>
0

> <r_i_glide_emodel>
-64.8015027258552

> <r_i_glide_energy>
-43.5634723901749

> <r_i_glide_einternal>
0.0825336948037148

> <i_i_glide_confnum>
14

> <i_i_glide_posenum>
68

> <r_i_glide_eff_state_penalty>
0

> <s_user_duplicate_titles>
CHEMBL4439_lig766

> <i_f3d_flags>
0

> <s_m_subgroup_title>
dock_pv

> <s_m_subgroupid>
dock_pv

> <b_m_subgroup_collapsed>
1

$$$$
CHEMBL4439_lig851
                    3D
 Schrodinger Suite 2021-1.
 46 49  0  0  1  0            999 V2000
   18.8189   67.1908   10.2484 C   0  0  0  0  0  0
   17.5261   67.3757    9.4263 C   0  0  0  0  0  0
   16.5993   68.3746   10.1583 C   0  0  0  0  0  0
   15.4764   67.7703    3.6047 C   0  0  0  0  0  0
   15.8257   68.4496    2.4321 C   0  0  0  0  0  0
   17.0811   68.8980    2.1904 N   0  0  0  0  0  0
   18.0215   68.6954    3.1479 C   0  0  0  0  0  0
   17.7378   68.0571    4.3568 C   0  0  0  0  0  0
   16.4403   67.5979    4.6083 C   0  0  0  0  0  0
   16.0973   66.9559    5.9190 C   0  0  0  0  0  0
   15.0662   65.6570    7.4599 N   0  0  0  0  0  0
   15.0864   65.9888    6.1904 C   0  0  0  0  0  0
   16.0978   66.2603    8.0112 N   0  0  0  0  0  0
   16.7233   67.1210    7.1666 C   0  0  0  0  0  0
   17.8515   67.7771    7.9489 C   0  0  1  0  0  0
   16.7529   66.0588    9.2825 C   0  0  0  0  0  0
   14.1874   65.2130    5.2803 C   0  0  0  0  0  0
   12.9010   65.0439    5.6982 N   0  0  0  0  0  0
   12.1086   64.1796    5.0135 C   0  0  0  0  0  0
   12.5602   63.4504    3.9132 C   0  0  0  0  0  0
   13.8676   63.6568    3.4751 C   0  0  0  0  0  0
   14.6945   64.5524    4.1563 C   0  0  0  0  0  0
   10.6841   64.0587    5.5086 C   0  0  0  0  0  0
   18.0190   69.2892    7.7063 C   0  0  0  0  0  0
   19.6246   69.2567    2.8623 Cl  0  0  0  0  0  0
   19.4839   66.4573    9.7928 H   0  0  0  0  0  0
   19.3755   68.1261   10.3258 H   0  0  0  0  0  0
   18.6062   66.8577   11.2643 H   0  0  0  0  0  0
   15.7468   68.6821    9.5509 H   0  0  0  0  0  0
   16.2065   67.9647   11.0899 H   0  0  0  0  0  0
   17.1576   69.2573   10.4336 H   0  0  0  0  0  0
   14.4601   67.4349    3.7449 H   0  0  0  0  0  0
   15.0952   68.6193    1.6528 H   0  0  0  0  0  0
   18.5218   67.9224    5.0856 H   0  0  0  0  0  0
   18.7831   67.2960    7.6435 H   0  0  0  0  0  0
   16.0371   65.8746   10.0854 H   0  0  0  0  0  0
   17.4163   65.1942    9.2317 H   0  0  0  0  0  0
   11.9089   62.7700    3.3844 H   0  0  0  0  0  0
   14.2362   63.1237    2.6122 H   0  0  0  0  0  0
   15.7213   64.6870    3.8499 H   0  0  0  0  0  0
   10.1438   63.2583    5.0031 H   0  0  0  0  0  0
   10.6659   63.8580    6.5811 H   0  0  0  0  0  0
   10.1583   64.9929    5.3145 H   0  0  0  0  0  0
   18.2841   69.5118    6.6752 H   0  0  0  0  0  0
   17.1106   69.8398    7.9499 H   0  0  0  0  0  0
   18.8136   69.6950    8.3334 H   0  0  0  0  0  0
  1  2  1  0  0  0
  1 26  1  0  0  0
  1 27  1  0  0  0
  1 28  1  0  0  0
  2  3  1  0  0  0
  2 15  1  0  0  0
  2 16  1  0  0  0
  3 29  1  0  0  0
  3 30  1  0  0  0
  3 31  1  0  0  0
  4  5  2  0  0  0
  4  9  1  0  0  0
  4 32  1  0  0  0
  5  6  1  0  0  0
  5 33  1  0  0  0
  6  7  2  0  0  0
  7  8  1  0  0  0
  7 25  1  0  0  0
  8  9  2  0  0  0
  8 34  1  0  0  0
  9 10  1  0  0  0
 10 14  2  0  0  0
 10 12  1  0  0  0
 11 13  1  0  0  0
 11 12  2  0  0  0
 12 17  1  0  0  0
 13 14  1  0  0  0
 13 16  1  0  0  0
 14 15  1  0  0  0
 15 24  1  0  0  0
 15 35  1  0  0  0
 16 36  1  0  0  0
 16 37  1  0  0  0
 17 18  2  0  0  0
 17 22  1  0  0  0
 18 19  1  0  0  0
 19 20  2  0  0  0
 19 23  1  0  0  0
 20 21  1  0  0  0
 20 38  1  0  0  0
 21 22  2  0  0  0
 21 39  1  0  0  0
 22 40  1  0  0  0
 23 41  1  0  0  0
 23 42  1  0  0  0
 23 43  1  0  0  0
 24 44  1  0  0  0
 24 45  1  0  0  0
 24 46  1  0  0  0
M  END
> <s_m_entry_id>
34522

> <s_m_entry_name>
dock_pv.265

> <s_m_Source_Path>
/home/csk/Desktop/cluster/DUD-E-result/tgfr1

> <s_m_Source_File>
dock_pv.maegz

> <i_m_Source_File_Index>
265

> <chembl_id>
CHEMBL4284434

> <chembl_pref_name>
None

> <i_lp_mmshare_version>
53161

> <r_lp_tautomer_probability>
1

> <s_lp_Force_Field>
OPLS_2005

> <r_lp_Energy>
36.309498

> <b_lp_Chiralities_Consistent>
1

> <s_lp_Variant>
CHEMBL4439_lig851-1

> <s_i_glide_gridfile>
glide-grid_3hmm

> <i_i_glide_lignum>
1172

> <i_i_glide_rotatable_bonds>
2

> <r_i_docking_score>
-8.1050364693529

> <r_i_glide_ligand_efficiency>
-0.324201458774116

> <r_i_glide_ligand_efficiency_sa>
-0.947970815192869

> <r_i_glide_ligand_efficiency_ln>
-1.92113653157974

> <r_i_glide_gscore>
-8.1050364693529

> <r_i_glide_lipo>
-4.38939628376462

> <r_i_glide_hbond>
-0.102314488056458

> <r_i_glide_metal>
0

> <r_i_glide_rewards>
-1.46085776924178

> <r_i_glide_evdw>
-45.3844528198242

> <r_i_glide_ecoul>
-1.26590359210968

> <r_i_glide_erotb>
0.306640251517617

> <r_i_glide_esite>
0

> <r_i_glide_emodel>
-65.356484557429

> <r_i_glide_energy>
-46.6503564119339

> <r_i_glide_einternal>
2.41649842262268

> <i_i_glide_confnum>
7

> <i_i_glide_posenum>
36

> <r_i_glide_eff_state_penalty>
0

> <s_user_duplicate_titles>
CHEMBL4439_lig851

> <i_f3d_flags>
0

> <s_m_subgroup_title>
dock_pv

> <s_m_subgroupid>
dock_pv

> <b_m_subgroup_collapsed>
1

$$$$
CHEMBL4439_lig77
                    3D
 Schrodinger Suite 2021-1.
 36 39  0  0  1  0            999 V2000
   16.8287   67.7488    6.5329 C   0  0  0  0  0  0
   15.7442   66.8725    6.8012 C   0  0  0  0  0  0
   17.3305   68.3343    7.6161 N   0  0  0  0  0  0
   16.7425   67.9890    8.7235 C   0  0  0  0  0  0
   15.4652   66.8613    8.5336 S   0  0  0  0  0  0
   14.8953   65.9944    5.9241 C   0  0  0  0  0  0
   13.6211   65.7396    6.3425 N   0  0  0  0  0  0
   17.4284   68.1199    5.1974 C   0  0  0  0  0  0
   18.7512   68.4568    5.1991 N   0  0  0  0  0  0
   12.8437   64.9075    5.5948 C   0  0  0  0  0  0
   12.5836   63.3967    3.6885 N   0  0  0  0  0  0
   13.3447   64.2442    4.4325 C   0  0  0  0  0  0
   15.4301   65.4108    4.7785 C   0  0  0  0  0  0
   17.0688   68.4559    9.9614 N   0  0  0  0  0  0
   14.6702   64.5155    4.0326 C   0  0  0  0  0  0
   19.3334   68.8497    4.0362 C   0  0  0  0  0  0
   16.6671   68.1902    4.0235 C   0  0  0  0  0  0
   17.2773   68.5878    2.8320 C   0  0  0  0  0  0
   11.2834   63.2576    4.0318 C   0  0  0  0  0  0
   11.4916   64.6819    5.9528 C   0  0  0  0  0  0
   18.6286   68.9273    2.8330 C   0  0  0  0  0  0
   20.8045   69.2042    4.1166 C   0  0  0  0  0  0
   10.7058   63.8590    5.1489 C   0  0  0  0  0  0
   16.4352   65.6569    4.4724 H   0  0  0  0  0  0
   17.7905   69.1543   10.0879 H   0  0  0  0  0  0
   16.5843   68.1512   10.7937 H   0  0  0  0  0  0
   15.0674   64.0409    3.1490 H   0  0  0  0  0  0
   15.6126   67.9631    4.0341 H   0  0  0  0  0  0
   16.6977   68.6463    1.9212 H   0  0  0  0  0  0
   10.6970   62.6370    3.3697 H   0  0  0  0  0  0
   11.0714   65.1672    6.8239 H   0  0  0  0  0  0
   19.1115   69.2504    1.9228 H   0  0  0  0  0  0
   20.9329   70.1560    4.6330 H   0  0  0  0  0  0
   21.2571   69.2863    3.1264 H   0  0  0  0  0  0
   21.3593   68.4455    4.6688 H   0  0  0  0  0  0
    9.6641   63.6927    5.3826 H   0  0  0  0  0  0
  1  2  2  0  0  0
  1  3  1  0  0  0
  1  8  1  0  0  0
  2  5  1  0  0  0
  2  6  1  0  0  0
  3  4  2  0  0  0
  4 14  1  0  0  0
  4  5  1  0  0  0
  6  7  2  0  0  0
  6 13  1  0  0  0
  7 10  1  0  0  0
  8  9  1  0  0  0
  8 17  2  0  0  0
  9 16  2  0  0  0
 10 20  2  0  0  0
 10 12  1  0  0  0
 11 12  2  0  0  0
 11 19  1  0  0  0
 12 15  1  0  0  0
 13 15  2  0  0  0
 13 24  1  0  0  0
 14 25  1  0  0  0
 14 26  1  0  0  0
 15 27  1  0  0  0
 16 22  1  0  0  0
 16 21  1  0  0  0
 17 18  1  0  0  0
 17 28  1  0  0  0
 18 21  2  0  0  0
 18 29  1  0  0  0
 19 23  2  0  0  0
 19 30  1  0  0  0
 20 23  1  0  0  0
 20 31  1  0  0  0
 21 32  1  0  0  0
 22 33  1  0  0  0
 22 34  1  0  0  0
 22 35  1  0  0  0
 23 36  1  0  0  0
M  END
> <s_m_entry_id>
34523

> <s_m_entry_name>
dock_pv.266

> <s_m_Source_Path>
/home/csk/Desktop/cluster/DUD-E-result/tgfr1

> <s_m_Source_File>
dock_pv.maegz

> <i_m_Source_File_Index>
266

> <chembl_id>
CHEMBL360034

> <chembl_pref_name>
None

> <i_lp_mmshare_version>
53161

> <r_lp_tautomer_probability>
1

> <s_lp_Force_Field>
OPLS_2005

> <r_lp_Energy>
18.052258

> <b_lp_Chiralities_Consistent>
1

> <s_lp_Variant>
CHEMBL4439_lig77-1

> <s_i_glide_gridfile>
glide-grid_3hmm

> <i_i_glide_lignum>
113

> <i_i_glide_rotatable_bonds>
2

> <r_i_docking_score>
-8.10475999713427

> <r_i_glide_ligand_efficiency>
-0.352380869440621

> <r_i_glide_ligand_efficiency_sa>
-1.00212431788618

> <r_i_glide_ligand_efficiency_ln>
-1.95980445720762

> <r_i_glide_gscore>
-8.10475999713427

> <r_i_glide_lipo>
-4.05490705459358

> <r_i_glide_hbond>
-0.210127783657917

> <r_i_glide_metal>
0

> <r_i_glide_rewards>
-1.62848842840394

> <r_i_glide_evdw>
-46.7255439758301

> <r_i_glide_ecoul>
-1.60520887374878

> <r_i_glide_erotb>
0.365821799374981

> <r_i_glide_esite>
0

> <r_i_glide_emodel>
-71.0065291720708

> <r_i_glide_energy>
-48.3307528495789

> <r_i_glide_einternal>
0.887811005115509

> <i_i_glide_confnum>
9

> <i_i_glide_posenum>
228

> <r_i_glide_eff_state_penalty>
0

> <s_user_duplicate_titles>
CHEMBL4439_lig77,306887

> <i_f3d_flags>
0

> <s_m_subgroup_title>
dock_pv

> <s_m_subgroupid>
dock_pv

> <b_m_subgroup_collapsed>
1

$$$$
CHEMBL4439_lig525
                    3D
 Schrodinger Suite 2021-1.
 39 42  0  0  1  0            999 V2000
   20.1006   68.7651    5.7942 N   0  0  0  0  0  0
   18.8087   68.4574    5.5720 N   0  0  0  0  0  0
   18.2161   67.9772    6.7430 C   0  0  0  0  0  0
   19.2007   68.0407    7.7310 C   0  0  0  0  0  0
   20.3300   68.4935    7.0508 C   0  0  0  0  0  0
   18.2768   68.6568    4.2543 C   0  0  0  0  0  0
   16.9687   68.3452    4.0485 N   0  0  0  0  0  0
   16.4346   68.4572    2.8103 C   0  0  0  0  0  0
   17.1674   68.9372    1.7271 C   0  0  0  0  0  0
   18.5023   69.2839    1.9288 C   0  0  0  0  0  0
   19.0673   69.1470    3.1991 C   0  0  0  0  0  0
   14.9810   68.0395    2.6731 C   0  0  0  0  0  0
   16.8051   67.5082    6.9138 C   0  0  0  0  0  0
   16.2670   66.4989    6.1072 C   0  0  0  0  0  0
   14.6668   67.7203    8.0320 C   0  0  0  0  0  0
   16.0035   68.0963    7.8970 C   0  0  0  0  0  0
   14.1144   66.7771    7.1691 C   0  0  0  0  0  0
   14.9211   66.1613    6.2125 C   0  0  0  0  0  0
   14.2803   65.1748    5.2642 C   0  0  0  0  0  0
   12.9561   65.0244    5.4957 N   0  0  0  0  0  0
   12.2115   65.6470    6.4596 C   0  0  0  0  0  0
   12.7519   66.4568    7.2941 N   0  0  0  0  0  0
   14.8453   64.5572    4.3671 O   0  0  0  0  0  0
   19.1198   67.5796    9.1699 C   0  0  0  0  0  0
   21.3139   68.6275    7.4774 H   0  0  0  0  0  0
   16.7057   69.0372    0.7592 H   0  0  0  0  0  0
   19.0982   69.6569    1.1084 H   0  0  0  0  0  0
   20.1058   69.4067    3.3398 H   0  0  0  0  0  0
   14.6656   68.0568    1.6343 H   0  0  0  0  0  0
   14.3017   68.6845    3.2296 H   0  0  0  0  0  0
   14.8425   67.0217    3.0345 H   0  0  0  0  0  0
   16.8693   66.0569    5.3344 H   0  0  0  0  0  0
   14.0453   68.2058    8.7672 H   0  0  0  0  0  0
   16.4125   68.8659    8.5370 H   0  0  0  0  0  0
   12.5002   64.4042    4.8459 H   0  0  0  0  0  0
   11.1512   65.4129    6.5070 H   0  0  0  0  0  0
   18.4096   66.7611    9.2909 H   0  0  0  0  0  0
   20.0759   67.1989    9.5310 H   0  0  0  0  0  0
   18.8069   68.3838    9.8357 H   0  0  0  0  0  0
  1  2  1  0  0  0
  1  5  2  0  0  0
  2  6  1  0  0  0
  2  3  1  0  0  0
  3 13  1  0  0  0
  3  4  2  0  0  0
  4  5  1  0  0  0
  4 24  1  0  0  0
  5 25  1  0  0  0
  6  7  2  0  0  0
  6 11  1  0  0  0
  7  8  1  0  0  0
  8 12  1  0  0  0
  8  9  2  0  0  0
  9 10  1  0  0  0
  9 26  1  0  0  0
 10 11  2  0  0  0
 10 27  1  0  0  0
 11 28  1  0  0  0
 12 29  1  0  0  0
 12 30  1  0  0  0
 12 31  1  0  0  0
 13 14  2  0  0  0
 13 16  1  0  0  0
 14 18  1  0  0  0
 14 32  1  0  0  0
 15 17  1  0  0  0
 15 16  2  0  0  0
 15 33  1  0  0  0
 16 34  1  0  0  0
 17 18  2  0  0  0
 17 22  1  0  0  0
 18 19  1  0  0  0
 19 20  1  0  0  0
 19 23  2  0  0  0
 20 21  1  0  0  0
 20 35  1  0  0  0
 21 22  2  0  0  0
 21 36  1  0  0  0
 24 37  1  0  0  0
 24 38  1  0  0  0
 24 39  1  0  0  0
M  END
> <s_m_entry_id>
34524

> <s_m_entry_name>
dock_pv.267

> <s_m_Source_Path>
/home/csk/Desktop/cluster/DUD-E-result/tgfr1

> <s_m_Source_File>
dock_pv.maegz

> <i_m_Source_File_Index>
267

> <chembl_id>
CHEMBL2024688

> <chembl_pref_name>
None

> <i_lp_mmshare_version>
53161

> <r_lp_tautomer_probability>
0.883938

> <s_lp_Force_Field>
OPLS_2005

> <r_lp_Energy>
21.604658

> <b_lp_Chiralities_Consistent>
1

> <s_lp_Variant>
CHEMBL4439_lig525-1

> <s_i_glide_gridfile>
glide-grid_3hmm

> <i_i_glide_lignum>
700

> <i_i_glide_rotatable_bonds>
2

> <r_i_docking_score>
-8.10288817345787

> <r_i_glide_ligand_efficiency>
-0.337620340560745

> <r_i_glide_ligand_efficiency_sa>
-0.973865581169884

> <r_i_glide_ligand_efficiency_ln>
-1.93939295721881

> <r_i_glide_gscore>
-8.10288817345787

> <r_i_glide_lipo>
-3.64818092581206

> <r_i_glide_hbond>
0

> <r_i_glide_metal>
0

> <r_i_glide_rewards>
-2.23620987015974

> <r_i_glide_evdw>
-45.0869636535645

> <r_i_glide_ecoul>
-2.22748208045959

> <r_i_glide_erotb>
0.36997311726109

> <r_i_glide_esite>
0

> <r_i_glide_emodel>
-70.8142078512128

> <r_i_glide_energy>
-47.314445734024

> <r_i_glide_einternal>
0.240512877702713

> <i_i_glide_confnum>
16

> <i_i_glide_posenum>
216

> <r_i_glide_eff_state_penalty>
0

> <s_user_duplicate_titles>
CHEMBL4439_lig525,CHEMBL4439_lig525

> <i_f3d_flags>
0

> <s_m_subgroup_title>
dock_pv

> <s_m_subgroupid>
dock_pv

> <b_m_subgroup_collapsed>
1

$$$$
CHEMBL4439_lig987
                    3D
 Schrodinger Suite 2021-1.
 41 45  0  0  1  0            999 V2000
   17.5943   68.0441    5.7187 C   0  0  0  0  0  0
   16.6196   67.5011    4.9328 C   0  0  0  0  0  0
   16.9382   67.7434    3.6084 N   0  0  0  0  0  0
   18.0686   68.5269    3.5998 N   0  0  0  0  0  0
   18.5579   68.7111    4.8374 C   0  0  0  0  0  0
   19.5840   69.3311    5.1189 O   0  0  0  0  0  0
   18.7072   68.9951    2.3620 C   0  0  0  0  0  0
   15.9335   68.1955    2.6452 C   0  0  0  0  0  0
   15.3786   66.7436    5.2725 C   0  0  0  0  0  0
   14.4989   67.1811    6.2689 C   0  0  0  0  0  0
   13.3402   66.4696    6.5856 C   0  0  0  0  0  0
   15.0638   65.5792    4.5617 C   0  0  0  0  0  0
   13.8578   64.8851    4.7977 C   0  0  0  0  0  0
   12.9749   65.3472    5.8174 C   0  0  0  0  0  0
   11.7745   64.7424    6.0338 N   0  0  0  0  0  0
   11.4466   63.7072    5.2235 C   0  0  0  0  0  0
   12.3114   63.2572    4.2287 C   0  0  0  0  0  0
   13.5297   63.8122    4.0267 N   0  0  0  0  0  0
   17.7685   67.9309    7.2182 C   0  0  0  0  0  0
   17.0079   67.0149    7.9669 C   0  0  0  0  0  0
   18.8504   68.6582    9.3073 C   0  0  0  0  0  0
   18.6962   68.7210    7.9231 C   0  0  0  0  0  0
   17.9553   67.8728   10.0381 C   0  0  0  0  0  0
   17.0357   67.0492    9.3650 C   0  0  0  0  0  0
   16.2668   66.3705   10.2544 N   0  0  0  0  0  0
   16.7211   66.8574   11.4854 O   0  0  0  0  0  0
   17.7963   67.7484   11.3822 N   0  0  0  0  0  0
   19.7548   69.2687    2.5064 H   0  0  0  0  0  0
   18.6669   68.2224    1.5933 H   0  0  0  0  0  0
   18.1880   69.8730    1.9781 H   0  0  0  0  0  0
   14.9928   67.6528    2.7365 H   0  0  0  0  0  0
   15.7310   69.2551    2.7495 H   0  0  0  0  0  0
   16.2950   68.0583    1.6321 H   0  0  0  0  0  0
   14.7284   68.0841    6.8158 H   0  0  0  0  0  0
   12.6747   66.8166    7.3627 H   0  0  0  0  0  0
   15.7245   65.2080    3.7960 H   0  0  0  0  0  0
   10.4774   63.2570    5.3797 H   0  0  0  0  0  0
   12.0366   62.4572    3.5631 H   0  0  0  0  0  0
   16.3813   66.2805    7.4982 H   0  0  0  0  0  0
   19.5932   69.2568    9.8095 H   0  0  0  0  0  0
   19.3351   69.4222    7.4144 H   0  0  0  0  0  0
  1  5  1  0  0  0
  1 19  1  0  0  0
  1  2  2  0  0  0
  2  3  1  0  0  0
  2  9  1  0  0  0
  3  8  1  0  0  0
  3  4  1  0  0  0
  4  7  1  0  0  0
  4  5  1  0  0  0
  5  6  2  0  0  0
  7 28  1  0  0  0
  7 29  1  0  0  0
  7 30  1  0  0  0
  8 31  1  0  0  0
  8 32  1  0  0  0
  8 33  1  0  0  0
  9 10  2  0  0  0
  9 12  1  0  0  0
 10 11  1  0  0  0
 10 34  1  0  0  0
 11 14  2  0  0  0
 11 35  1  0  0  0
 12 13  2  0  0  0
 12 36  1  0  0  0
 13 14  1  0  0  0
 13 18  1  0  0  0
 14 15  1  0  0  0
 15 16  2  0  0  0
 16 17  1  0  0  0
 16 37  1  0  0  0
 17 18  2  0  0  0
 17 38  1  0  0  0
 19 20  2  0  0  0
 19 22  1  0  0  0
 20 24  1  0  0  0
 20 39  1  0  0  0
 21 23  1  0  0  0
 21 22  2  0  0  0
 21 40  1  0  0  0
 22 41  1  0  0  0
 23 24  1  0  0  0
 23 27  2  0  0  0
 24 25  2  0  0  0
 25 26  1  0  0  0
 26 27  1  0  0  0
M  END
> <s_m_entry_id>
34525

> <s_m_entry_name>
dock_pv.268

> <s_m_Source_Path>
/home/csk/Desktop/cluster/DUD-E-result/tgfr1

> <s_m_Source_File>
dock_pv.maegz

> <i_m_Source_File_Index>
268

> <chembl_id>
CHEMBL594600

> <chembl_pref_name>
None

> <i_lp_mmshare_version>
53161

> <r_lp_tautomer_probability>
1

> <s_lp_Force_Field>
OPLS_2005

> <r_lp_Energy>
46.067454

> <b_lp_Chiralities_Consistent>
1

> <s_lp_Variant>
CHEMBL4439_lig987-1

> <s_i_glide_gridfile>
glide-grid_3hmm

> <i_i_glide_lignum>
1346

> <i_i_glide_rotatable_bonds>
2

> <r_i_docking_score>
-8.09812343119694

> <r_i_glide_ligand_efficiency>
-0.299930497451739

> <r_i_glide_ligand_efficiency_sa>
-0.899791491366694

> <r_i_glide_ligand_efficiency_ln>
-1.88510962678367

> <r_i_glide_gscore>
-8.09812343119694

> <r_i_glide_lipo>
-3.91346136551566

> <r_i_glide_hbond>
0

> <r_i_glide_metal>
0

> <r_i_glide_rewards>
-2.03243853030303

> <r_i_glide_evdw>
-49.8397026062012

> <r_i_glide_ecoul>
0.276270002126694

> <r_i_glide_erotb>
0.298321094612803

> <r_i_glide_esite>
0

> <r_i_glide_emodel>
-70.4541368267446

> <r_i_glide_energy>
-49.5634326040745

> <r_i_glide_einternal>
4.25170421600342

> <i_i_glide_confnum>
3

> <i_i_glide_posenum>
38

> <r_i_glide_eff_state_penalty>
0

> <s_user_duplicate_titles>
CHEMBL4439_lig987,593952

> <i_f3d_flags>
0

> <s_m_subgroup_title>
dock_pv

> <s_m_subgroupid>
dock_pv

> <b_m_subgroup_collapsed>
1

$$$$
CHEMBL4439_lig800
                    3D
 Schrodinger Suite 2021-1.
 42 45  0  0  1  0            999 V2000
   19.2628   68.8841    5.1411 C   0  0  0  0  0  0
   19.8006   69.1132    3.8711 C   0  0  0  0  0  0
   21.0743   69.6570    3.7258 C   0  0  0  0  0  0
   21.8676   70.0261    4.7581 N   0  0  0  0  0  0
   17.9860   68.2862    5.1418 N   0  0  0  0  0  0
   17.0077   67.8623    6.0572 C   0  0  0  0  0  0
   16.9187   68.2491    7.3980 C   0  0  0  0  0  0
   15.8997   67.7206    8.1886 C   0  0  0  0  0  0
   14.9704   66.8603    7.7080 N   0  0  0  0  0  0
   15.0080   66.5234    6.3880 C   0  0  0  0  0  0
   16.0189   67.0135    5.5490 C   0  0  0  0  0  0
   13.9160   65.6285    5.8794 C   0  0  0  0  0  0
   14.1583   64.7483    4.8088 C   0  0  0  0  0  0
   13.1580   63.9041    4.3211 C   0  0  0  0  0  0
   11.8958   63.9110    4.9025 C   0  0  0  0  0  0
   11.6356   64.7712    5.9618 C   0  0  0  0  0  0
   12.6214   65.6321    6.4365 C   0  0  0  0  0  0
   12.2937   66.4571    7.4563 F   0  0  0  0  0  0
   20.0887   69.2362    6.2427 C   0  0  0  0  0  0
   21.3789   69.8090    5.9766 C   0  0  0  0  0  0
   21.9555   70.0565    7.2415 C   0  0  0  0  0  0
   21.0204   69.6194    8.1445 N   0  0  0  0  0  0
   19.8976   69.1144    7.5913 N   0  0  0  0  0  0
   13.4677   62.8573    2.9873 Cl  0  0  0  0  0  0
   21.1167   69.6823    9.5965 C   0  0  0  0  0  0
   21.1658   68.3093   10.2699 C   0  0  0  0  0  0
   20.2614   68.0572   11.2121 N   0  0  0  0  0  0
   21.9982   67.4682    9.9425 O   0  0  0  0  0  0
   19.2418   68.8583    2.9823 H   0  0  0  0  0  0
   21.4858   69.8239    2.7409 H   0  0  0  0  0  0
   17.7149   68.0472    4.2012 H   0  0  0  0  0  0
   17.5715   68.9797    7.8335 H   0  0  0  0  0  0
   15.8020   68.0046    9.2271 H   0  0  0  0  0  0
   16.0358   66.7409    4.5048 H   0  0  0  0  0  0
   15.1321   64.7032    4.3440 H   0  0  0  0  0  0
   11.1206   63.2569    4.5311 H   0  0  0  0  0  0
   10.6671   64.7737    6.4289 H   0  0  0  0  0  0
   22.8987   70.4774    7.5613 H   0  0  0  0  0  0
   20.2682   70.2627    9.9566 H   0  0  0  0  0  0
   22.0151   70.2357    9.8685 H   0  0  0  0  0  0
   20.2663   67.1342   11.6313 H   0  0  0  0  0  0
   19.5315   68.7186   11.4262 H   0  0  0  0  0  0
  1 19  1  0  0  0
  1  2  2  0  0  0
  1  5  1  0  0  0
  2  3  1  0  0  0
  2 29  1  0  0  0
  3  4  2  0  0  0
  3 30  1  0  0  0
  4 20  1  0  0  0
  5  6  1  0  0  0
  5 31  1  0  0  0
  6  7  2  0  0  0
  6 11  1  0  0  0
  7  8  1  0  0  0
  7 32  1  0  0  0
  8  9  2  0  0  0
  8 33  1  0  0  0
  9 10  1  0  0  0
 10 11  2  0  0  0
 10 12  1  0  0  0
 11 34  1  0  0  0
 12 13  2  0  0  0
 12 17  1  0  0  0
 13 14  1  0  0  0
 13 35  1  0  0  0
 14 15  2  0  0  0
 14 24  1  0  0  0
 15 16  1  0  0  0
 15 36  1  0  0  0
 16 17  2  0  0  0
 16 37  1  0  0  0
 17 18  1  0  0  0
 19 20  1  0  0  0
 19 23  2  0  0  0
 20 21  2  0  0  0
 21 22  1  0  0  0
 21 38  1  0  0  0
 22 23  1  0  0  0
 22 25  1  0  0  0
 25 26  1  0  0  0
 25 39  1  0  0  0
 25 40  1  0  0  0
 26 27  1  0  0  0
 26 28  2  0  0  0
 27 41  1  0  0  0
 27 42  1  0  0  0
M  END
> <s_m_entry_id>
34526

> <s_m_entry_name>
dock_pv.269

> <s_m_Source_Path>
/home/csk/Desktop/cluster/DUD-E-result/tgfr1

> <s_m_Source_File>
dock_pv.maegz

> <i_m_Source_File_Index>
269

> <chembl_id>
CHEMBL4067488

> <chembl_pref_name>
None

> <i_lp_mmshare_version>
53161

> <r_lp_tautomer_probability>
0.999999106000799

> <s_lp_Force_Field>
OPLS_2005

> <r_lp_Energy>
32.294021

> <b_lp_Chiralities_Consistent>
1

> <s_lp_Variant>
CHEMBL4439_lig800-1

> <s_i_glide_gridfile>
glide-grid_3hmm

> <i_i_glide_lignum>
1116

> <i_i_glide_rotatable_bonds>
5

> <r_i_docking_score>
-8.09707292684885

> <r_i_glide_ligand_efficiency>
-0.289181175958887

> <r_i_glide_ligand_efficiency_sa>
-0.878124368815429

> <r_i_glide_ligand_efficiency_ln>
-1.86904217190831

> <r_i_glide_gscore>
-8.09707292684885

> <r_i_glide_lipo>
-3.38813453305566

> <r_i_glide_hbond>
-0.544148471237538

> <r_i_glide_metal>
0

> <r_i_glide_rewards>
-1.17516274407885

> <r_i_glide_evdw>
-50.9800605773926

> <r_i_glide_ecoul>
-6.11636209487915

> <r_i_glide_erotb>
0.49712163105039

> <r_i_glide_esite>
-0.0202914664256815

> <r_i_glide_emodel>
-80.8611259542927

> <r_i_glide_energy>
-57.0964226722717

> <r_i_glide_einternal>
6.65447425842285

> <i_i_glide_confnum>
3

> <i_i_glide_posenum>
361

> <r_i_glide_eff_state_penalty>
0

> <s_user_duplicate_titles>
CHEMBL4439_lig800

> <i_f3d_flags>
0

> <s_m_subgroup_title>
dock_pv

> <s_m_subgroupid>
dock_pv

> <b_m_subgroup_collapsed>
1

$$$$
CHEMBL4439_lig40
                    3D
 Schrodinger Suite 2021-1.
 38 40  0  0  1  0            999 V2000
   15.0179   66.4705    7.1457 C   0  0  0  0  0  0
   16.0631   67.2944    6.6512 C   0  0  0  0  0  0
   14.9945   66.4572    8.4645 N   0  0  0  0  0  0
   16.0241   67.2103    8.8561 N   0  0  0  0  0  0
   16.6909   67.7571    7.8005 C   0  0  0  0  0  0
   14.0146   65.6670    6.3832 C   0  0  0  0  0  0
   14.5034   64.9670    5.3248 N   0  0  0  0  0  0
   16.4372   67.6574    5.2489 C   0  0  0  0  0  0
   15.4981   67.6569    4.2133 C   0  0  0  0  0  0
   17.7477   68.0576    4.9779 C   0  0  0  0  0  0
   13.6323   64.2667    4.5551 C   0  0  0  0  0  0
   17.1622   68.4640    2.6649 C   0  0  0  0  0  0
   18.1110   68.4596    3.6984 C   0  0  0  0  0  0
   15.8592   68.0570    2.9321 C   0  0  0  0  0  0
   16.2685   67.4388   10.2686 C   0  0  0  0  0  0
   12.6546   65.6568    6.7169 C   0  0  0  0  0  0
   17.4238   68.8565    1.3706 O   0  0  0  0  0  0
   11.7768   64.9034    5.9328 C   0  0  0  0  0  0
   12.2654   64.1986    4.8317 C   0  0  0  0  0  0
   14.2306   63.5849    3.3422 C   0  0  0  0  0  0
   18.6676   69.4751    1.0998 C   0  0  0  0  0  0
   17.5256   68.4247    7.9570 H   0  0  0  0  0  0
   14.4706   67.3867    4.3964 H   0  0  0  0  0  0
   18.4946   68.0654    5.7579 H   0  0  0  0  0  0
   19.1325   68.7650    3.5345 H   0  0  0  0  0  0
   15.1208   68.0638    2.1429 H   0  0  0  0  0  0
   17.3421   67.4278   10.4583 H   0  0  0  0  0  0
   15.8673   68.4137   10.5416 H   0  0  0  0  0  0
   15.7920   66.6660   10.8747 H   0  0  0  0  0  0
   12.2808   66.2202    7.5590 H   0  0  0  0  0  0
   10.7228   64.8797    6.1657 H   0  0  0  0  0  0
   11.5971   63.6342    4.1976 H   0  0  0  0  0  0
   13.6442   62.7154    3.0429 H   0  0  0  0  0  0
   15.2498   63.2578    3.5465 H   0  0  0  0  0  0
   14.2670   64.2786    2.5032 H   0  0  0  0  0  0
   18.7348   69.6570    0.0317 H   0  0  0  0  0  0
   18.7437   70.4236    1.6340 H   0  0  0  0  0  0
   19.5208   68.8570    1.3587 H   0  0  0  0  0  0
  1  2  1  0  0  0
  1  3  2  0  0  0
  1  6  1  0  0  0
  2  5  2  0  0  0
  2  8  1  0  0  0
  3  4  1  0  0  0
  4 15  1  0  0  0
  4  5  1  0  0  0
  5 22  1  0  0  0
  6  7  1  0  0  0
  6 16  2  0  0  0
  7 11  2  0  0  0
  8  9  2  0  0  0
  8 10  1  0  0  0
  9 14  1  0  0  0
  9 23  1  0  0  0
 10 13  2  0  0  0
 10 24  1  0  0  0
 11 20  1  0  0  0
 11 19  1  0  0  0
 12 13  1  0  0  0
 12 17  1  0  0  0
 12 14  2  0  0  0
 13 25  1  0  0  0
 14 26  1  0  0  0
 15 27  1  0  0  0
 15 28  1  0  0  0
 15 29  1  0  0  0
 16 18  1  0  0  0
 16 30  1  0  0  0
 17 21  1  0  0  0
 18 19  2  0  0  0
 18 31  1  0  0  0
 19 32  1  0  0  0
 20 33  1  0  0  0
 20 34  1  0  0  0
 20 35  1  0  0  0
 21 36  1  0  0  0
 21 37  1  0  0  0
 21 38  1  0  0  0
M  END
> <s_m_entry_id>
34527

> <s_m_entry_name>
dock_pv.270

> <s_m_Source_Path>
/home/csk/Desktop/cluster/DUD-E-result/tgfr1

> <s_m_Source_File>
dock_pv.maegz

> <i_m_Source_File_Index>
270

> <chembl_id>
CHEMBL129760

> <chembl_pref_name>
None

> <i_lp_mmshare_version>
53161

> <r_lp_tautomer_probability>
1

> <s_lp_Force_Field>
OPLS_2005

> <r_lp_Energy>
17.913235

> <b_lp_Chiralities_Consistent>
1

> <s_lp_Variant>
CHEMBL4439_lig40-1

> <s_i_glide_gridfile>
glide-grid_3hmm

> <i_i_glide_lignum>
53

> <i_i_glide_rotatable_bonds>
3

> <r_i_docking_score>
-8.09318486686912

> <r_i_glide_ligand_efficiency>
-0.385389755565196

> <r_i_glide_ligand_efficiency_sa>
-1.06326111287939

> <r_i_glide_ligand_efficiency_ln>
-2.00102360451352

> <r_i_glide_gscore>
-8.09318486686912

> <r_i_glide_lipo>
-3.73061748031385

> <r_i_glide_hbond>
-0.186063914555289

> <r_i_glide_metal>
0

> <r_i_glide_rewards>
-2.16380332836595

> <r_i_glide_evdw>
-40.7051010131836

> <r_i_glide_ecoul>
-2.93248701095581

> <r_i_glide_erotb>
0.462427958668519

> <r_i_glide_esite>
0

> <r_i_glide_emodel>
-63.6547544098604

> <r_i_glide_energy>
-43.6375880241394

> <r_i_glide_einternal>
2.86705660820007

> <i_i_glide_confnum>
6

> <i_i_glide_posenum>
153

> <r_i_glide_eff_state_penalty>
0

> <s_user_duplicate_titles>
CHEMBL4439_lig40,211405

> <i_f3d_flags>
0

> <s_m_subgroup_title>
dock_pv

> <s_m_subgroupid>
dock_pv

> <b_m_subgroup_collapsed>
1

$$$$
CHEMBL4439_lig763
                    3D
 Schrodinger Suite 2021-1.
 39 42  0  0  1  0            999 V2000
   18.1616   69.0899    1.0756 C   0  0  0  0  0  0
   18.4524   69.6578    2.4732 C   0  0  0  0  0  0
   17.8053   68.8554    3.5843 C   0  0  0  0  0  0
   16.6677   68.0564    3.5522 C   0  0  0  0  0  0
   16.5086   67.5037    4.8112 C   0  0  0  0  0  0
   15.4502   66.5492    5.1471 C   0  0  0  0  0  0
   15.1731   65.3967    4.4331 C   0  0  0  0  0  0
   13.9395   64.7921    4.7845 C   0  0  0  0  0  0
   13.2852   63.6659    4.2569 C   0  0  0  0  0  0
   12.0664   63.2595    4.6866 N   0  0  0  0  0  0
   11.4593   63.9651    5.6698 C   0  0  0  0  0  0
   12.0142   65.0873    6.2861 C   0  0  0  0  0  0
   13.2806   65.4936    5.8333 C   0  0  0  0  0  0
   14.2453   66.8570    6.3830 S   0  0  0  0  0  0
   17.5664   68.0267    5.5540 N   0  0  0  0  0  0
   18.3249   68.8449    4.7877 N   0  0  0  0  0  0
   17.9716   67.7943    6.9056 C   0  0  0  0  0  0
   19.2897   68.0566    7.3276 C   0  0  0  0  0  0
   19.6500   67.7897    8.6500 C   0  0  0  0  0  0
   18.7019   67.2692    9.5309 C   0  0  0  0  0  0
   17.4119   67.0349    9.0523 C   0  0  0  0  0  0
   16.3293   66.4694    9.9498 C   0  0  0  0  0  0
   17.0511   67.2800    7.7660 N   0  0  0  0  0  0
   18.6907   69.6564    0.3114 H   0  0  0  0  0  0
   18.4843   68.0514    0.9968 H   0  0  0  0  0  0
   17.0967   69.1270    0.8437 H   0  0  0  0  0  0
   18.1053   70.6913    2.5088 H   0  0  0  0  0  0
   19.5345   69.6942    2.6104 H   0  0  0  0  0  0
   16.0340   67.8798    2.6954 H   0  0  0  0  0  0
   15.7958   65.0300    3.6321 H   0  0  0  0  0  0
   13.7210   63.0964    3.4499 H   0  0  0  0  0  0
   10.4873   63.6050    5.9758 H   0  0  0  0  0  0
   11.4871   65.6135    7.0707 H   0  0  0  0  0  0
   20.0338   68.4507    6.6500 H   0  0  0  0  0  0
   20.6574   67.9851    8.9881 H   0  0  0  0  0  0
   18.9678   67.0538   10.5559 H   0  0  0  0  0  0
   16.4997   66.7400   10.9926 H   0  0  0  0  0  0
   15.3489   66.8526    9.6659 H   0  0  0  0  0  0
   16.3109   65.3825    9.8730 H   0  0  0  0  0  0
  1  2  1  0  0  0
  1 24  1  0  0  0
  1 25  1  0  0  0
  1 26  1  0  0  0
  2  3  1  0  0  0
  2 27  1  0  0  0
  2 28  1  0  0  0
  3  4  1  0  0  0
  3 16  2  0  0  0
  4  5  2  0  0  0
  4 29  1  0  0  0
  5  6  1  0  0  0
  5 15  1  0  0  0
  6  7  2  0  0  0
  6 14  1  0  0  0
  7  8  1  0  0  0
  7 30  1  0  0  0
  8  9  2  0  0  0
  8 13  1  0  0  0
  9 10  1  0  0  0
  9 31  1  0  0  0
 10 11  2  0  0  0
 11 12  1  0  0  0
 11 32  1  0  0  0
 12 13  2  0  0  0
 12 33  1  0  0  0
 13 14  1  0  0  0
 15 16  1  0  0  0
 15 17  1  0  0  0
 17 18  2  0  0  0
 17 23  1  0  0  0
 18 19  1  0  0  0
 18 34  1  0  0  0
 19 20  2  0  0  0
 19 35  1  0  0  0
 20 21  1  0  0  0
 20 36  1  0  0  0
 21 22  1  0  0  0
 21 23  2  0  0  0
 22 37  1  0  0  0
 22 38  1  0  0  0
 22 39  1  0  0  0
M  END
> <s_m_entry_id>
34528

> <s_m_entry_name>
dock_pv.271

> <s_m_Source_Path>
/home/csk/Desktop/cluster/DUD-E-result/tgfr1

> <s_m_Source_File>
dock_pv.maegz

> <i_m_Source_File_Index>
271

> <chembl_id>
CHEMBL3704650

> <chembl_pref_name>
None

> <i_lp_mmshare_version>
53161

> <r_lp_tautomer_probability>
1

> <s_lp_Force_Field>
OPLS_2005

> <r_lp_Energy>
9.48203

> <b_lp_Chiralities_Consistent>
1

> <s_lp_Variant>
CHEMBL4439_lig763-1

> <s_i_glide_gridfile>
glide-grid_3hmm

> <i_i_glide_lignum>
1077

> <i_i_glide_rotatable_bonds>
3

> <r_i_docking_score>
-8.09062248497678

> <r_i_glide_ligand_efficiency>
-0.351766194998991

> <r_i_glide_ligand_efficiency_sa>
-1.0003762655401

> <r_i_glide_ligand_efficiency_ln>
-1.95638587857606

> <r_i_glide_gscore>
-8.09062248497678

> <r_i_glide_lipo>
-4.04095772588089

> <r_i_glide_hbond>
0

> <r_i_glide_metal>
0

> <r_i_glide_rewards>
-2.04542049426724

> <r_i_glide_evdw>
-46.6103401184082

> <r_i_glide_ecoul>
-0.2498939037323

> <r_i_glide_erotb>
0.363756826651598

> <r_i_glide_esite>
0

> <r_i_glide_emodel>
-67.4102265847104

> <r_i_glide_energy>
-46.8602340221405

> <r_i_glide_einternal>
1.1507785320282

> <i_i_glide_confnum>
4

> <i_i_glide_posenum>
67

> <r_i_glide_eff_state_penalty>
0

> <s_user_duplicate_titles>
CHEMBL4439_lig763

> <i_f3d_flags>
0

> <s_m_subgroup_title>
dock_pv

> <s_m_subgroupid>
dock_pv

> <b_m_subgroup_collapsed>
1

$$$$
CHEMBL4439_lig51
                    3D
 Schrodinger Suite 2021-1.
 34 37  0  0  1  0            999 V2000
   15.5684   67.3344    6.2284 C   0  0  0  0  0  0
   14.5377   66.3629    6.4168 C   0  0  0  0  0  0
   14.0236   66.4575    7.6314 N   0  0  0  0  0  0
   16.4357   67.6703    5.0529 C   0  0  0  0  0  0
   17.8516   68.5630    2.7642 N   0  0  0  0  0  0
   16.5599   68.1721    2.7007 C   0  0  0  0  0  0
   15.8372   67.7096    3.7923 C   0  0  0  0  0  0
   15.5870   68.0420    7.4214 C   0  0  0  0  0  0
   14.6665   67.4551    8.2270 N   0  0  0  0  0  0
   18.4783   68.5110    3.9697 C   0  0  0  0  0  0
   17.8146   68.0681    5.1599 C   0  0  0  0  0  0
   18.5648   68.0563    6.3726 C   0  0  0  0  0  0
   19.8963   68.4628    6.3955 C   0  0  0  0  0  0
   20.5243   68.8946    5.2346 C   0  0  0  0  0  0
   19.8311   68.9242    4.0297 C   0  0  0  0  0  0
   13.9901   65.3119    5.4818 C   0  0  0  0  0  0
   14.7810   64.7537    4.4707 C   0  0  0  0  0  0
   14.2670   63.7652    3.6326 C   0  0  0  0  0  0
   12.9673   63.3035    3.8167 C   0  0  0  0  0  0
   12.1629   63.8506    4.8119 C   0  0  0  0  0  0
   12.6692   64.8568    5.6313 C   0  0  0  0  0  0
   16.0844   68.2570    1.7341 H   0  0  0  0  0  0
   14.7958   67.4495    3.6661 H   0  0  0  0  0  0
   16.1627   68.8926    7.7591 H   0  0  0  0  0  0
   14.4483   67.7512    9.1677 H   0  0  0  0  0  0
   18.1187   67.6974    7.2861 H   0  0  0  0  0  0
   20.4521   68.4350    7.3215 H   0  0  0  0  0  0
   21.5618   69.1976    5.2671 H   0  0  0  0  0  0
   20.3259   69.2577    3.1286 H   0  0  0  0  0  0
   15.8042   65.0700    4.3369 H   0  0  0  0  0  0
   14.8829   63.3427    2.8548 H   0  0  0  0  0  0
   12.5773   62.5296    3.1717 H   0  0  0  0  0  0
   11.1489   63.5025    4.9438 H   0  0  0  0  0  0
   12.0264   65.2721    6.3945 H   0  0  0  0  0  0
  1  4  1  0  0  0
  1  8  2  0  0  0
  1  2  1  0  0  0
  2  3  2  0  0  0
  2 16  1  0  0  0
  3  9  1  0  0  0
  4 11  2  0  0  0
  4  7  1  0  0  0
  5 10  2  0  0  0
  5  6  1  0  0  0
  6  7  2  0  0  0
  6 22  1  0  0  0
  7 23  1  0  0  0
  8  9  1  0  0  0
  8 24  1  0  0  0
  9 25  1  0  0  0
 10 11  1  0  0  0
 10 15  1  0  0  0
 11 12  1  0  0  0
 12 13  2  0  0  0
 12 26  1  0  0  0
 13 14  1  0  0  0
 13 27  1  0  0  0
 14 15  2  0  0  0
 14 28  1  0  0  0
 15 29  1  0  0  0
 16 17  2  0  0  0
 16 21  1  0  0  0
 17 18  1  0  0  0
 17 30  1  0  0  0
 18 19  2  0  0  0
 18 31  1  0  0  0
 19 20  1  0  0  0
 19 32  1  0  0  0
 20 21  2  0  0  0
 20 33  1  0  0  0
 21 34  1  0  0  0
M  END
> <s_m_entry_id>
34529

> <s_m_entry_name>
dock_pv.272

> <s_m_Source_Path>
/home/csk/Desktop/cluster/DUD-E-result/tgfr1

> <s_m_Source_File>
dock_pv.maegz

> <i_m_Source_File_Index>
272

> <chembl_id>
CHEMBL126676

> <chembl_pref_name>
None

> <i_lp_mmshare_version>
53161

> <r_lp_tautomer_probability>
0.5

> <s_lp_Force_Field>
OPLS_2005

> <r_lp_Energy>
22.269124

> <b_lp_Chiralities_Consistent>
1

> <s_lp_Variant>
CHEMBL4439_lig51-1

> <s_i_glide_gridfile>
glide-grid_3hmm

> <i_i_glide_lignum>
73

> <i_i_glide_rotatable_bonds>
2

> <r_i_docking_score>
-8.08874644900235

> <r_i_glide_ligand_efficiency>
-0.385178402333445

> <r_i_glide_ligand_efficiency_sa>
-1.06267800533915

> <r_i_glide_ligand_efficiency_ln>
-1.99992621466463

> <r_i_glide_gscore>
-8.08874644900235

> <r_i_glide_lipo>
-4.4721531879751

> <r_i_glide_hbond>
-0.0569866069169905

> <r_i_glide_metal>
0

> <r_i_glide_rewards>
-1.91451851090656

> <r_i_glide_evdw>
-41.1544151306152

> <r_i_glide_ecoul>
-0.491660624742508

> <r_i_glide_erotb>
0.48638170703843

> <r_i_glide_esite>
0

> <r_i_glide_emodel>
-61.6667962633081

> <r_i_glide_energy>
-41.6460757553577

> <r_i_glide_einternal>
0.678520143032074

> <i_i_glide_confnum>
9

> <i_i_glide_posenum>
335

> <r_i_glide_eff_state_penalty>
0

> <s_user_duplicate_titles>
CHEMBL4439_lig51,CHEMBL4439_lig51,211867

> <i_f3d_flags>
0

> <s_m_subgroup_title>
dock_pv

> <s_m_subgroupid>
dock_pv

> <b_m_subgroup_collapsed>
1

$$$$
CHEMBL4439_lig252
                    3D
 Schrodinger Suite 2021-1.
 36 39  0  0  1  0            999 V2000
   12.5593   63.3800    3.6848 N   0  0  0  0  0  0
   11.2573   63.2573    4.0325 C   0  0  0  0  0  0
   10.6904   63.8615    5.1524 C   0  0  0  0  0  0
   11.4906   64.6618    5.9653 C   0  0  0  0  0  0
   13.3375   64.2061    4.4337 C   0  0  0  0  0  0
   12.8476   64.8652    5.6054 C   0  0  0  0  0  0
   13.6375   65.6887    6.3515 N   0  0  0  0  0  0
   14.9024   65.9525    5.9160 C   0  0  0  0  0  0
   15.4239   65.3822    4.7585 C   0  0  0  0  0  0
   14.6640   64.4715    4.0294 C   0  0  0  0  0  0
   15.7507   66.8485    6.7746 C   0  0  0  0  0  0
   15.4665   66.8585    8.5048 S   0  0  0  0  0  0
   16.7374   67.9936    8.6749 C   0  0  0  0  0  0
   17.3121   68.3449    7.5613 N   0  0  0  0  0  0
   16.8306   67.7295    6.4877 C   0  0  0  0  0  0
   17.0757   68.4580    9.9101 N   0  0  0  0  0  0
   17.4344   68.0924    5.1444 C   0  0  0  0  0  0
   18.7849   68.4562    4.9294 C   0  0  0  0  0  0
   19.1749   68.8516    3.6423 C   0  0  0  0  0  0
   18.2491   68.8565    2.5993 C   0  0  0  0  0  0
   16.9444   68.4581    2.8756 C   0  0  0  0  0  0
   16.5376   68.1020    4.1195 N   0  0  0  0  0  0
   19.8514   68.3744    6.0143 C   0  0  0  0  0  0
   10.6541   62.6588    3.3637 H   0  0  0  0  0  0
    9.6446   63.7169    5.3850 H   0  0  0  0  0  0
   11.0702   65.1539    6.8344 H   0  0  0  0  0  0
   16.4103   65.6566    4.4247 H   0  0  0  0  0  0
   15.0477   64.0085    3.1303 H   0  0  0  0  0  0
   17.7958   69.1626   10.0315 H   0  0  0  0  0  0
   16.5866   68.1599   10.7438 H   0  0  0  0  0  0
   20.1993   69.1363    3.4454 H   0  0  0  0  0  0
   18.5474   69.1454    1.6014 H   0  0  0  0  0  0
   16.1924   68.4453    2.1000 H   0  0  0  0  0  0
   19.7267   67.4650    6.6032 H   0  0  0  0  0  0
   20.8571   68.3282    5.5928 H   0  0  0  0  0  0
   19.7876   69.2336    6.6853 H   0  0  0  0  0  0
  1  2  2  0  0  0
  1  5  1  0  0  0
  2  3  1  0  0  0
  2 24  1  0  0  0
  3  4  2  0  0  0
  3 25  1  0  0  0
  4  6  1  0  0  0
  4 26  1  0  0  0
  5  6  2  0  0  0
  5 10  1  0  0  0
  6  7  1  0  0  0
  7  8  2  0  0  0
  8 11  1  0  0  0
  8  9  1  0  0  0
  9 10  2  0  0  0
  9 27  1  0  0  0
 10 28  1  0  0  0
 11 12  1  0  0  0
 11 15  2  0  0  0
 12 13  1  0  0  0
 13 14  2  0  0  0
 13 16  1  0  0  0
 14 15  1  0  0  0
 15 17  1  0  0  0
 16 29  1  0  0  0
 16 30  1  0  0  0
 17 18  2  0  0  0
 17 22  1  0  0  0
 18 19  1  0  0  0
 18 23  1  0  0  0
 19 20  2  0  0  0
 19 31  1  0  0  0
 20 21  1  0  0  0
 20 32  1  0  0  0
 21 22  2  0  0  0
 21 33  1  0  0  0
 23 34  1  0  0  0
 23 35  1  0  0  0
 23 36  1  0  0  0
M  END
> <s_m_entry_id>
34531

> <s_m_entry_name>
dock_pv.274

> <s_m_Source_Path>
/home/csk/Desktop/cluster/DUD-E-result/tgfr1

> <s_m_Source_File>
dock_pv.maegz

> <i_m_Source_File_Index>
274

> <chembl_id>
CHEMBL576062

> <chembl_pref_name>
None

> <i_lp_mmshare_version>
53161

> <r_lp_tautomer_probability>
1

> <s_lp_Force_Field>
OPLS_2005

> <r_lp_Energy>
21.535139

> <b_lp_Chiralities_Consistent>
1

> <s_lp_Variant>
CHEMBL4439_lig252-1

> <s_i_glide_gridfile>
glide-grid_3hmm

> <i_i_glide_lignum>
358

> <i_i_glide_rotatable_bonds>
2

> <r_i_docking_score>
-8.07845286464488

> <r_i_glide_ligand_efficiency>
-0.351237081071516

> <r_i_glide_ligand_efficiency_sa>
-0.998871535914748

> <r_i_glide_ligand_efficiency_ln>
-1.95344315403179

> <r_i_glide_gscore>
-8.07845286464488

> <r_i_glide_lipo>
-4.02117027751937

> <r_i_glide_hbond>
-0.204020258562798

> <r_i_glide_metal>
0

> <r_i_glide_rewards>
-1.62172562698021

> <r_i_glide_evdw>
-46.7734069824219

> <r_i_glide_ecoul>
-1.7245876789093

> <r_i_glide_erotb>
0.365821799374981

> <r_i_glide_esite>
0

> <r_i_glide_emodel>
-72.094654917345

> <r_i_glide_energy>
-48.4979946613312

> <r_i_glide_einternal>
0.70405900478363

> <i_i_glide_confnum>
4

> <i_i_glide_posenum>
23

> <r_i_glide_eff_state_penalty>
0

> <s_user_duplicate_titles>
CHEMBL4439_lig252,582038

> <i_f3d_flags>
0

> <s_m_subgroup_title>
dock_pv

> <s_m_subgroupid>
dock_pv

> <b_m_subgroup_collapsed>
1

$$$$
CHEMBL4439_lig60
                    3D
 Schrodinger Suite 2021-1.
 35 38  0  0  1  0            999 V2000
   15.1017   66.2058    6.6901 C   0  0  0  0  0  0
   15.0680   66.0684    8.0115 N   0  0  0  0  0  0
   16.1322   67.0898    6.2780 C   0  0  0  0  0  0
   16.7082   67.4654    7.4732 N   0  0  0  0  0  0
   16.0674   66.7720    8.4512 C   0  0  0  0  0  0
   14.1213   65.4202    5.8790 C   0  0  0  0  0  0
   16.5626   67.6054    4.9329 C   0  0  0  0  0  0
   14.6165   64.8282    4.7593 N   0  0  0  0  0  0
   15.6332   67.6578    3.8896 C   0  0  0  0  0  0
   17.8687   68.0572    4.6972 C   0  0  0  0  0  0
   17.8191   68.2412    7.9904 C   0  0  0  0  0  0
   16.6253   67.1408    9.8006 C   0  0  0  0  0  0
   17.2878   68.6298    2.4320 C   0  0  0  0  0  0
   18.2315   68.5650    3.4515 C   0  0  0  0  0  0
   15.9894   68.1818    2.6506 C   0  0  0  0  0  0
   17.6315   69.1298    1.2234 F   0  0  0  0  0  0
   17.3497   68.4419    9.4381 C   0  0  0  0  0  0
   13.7852   64.0381    4.0329 C   0  0  0  0  0  0
   12.7872   65.2574    6.2812 C   0  0  0  0  0  0
   12.4536   63.8081    4.3860 C   0  0  0  0  0  0
   11.9473   64.4417    5.5208 C   0  0  0  0  0  0
   14.6138   67.3405    4.0394 H   0  0  0  0  0  0
   18.6210   68.0069    5.4677 H   0  0  0  0  0  0
   18.7245   67.6338    7.9935 H   0  0  0  0  0  0
   17.9882   69.1623    7.4318 H   0  0  0  0  0  0
   15.8690   67.2896   10.5729 H   0  0  0  0  0  0
   17.3290   66.3906   10.1650 H   0  0  0  0  0  0
   19.2402   68.9086    3.2757 H   0  0  0  0  0  0
   15.2586   68.2415    1.8570 H   0  0  0  0  0  0
   18.1710   68.6715   10.1188 H   0  0  0  0  0  0
   16.6455   69.2710    9.4942 H   0  0  0  0  0  0
   14.2038   63.5846    3.1456 H   0  0  0  0  0  0
   12.4081   65.7402    7.1703 H   0  0  0  0  0  0
   11.8240   63.1739    3.7785 H   0  0  0  0  0  0
   10.9188   64.2964    5.8162 H   0  0  0  0  0  0
  1  2  1  0  0  0
  1  3  2  0  0  0
  1  6  1  0  0  0
  2  5  2  0  0  0
  3  4  1  0  0  0
  3  7  1  0  0  0
  4 11  1  0  0  0
  4  5  1  0  0  0
  5 12  1  0  0  0
  6  8  1  0  0  0
  6 19  2  0  0  0
  7  9  1  0  0  0
  7 10  2  0  0  0
  8 18  2  0  0  0
  9 15  2  0  0  0
  9 22  1  0  0  0
 10 14  1  0  0  0
 10 23  1  0  0  0
 11 17  1  0  0  0
 11 24  1  0  0  0
 11 25  1  0  0  0
 12 17  1  0  0  0
 12 26  1  0  0  0
 12 27  1  0  0  0
 13 14  2  0  0  0
 13 16  1  0  0  0
 13 15  1  0  0  0
 14 28  1  0  0  0
 15 29  1  0  0  0
 17 30  1  0  0  0
 17 31  1  0  0  0
 18 20  1  0  0  0
 18 32  1  0  0  0
 19 21  1  0  0  0
 19 33  1  0  0  0
 20 21  2  0  0  0
 20 34  1  0  0  0
 21 35  1  0  0  0
M  END
> <s_m_entry_id>
34532

> <s_m_entry_name>
dock_pv.275

> <s_m_Source_Path>
/home/csk/Desktop/cluster/DUD-E-result/tgfr1

> <s_m_Source_File>
dock_pv.maegz

> <i_m_Source_File_Index>
275

> <chembl_id>
CHEMBL6304

> <chembl_pref_name>
None

> <i_lp_mmshare_version>
53161

> <r_lp_tautomer_probability>
1

> <s_lp_Force_Field>
OPLS_2005

> <r_lp_Energy>
34.877587

> <b_lp_Chiralities_Consistent>
1

> <s_lp_Variant>
CHEMBL4439_lig60-1

> <s_i_glide_gridfile>
glide-grid_3hmm

> <i_i_glide_lignum>
90

> <i_i_glide_rotatable_bonds>
2

> <r_i_docking_score>
-8.07499629351677

> <r_i_glide_ligand_efficiency>
-0.384523633024608

> <r_i_glide_ligand_efficiency_sa>
-1.06087154646488

> <r_i_glide_ligand_efficiency_ln>
-1.99652651650562

> <r_i_glide_gscore>
-8.07499629351677

> <r_i_glide_lipo>
-3.59885603112692

> <r_i_glide_hbond>
-0.159792113807079

> <r_i_glide_metal>
0

> <r_i_glide_rewards>
-2.47912956073357

> <r_i_glide_evdw>
-39.427001953125

> <r_i_glide_ecoul>
-2.18911862373352

> <r_i_glide_erotb>
0.462499303367077

> <r_i_glide_esite>
0

> <r_i_glide_emodel>
-60.8534778404759

> <r_i_glide_energy>
-41.6161205768585

> <r_i_glide_einternal>
3.61486554145813

> <i_i_glide_confnum>
5

> <i_i_glide_posenum>
396

> <r_i_glide_eff_state_penalty>
0

> <s_user_duplicate_titles>
CHEMBL4439_lig60

> <i_f3d_flags>
0

> <s_m_subgroup_title>
dock_pv

> <s_m_subgroupid>
dock_pv

> <b_m_subgroup_collapsed>
1

$$$$
CHEMBL4439_lig153
                    3D
 Schrodinger Suite 2021-1.
 40 43  0  0  1  0            999 V2000
   16.1207   68.0497    3.4199 O   0  0  0  0  0  0
   16.7881   67.7712    4.4198 C   0  0  0  0  0  0
   16.4355   66.8257    5.3124 N   0  0  0  0  0  0
   15.2708   66.0807    5.2509 C   0  0  0  0  0  0
   15.0668   64.8662    4.0320 S   0  0  0  0  0  0
   13.4806   64.5061    4.6047 C   0  0  0  0  0  0
   12.5879   63.4538    3.9622 C   0  0  0  0  0  0
   11.1427   63.6663    4.4562 C   0  0  0  0  0  0
   11.0977   63.8069    5.9806 C   0  0  0  0  0  0
   11.8026   65.1120    6.4319 C   0  0  0  0  0  0
   13.1562   65.2573    5.7422 C   0  0  0  0  0  0
   14.2364   66.0547    6.1775 C   0  0  0  0  0  0
   14.2952   66.7946    7.4262 C   0  0  0  0  0  0
   14.3665   67.3708    8.4216 N   0  0  0  0  0  0
   18.1295   68.4414    4.6651 C   0  0  0  0  0  0
   18.8880   68.7695    3.5347 C   0  0  0  0  0  0
   20.1818   69.2570    3.6329 C   0  0  0  0  0  0
   20.7682   69.4566    4.8711 C   0  0  0  0  0  0
   20.0405   69.2046    6.0542 C   0  0  0  0  0  0
   20.6361   69.4526    7.3162 C   0  0  0  0  0  0
   19.9158   69.2552    8.4864 C   0  0  0  0  0  0
   18.6016   68.8169    8.4342 C   0  0  0  0  0  0
   17.9939   68.5445    7.2135 C   0  0  0  0  0  0
   18.6947   68.7081    5.9747 C   0  0  0  0  0  0
   16.9606   66.7939    6.1725 H   0  0  0  0  0  0
   12.9281   62.4561    4.2388 H   0  0  0  0  0  0
   12.6258   63.5067    2.8734 H   0  0  0  0  0  0
   10.5022   62.8581    4.1094 H   0  0  0  0  0  0
   10.7253   64.5784    4.0309 H   0  0  0  0  0  0
   11.5705   62.9360    6.4318 H   0  0  0  0  0  0
   10.0657   63.7842    6.3272 H   0  0  0  0  0  0
   11.1748   65.9672    6.1764 H   0  0  0  0  0  0
   11.9050   65.1518    7.5131 H   0  0  0  0  0  0
   18.4909   68.6018    2.5423 H   0  0  0  0  0  0
   20.7432   69.4717    2.7355 H   0  0  0  0  0  0
   21.7845   69.8212    4.9338 H   0  0  0  0  0  0
   21.6543   69.8132    7.3651 H   0  0  0  0  0  0
   20.3714   69.4669    9.4429 H   0  0  0  0  0  0
   18.0423   68.7034    9.3524 H   0  0  0  0  0  0
   16.9552   68.2596    7.2356 H   0  0  0  0  0  0
  1  2  2  0  0  0
  2  3  1  0  0  0
  2 15  1  0  0  0
  3  4  1  0  0  0
  3 25  1  0  0  0
  4  5  1  0  0  0
  4 12  2  0  0  0
  5  6  1  0  0  0
  6  7  1  0  0  0
  6 11  2  0  0  0
  7  8  1  0  0  0
  7 26  1  0  0  0
  7 27  1  0  0  0
  8  9  1  0  0  0
  8 28  1  0  0  0
  8 29  1  0  0  0
  9 10  1  0  0  0
  9 30  1  0  0  0
  9 31  1  0  0  0
 10 11  1  0  0  0
 10 32  1  0  0  0
 10 33  1  0  0  0
 11 12  1  0  0  0
 12 13  1  0  0  0
 13 14  3  0  0  0
 15 16  1  0  0  0
 15 24  2  0  0  0
 16 17  2  0  0  0
 16 34  1  0  0  0
 17 18  1  0  0  0
 17 35  1  0  0  0
 18 19  2  0  0  0
 18 36  1  0  0  0
 19 20  1  0  0  0
 19 24  1  0  0  0
 20 21  2  0  0  0
 20 37  1  0  0  0
 21 22  1  0  0  0
 21 38  1  0  0  0
 22 23  2  0  0  0
 22 39  1  0  0  0
 23 24  1  0  0  0
 23 40  1  0  0  0
M  END
> <s_m_entry_id>
34533

> <s_m_entry_name>
dock_pv.276

> <s_m_Source_Path>
/home/csk/Desktop/cluster/DUD-E-result/tgfr1

> <s_m_Source_File>
dock_pv.maegz

> <i_m_Source_File_Index>
276

> <chembl_id>
CHEMBL233001

> <chembl_pref_name>
GW620972X

> <i_lp_mmshare_version>
53161

> <r_lp_tautomer_probability>
1

> <s_lp_Force_Field>
OPLS_2005

> <r_lp_Energy>
27.541702

> <b_lp_Chiralities_Consistent>
1

> <s_lp_Variant>
CHEMBL4439_lig153-1

> <s_i_glide_gridfile>
glide-grid_3hmm

> <i_i_glide_lignum>
241

> <i_i_glide_rotatable_bonds>
3

> <r_i_docking_score>
-8.05916641486233

> <r_i_glide_ligand_efficiency>
-0.335798600619264

> <r_i_glide_ligand_efficiency_sa>
-0.968610773879825

> <r_i_glide_ligand_efficiency_ln>
-1.92892833412612

> <r_i_glide_gscore>
-8.05916641486233

> <r_i_glide_lipo>
-3.7547322526409

> <r_i_glide_hbond>
0

> <r_i_glide_metal>
0

> <r_i_glide_rewards>
-2.40306416777577

> <r_i_glide_evdw>
-43.2395057678223

> <r_i_glide_ecoul>
-1.6714471578598

> <r_i_glide_erotb>
0.511322367624427

> <r_i_glide_esite>
0

> <r_i_glide_emodel>
-59.2808159506963

> <r_i_glide_energy>
-44.9109529256821

> <r_i_glide_einternal>
7.95198154449463

> <i_i_glide_confnum>
18

> <i_i_glide_posenum>
224

> <r_i_glide_eff_state_penalty>
0

> <s_user_duplicate_titles>
CHEMBL4439_lig153

> <i_f3d_flags>
0

> <s_m_subgroup_title>
dock_pv

> <s_m_subgroupid>
dock_pv

> <b_m_subgroup_collapsed>
1

$$$$
CHEMBL4439_lig643
                    3D
 Schrodinger Suite 2021-1.
 48 52  0  0  1  0            999 V2000
   16.7257   67.9260    4.3375 C   0  0  0  0  0  0
   17.1034   68.0567    5.6848 C   0  0  0  0  0  0
   18.3344   68.6701    5.9692 C   0  0  0  0  0  0
   19.1851   69.1427    4.9642 C   0  0  0  0  0  0
   17.5426   68.4301    3.3651 N   0  0  0  0  0  0
   18.7675   69.0353    3.6311 C   0  0  0  0  0  0
   19.3119   69.4280    2.4591 N   0  0  0  0  0  0
   18.3954   69.0562    1.5884 C   0  0  0  0  0  0
   17.3106   68.4561    2.0367 N   0  0  0  0  0  0
   16.1514   67.6050    6.7602 C   0  0  0  0  0  0
   16.1958   67.3596    8.1594 C   0  0  0  0  0  0
   15.0436   66.8575    8.5790 N   0  0  0  0  0  0
   14.2362   66.8278    7.5617 C   0  0  0  0  0  0
   14.8351   67.3472    6.4569 N   0  0  0  0  0  0
   17.2548   67.5381    9.2105 C   0  0  0  0  0  0
   16.9129   67.8490   10.5373 C   0  0  0  0  0  0
   17.9255   68.0533   11.4744 C   0  0  0  0  0  0
   19.2568   67.9414   11.0758 C   0  0  0  0  0  0
   19.5229   67.6002    9.7483 C   0  0  0  0  0  0
   18.5468   67.3819    8.8313 N   0  0  0  0  0  0
   20.9386   67.4570    9.2360 C   0  0  0  0  0  0
   12.8404   66.2483    7.6544 C   0  0  0  0  0  0
   12.0440   66.0611    6.4657 N   0  0  0  0  0  0
   12.3272   65.0708    5.5356 C   0  0  0  0  0  0
   11.2297   64.4566    4.9576 C   0  0  0  0  0  0
   11.4136   63.5324    3.9471 C   0  0  0  0  0  0
   12.6934   63.2434    3.4693 C   0  0  0  0  0  0
   13.7938   63.8717    4.0473 C   0  0  0  0  0  0
   13.6152   64.7357    5.1160 C   0  0  0  0  0  0
   10.0131   62.8571    3.2322 Cl  0  0  0  0  0  0
   15.3856   63.6568    3.4424 Cl  0  0  0  0  0  0
   15.8052   67.4831    3.9910 H   0  0  0  0  0  0
   18.6342   68.8580    6.9836 H   0  0  0  0  0  0
   20.1256   69.6148    5.2067 H   0  0  0  0  0  0
   18.5466   69.2337    0.5330 H   0  0  0  0  0  0
   14.4048   67.4282    5.5479 H   0  0  0  0  0  0
   15.8811   67.9566   10.8404 H   0  0  0  0  0  0
   17.6775   68.3038   12.4952 H   0  0  0  0  0  0
   20.0591   68.1024   11.7804 H   0  0  0  0  0  0
   21.6764   67.6100   10.0236 H   0  0  0  0  0  0
   21.0626   66.4577    8.8305 H   0  0  0  0  0  0
   21.1324   68.1749    8.4392 H   0  0  0  0  0  0
   12.2671   66.8536    8.3413 H   0  0  0  0  0  0
   12.8457   65.2548    8.0320 H   0  0  0  0  0  0
   11.0535   66.2302    6.6033 H   0  0  0  0  0  0
   10.2260   64.7089    5.2695 H   0  0  0  0  0  0
   12.8271   62.5701    2.6348 H   0  0  0  0  0  0
   14.4978   65.1586    5.5515 H   0  0  0  0  0  0
  1  5  1  0  0  0
  1  2  2  0  0  0
  1 32  1  0  0  0
  2  3  1  0  0  0
  2 10  1  0  0  0
  3  4  2  0  0  0
  3 33  1  0  0  0
  4  6  1  0  0  0
  4 34  1  0  0  0
  5  6  1  0  0  0
  5  9  1  0  0  0
  6  7  2  0  0  0
  7  8  1  0  0  0
  8  9  2  0  0  0
  8 35  1  0  0  0
 10 11  2  0  0  0
 10 14  1  0  0  0
 11 15  1  0  0  0
 11 12  1  0  0  0
 12 13  2  0  0  0
 13 14  1  0  0  0
 13 22  1  0  0  0
 14 36  1  0  0  0
 15 16  2  0  0  0
 15 20  1  0  0  0
 16 17  1  0  0  0
 16 37  1  0  0  0
 17 18  2  0  0  0
 17 38  1  0  0  0
 18 19  1  0  0  0
 18 39  1  0  0  0
 19 20  2  0  0  0
 19 21  1  0  0  0
 21 40  1  0  0  0
 21 41  1  0  0  0
 21 42  1  0  0  0
 22 23  1  0  0  0
 22 43  1  0  0  0
 22 44  1  0  0  0
 23 24  1  0  0  0
 23 45  1  0  0  0
 24 25  2  0  0  0
 24 29  1  0  0  0
 25 26  1  0  0  0
 25 46  1  0  0  0
 26 27  2  0  0  0
 26 30  1  0  0  0
 27 28  1  0  0  0
 27 47  1  0  0  0
 28 29  2  0  0  0
 28 31  1  0  0  0
 29 48  1  0  0  0
M  END
> <s_m_entry_id>
34534

> <s_m_entry_name>
dock_pv.277

> <s_m_Source_Path>
/home/csk/Desktop/cluster/DUD-E-result/tgfr1

> <s_m_Source_File>
dock_pv.maegz

> <i_m_Source_File_Index>
277

> <chembl_id>
CHEMBL3260624

> <chembl_pref_name>
None

> <i_lp_mmshare_version>
53161

> <r_lp_tautomer_probability>
0.499999999999999

> <s_lp_Force_Field>
OPLS_2005

> <r_lp_Energy>
17.983882

> <b_lp_Chiralities_Consistent>
1

> <s_lp_Variant>
CHEMBL4439_lig643-2

> <s_i_glide_gridfile>
glide-grid_3hmm

> <i_i_glide_lignum>
875

> <i_i_glide_rotatable_bonds>
5

> <r_i_docking_score>
-8.05302704164864

> <r_i_glide_ligand_efficiency>
-0.259775065859633

> <r_i_glide_ligand_efficiency_sa>
-0.816052364931048

> <r_i_glide_ligand_efficiency_ln>
-1.81620439353156

> <r_i_glide_gscore>
-8.05302704164864

> <r_i_glide_lipo>
-3.81329967211092

> <r_i_glide_hbond>
-0.09577863103828

> <r_i_glide_metal>
0

> <r_i_glide_rewards>
-2.25016597731631

> <r_i_glide_evdw>
-50.5880928039551

> <r_i_glide_ecoul>
0.942113637924194

> <r_i_glide_erotb>
0.494304833326002

> <r_i_glide_esite>
0

> <r_i_glide_emodel>
-70.5300662011484

> <r_i_glide_energy>
-49.6459791660309

> <r_i_glide_einternal>
8.07394313812256

> <i_i_glide_confnum>
4

> <i_i_glide_posenum>
57

> <r_i_glide_eff_state_penalty>
0

> <s_user_duplicate_titles>
CHEMBL4439_lig643

> <i_f3d_flags>
0

> <s_m_subgroup_title>
dock_pv

> <s_m_subgroupid>
dock_pv

> <b_m_subgroup_collapsed>
1

$$$$
CHEMBL4439_lig574
                    3D
 Schrodinger Suite 2021-1.
 44 47  0  0  1  0            999 V2000
   12.2671   66.0470    6.8320 S   0  0  0  0  0  0
   13.9433   65.8972    6.4284 C   0  0  0  0  0  0
   14.1947   65.0556    5.4523 N   0  0  0  0  0  0
   13.1022   64.4799    4.9813 C   0  0  0  0  0  0
   11.9199   64.8567    5.6135 C   0  0  0  0  0  0
   13.2800   63.5225    3.8223 C   0  0  0  0  0  0
   14.9686   66.6918    7.0789 C   0  0  0  0  0  0
   16.0599   67.4307    6.6068 C   0  0  0  0  0  0
   16.7613   67.9240    7.6199 N   0  0  0  0  0  0
   16.1959   67.5149    8.7222 C   0  0  0  0  0  0
   15.0490   66.8310    8.4423 N   0  0  0  0  0  0
   16.4950   67.7300    5.2050 C   0  0  0  0  0  0
   15.6140   67.6570    4.1167 C   0  0  0  0  0  0
   15.9923   68.0569    2.8324 C   0  0  0  0  0  0
   17.8075   68.1765    5.0109 C   0  0  0  0  0  0
   18.1923   68.5776    3.7378 C   0  0  0  0  0  0
   17.3032   68.5053    2.6374 C   0  0  0  0  0  0
   17.8315   68.9018    1.4509 N   0  0  0  0  0  0
   19.0668   69.2816    1.6111 C   0  0  0  0  0  0
   19.7157   69.2570    3.2321 S   0  0  0  0  0  0
   16.7663   67.6848   10.1261 C   0  0  0  0  0  0
   18.0166   68.4570   10.1633 N   0  0  0  0  0  0
   19.2344   67.9638    9.7166 C   0  0  0  0  0  0
   20.1621   68.9295    9.8283 O   0  0  0  0  0  0
   19.4415   66.8423    9.2519 O   0  0  0  0  0  0
   21.4785   68.7372    9.3289 C   0  0  0  0  0  0
   22.2655   70.0428    9.4824 C   0  0  0  0  0  0
   10.9082   64.5366    5.4118 H   0  0  0  0  0  0
   12.3242   63.1595    3.4432 H   0  0  0  0  0  0
   13.7884   63.9955    2.9806 H   0  0  0  0  0  0
   13.8658   62.6452    4.0917 H   0  0  0  0  0  0
   14.4088   66.4568    9.1234 H   0  0  0  0  0  0
   14.5922   67.3477    4.2672 H   0  0  0  0  0  0
   15.2889   68.0277    2.0133 H   0  0  0  0  0  0
   18.5085   68.2504    5.8306 H   0  0  0  0  0  0
   19.6709   69.6567    0.7965 H   0  0  0  0  0  0
   16.9409   66.7048   10.5744 H   0  0  0  0  0  0
   16.0407   68.1794   10.7717 H   0  0  0  0  0  0
   17.9881   69.4351   10.4320 H   0  0  0  0  0  0
   21.4443   68.4477    8.2768 H   0  0  0  0  0  0
   21.9711   67.9317    9.8760 H   0  0  0  0  0  0
   23.2790   69.9343    9.0960 H   0  0  0  0  0  0
   22.3372   70.3419   10.5283 H   0  0  0  0  0  0
   21.7902   70.8567    8.9339 H   0  0  0  0  0  0
  1  2  1  0  0  0
  1  5  1  0  0  0
  2  3  2  0  0  0
  2  7  1  0  0  0
  3  4  1  0  0  0
  4  5  2  0  0  0
  4  6  1  0  0  0
  5 28  1  0  0  0
  6 29  1  0  0  0
  6 30  1  0  0  0
  6 31  1  0  0  0
  7  8  2  0  0  0
  7 11  1  0  0  0
  8 12  1  0  0  0
  8  9  1  0  0  0
  9 10  2  0  0  0
 10 11  1  0  0  0
 10 21  1  0  0  0
 11 32  1  0  0  0
 12 13  2  0  0  0
 12 15  1  0  0  0
 13 14  1  0  0  0
 13 33  1  0  0  0
 14 17  2  0  0  0
 14 34  1  0  0  0
 15 16  2  0  0  0
 15 35  1  0  0  0
 16 17  1  0  0  0
 16 20  1  0  0  0
 17 18  1  0  0  0
 18 19  2  0  0  0
 19 20  1  0  0  0
 19 36  1  0  0  0
 21 22  1  0  0  0
 21 37  1  0  0  0
 21 38  1  0  0  0
 22 23  1  0  0  0
 22 39  1  0  0  0
 23 24  1  0  0  0
 23 25  2  0  0  0
 24 26  1  0  0  0
 26 27  1  0  0  0
 26 40  1  0  0  0
 26 41  1  0  0  0
 27 42  1  0  0  0
 27 43  1  0  0  0
 27 44  1  0  0  0
M  END
> <s_m_entry_id>
34535

> <s_m_entry_name>
dock_pv.278

> <s_m_Source_Path>
/home/csk/Desktop/cluster/DUD-E-result/tgfr1

> <s_m_Source_File>
dock_pv.maegz

> <i_m_Source_File_Index>
278

> <chembl_id>
CHEMBL2208016

> <chembl_pref_name>
None

> <i_lp_mmshare_version>
53161

> <r_lp_tautomer_probability>
0.499999999999999

> <s_lp_Force_Field>
OPLS_2005

> <r_lp_Energy>
9.327184

> <b_lp_Chiralities_Consistent>
1

> <s_lp_Variant>
CHEMBL4439_lig574-2

> <s_i_glide_gridfile>
glide-grid_3hmm

> <i_i_glide_lignum>
762

> <i_i_glide_rotatable_bonds>
7

> <r_i_docking_score>
-8.05297979765163

> <r_i_glide_ligand_efficiency>
-0.298258511024134

> <r_i_glide_ligand_efficiency_sa>
-0.894775532089392

> <r_i_glide_ligand_efficiency_ln>
-1.87460093314528

> <r_i_glide_gscore>
-8.05297979765163

> <r_i_glide_lipo>
-3.47042594760222

> <r_i_glide_hbond>
-0.32

> <r_i_glide_metal>
0

> <r_i_glide_rewards>
-2.16710652161364

> <r_i_glide_evdw>
-48.4424896240234

> <r_i_glide_ecoul>
-2.47131061553955

> <r_i_glide_erotb>
0.736683505295602

> <r_i_glide_esite>
-0.0393097601992695

> <r_i_glide_emodel>
-72.0386338405705

> <r_i_glide_energy>
-50.913800239563

> <r_i_glide_einternal>
4.07338809967041

> <i_i_glide_confnum>
20

> <i_i_glide_posenum>
186

> <r_i_glide_eff_state_penalty>
0

> <s_user_duplicate_titles>
CHEMBL4439_lig574,CHEMBL4439_lig574

> <i_f3d_flags>
0

> <s_m_subgroup_title>
dock_pv

> <s_m_subgroupid>
dock_pv

> <b_m_subgroup_collapsed>
1

$$$$
CHEMBL4439_lig52
                    3D
 Schrodinger Suite 2021-1.
 33 36  0  0  1  0            999 V2000
   15.9495   67.4223    6.6247 C   0  0  0  0  0  0
   14.8688   66.5749    7.0007 C   0  0  0  0  0  0
   14.6186   66.6604    8.2948 N   0  0  0  0  0  0
   15.4671   67.5644    8.7703 N   0  0  0  0  0  0
   16.2707   68.0828    7.8051 C   0  0  0  0  0  0
   14.0340   65.6598    6.1552 C   0  0  0  0  0  0
   14.5821   64.8589    5.1451 C   0  0  0  0  0  0
   13.7287   64.0560    4.3853 C   0  0  0  0  0  0
   12.3623   64.0431    4.6668 C   0  0  0  0  0  0
   11.8864   64.8558    5.6946 C   0  0  0  0  0  0
   12.6980   65.6565    6.4324 N   0  0  0  0  0  0
   16.5836   67.6863    5.2880 C   0  0  0  0  0  0
   17.5502   68.4911    2.7451 N   0  0  0  0  0  0
   16.2831   68.0571    2.9213 C   0  0  0  0  0  0
   15.7718   67.6569    4.1495 C   0  0  0  0  0  0
   18.3808   68.5043    3.8224 C   0  0  0  0  0  0
   17.9587   68.0744    5.1220 C   0  0  0  0  0  0
   18.9333   68.0580    6.1641 C   0  0  0  0  0  0
   20.2365   68.4905    5.9343 C   0  0  0  0  0  0
   20.6168   68.9529    4.6820 C   0  0  0  0  0  0
   19.7052   68.9659    3.6321 C   0  0  0  0  0  0
   11.5190   63.2577    3.9596 F   0  0  0  0  0  0
   15.4737   67.8389    9.7434 H   0  0  0  0  0  0
   16.9856   68.8586    8.0390 H   0  0  0  0  0  0
   15.6428   64.8718    4.9426 H   0  0  0  0  0  0
   14.1206   63.4396    3.5891 H   0  0  0  0  0  0
   10.8349   64.8747    5.9404 H   0  0  0  0  0  0
   15.6506   68.0678    2.0448 H   0  0  0  0  0  0
   14.7261   67.3978    4.2147 H   0  0  0  0  0  0
   18.6847   67.6780    7.1412 H   0  0  0  0  0  0
   20.9645   68.4615    6.7325 H   0  0  0  0  0  0
   21.6345   69.2808    4.5208 H   0  0  0  0  0  0
   20.0124   69.3071    2.6537 H   0  0  0  0  0  0
  1  2  1  0  0  0
  1 12  1  0  0  0
  1  5  2  0  0  0
  2  6  1  0  0  0
  2  3  2  0  0  0
  3  4  1  0  0  0
  4  5  1  0  0  0
  4 23  1  0  0  0
  5 24  1  0  0  0
  6 11  1  0  0  0
  6  7  2  0  0  0
  7  8  1  0  0  0
  7 25  1  0  0  0
  8  9  2  0  0  0
  8 26  1  0  0  0
  9 10  1  0  0  0
  9 22  1  0  0  0
 10 11  2  0  0  0
 10 27  1  0  0  0
 12 17  2  0  0  0
 12 15  1  0  0  0
 13 16  2  0  0  0
 13 14  1  0  0  0
 14 15  2  0  0  0
 14 28  1  0  0  0
 15 29  1  0  0  0
 16 17  1  0  0  0
 16 21  1  0  0  0
 17 18  1  0  0  0
 18 19  2  0  0  0
 18 30  1  0  0  0
 19 20  1  0  0  0
 19 31  1  0  0  0
 20 21  2  0  0  0
 20 32  1  0  0  0
 21 33  1  0  0  0
M  END
> <s_m_entry_id>
34536

> <s_m_entry_name>
dock_pv.279

> <s_m_Source_Path>
/home/csk/Desktop/cluster/DUD-E-result/tgfr1

> <s_m_Source_File>
dock_pv.maegz

> <i_m_Source_File_Index>
279

> <chembl_id>
CHEMBL340203

> <chembl_pref_name>
None

> <i_lp_mmshare_version>
53161

> <r_lp_tautomer_probability>
0.5

> <s_lp_Force_Field>
OPLS_2005

> <r_lp_Energy>
21.865703

> <b_lp_Chiralities_Consistent>
1

> <s_lp_Variant>
CHEMBL4439_lig52-1

> <s_i_glide_gridfile>
glide-grid_3hmm

> <i_i_glide_lignum>
75

> <i_i_glide_rotatable_bonds>
2

> <r_i_docking_score>
-8.05054436486622

> <r_i_glide_ligand_efficiency>
-0.365933834766646

> <r_i_glide_ligand_efficiency_sa>
-1.02536099637722

> <r_i_glide_ligand_efficiency_ln>
-1.96784669351392

> <r_i_glide_gscore>
-8.05054436486622

> <r_i_glide_lipo>
-3.93496196029199

> <r_i_glide_hbond>
-0.0957509545146955

> <r_i_glide_metal>
0

> <r_i_glide_rewards>
-2.12898175392962

> <r_i_glide_evdw>
-41.0652122497559

> <r_i_glide_ecoul>
-1.80045366287231

> <r_i_glide_erotb>
0.432478965788729

> <r_i_glide_esite>
0

> <r_i_glide_emodel>
-63.0234660942318

> <r_i_glide_energy>
-42.8656659126282

> <r_i_glide_einternal>
2.04626679420471

> <i_i_glide_confnum>
1

> <i_i_glide_posenum>
338

> <r_i_glide_eff_state_penalty>
0

> <s_user_duplicate_titles>
CHEMBL4439_lig52,CHEMBL4439_lig52,212037

> <i_f3d_flags>
0

> <s_m_subgroup_title>
dock_pv

> <s_m_subgroupid>
dock_pv

> <b_m_subgroup_collapsed>
1

$$$$
CHEMBL4439_lig419
                    3D
 Schrodinger Suite 2021-1.
 37 40  0  0  1  0            999 V2000
   14.8266   66.2504    6.0172 C   0  0  0  0  0  0
   14.8360   66.5168    7.3552 N   0  0  0  0  0  0
   15.8238   67.3265    7.8090 C   0  0  0  0  0  0
   16.7908   67.8986    7.0537 N   0  0  0  0  0  0
   16.7596   67.6570    5.7126 C   0  0  0  0  0  0
   15.7744   66.8265    5.1581 C   0  0  0  0  0  0
   17.8515   68.2644    4.8837 C   0  0  0  0  0  0
   19.1256   68.4882    5.4388 C   0  0  0  0  0  0
   18.6148   69.0916    2.7054 C   0  0  0  0  0  0
   17.6169   68.5858    3.5376 C   0  0  0  0  0  0
   19.9029   69.2570    3.2320 C   0  0  0  0  0  0
   20.1321   68.9697    4.5959 C   0  0  0  0  0  0
   21.4670   69.2570    4.8065 N   0  0  0  0  0  0
   22.0845   69.6570    3.6809 N   0  0  0  0  0  0
   21.1861   69.6570    2.7354 C   0  0  0  0  0  0
   21.4670   70.0570    1.4584 N   0  0  0  0  0  0
   15.8673   67.5814    9.1724 N   0  0  0  0  0  0
   13.7767   65.3106    5.5183 C   0  0  0  0  0  0
   12.5049   65.2570    6.1094 C   0  0  0  0  0  0
   11.5333   64.3814    5.6320 C   0  0  0  0  0  0
   11.8270   63.5442    4.5613 C   0  0  0  0  0  0
   13.0845   63.5703    3.9695 C   0  0  0  0  0  0
   14.0488   64.4570    4.4388 C   0  0  0  0  0  0
   15.7600   66.6135    4.1002 H   0  0  0  0  0  0
   19.3337   68.2551    6.4727 H   0  0  0  0  0  0
   18.4108   69.3189    1.6694 H   0  0  0  0  0  0
   16.6332   68.4432    3.1144 H   0  0  0  0  0  0
   22.0062   69.1281    5.6520 H   0  0  0  0  0  0
   20.7855   70.6072    0.9464 H   0  0  0  0  0  0
   22.4239   70.2750    1.2190 H   0  0  0  0  0  0
   16.5702   68.2201    9.5142 H   0  0  0  0  0  0
   15.1199   67.2570    9.7649 H   0  0  0  0  0  0
   12.2562   65.9043    6.9382 H   0  0  0  0  0  0
   10.5561   64.3528    6.0887 H   0  0  0  0  0  0
   11.0740   62.8689    4.1836 H   0  0  0  0  0  0
   13.3052   62.9196    3.1352 H   0  0  0  0  0  0
   15.0177   64.4605    3.9617 H   0  0  0  0  0  0
  1  6  1  0  0  0
  1  2  2  0  0  0
  1 18  1  0  0  0
  2  3  1  0  0  0
  3  4  2  0  0  0
  3 17  1  0  0  0
  4  5  1  0  0  0
  5  6  2  0  0  0
  5  7  1  0  0  0
  6 24  1  0  0  0
  7  8  2  0  0  0
  7 10  1  0  0  0
  8 12  1  0  0  0
  8 25  1  0  0  0
  9 11  1  0  0  0
  9 10  2  0  0  0
  9 26  1  0  0  0
 10 27  1  0  0  0
 11 12  2  0  0  0
 11 15  1  0  0  0
 12 13  1  0  0  0
 13 14  1  0  0  0
 13 28  1  0  0  0
 14 15  2  0  0  0
 15 16  1  0  0  0
 16 29  1  0  0  0
 16 30  1  0  0  0
 17 31  1  0  0  0
 17 32  1  0  0  0
 18 19  2  0  0  0
 18 23  1  0  0  0
 19 20  1  0  0  0
 19 33  1  0  0  0
 20 21  2  0  0  0
 20 34  1  0  0  0
 21 22  1  0  0  0
 21 35  1  0  0  0
 22 23  2  0  0  0
 22 36  1  0  0  0
 23 37  1  0  0  0
M  END
> <s_m_entry_id>
34537

> <s_m_entry_name>
dock_pv.280

> <s_m_Source_Path>
/home/csk/Desktop/cluster/DUD-E-result/tgfr1

> <s_m_Source_File>
dock_pv.maegz

> <i_m_Source_File_Index>
280

> <chembl_id>
CHEMBL1765758

> <chembl_pref_name>
None

> <i_lp_mmshare_version>
53161

> <r_lp_tautomer_probability>
0.999999987636

> <s_lp_Force_Field>
OPLS_2005

> <r_lp_Energy>
7.991315

> <b_lp_Chiralities_Consistent>
1

> <s_lp_Variant>
CHEMBL4439_lig419-1

> <s_i_glide_gridfile>
glide-grid_3hmm

> <i_i_glide_lignum>
559

> <i_i_glide_rotatable_bonds>
2

> <r_i_docking_score>
-8.0477442023429

> <r_i_glide_ligand_efficiency>
-0.349901921840996

> <r_i_glide_ligand_efficiency_sa>
-0.995074520670194

> <r_i_glide_ligand_efficiency_ln>
-1.94601752103642

> <r_i_glide_gscore>
-8.0477442023429

> <r_i_glide_lipo>
-3.4517585114083

> <r_i_glide_hbond>
-0.325016633203296

> <r_i_glide_metal>
0

> <r_i_glide_rewards>
-1.93491281528816

> <r_i_glide_evdw>
-43.9728202819824

> <r_i_glide_ecoul>
-3.60164976119995

> <r_i_glide_erotb>
0.402832235835974

> <r_i_glide_esite>
0

> <r_i_glide_emodel>
-71.4718425385965

> <r_i_glide_energy>
-47.5744700431824

> <r_i_glide_einternal>
1.7507483959198

> <i_i_glide_confnum>
6

> <i_i_glide_posenum>
65

> <r_i_glide_eff_state_penalty>
0

> <s_user_duplicate_titles>
CHEMBL4439_lig419

> <i_f3d_flags>
0

> <s_m_subgroup_title>
dock_pv

> <s_m_subgroupid>
dock_pv

> <b_m_subgroup_collapsed>
1

$$$$
CHEMBL4439_lig528
                    3D
 Schrodinger Suite 2021-1.
 42 45  0  0  1  0            999 V2000
   19.6824   69.0259    5.0452 N   0  0  0  0  0  0
   18.7961   68.3940    5.8384 N   0  0  0  0  0  0
   17.6276   68.0955    5.1254 C   0  0  0  0  0  0
   17.8497   68.5630    3.8214 C   0  0  0  0  0  0
   19.1287   69.1134    3.8704 C   0  0  0  0  0  0
   19.1857   68.1355    7.1945 C   0  0  0  0  0  0
   18.2412   67.6596    8.0487 N   0  0  0  0  0  0
   18.5644   67.4388    9.3468 C   0  0  0  0  0  0
   19.8466   67.6576    9.8494 C   0  0  0  0  0  0
   20.8283   68.1236    8.9763 C   0  0  0  0  0  0
   20.5036   68.3648    7.6399 C   0  0  0  0  0  0
   17.4342   66.9480   10.2290 C   0  0  0  0  0  0
   16.3796   67.4155    5.6180 C   0  0  0  0  0  0
   15.8663   66.3402    4.8799 C   0  0  0  0  0  0
   14.4691   67.2615    7.1204 C   0  0  0  0  0  0
   15.6595   67.8784    6.7290 C   0  0  0  0  0  0
   13.9309   66.2471    6.3421 C   0  0  0  0  0  0
   14.6366   65.7774    5.2326 C   0  0  0  0  0  0
   14.0237   64.6516    4.4353 C   0  0  0  0  0  0
   12.7874   64.3167    4.8806 N   0  0  0  0  0  0
   12.1186   64.8569    5.9469 C   0  0  0  0  0  0
   12.6675   65.7462    6.6903 N   0  0  0  0  0  0
   14.5561   64.0520    3.5087 O   0  0  0  0  0  0
   16.9184   68.4998    2.6230 C   0  0  0  0  0  0
   17.1233   69.6418    1.6130 C   0  0  0  0  0  0
   19.6488   69.5769    3.0446 H   0  0  0  0  0  0
   20.0799   67.4684   10.8872 H   0  0  0  0  0  0
   21.8322   68.3043    9.3310 H   0  0  0  0  0  0
   21.2750   68.7266    6.9746 H   0  0  0  0  0  0
   17.7489   66.8577   11.2688 H   0  0  0  0  0  0
   17.0857   65.9723    9.8896 H   0  0  0  0  0  0
   16.5944   67.6433   10.1921 H   0  0  0  0  0  0
   16.4036   65.9806    4.0125 H   0  0  0  0  0  0
   13.9254   67.6308    7.9768 H   0  0  0  0  0  0
   16.0183   68.7304    7.2880 H   0  0  0  0  0  0
   12.3441   63.6035    4.3253 H   0  0  0  0  0  0
   11.1207   64.4818    6.1615 H   0  0  0  0  0  0
   17.0678   67.5527    2.1079 H   0  0  0  0  0  0
   15.8768   68.5025    2.9474 H   0  0  0  0  0  0
   16.3593   69.6102    0.8354 H   0  0  0  0  0  0
   17.0684   70.6192    2.0926 H   0  0  0  0  0  0
   18.0977   69.5724    1.1280 H   0  0  0  0  0  0
  1  5  2  0  0  0
  1  2  1  0  0  0
  2  6  1  0  0  0
  2  3  1  0  0  0
  3 13  1  0  0  0
  3  4  2  0  0  0
  4  5  1  0  0  0
  4 24  1  0  0  0
  5 26  1  0  0  0
  6  7  2  0  0  0
  6 11  1  0  0  0
  7  8  1  0  0  0
  8 12  1  0  0  0
  8  9  2  0  0  0
  9 10  1  0  0  0
  9 27  1  0  0  0
 10 11  2  0  0  0
 10 28  1  0  0  0
 11 29  1  0  0  0
 12 30  1  0  0  0
 12 31  1  0  0  0
 12 32  1  0  0  0
 13 14  2  0  0  0
 13 16  1  0  0  0
 14 18  1  0  0  0
 14 33  1  0  0  0
 15 17  1  0  0  0
 15 16  2  0  0  0
 15 34  1  0  0  0
 16 35  1  0  0  0
 17 18  2  0  0  0
 17 22  1  0  0  0
 18 19  1  0  0  0
 19 20  1  0  0  0
 19 23  2  0  0  0
 20 21  1  0  0  0
 20 36  1  0  0  0
 21 22  2  0  0  0
 21 37  1  0  0  0
 24 25  1  0  0  0
 24 38  1  0  0  0
 24 39  1  0  0  0
 25 40  1  0  0  0
 25 41  1  0  0  0
 25 42  1  0  0  0
M  END
> <s_m_entry_id>
34538

> <s_m_entry_name>
dock_pv.281

> <s_m_Source_Path>
/home/csk/Desktop/cluster/DUD-E-result/tgfr1

> <s_m_Source_File>
dock_pv.maegz

> <i_m_Source_File_Index>
281

> <chembl_id>
CHEMBL2024691

> <chembl_pref_name>
None

> <i_lp_mmshare_version>
53161

> <r_lp_tautomer_probability>
0.883938

> <s_lp_Force_Field>
OPLS_2005

> <r_lp_Energy>
21.782088

> <b_lp_Chiralities_Consistent>
1

> <s_lp_Variant>
CHEMBL4439_lig528-1

> <s_i_glide_gridfile>
glide-grid_3hmm

> <i_i_glide_lignum>
705

> <i_i_glide_rotatable_bonds>
3

> <r_i_docking_score>
-8.04292195126001

> <r_i_glide_ligand_efficiency>
-0.321716878050401

> <r_i_glide_ligand_efficiency_sa>
-0.940705857092498

> <r_i_glide_ligand_efficiency_ln>
-1.90641352936982

> <r_i_glide_gscore>
-8.04292195126001

> <r_i_glide_lipo>
-3.85104802090906

> <r_i_glide_hbond>
0

> <r_i_glide_metal>
0

> <r_i_glide_rewards>
-2.02808409652102

> <r_i_glide_evdw>
-48.8041114807129

> <r_i_glide_ecoul>
-0.442505985498428

> <r_i_glide_erotb>
0.342791638030479

> <r_i_glide_esite>
0

> <r_i_glide_emodel>
-72.0673848734194

> <r_i_glide_energy>
-49.2466174662113

> <r_i_glide_einternal>
0.696126043796539

> <i_i_glide_confnum>
13

> <i_i_glide_posenum>
57

> <r_i_glide_eff_state_penalty>
0

> <s_user_duplicate_titles>
CHEMBL4439_lig528,CHEMBL4439_lig528

> <i_f3d_flags>
0

> <s_m_subgroup_title>
dock_pv

> <s_m_subgroupid>
dock_pv

> <b_m_subgroup_collapsed>
1

$$$$
CHEMBL4439_lig2
                    3D
 Schrodinger Suite 2021-1.
 42 44  0  0  1  0            999 V2000
   11.8219   65.6569    6.3387 C   0  0  0  0  0  0
   12.3267   64.9362    5.2655 C   0  0  0  0  0  0
   13.7119   64.8291    5.0695 C   0  0  0  0  0  0
   14.5745   65.4612    5.9848 C   0  0  0  0  0  0
   14.0647   66.1844    7.0728 C   0  0  0  0  0  0
   12.6850   66.2772    7.2321 C   0  0  0  0  0  0
   14.8715   66.7667    8.0651 N   0  0  0  0  0  0
   16.1815   67.2542    8.0338 C   0  0  0  0  0  0
   16.7573   67.5067    6.8348 N   0  0  0  0  0  0
   17.9968   68.0564    6.8300 C   0  0  0  0  0  0
   18.6777   68.3143    8.0228 C   0  0  0  0  0  0
   18.0102   68.0218    9.2153 C   0  0  0  0  0  0
   16.7549   67.5012    9.2383 N   0  0  0  0  0  0
   14.2741   64.0399    3.9122 C   0  0  0  0  0  0
   13.4382   63.2570    3.2314 N   0  0  0  0  0  0
   15.4669   64.0578    3.6322 O   0  0  0  0  0  0
   18.6090   68.4094    5.6176 N   0  0  0  0  0  0
   18.1502   68.5216    4.2873 C   0  0  0  0  0  0
   19.0337   69.0213    3.3100 C   0  0  0  0  0  0
   18.5742   69.2563    2.0080 C   0  0  0  0  0  0
   17.2517   68.9826    1.6652 C   0  0  0  0  0  0
   16.3837   68.4572    2.6155 C   0  0  0  0  0  0
   16.8325   68.2194    3.9081 C   0  0  0  0  0  0
   15.0668   68.2368    2.3105 O   0  0  0  0  0  0
   20.4968   69.3171    3.6320 C   0  0  0  0  0  0
   10.7540   65.7475    6.4611 H   0  0  0  0  0  0
   11.6188   64.4848    4.5856 H   0  0  0  0  0  0
   15.6446   65.3686    5.8632 H   0  0  0  0  0  0
   12.2692   66.8312    8.0542 H   0  0  0  0  0  0
   14.4465   66.8573    8.9745 H   0  0  0  0  0  0
   19.6658   68.7500    8.0322 H   0  0  0  0  0  0
   18.4711   68.2215   10.1722 H   0  0  0  0  0  0
   13.7990   62.7182    2.4596 H   0  0  0  0  0  0
   12.4439   63.3434    3.3595 H   0  0  0  0  0  0
   19.5504   68.7498    5.7335 H   0  0  0  0  0  0
   19.2406   69.6570    1.2565 H   0  0  0  0  0  0
   16.8980   69.1896    0.6692 H   0  0  0  0  0  0
   16.1010   67.8416    4.5985 H   0  0  0  0  0  0
   14.8355   68.4521    1.3993 H   0  0  0  0  0  0
   21.0518   69.6730    2.7629 H   0  0  0  0  0  0
   20.5722   70.0691    4.4174 H   0  0  0  0  0  0
   20.9915   68.4154    3.9970 H   0  0  0  0  0  0
  1  6  1  0  0  0
  1  2  2  0  0  0
  1 26  1  0  0  0
  2  3  1  0  0  0
  2 27  1  0  0  0
  3 14  1  0  0  0
  3  4  2  0  0  0
  4  5  1  0  0  0
  4 28  1  0  0  0
  5  7  1  0  0  0
  5  6  2  0  0  0
  6 29  1  0  0  0
  7  8  1  0  0  0
  7 30  1  0  0  0
  8 13  1  0  0  0
  8  9  2  0  0  0
  9 10  1  0  0  0
 10 17  1  0  0  0
 10 11  2  0  0  0
 11 12  1  0  0  0
 11 31  1  0  0  0
 12 13  2  0  0  0
 12 32  1  0  0  0
 14 15  1  0  0  0
 14 16  2  0  0  0
 15 33  1  0  0  0
 15 34  1  0  0  0
 17 18  1  0  0  0
 17 35  1  0  0  0
 18 19  2  0  0  0
 18 23  1  0  0  0
 19 20  1  0  0  0
 19 25  1  0  0  0
 20 21  2  0  0  0
 20 36  1  0  0  0
 21 22  1  0  0  0
 21 37  1  0  0  0
 22 23  2  0  0  0
 22 24  1  0  0  0
 23 38  1  0  0  0
 24 39  1  0  0  0
 25 40  1  0  0  0
 25 41  1  0  0  0
 25 42  1  0  0  0
M  END
> <s_m_entry_id>
34539

> <s_m_entry_name>
dock_pv.282

> <s_m_Source_Path>
/home/csk/Desktop/cluster/DUD-E-result/tgfr1

> <s_m_Source_File>
dock_pv.maegz

> <i_m_Source_File_Index>
282

> <chembl_id>
CHEMBL249097

> <chembl_pref_name>
None

> <i_lp_mmshare_version>
53161

> <r_lp_tautomer_probability>
0.999999624730965

> <s_lp_Force_Field>
OPLS_2005

> <r_lp_Energy>
9.403193

> <b_lp_Chiralities_Consistent>
1

> <s_lp_Variant>
CHEMBL4439_lig2-1

> <s_i_glide_gridfile>
glide-grid_3hmm

> <i_i_glide_lignum>
2

> <i_i_glide_rotatable_bonds>
6

> <r_i_docking_score>
-8.03767061333778

> <r_i_glide_ligand_efficiency>
-0.321506824533511

> <r_i_glide_ligand_efficiency_sa>
-0.940091656883799

> <r_i_glide_ligand_efficiency_ln>
-1.90516880491236

> <r_i_glide_gscore>
-8.03767061333778

> <r_i_glide_lipo>
-3.24132225708116

> <r_i_glide_hbond>
-0.32

> <r_i_glide_metal>
0

> <r_i_glide_rewards>
-2.08754783841464

> <r_i_glide_evdw>
-48.5182151794434

> <r_i_glide_ecoul>
-4.2201189994812

> <r_i_glide_erotb>
0.671222591772614

> <r_i_glide_esite>
-0.00109450072024546

> <r_i_glide_emodel>
-75.3155962855789

> <r_i_glide_energy>
-52.7383341789246

> <r_i_glide_einternal>
7.1784234046936

> <i_i_glide_confnum>
4

> <i_i_glide_posenum>
116

> <r_i_glide_eff_state_penalty>
0

> <s_user_duplicate_titles>
CHEMBL4439_lig2

> <i_f3d_flags>
0

> <s_m_subgroup_title>
dock_pv

> <s_m_subgroupid>
dock_pv

> <b_m_subgroup_collapsed>
1

$$$$
CHEMBL4439_lig39
                    3D
 Schrodinger Suite 2021-1.
 31 33  0  0  1  0            999 V2000
   15.0833   66.5330    7.0631 C   0  0  0  0  0  0
   16.1408   67.3531    6.5770 C   0  0  0  0  0  0
   15.0331   66.5377    8.3836 N   0  0  0  0  0  0
   16.5610   67.6967    5.1792 C   0  0  0  0  0  0
   14.0851   65.7091    6.3107 C   0  0  0  0  0  0
   14.5622   65.0161    5.2404 N   0  0  0  0  0  0
   16.0299   67.3244    8.7781 N   0  0  0  0  0  0
   16.7365   67.8417    7.7349 C   0  0  0  0  0  0
   17.8695   68.1360    4.9323 C   0  0  0  0  0  0
   18.2639   68.5320    3.6538 C   0  0  0  0  0  0
   17.3531   68.4899    2.5996 C   0  0  0  0  0  0
   15.6600   67.6567    4.1089 C   0  0  0  0  0  0
   16.0489   68.0572    2.8319 C   0  0  0  0  0  0
   13.6884   64.2767    4.5088 C   0  0  0  0  0  0
   19.5272   68.9697    3.4498 F   0  0  0  0  0  0
   17.7215   68.8795    1.3567 F   0  0  0  0  0  0
   12.7344   65.6572    6.6841 C   0  0  0  0  0  0
   11.8571   64.8650    5.9400 C   0  0  0  0  0  0
   12.3341   64.1648    4.8318 C   0  0  0  0  0  0
   14.2624   63.5890    3.2877 C   0  0  0  0  0  0
   16.2168   67.5093    9.7533 H   0  0  0  0  0  0
   17.5668   68.5120    7.9021 H   0  0  0  0  0  0
   18.5920   68.1877    5.7343 H   0  0  0  0  0  0
   14.6323   67.3706    4.2630 H   0  0  0  0  0  0
   15.3320   68.0525    2.0231 H   0  0  0  0  0  0
   12.3695   66.2093    7.5375 H   0  0  0  0  0  0
   10.8144   64.8044    6.2126 H   0  0  0  0  0  0
   11.6663   63.5662    4.2281 H   0  0  0  0  0  0
   13.6708   62.7157    3.0084 H   0  0  0  0  0  0
   15.2843   63.2577    3.4724 H   0  0  0  0  0  0
   14.2668   64.2767    2.4432 H   0  0  0  0  0  0
  1  5  1  0  0  0
  1  3  2  0  0  0
  1  2  1  0  0  0
  2  8  2  0  0  0
  2  4  1  0  0  0
  3  7  1  0  0  0
  4  9  2  0  0  0
  4 12  1  0  0  0
  5  6  2  0  0  0
  5 17  1  0  0  0
  6 14  1  0  0  0
  7 21  1  0  0  0
  7  8  1  0  0  0
  8 22  1  0  0  0
  9 10  1  0  0  0
  9 23  1  0  0  0
 10 15  1  0  0  0
 10 11  2  0  0  0
 11 13  1  0  0  0
 11 16  1  0  0  0
 12 13  2  0  0  0
 12 24  1  0  0  0
 13 25  1  0  0  0
 14 20  1  0  0  0
 14 19  2  0  0  0
 17 18  2  0  0  0
 17 26  1  0  0  0
 18 19  1  0  0  0
 18 27  1  0  0  0
 19 28  1  0  0  0
 20 29  1  0  0  0
 20 30  1  0  0  0
 20 31  1  0  0  0
M  END
> <s_m_entry_id>
34540

> <s_m_entry_name>
dock_pv.283

> <s_m_Source_Path>
/home/csk/Desktop/cluster/DUD-E-result/tgfr1

> <s_m_Source_File>
dock_pv.maegz

> <i_m_Source_File_Index>
283

> <chembl_id>
CHEMBL126789

> <chembl_pref_name>
None

> <i_lp_mmshare_version>
53161

> <r_lp_tautomer_probability>
0.5

> <s_lp_Force_Field>
OPLS_2005

> <r_lp_Energy>
16.556664

> <b_lp_Chiralities_Consistent>
1

> <s_lp_Variant>
CHEMBL4439_lig39-2

> <s_i_glide_gridfile>
glide-grid_3hmm

> <i_i_glide_lignum>
52

> <i_i_glide_rotatable_bonds>
2

> <r_i_docking_score>
-8.03288652166639

> <r_i_glide_ligand_efficiency>
-0.401644326083319

> <r_i_glide_ligand_efficiency_sa>
-1.09023043323727

> <r_i_glide_ligand_efficiency_ln>
-2.01036655404381

> <r_i_glide_gscore>
-8.03288652166639

> <r_i_glide_lipo>
-3.5998450736655

> <r_i_glide_hbond>
-0.0898076091376926

> <r_i_glide_metal>
0

> <r_i_glide_rewards>
-2.65885199285517

> <r_i_glide_evdw>
-38.0462265014648

> <r_i_glide_ecoul>
-1.79074025154114

> <r_i_glide_erotb>
0.486540516796384

> <r_i_glide_esite>
0

> <r_i_glide_emodel>
-58.2066444724214

> <r_i_glide_energy>
-39.836966753006

> <r_i_glide_einternal>
2.42648577690125

> <i_i_glide_confnum>
11

> <i_i_glide_posenum>
37

> <r_i_glide_eff_state_penalty>
0

> <s_user_duplicate_titles>
CHEMBL4439_lig39,CHEMBL4439_lig39,211418

> <i_f3d_flags>
0

> <s_m_subgroup_title>
dock_pv

> <s_m_subgroupid>
dock_pv

> <b_m_subgroup_collapsed>
1

$$$$
CHEMBL4439_lig879 
                    3D
 Schrodinger Suite 2021-1.
 36 38  0  0  1  0            999 V2000
   17.9816   68.2056    7.5940 C   0  0  0  0  0  0
   17.9681   68.3071    6.2159 N   0  0  0  0  0  0
   16.9395   67.6570    5.6615 N   0  0  0  0  0  0
   16.2474   67.1376    6.6523 C   0  0  0  0  0  0
   16.8324   67.4616    7.9061 C   0  0  0  0  0  0
   18.8841   69.0135    5.3161 C   0  0  0  0  0  0
   19.9150   68.0566    4.6893 C   0  0  0  0  0  0
   16.4192   66.9796    9.2064 C   0  0  0  0  0  0
   16.6670   67.7936   10.2311 N   0  0  0  0  0  0
   15.8670   65.8937    9.3634 O   0  0  0  0  0  0
   18.9527   68.7655    8.3984 N   0  0  0  0  0  0
   15.0018   66.3562    6.3386 C   0  0  0  0  0  0
   14.9913   65.4498    5.2700 C   0  0  0  0  0  0
   12.6505   65.8782    6.8182 C   0  0  0  0  0  0
   13.8406   66.5516    7.0947 C   0  0  0  0  0  0
   12.6556   64.9500    5.7695 C   0  0  0  0  0  0
   13.8248   64.7256    4.9972 C   0  0  0  0  0  0
   13.7106   63.7745    4.0320 N   0  0  0  0  0  0
   12.5138   63.2620    4.0246 C   0  0  0  0  0  0
   11.3703   63.9041    5.1795 S   0  0  0  0  0  0
   20.3927   68.6872    8.2063 C   0  0  0  0  0  0
   18.2980   69.4968    4.5319 H   0  0  0  0  0  0
   19.3668   69.8225    5.8614 H   0  0  0  0  0  0
   20.6370   68.6079    4.0863 H   0  0  0  0  0  0
   20.4765   67.5093    5.4472 H   0  0  0  0  0  0
   19.4398   67.3274    4.0320 H   0  0  0  0  0  0
   16.3754   67.5230   11.1579 H   0  0  0  0  0  0
   17.1413   68.6698   10.0812 H   0  0  0  0  0  0
   18.6932   69.4365    9.1103 H   0  0  0  0  0  0
   15.8670   65.3012    4.6632 H   0  0  0  0  0  0
   11.7579   66.0571    7.4006 H   0  0  0  0  0  0
   13.8563   67.2571    7.9122 H   0  0  0  0  0  0
   12.2152   62.5105    3.3111 H   0  0  0  0  0  0
   20.9042   68.9067    9.1437 H   0  0  0  0  0  0
   20.7424   69.4151    7.4758 H   0  0  0  0  0  0
   20.6885   67.6922    7.8723 H   0  0  0  0  0  0
  1  2  1  0  0  0
  1  5  2  0  0  0
  1 11  1  0  0  0
  2  3  1  0  0  0
  2  6  1  0  0  0
  3  4  2  0  0  0
  4  5  1  0  0  0
  4 12  1  0  0  0
  5  8  1  0  0  0
  6  7  1  0  0  0
  6 22  1  0  0  0
  6 23  1  0  0  0
  7 24  1  0  0  0
  7 25  1  0  0  0
  7 26  1  0  0  0
  8  9  1  0  0  0
  8 10  2  0  0  0
  9 27  1  0  0  0
  9 28  1  0  0  0
 11 21  1  0  0  0
 11 29  1  0  0  0
 12 13  2  0  0  0
 12 15  1  0  0  0
 13 17  1  0  0  0
 13 30  1  0  0  0
 14 16  1  0  0  0
 14 15  2  0  0  0
 14 31  1  0  0  0
 15 32  1  0  0  0
 16 17  2  0  0  0
 16 20  1  0  0  0
 17 18  1  0  0  0
 18 19  2  0  0  0
 19 20  1  0  0  0
 19 33  1  0  0  0
 21 34  1  0  0  0
 21 35  1  0  0  0
 21 36  1  0  0  0
M  END
> <s_m_entry_id>
34541

> <s_m_entry_name>
dock_pv.284

> <s_m_Source_Path>
/home/csk/Desktop/cluster/DUD-E-result/tgfr1

> <s_m_Source_File>
dock_pv.maegz

> <i_m_Source_File_Index>
284

> <chembl_id>
CHEMBL4475515

> <chembl_pref_name>
None

> <i_lp_mmshare_version>
53161

> <r_lp_tautomer_probability>
1

> <s_lp_Force_Field>
OPLS_2005

> <r_lp_Energy>
19.902837

> <b_lp_Chiralities_Consistent>
1

> <s_lp_Variant>
CHEMBL4439_lig879 -1

> <s_i_glide_gridfile>
glide-grid_3hmm

> <i_i_glide_lignum>
1214

> <i_i_glide_rotatable_bonds>
4

> <r_i_docking_score>
-8.0313403543931

> <r_i_glide_ligand_efficiency>
-0.382444778780624

> <r_i_glide_ligand_efficiency_sa>
-1.0551361452378

> <r_i_glide_ligand_efficiency_ln>
-1.98573267377243

> <r_i_glide_gscore>
-8.0313403543931

> <r_i_glide_lipo>
-3.0706616657767

> <r_i_glide_hbond>
-0.151589506684142

> <r_i_glide_metal>
0

> <r_i_glide_rewards>
-2.10417369183725

> <r_i_glide_evdw>
-44.6772117614746

> <r_i_glide_ecoul>
-4.49068212509155

> <r_i_glide_erotb>
0.202547416742456

> <r_i_glide_esite>
0

> <r_i_glide_emodel>
-72.4275734222003

> <r_i_glide_energy>
-49.1678938865662

> <r_i_glide_einternal>
2.94419264793396

> <i_i_glide_confnum>
3

> <i_i_glide_posenum>
235

> <r_i_glide_eff_state_penalty>
0

> <s_user_duplicate_titles>
CHEMBL4439_lig879 

> <i_f3d_flags>
0

> <s_m_subgroup_title>
dock_pv

> <s_m_subgroupid>
dock_pv

> <b_m_subgroup_collapsed>
1

$$$$
CHEMBL4439_lig42
                    3D
 Schrodinger Suite 2021-1.
 33 36  0  0  1  0            999 V2000
   15.4899   67.4136    8.7182 N   0  0  0  0  0  0
   16.2745   68.0155    7.7840 C   0  0  0  0  0  0
   16.0174   67.3758    6.5766 C   0  0  0  0  0  0
   14.9837   66.4528    6.9063 C   0  0  0  0  0  0
   14.7138   66.4665    8.1999 N   0  0  0  0  0  0
   14.2157   65.5289    6.0113 C   0  0  0  0  0  0
   14.8089   64.8577    4.9350 C   0  0  0  0  0  0
   14.0104   64.0473    4.1246 C   0  0  0  0  0  0
   12.6582   63.8885    4.4319 C   0  0  0  0  0  0
   12.1337   64.5776    5.5239 C   0  0  0  0  0  0
   12.8900   65.3887    6.3047 N   0  0  0  0  0  0
   11.6551   62.8653    3.4733 Cl  0  0  0  0  0  0
   16.6589   67.7066    5.2570 C   0  0  0  0  0  0
   17.6362   68.5262    2.7215 N   0  0  0  0  0  0
   16.3799   68.0572    2.8835 C   0  0  0  0  0  0
   15.8621   67.6595    4.1083 C   0  0  0  0  0  0
   18.4490   68.5746    3.8100 C   0  0  0  0  0  0
   18.0220   68.1450    5.1085 C   0  0  0  0  0  0
   18.9792   68.1717    6.1648 C   0  0  0  0  0  0
   20.2710   68.6420    5.9493 C   0  0  0  0  0  0
   20.6569   69.0981    4.6965 C   0  0  0  0  0  0
   19.7624   69.0718    3.6322 C   0  0  0  0  0  0
   15.4665   67.6537    9.7000 H   0  0  0  0  0  0
   16.9375   68.8249    8.0563 H   0  0  0  0  0  0
   15.8641   64.9698    4.7209 H   0  0  0  0  0  0
   14.4398   63.5301    3.2785 H   0  0  0  0  0  0
   11.0906   64.4870    5.7903 H   0  0  0  0  0  0
   15.7525   68.0576    2.0044 H   0  0  0  0  0  0
   14.8216   67.3798    4.1585 H   0  0  0  0  0  0
   18.7235   67.8022    7.1444 H   0  0  0  0  0  0
   20.9851   68.6498    6.7609 H   0  0  0  0  0  0
   21.6664   69.4546    4.5460 H   0  0  0  0  0  0
   20.0766   69.4086    2.6540 H   0  0  0  0  0  0
  1  2  1  0  0  0
  1  5  1  0  0  0
  1 23  1  0  0  0
  2  3  2  0  0  0
  2 24  1  0  0  0
  3 13  1  0  0  0
  3  4  1  0  0  0
  4  6  1  0  0  0
  4  5  2  0  0  0
  6 11  1  0  0  0
  6  7  2  0  0  0
  7  8  1  0  0  0
  7 25  1  0  0  0
  8  9  2  0  0  0
  8 26  1  0  0  0
  9 12  1  0  0  0
  9 10  1  0  0  0
 10 11  2  0  0  0
 10 27  1  0  0  0
 13 18  2  0  0  0
 13 16  1  0  0  0
 14 17  2  0  0  0
 14 15  1  0  0  0
 15 16  2  0  0  0
 15 28  1  0  0  0
 16 29  1  0  0  0
 17 18  1  0  0  0
 17 22  1  0  0  0
 18 19  1  0  0  0
 19 20  2  0  0  0
 19 30  1  0  0  0
 20 21  1  0  0  0
 20 31  1  0  0  0
 21 22  2  0  0  0
 21 32  1  0  0  0
 22 33  1  0  0  0
M  END
> <s_m_entry_id>
34542

> <s_m_entry_name>
dock_pv.285

> <s_m_Source_Path>
/home/csk/Desktop/cluster/DUD-E-result/tgfr1

> <s_m_Source_File>
dock_pv.maegz

> <i_m_Source_File_Index>
285

> <chembl_id>
CHEMBL341534

> <chembl_pref_name>
None

> <i_lp_mmshare_version>
53161

> <r_lp_tautomer_probability>
0.5

> <s_lp_Force_Field>
OPLS_2005

> <r_lp_Energy>
21.575022

> <b_lp_Chiralities_Consistent>
1

> <s_lp_Variant>
CHEMBL4439_lig42-1

> <s_i_glide_gridfile>
glide-grid_3hmm

> <i_i_glide_lignum>
56

> <i_i_glide_rotatable_bonds>
2

> <r_i_docking_score>
-8.01321838753803

> <r_i_glide_ligand_efficiency>
-0.364237199433547

> <r_i_glide_ligand_efficiency_sa>
-1.02060695744899

> <r_i_glide_ligand_efficiency_ln>
-1.9587228631568

> <r_i_glide_gscore>
-8.01321838753803

> <r_i_glide_lipo>
-4.22245765102004

> <r_i_glide_hbond>
-0.135647002128945

> <r_i_glide_metal>
0

> <r_i_glide_rewards>
-1.69995123422141

> <r_i_glide_evdw>
-42.2107849121094

> <r_i_glide_ecoul>
-1.58231282234192

> <r_i_glide_erotb>
0.392723668789118

> <r_i_glide_esite>
0

> <r_i_glide_emodel>
-64.5823776385801

> <r_i_glide_energy>
-43.7930977344513

> <r_i_glide_einternal>
2.33848905563354

> <i_i_glide_confnum>
1

> <i_i_glide_posenum>
9

> <r_i_glide_eff_state_penalty>
0

> <s_user_duplicate_titles>
CHEMBL4439_lig42,CHEMBL4439_lig42

> <i_f3d_flags>
0

> <s_m_subgroup_title>
dock_pv

> <s_m_subgroupid>
dock_pv

> <b_m_subgroup_collapsed>
1

$$$$
CHEMBL4439_lig588
                    3D
 Schrodinger Suite 2021-1.
 44 48  0  0  1  0            999 V2000
   15.6309   67.4291    3.8839 S   0  0  0  0  0  0
   16.7691   67.7241    5.1628 C   0  0  0  0  0  0
   17.8108   68.4268    4.7878 N   0  0  0  0  0  0
   17.7716   68.7627    3.5138 C   0  0  0  0  0  0
   16.6596   68.3214    2.8121 C   0  0  0  0  0  0
   18.9207   69.5916    3.0140 C   0  0  0  0  0  0
   16.5838   67.2565    6.5391 C   0  0  0  0  0  0
   15.6563   66.4274    7.1856 C   0  0  0  0  0  0
   15.9454   66.2740    8.4716 N   0  0  0  0  0  0
   16.9789   67.0450    8.7047 C   0  0  0  0  0  0
   17.4025   67.6642    7.5629 N   0  0  0  0  0  0
   14.4383   65.7884    6.6242 C   0  0  0  0  0  0
   13.1992   66.1733    7.1415 C   0  0  0  0  0  0
   12.0091   65.6563    6.6384 C   0  0  0  0  0  0
   14.5221   64.8619    5.5801 C   0  0  0  0  0  0
   13.3263   64.3652    5.0457 C   0  0  0  0  0  0
   12.0661   64.7499    5.5750 C   0  0  0  0  0  0
   10.9861   64.1781    4.9801 N   0  0  0  0  0  0
   11.3578   63.3904    4.0139 C   0  0  0  0  0  0
   13.0688   63.2569    3.7094 S   0  0  0  0  0  0
   17.6233   67.2300   10.0658 C   0  0  0  0  0  0
   19.0825   67.7450   10.1559 C   0  0  0  0  0  0
   19.5257   68.1322   11.5864 C   0  0  0  0  0  0
   18.4852   68.7755   12.3165 O   0  0  0  0  0  0
   17.3751   67.9203   12.5482 C   0  0  0  0  0  0
   16.6670   67.5705   11.2264 C   0  0  0  0  0  0
   16.4009   68.4725    1.7746 H   0  0  0  0  0  0
   18.7550   69.9704    2.0043 H   0  0  0  0  0  0
   19.8567   69.0323    3.0030 H   0  0  0  0  0  0
   19.0661   70.4507    3.6672 H   0  0  0  0  0  0
   18.1823   68.3005    7.4852 H   0  0  0  0  0  0
   13.1564   66.8926    7.9475 H   0  0  0  0  0  0
   11.0664   65.9605    7.0598 H   0  0  0  0  0  0
   15.4784   64.5733    5.1695 H   0  0  0  0  0  0
   10.6538   62.8572    3.3910 H   0  0  0  0  0  0
   17.8275   66.2246   10.4314 H   0  0  0  0  0  0
   19.7928   67.0348    9.7275 H   0  0  0  0  0  0
   19.1428   68.6753    9.5897 H   0  0  0  0  0  0
   19.8670   67.2570   12.1382 H   0  0  0  0  0  0
   20.3840   68.8033   11.5407 H   0  0  0  0  0  0
   17.6962   67.0111   13.0609 H   0  0  0  0  0  0
   16.6777   68.4188   13.2236 H   0  0  0  0  0  0
   16.1133   68.4565   10.9253 H   0  0  0  0  0  0
   15.9455   66.7718   11.4117 H   0  0  0  0  0  0
  1  2  1  0  0  0
  1  5  1  0  0  0
  2  3  2  0  0  0
  2  7  1  0  0  0
  3  4  1  0  0  0
  4  5  2  0  0  0
  4  6  1  0  0  0
  5 27  1  0  0  0
  6 28  1  0  0  0
  6 29  1  0  0  0
  6 30  1  0  0  0
  7  8  2  0  0  0
  7 11  1  0  0  0
  8 12  1  0  0  0
  8  9  1  0  0  0
  9 10  2  0  0  0
 10 11  1  0  0  0
 10 21  1  0  0  0
 11 31  1  0  0  0
 12 13  2  0  0  0
 12 15  1  0  0  0
 13 14  1  0  0  0
 13 32  1  0  0  0
 14 17  2  0  0  0
 14 33  1  0  0  0
 15 16  2  0  0  0
 15 34  1  0  0  0
 16 17  1  0  0  0
 16 20  1  0  0  0
 17 18  1  0  0  0
 18 19  2  0  0  0
 19 20  1  0  0  0
 19 35  1  0  0  0
 21 22  1  0  0  0
 21 26  1  0  0  0
 21 36  1  0  0  0
 22 23  1  0  0  0
 22 37  1  0  0  0
 22 38  1  0  0  0
 23 24  1  0  0  0
 23 39  1  0  0  0
 23 40  1  0  0  0
 24 25  1  0  0  0
 25 26  1  0  0  0
 25 41  1  0  0  0
 25 42  1  0  0  0
 26 43  1  0  0  0
 26 44  1  0  0  0
M  END
> <s_m_entry_id>
34543

> <s_m_entry_name>
dock_pv.286

> <s_m_Source_Path>
/home/csk/Desktop/cluster/DUD-E-result/tgfr1

> <s_m_Source_File>
dock_pv.maegz

> <i_m_Source_File_Index>
286

> <chembl_id>
CHEMBL2208001

> <chembl_pref_name>
None

> <i_lp_mmshare_version>
53161

> <r_lp_tautomer_probability>
0.499999999999999

> <s_lp_Force_Field>
OPLS_2005

> <r_lp_Energy>
12.734558

> <b_lp_Chiralities_Consistent>
1

> <s_lp_Variant>
CHEMBL4439_lig588-2

> <s_i_glide_gridfile>
glide-grid_3hmm

> <i_i_glide_lignum>
790

> <i_i_glide_rotatable_bonds>
3

> <r_i_docking_score>
-8.01299117143668

> <r_i_glide_ligand_efficiency>
-0.30819196813218

> <r_i_glide_ligand_efficiency_sa>
-0.913017492914746

> <r_i_glide_ligand_efficiency_ln>
-1.88182468384334

> <r_i_glide_gscore>
-8.01299117143668

> <r_i_glide_lipo>
-4.19203051630906

> <r_i_glide_hbond>
0

> <r_i_glide_metal>
0

> <r_i_glide_rewards>
-1.54716219212608

> <r_i_glide_evdw>
-51.7315368652344

> <r_i_glide_ecoul>
-0.569772899150848

> <r_i_glide_erotb>
0.39824431513281

> <r_i_glide_esite>
0

> <r_i_glide_emodel>
-76.8829947618377

> <r_i_glide_energy>
-52.3013097643852

> <r_i_glide_einternal>
2.76426076889038

> <i_i_glide_confnum>
5

> <i_i_glide_posenum>
101

> <r_i_glide_eff_state_penalty>
0

> <s_user_duplicate_titles>
CHEMBL4439_lig588,CHEMBL4439_lig588

> <i_f3d_flags>
0

> <s_m_subgroup_title>
dock_pv

> <s_m_subgroupid>
dock_pv

> <b_m_subgroup_collapsed>
1

$$$$
CHEMBL4439_lig875
                    3D
 Schrodinger Suite 2021-1.
 45 48  0  0  1  0            999 V2000
   17.3889   68.6137    2.7939 C   0  0  0  0  0  0
   16.0573   68.3073    2.5462 C   0  0  0  0  0  0
   15.3021   67.6570    3.5196 C   0  0  0  0  0  0
   15.8485   67.3460    4.7714 C   0  0  0  0  0  0
   17.1941   67.6570    4.9983 C   0  0  0  0  0  0
   17.9648   68.2836    4.0178 C   0  0  0  0  0  0
   18.1231   69.2397    1.8221 O   0  0  0  0  0  0
   13.7121   66.4569    7.7122 N   0  0  0  0  0  0
   13.1417   65.8190    6.7010 N   0  0  0  0  0  0
   13.8752   65.8818    5.5672 C   0  0  0  0  0  0
   14.9256   66.7638    5.8156 C   0  0  0  0  0  0
   14.8544   66.9125    7.2374 C   0  0  0  0  0  0
   13.2110   65.0512    4.5080 C   0  0  0  0  0  0
   11.8836   64.5579    5.1488 C   0  0  0  0  0  0
   11.8981   65.0968    6.5955 C   0  0  0  0  0  0
   15.8188   67.4863    8.2237 C   0  0  0  0  0  0
   15.9886   66.9134    9.4947 C   0  0  0  0  0  0
   16.9865   67.4082   10.3337 C   0  0  0  0  0  0
   17.8061   68.4390    9.8785 C   0  0  0  0  0  0
   17.5707   68.9645    8.6065 C   0  0  0  0  0  0
   16.5731   68.5278    7.8017 N   0  0  0  0  0  0
   18.4380   70.0605    8.0320 C   0  0  0  0  0  0
   10.6090   65.0513    4.4323 C   0  0  0  0  0  0
   11.8248   63.0181    5.1312 C   0  0  0  0  0  0
   15.6060   68.5653    1.5990 H   0  0  0  0  0  0
   14.2671   67.4556    3.3012 H   0  0  0  0  0  0
   17.6697   67.3858    5.9269 H   0  0  0  0  0  0
   19.0027   68.5063    4.2152 H   0  0  0  0  0  0
   19.0204   69.4435    2.0937 H   0  0  0  0  0  0
   13.0672   65.6548    3.6320 H   0  0  0  0  0  0
   13.8563   64.2316    4.1883 H   0  0  0  0  0  0
   11.8670   64.2767    7.2984 H   0  0  0  0  0  0
   11.0668   65.7638    6.8280 H   0  0  0  0  0  0
   15.3775   66.0886    9.8252 H   0  0  0  0  0  0
   17.1371   66.9841   11.3152 H   0  0  0  0  0  0
   18.6008   68.8267   10.4995 H   0  0  0  0  0  0
   19.3823   70.1356    8.5710 H   0  0  0  0  0  0
   18.6677   69.8725    6.9827 H   0  0  0  0  0  0
   17.9155   71.0141    8.1038 H   0  0  0  0  0  0
    9.7523   65.0432    5.1015 H   0  0  0  0  0  0
   10.6937   66.0571    4.0322 H   0  0  0  0  0  0
   10.3302   64.3734    3.6320 H   0  0  0  0  0  0
   10.9242   62.6629    5.6317 H   0  0  0  0  0  0
   11.8221   62.6295    4.1109 H   0  0  0  0  0  0
   12.6670   62.5647    5.6320 H   0  0  0  0  0  0
  1  2  1  0  0  0
  1  6  2  0  0  0
  1  7  1  0  0  0
  2  3  2  0  0  0
  2 25  1  0  0  0
  3  4  1  0  0  0
  3 26  1  0  0  0
  4  5  2  0  0  0
  4 11  1  0  0  0
  5  6  1  0  0  0
  5 27  1  0  0  0
  6 28  1  0  0  0
  7 29  1  0  0  0
  8  9  1  0  0  0
  8 12  2  0  0  0
  9 10  1  0  0  0
  9 15  1  0  0  0
 10 11  2  0  0  0
 10 13  1  0  0  0
 11 12  1  0  0  0
 12 16  1  0  0  0
 13 14  1  0  0  0
 13 30  1  0  0  0
 13 31  1  0  0  0
 14 15  1  0  0  0
 14 23  1  0  0  0
 14 24  1  0  0  0
 15 32  1  0  0  0
 15 33  1  0  0  0
 16 17  1  0  0  0
 16 21  2  0  0  0
 17 18  2  0  0  0
 17 34  1  0  0  0
 18 19  1  0  0  0
 18 35  1  0  0  0
 19 20  2  0  0  0
 19 36  1  0  0  0
 20 21  1  0  0  0
 20 22  1  0  0  0
 22 37  1  0  0  0
 22 38  1  0  0  0
 22 39  1  0  0  0
 23 40  1  0  0  0
 23 41  1  0  0  0
 23 42  1  0  0  0
 24 43  1  0  0  0
 24 44  1  0  0  0
 24 45  1  0  0  0
M  END
> <s_m_entry_id>
34544

> <s_m_entry_name>
dock_pv.287

> <s_m_Source_Path>
/home/csk/Desktop/cluster/DUD-E-result/tgfr1

> <s_m_Source_File>
dock_pv.maegz

> <i_m_Source_File_Index>
287

> <chembl_id>
CHEMBL4291439

> <chembl_pref_name>
None

> <i_lp_mmshare_version>
53161

> <r_lp_tautomer_probability>
0.999999999997365

> <s_lp_Force_Field>
OPLS_2005

> <r_lp_Energy>
34.708678

> <b_lp_Chiralities_Consistent>
1

> <s_lp_Variant>
CHEMBL4439_lig875-1

> <s_i_glide_gridfile>
glide-grid_3hmm

> <i_i_glide_lignum>
1210

> <i_i_glide_rotatable_bonds>
3

> <r_i_docking_score>
-8.01095584230855

> <r_i_glide_ligand_efficiency>
-0.333789826762856

> <r_i_glide_ligand_efficiency_sa>
-0.962816467423466

> <r_i_glide_ligand_efficiency_ln>
-1.91738933187498

> <r_i_glide_gscore>
-8.01095584230855

> <r_i_glide_lipo>
-4.29967583562652

> <r_i_glide_hbond>
-0.0607578828837065

> <r_i_glide_metal>
0

> <r_i_glide_rewards>
-1.83116692368838

> <r_i_glide_evdw>
-35.5222930908203

> <r_i_glide_ecoul>
-2.72687220573425

> <r_i_glide_erotb>
0.365790285291208

> <r_i_glide_esite>
0

> <r_i_glide_emodel>
-54.251389312913

> <r_i_glide_energy>
-38.2491652965546

> <r_i_glide_einternal>
0.75750344991684

> <i_i_glide_confnum>
7

> <i_i_glide_posenum>
8

> <r_i_glide_eff_state_penalty>
0

> <s_user_duplicate_titles>
CHEMBL4439_lig875

> <i_f3d_flags>
0

> <s_m_subgroup_title>
dock_pv

> <s_m_subgroupid>
dock_pv

> <b_m_subgroup_collapsed>
1

$$$$
CHEMBL4439_lig107
                    3D
 Schrodinger Suite 2021-1.
 52 56  0  0  1  0            999 V2000
   18.8864   68.9163    6.9551 C   0  0  0  0  0  0
   18.1464   68.1983    7.9051 C   0  0  0  0  0  0
   18.7441   67.6875    9.0189 N   0  0  0  0  0  0
   20.0846   67.8321    9.1609 C   0  0  0  0  0  0
   20.8835   68.4319    8.1868 C   0  0  0  0  0  0
   20.2776   68.9562    7.0380 C   0  0  0  0  0  0
   21.1173   69.4726    5.9105 C   0  0  0  0  0  0
   20.9263   69.4858    4.4895 C   0  0  0  0  0  0
   21.9945   69.9633    3.8739 N   0  0  0  0  0  0
   22.8396   70.3200    4.8330 N   0  0  0  0  0  0
   22.3620   70.0569    6.0794 C   0  0  0  0  0  0
   19.7633   69.0562    3.6312 C   0  0  0  0  0  0
   19.5044   69.6570    2.3889 C   0  0  0  0  0  0
   18.3603   69.3008    1.6787 C   0  0  0  0  0  0
   17.5111   68.3267    2.1892 C   0  0  0  0  0  0
   17.8731   67.6982    3.3761 C   0  0  0  0  0  0
   18.9703   68.0570    4.0956 N   0  0  0  0  0  0
   16.7176   67.8098    7.6688 C   0  0  0  0  0  0
   15.9054   67.3140    8.6956 C   0  0  0  0  0  0
   14.6418   66.8043    8.4143 C   0  0  0  0  0  0
   14.1683   66.7333    7.0990 C   0  0  0  0  0  0
   14.9338   67.3135    6.0869 C   0  0  0  0  0  0
   16.1784   67.8517    6.3768 C   0  0  0  0  0  0
   12.7903   66.1725    6.8187 C   0  0  0  0  0  0
   12.5351   65.4554    5.6822 N   0  0  0  0  0  0
   11.9068   66.4569    7.6245 O   0  0  0  0  0  0
   13.5629   64.9615    4.7365 C   0  0  0  0  0  0
   13.2250   63.4932    4.3818 C   0  0  0  0  0  0
   11.8632   63.2796    4.0357 O   0  0  0  0  0  0
   10.9850   63.6572    5.0851 C   0  0  0  0  0  0
   11.1298   65.1648    5.3202 C   0  0  0  0  0  0
   18.4064   69.3686    6.1054 H   0  0  0  0  0  0
   20.5197   67.4098   10.0553 H   0  0  0  0  0  0
   21.9566   68.4577    8.3079 H   0  0  0  0  0  0
   23.7369   70.7468    4.6423 H   0  0  0  0  0  0
   22.9573   70.2913    6.9513 H   0  0  0  0  0  0
   20.1637   70.4083    1.9798 H   0  0  0  0  0  0
   18.1367   69.7926    0.7486 H   0  0  0  0  0  0
   16.6056   68.0579    1.6688 H   0  0  0  0  0  0
   17.2665   66.9019    3.7815 H   0  0  0  0  0  0
   16.2580   67.3026    9.7168 H   0  0  0  0  0  0
   14.0307   66.4565    9.2319 H   0  0  0  0  0  0
   14.5700   67.3734    5.0714 H   0  0  0  0  0  0
   16.7259   68.2805    5.5600 H   0  0  0  0  0  0
   14.5535   64.9463    5.1909 H   0  0  0  0  0  0
   13.4978   65.5823    3.8431 H   0  0  0  0  0  0
   13.8571   63.1524    3.5611 H   0  0  0  0  0  0
   13.4658   62.8608    5.2301 H   0  0  0  0  0  0
    9.9592   63.4203    4.8020 H   0  0  0  0  0  0
   11.1846   63.0932    5.9989 H   0  0  0  0  0  0
   10.9768   65.6595    4.3606 H   0  0  0  0  0  0
   10.3812   65.5564    6.0064 H   0  0  0  0  0  0
  1  6  1  0  0  0
  1  2  2  0  0  0
  1 32  1  0  0  0
  2  3  1  0  0  0
  2 18  1  0  0  0
  3  4  2  0  0  0
  4  5  1  0  0  0
  4 33  1  0  0  0
  5  6  2  0  0  0
  5 34  1  0  0  0
  6  7  1  0  0  0
  7 11  2  0  0  0
  7  8  1  0  0  0
  8 12  1  0  0  0
  8  9  2  0  0  0
  9 10  1  0  0  0
 10 11  1  0  0  0
 10 35  1  0  0  0
 11 36  1  0  0  0
 12 17  1  0  0  0
 12 13  2  0  0  0
 13 14  1  0  0  0
 13 37  1  0  0  0
 14 15  2  0  0  0
 14 38  1  0  0  0
 15 16  1  0  0  0
 15 39  1  0  0  0
 16 17  2  0  0  0
 16 40  1  0  0  0
 18 19  2  0  0  0
 18 23  1  0  0  0
 19 20  1  0  0  0
 19 41  1  0  0  0
 20 21  2  0  0  0
 20 42  1  0  0  0
 21 22  1  0  0  0
 21 24  1  0  0  0
 22 23  2  0  0  0
 22 43  1  0  0  0
 23 44  1  0  0  0
 24 25  1  0  0  0
 24 26  2  0  0  0
 25 27  1  0  0  0
 25 31  1  0  0  0
 27 28  1  0  0  0
 27 45  1  0  0  0
 27 46  1  0  0  0
 28 29  1  0  0  0
 28 47  1  0  0  0
 28 48  1  0  0  0
 29 30  1  0  0  0
 30 31  1  0  0  0
 30 49  1  0  0  0
 30 50  1  0  0  0
 31 51  1  0  0  0
 31 52  1  0  0  0
M  END
> <s_m_entry_id>
34546

> <s_m_entry_name>
dock_pv.289

> <s_m_Source_Path>
/home/csk/Desktop/cluster/DUD-E-result/tgfr1

> <s_m_Source_File>
dock_pv.maegz

> <i_m_Source_File_Index>
289

> <chembl_id>
CHEMBL436944

> <chembl_pref_name>
None

> <i_lp_mmshare_version>
53161

> <r_lp_tautomer_probability>
0.5

> <s_lp_Force_Field>
OPLS_2005

> <r_lp_Energy>
46.512925

> <b_lp_Chiralities_Consistent>
1

> <s_lp_Variant>
CHEMBL4439_lig107-1

> <s_i_glide_gridfile>
glide-grid_3hmm

> <i_i_glide_lignum>
150

> <i_i_glide_rotatable_bonds>
5

> <r_i_docking_score>
-8.00015322461289

> <r_i_glide_ligand_efficiency>
-0.25806945885848

> <r_i_glide_ligand_efficiency_sa>
-0.810694404103175

> <r_i_glide_ligand_efficiency_ln>
-1.80427972740211

> <r_i_glide_gscore>
-8.00015322461289

> <r_i_glide_lipo>
-3.92495606023909

> <r_i_glide_hbond>
-0.239076526839017

> <r_i_glide_metal>
0

> <r_i_glide_rewards>
-1.4571279052085

> <r_i_glide_evdw>
-49.4958076477051

> <r_i_glide_ecoul>
-3.24207925796509

> <r_i_glide_erotb>
0.58210953875374

> <r_i_glide_esite>
0

> <r_i_glide_emodel>
-72.9474580294611

> <r_i_glide_energy>
-52.7378869056702

> <r_i_glide_einternal>
7.02041006088257

> <i_i_glide_confnum>
5

> <i_i_glide_posenum>
13

> <r_i_glide_eff_state_penalty>
0

> <s_user_duplicate_titles>
CHEMBL4439_lig107,CHEMBL4439_lig107,342830

> <i_f3d_flags>
0

> <s_m_subgroup_title>
dock_pv

> <s_m_subgroupid>
dock_pv

> <b_m_subgroup_collapsed>
1

$$$$
CHEMBL4439_lig590
                    3D
 Schrodinger Suite 2021-1.
 46 50  0  0  1  0            999 V2000
   17.1799   68.5845    2.6727 S   0  0  0  0  0  0
   17.5582   68.2354    4.3387 C   0  0  0  0  0  0
   18.7273   68.6903    4.7076 N   0  0  0  0  0  0
   19.4097   69.2445    3.7265 C   0  0  0  0  0  0
   18.7318   69.3447    2.5173 C   0  0  0  0  0  0
   20.8271   69.6566    4.0505 C   0  0  0  0  0  0
   16.6671   67.4523    5.2198 C   0  0  0  0  0  0
   16.5765   67.1243    6.5977 C   0  0  0  0  0  0
   15.5487   66.3031    6.8103 N   0  0  0  0  0  0
   15.0424   66.0114    5.6427 C   0  0  0  0  0  0
   15.6610   66.7117    4.6522 N   0  0  0  0  0  0
   17.4375   67.4878    7.7853 C   0  0  0  0  0  0
   18.8231   67.6577    7.6572 C   0  0  0  0  0  0
   19.6554   67.8946    8.7513 C   0  0  0  0  0  0
   16.8580   67.5316    9.0650 C   0  0  0  0  0  0
   17.6914   67.6997   10.1806 C   0  0  0  0  0  0
   19.0869   67.9051   10.0280 C   0  0  0  0  0  0
   19.7782   68.0741   11.1860 N   0  0  0  0  0  0
   18.9897   67.9776   12.2168 C   0  0  0  0  0  0
   17.3041   67.6582   11.8954 S   0  0  0  0  0  0
   13.9458   64.9945    5.4014 C   0  0  0  0  0  0
   12.5948   65.2304    6.1291 C   0  0  0  0  0  0
   11.4743   64.2292    5.7701 C   0  0  0  0  0  0
   11.4684   63.8429    4.2904 C   0  0  0  0  0  0
   12.8078   63.2300    3.8664 C   0  0  0  0  0  0
   13.9971   64.1817    4.0783 C   0  0  0  0  0  0
   19.0700   69.7707    1.5846 H   0  0  0  0  0  0
   21.3448   70.0556    3.1775 H   0  0  0  0  0  0
   21.4241   68.8133    4.4029 H   0  0  0  0  0  0
   20.8625   70.4213    4.8270 H   0  0  0  0  0  0
   15.4479   66.6585    3.6666 H   0  0  0  0  0  0
   19.3022   67.5278    6.7041 H   0  0  0  0  0  0
   20.7198   68.0206    8.6173 H   0  0  0  0  0  0
   15.7966   67.3819    9.1967 H   0  0  0  0  0  0
   19.3518   68.0589   13.2296 H   0  0  0  0  0  0
   14.2095   64.1359    6.0224 H   0  0  0  0  0  0
   12.7168   65.2372    7.2132 H   0  0  0  0  0  0
   12.2384   66.2146    5.8364 H   0  0  0  0  0  0
   11.5746   63.3269    6.3748 H   0  0  0  0  0  0
   10.5071   64.6524    6.0320 H   0  0  0  0  0  0
   10.6513   63.1519    4.0820 H   0  0  0  0  0  0
   11.2794   64.7336    3.6944 H   0  0  0  0  0  0
   12.9806   62.3143    4.4314 H   0  0  0  0  0  0
   12.7642   62.9244    2.8186 H   0  0  0  0  0  0
   13.9830   64.8793    3.2415 H   0  0  0  0  0  0
   14.9187   63.6016    4.0095 H   0  0  0  0  0  0
  1  2  1  0  0  0
  1  5  1  0  0  0
  2  3  2  0  0  0
  2  7  1  0  0  0
  3  4  1  0  0  0
  4  5  2  0  0  0
  4  6  1  0  0  0
  5 27  1  0  0  0
  6 28  1  0  0  0
  6 29  1  0  0  0
  6 30  1  0  0  0
  7  8  2  0  0  0
  7 11  1  0  0  0
  8 12  1  0  0  0
  8  9  1  0  0  0
  9 10  2  0  0  0
 10 11  1  0  0  0
 10 21  1  0  0  0
 11 31  1  0  0  0
 12 13  2  0  0  0
 12 15  1  0  0  0
 13 14  1  0  0  0
 13 32  1  0  0  0
 14 17  2  0  0  0
 14 33  1  0  0  0
 15 16  2  0  0  0
 15 34  1  0  0  0
 16 17  1  0  0  0
 16 20  1  0  0  0
 17 18  1  0  0  0
 18 19  2  0  0  0
 19 20  1  0  0  0
 19 35  1  0  0  0
 21 22  1  0  0  0
 21 26  1  0  0  0
 21 36  1  0  0  0
 22 23  1  0  0  0
 22 37  1  0  0  0
 22 38  1  0  0  0
 23 24  1  0  0  0
 23 39  1  0  0  0
 23 40  1  0  0  0
 24 25  1  0  0  0
 24 41  1  0  0  0
 24 42  1  0  0  0
 25 26  1  0  0  0
 25 43  1  0  0  0
 25 44  1  0  0  0
 26 45  1  0  0  0
 26 46  1  0  0  0
M  END
> <s_m_entry_id>
34547

> <s_m_entry_name>
dock_pv.290

> <s_m_Source_Path>
/home/csk/Desktop/cluster/DUD-E-result/tgfr1

> <s_m_Source_File>
dock_pv.maegz

> <i_m_Source_File_Index>
290

> <chembl_id>
CHEMBL2207999

> <chembl_pref_name>
None

> <i_lp_mmshare_version>
53161

> <r_lp_tautomer_probability>
0.499999999999999

> <s_lp_Force_Field>
OPLS_2005

> <r_lp_Energy>
15.458979

> <b_lp_Chiralities_Consistent>
1

> <s_lp_Variant>
CHEMBL4439_lig590-2

> <s_i_glide_gridfile>
glide-grid_3hmm

> <i_i_glide_lignum>
794

> <i_i_glide_rotatable_bonds>
3

> <r_i_docking_score>
-7.99084545264528

> <r_i_glide_ligand_efficiency>
-0.307340209717126

> <r_i_glide_ligand_efficiency_sa>
-0.910494161961657

> <r_i_glide_ligand_efficiency_ln>
-1.87662383445121

> <r_i_glide_gscore>
-7.99084545264528

> <r_i_glide_lipo>
-4.26029014516483

> <r_i_glide_hbond>
0

> <r_i_glide_metal>
0

> <r_i_glide_rewards>
-1.50813757847098

> <r_i_glide_evdw>
-53.0673561096191

> <r_i_glide_ecoul>
0.193317636847496

> <r_i_glide_erotb>
0.401952430944366

> <r_i_glide_esite>
0

> <r_i_glide_emodel>
-74.3149803618517

> <r_i_glide_energy>
-52.8740384727716

> <r_i_glide_einternal>
2.15563368797302

> <i_i_glide_confnum>
8

> <i_i_glide_posenum>
25

> <r_i_glide_eff_state_penalty>
0

> <s_user_duplicate_titles>
CHEMBL4439_lig590,CHEMBL4439_lig590

> <i_f3d_flags>
0

> <s_m_subgroup_title>
dock_pv

> <s_m_subgroupid>
dock_pv

> <b_m_subgroup_collapsed>
1

$$$$
CHEMBL4439_lig176
                    3D
 Schrodinger Suite 2021-1.
 47 51  0  0  1  0            999 V2000
   20.0828   68.6941    4.8940 C   0  0  0  0  0  0
   20.2641   69.2571    3.6319 C   0  0  0  0  0  0
   19.2227   69.2927    2.7079 C   0  0  0  0  0  0
   18.8559   68.1282    5.2152 C   0  0  0  0  0  0
   17.7461   68.1952    4.3311 C   0  0  0  0  0  0
   17.9534   68.7754    3.0410 C   0  0  0  0  0  0
   16.9668   68.8565    2.1107 N   0  0  0  0  0  0
   15.7529   68.3588    2.4319 C   0  0  0  0  0  0
   15.4614   67.7633    3.6533 C   0  0  0  0  0  0
   16.4339   67.7162    4.6564 C   0  0  0  0  0  0
   16.0366   67.2446    6.0285 C   0  0  0  0  0  0
   15.1471   66.1958    6.4032 C   0  0  0  0  0  0
   15.0876   66.0568    7.7166 N   0  0  0  0  0  0
   16.4089   67.8033    7.2569 C   0  0  0  0  0  0
   15.8885   66.9921    8.2157 N   0  0  0  0  0  0
   16.2720   67.3377    9.5714 C   0  0  0  0  0  0
   17.4246   68.3112    9.3233 C   0  0  0  0  0  0
   17.1634   68.9233    7.9465 C   0  0  0  0  0  0
   14.3460   65.2697    5.5326 C   0  0  0  0  0  0
   14.8672   64.6921    4.3696 C   0  0  0  0  0  0
   14.0740   63.8077    3.6340 C   0  0  0  0  0  0
   12.7810   63.5180    4.0677 C   0  0  0  0  0  0
   12.3187   64.1392    5.2296 C   0  0  0  0  0  0
   13.0776   65.0028    5.9555 N   0  0  0  0  0  0
   10.9198   63.8787    5.7515 C   0  0  0  0  0  0
   21.0621   68.6341    5.8604 O   0  0  0  0  0  0
   21.9059   69.7724    6.0672 C   0  0  0  0  0  0
   21.1717   70.8568    6.3176 F   0  0  0  0  0  0
   22.6346   69.5320    7.1553 F   0  0  0  0  0  0
   22.7396   70.0094    5.0532 F   0  0  0  0  0  0
   21.2181   69.6633    3.3383 H   0  0  0  0  0  0
   19.3803   69.7324    1.7322 H   0  0  0  0  0  0
   18.7573   67.6288    6.1639 H   0  0  0  0  0  0
   14.9932   68.4377    1.6653 H   0  0  0  0  0  0
   14.4560   67.4196    3.8406 H   0  0  0  0  0  0
   16.5798   66.4588   10.1398 H   0  0  0  0  0  0
   15.4671   67.8392   10.0961 H   0  0  0  0  0  0
   18.3733   67.7704    9.3146 H   0  0  0  0  0  0
   17.4958   69.0689   10.1036 H   0  0  0  0  0  0
   18.1021   69.2300    7.4899 H   0  0  0  0  0  0
   16.5481   69.8201    8.0313 H   0  0  0  0  0  0
   15.8671   64.9184    4.0379 H   0  0  0  0  0  0
   14.4519   63.3516    2.7325 H   0  0  0  0  0  0
   12.1548   62.8414    3.5048 H   0  0  0  0  0  0
   10.6045   62.8584    5.5370 H   0  0  0  0  0  0
   10.8659   64.0142    6.8318 H   0  0  0  0  0  0
   10.2158   64.5651    5.2799 H   0  0  0  0  0  0
  1  2  2  0  0  0
  1  4  1  0  0  0
  1 26  1  0  0  0
  2  3  1  0  0  0
  2 31  1  0  0  0
  3  6  2  0  0  0
  3 32  1  0  0  0
  4  5  2  0  0  0
  4 33  1  0  0  0
  5 10  1  0  0  0
  5  6  1  0  0  0
  6  7  1  0  0  0
  7  8  2  0  0  0
  8  9  1  0  0  0
  8 34  1  0  0  0
  9 10  2  0  0  0
  9 35  1  0  0  0
 10 11  1  0  0  0
 11 12  1  0  0  0
 11 14  2  0  0  0
 12 19  1  0  0  0
 12 13  2  0  0  0
 13 15  1  0  0  0
 14 15  1  0  0  0
 14 18  1  0  0  0
 15 16  1  0  0  0
 16 17  1  0  0  0
 16 36  1  0  0  0
 16 37  1  0  0  0
 17 18  1  0  0  0
 17 38  1  0  0  0
 17 39  1  0  0  0
 18 40  1  0  0  0
 18 41  1  0  0  0
 19 20  2  0  0  0
 19 24  1  0  0  0
 20 21  1  0  0  0
 20 42  1  0  0  0
 21 22  2  0  0  0
 21 43  1  0  0  0
 22 23  1  0  0  0
 22 44  1  0  0  0
 23 24  2  0  0  0
 23 25  1  0  0  0
 25 45  1  0  0  0
 25 46  1  0  0  0
 25 47  1  0  0  0
 26 27  1  0  0  0
 27 28  1  0  0  0
 27 29  1  0  0  0
 27 30  1  0  0  0
M  END
> <s_m_entry_id>
34548

> <s_m_entry_name>
dock_pv.291

> <s_m_Source_Path>
/home/csk/Desktop/cluster/DUD-E-result/tgfr1

> <s_m_Source_File>
dock_pv.maegz

> <i_m_Source_File_Index>
291

> <chembl_id>
CHEMBL260240

> <chembl_pref_name>
None

> <i_lp_mmshare_version>
53161

> <r_lp_tautomer_probability>
1

> <s_lp_Force_Field>
OPLS_2005

> <r_lp_Energy>
39.676222

> <b_lp_Chiralities_Consistent>
1

> <s_lp_Variant>
CHEMBL4439_lig176-1

> <s_i_glide_gridfile>
glide-grid_3hmm

> <i_i_glide_lignum>
268

> <i_i_glide_rotatable_bonds>
4

> <r_i_docking_score>
-7.98039923848879

> <r_i_glide_ligand_efficiency>
-0.266013307949626

> <r_i_glide_ligand_efficiency_sa>
-0.826565196540289

> <r_i_glide_ligand_efficiency_ln>
-1.81323366039878

> <r_i_glide_gscore>
-7.98039923848879

> <r_i_glide_lipo>
-4.71995449369144

> <r_i_glide_hbond>
-0.0898933722343497

> <r_i_glide_metal>
0

> <r_i_glide_rewards>
-0.787423264505646

> <r_i_glide_evdw>
-47.3400840759277

> <r_i_glide_ecoul>
-2.44683480262756

> <r_i_glide_erotb>
0.350901316133167

> <r_i_glide_esite>
0

> <r_i_glide_emodel>
-69.5890269413234

> <r_i_glide_energy>
-49.7869188785553

> <r_i_glide_einternal>
5.58331155776978

> <i_i_glide_confnum>
14

> <i_i_glide_posenum>
85

> <r_i_glide_eff_state_penalty>
0

> <s_user_duplicate_titles>
CHEMBL4439_lig176,428944

> <i_f3d_flags>
0

> <s_m_subgroup_title>
dock_pv

> <s_m_subgroupid>
dock_pv

> <b_m_subgroup_collapsed>
1

$$$$
CHEMBL4439_lig578
                    3D
 Schrodinger Suite 2021-1.
 46 49  0  0  1  0            999 V2000
   15.4076   67.6570    3.2635 S   0  0  0  0  0  0
   16.7283   67.9430    4.3533 C   0  0  0  0  0  0
   17.7414   68.5734    3.8010 N   0  0  0  0  0  0
   17.5293   68.8858    2.5355 C   0  0  0  0  0  0
   16.2891   68.5126    2.0367 C   0  0  0  0  0  0
   18.6357   69.6178    1.8160 C   0  0  0  0  0  0
   16.6784   67.6017    5.7824 C   0  0  0  0  0  0
   15.8135   66.8707    6.6177 C   0  0  0  0  0  0
   16.1998   66.9281    7.8867 N   0  0  0  0  0  0
   17.3080   67.6302    7.9023 C   0  0  0  0  0  0
   17.6379   68.0571    6.6497 N   0  0  0  0  0  0
   14.5921   66.0958    6.2568 C   0  0  0  0  0  0
   13.3819   66.3421    6.9138 C   0  0  0  0  0  0
   12.2091   65.6701    6.5627 C   0  0  0  0  0  0
   14.6687   65.1287    5.2506 C   0  0  0  0  0  0
   13.4935   64.4682    4.8744 C   0  0  0  0  0  0
   12.2562   64.7459    5.5118 C   0  0  0  0  0  0
   11.1870   64.0649    5.0197 N   0  0  0  0  0  0
   11.5452   63.2945    4.0326 C   0  0  0  0  0  0
   13.2407   63.2570    3.6320 S   0  0  0  0  0  0
   18.1822   67.9186    9.1107 C   0  0  0  0  0  0
   17.6515   67.3044   10.4172 C   0  0  0  0  0  0
   18.6670   67.2570   11.4633 N   0  0  0  0  0  0
   18.6778   67.9862   12.5836 C   0  0  0  0  0  0
   19.7675   67.6437   13.6055 C   0  0  0  0  0  0
   20.6180   68.8570   14.0048 C   0  0  0  0  0  0
   17.8485   68.8570   12.8320 O   0  0  0  0  0  0
   15.8670   68.6772    1.0559 H   0  0  0  0  0  0
   18.5561   69.5126    0.7344 H   0  0  0  0  0  0
   18.6046   70.6847    2.0320 H   0  0  0  0  0  0
   19.6285   69.2597    2.0911 H   0  0  0  0  0  0
   18.4426   68.6156    6.4039 H   0  0  0  0  0  0
   13.3464   67.0828    7.7004 H   0  0  0  0  0  0
   11.2767   65.8794    7.0678 H   0  0  0  0  0  0
   15.6029   64.9261    4.7471 H   0  0  0  0  0  0
   10.8412   62.7121    3.4575 H   0  0  0  0  0  0
   18.2949   68.9955    9.2493 H   0  0  0  0  0  0
   19.1857   67.5353    8.9184 H   0  0  0  0  0  0
   17.3607   66.2684   10.2391 H   0  0  0  0  0  0
   16.7369   67.8128   10.7341 H   0  0  0  0  0  0
   19.3799   66.5423   11.3675 H   0  0  0  0  0  0
   20.4216   66.8572   13.2271 H   0  0  0  0  0  0
   19.2803   67.2230   14.4849 H   0  0  0  0  0  0
   21.3529   68.5711   14.7578 H   0  0  0  0  0  0
   20.0128   69.6566   14.4320 H   0  0  0  0  0  0
   21.1759   69.2498   13.1532 H   0  0  0  0  0  0
  1  2  1  0  0  0
  1  5  1  0  0  0
  2  3  2  0  0  0
  2  7  1  0  0  0
  3  4  1  0  0  0
  4  5  2  0  0  0
  4  6  1  0  0  0
  5 28  1  0  0  0
  6 29  1  0  0  0
  6 30  1  0  0  0
  6 31  1  0  0  0
  7  8  2  0  0  0
  7 11  1  0  0  0
  8 12  1  0  0  0
  8  9  1  0  0  0
  9 10  2  0  0  0
 10 11  1  0  0  0
 10 21  1  0  0  0
 11 32  1  0  0  0
 12 13  2  0  0  0
 12 15  1  0  0  0
 13 14  1  0  0  0
 13 33  1  0  0  0
 14 17  2  0  0  0
 14 34  1  0  0  0
 15 16  2  0  0  0
 15 35  1  0  0  0
 16 17  1  0  0  0
 16 20  1  0  0  0
 17 18  1  0  0  0
 18 19  2  0  0  0
 19 20  1  0  0  0
 19 36  1  0  0  0
 21 22  1  0  0  0
 21 37  1  0  0  0
 21 38  1  0  0  0
 22 23  1  0  0  0
 22 39  1  0  0  0
 22 40  1  0  0  0
 23 24  1  0  0  0
 23 41  1  0  0  0
 24 25  1  0  0  0
 24 27  2  0  0  0
 25 26  1  0  0  0
 25 42  1  0  0  0
 25 43  1  0  0  0
 26 44  1  0  0  0
 26 45  1  0  0  0
 26 46  1  0  0  0
M  END
> <s_m_entry_id>
34549

> <s_m_entry_name>
dock_pv.292

> <s_m_Source_Path>
/home/csk/Desktop/cluster/DUD-E-result/tgfr1

> <s_m_Source_File>
dock_pv.maegz

> <i_m_Source_File_Index>
292

> <chembl_id>
CHEMBL2208012

> <chembl_pref_name>
None

> <i_lp_mmshare_version>
53161

> <r_lp_tautomer_probability>
0.499999999999999

> <s_lp_Force_Field>
OPLS_2005

> <r_lp_Energy>
7.925717

> <b_lp_Chiralities_Consistent>
1

> <s_lp_Variant>
CHEMBL4439_lig578-2

> <s_i_glide_gridfile>
glide-grid_3hmm

> <i_i_glide_lignum>
770

> <i_i_glide_rotatable_bonds>
7

> <r_i_docking_score>
-7.97917341820353

> <r_i_glide_ligand_efficiency>
-0.295524941414945

> <r_i_glide_ligand_efficiency_sa>
-0.886574823270834

> <r_i_glide_ligand_efficiency_ln>
-1.85742002480303

> <r_i_glide_gscore>
-7.97917341820353

> <r_i_glide_lipo>
-3.97838313648348

> <r_i_glide_hbond>
-0.32

> <r_i_glide_metal>
0

> <r_i_glide_rewards>
-1.30552295027441

> <r_i_glide_evdw>
-51.3091011047363

> <r_i_glide_ecoul>
-3.56665325164795

> <r_i_glide_erotb>
0.743275220990324

> <r_i_glide_esite>
-0.0180895094519482

> <r_i_glide_emodel>
-78.0049255611435

> <r_i_glide_energy>
-54.8757543563843

> <r_i_glide_einternal>
4.4881157875061

> <i_i_glide_confnum>
14

> <i_i_glide_posenum>
107

> <r_i_glide_eff_state_penalty>
0

> <s_user_duplicate_titles>
CHEMBL4439_lig578,CHEMBL4439_lig578

> <i_f3d_flags>
0

> <s_m_subgroup_title>
dock_pv

> <s_m_subgroupid>
dock_pv

> <b_m_subgroup_collapsed>
1

$$$$
CHEMBL4439_lig582
                    3D
 Schrodinger Suite 2021-1.
 46 49  0  0  1  0            999 V2000
   16.4272   67.6594    4.1068 S   0  0  0  0  0  0
   17.2780   67.9307    5.6041 C   0  0  0  0  0  0
   18.4828   68.4379    5.4267 N   0  0  0  0  0  0
   18.7965   68.6186    4.1578 C   0  0  0  0  0  0
   17.8099   68.2616    3.2458 C   0  0  0  0  0  0
   20.1740   69.1746    3.8714 C   0  0  0  0  0  0
   16.7198   67.6494    6.9567 C   0  0  0  0  0  0
   15.5516   66.9543    7.3523 C   0  0  0  0  0  0
   15.5438   67.0926    8.7153 N   0  0  0  0  0  0
   16.6535   67.7942    9.0741 C   0  0  0  0  0  0
   17.3626   68.1195    8.0250 N   0  0  0  0  0  0
   14.4636   66.2002    6.6582 C   0  0  0  0  0  0
   13.1353   66.3680    7.0668 C   0  0  0  0  0  0
   12.0872   65.6569    6.4792 C   0  0  0  0  0  0
   14.7746   65.3102    5.6270 C   0  0  0  0  0  0
   13.7262   64.6297    4.9979 C   0  0  0  0  0  0
   12.3836   64.7759    5.4340 C   0  0  0  0  0  0
   11.4751   63.9969    4.7884 N   0  0  0  0  0  0
   12.0518   63.2888    3.8591 C   0  0  0  0  0  0
   13.7655   63.5328    3.6322 S   0  0  0  0  0  0
   16.9518   68.1769   10.5068 C   0  0  0  0  0  0
   18.2514   67.5579   11.0809 C   0  0  0  0  0  0
   18.3508   67.6570   12.6156 C   0  0  0  0  0  0
   19.2407   66.8572   13.2317 N   0  0  0  0  0  0
   17.6530   68.4570   13.2317 O   0  0  0  0  0  0
   19.5365   66.8369   14.6625 C   0  0  0  0  0  0
   18.3909   66.2859   15.5260 C   0  0  0  0  0  0
   17.8302   68.3145    2.1687 H   0  0  0  0  0  0
   20.2974   69.4351    2.8203 H   0  0  0  0  0  0
   20.3786   70.0774    4.4470 H   0  0  0  0  0  0
   20.9558   68.4535    4.1155 H   0  0  0  0  0  0
   14.8329   66.7615    9.3486 H   0  0  0  0  0  0
   12.9083   67.0551    7.8697 H   0  0  0  0  0  0
   11.0688   65.7803    6.8201 H   0  0  0  0  0  0
   15.7965   65.1610    5.3113 H   0  0  0  0  0  0
   11.5064   62.6204    3.2094 H   0  0  0  0  0  0
   16.0980   67.9719   11.1580 H   0  0  0  0  0  0
   17.0671   69.2572   10.5306 H   0  0  0  0  0  0
   19.1333   67.9781   10.5956 H   0  0  0  0  0  0
   18.2555   66.4956   10.8342 H   0  0  0  0  0  0
   19.7886   66.2262   12.6526 H   0  0  0  0  0  0
   19.8291   67.8352   14.9932 H   0  0  0  0  0  0
   20.4172   66.2078   14.8027 H   0  0  0  0  0  0
   18.6585   66.2927   16.5823 H   0  0  0  0  0  0
   18.1748   65.2571   15.2547 H   0  0  0  0  0  0
   17.4701   66.8576   15.4118 H   0  0  0  0  0  0
  1  2  1  0  0  0
  1  5  1  0  0  0
  2  3  2  0  0  0
  2  7  1  0  0  0
  3  4  1  0  0  0
  4  5  2  0  0  0
  4  6  1  0  0  0
  5 28  1  0  0  0
  6 29  1  0  0  0
  6 30  1  0  0  0
  6 31  1  0  0  0
  7  8  2  0  0  0
  7 11  1  0  0  0
  8  9  1  0  0  0
  8 12  1  0  0  0
  9 10  1  0  0  0
  9 32  1  0  0  0
 10 11  2  0  0  0
 10 21  1  0  0  0
 12 13  2  0  0  0
 12 15  1  0  0  0
 13 14  1  0  0  0
 13 33  1  0  0  0
 14 17  2  0  0  0
 14 34  1  0  0  0
 15 16  2  0  0  0
 15 35  1  0  0  0
 16 17  1  0  0  0
 16 20  1  0  0  0
 17 18  1  0  0  0
 18 19  2  0  0  0
 19 20  1  0  0  0
 19 36  1  0  0  0
 21 22  1  0  0  0
 21 37  1  0  0  0
 21 38  1  0  0  0
 22 23  1  0  0  0
 22 39  1  0  0  0
 22 40  1  0  0  0
 23 24  1  0  0  0
 23 25  2  0  0  0
 24 26  1  0  0  0
 24 41  1  0  0  0
 26 27  1  0  0  0
 26 42  1  0  0  0
 26 43  1  0  0  0
 27 44  1  0  0  0
 27 45  1  0  0  0
 27 46  1  0  0  0
M  END
> <s_m_entry_id>
34550

> <s_m_entry_name>
dock_pv.293

> <s_m_Source_Path>
/home/csk/Desktop/cluster/DUD-E-result/tgfr1

> <s_m_Source_File>
dock_pv.maegz

> <i_m_Source_File_Index>
293

> <chembl_id>
CHEMBL2208008

> <chembl_pref_name>
None

> <i_lp_mmshare_version>
53161

> <r_lp_tautomer_probability>
0.499999999999999

> <s_lp_Force_Field>
OPLS_2005

> <r_lp_Energy>
4.507496

> <b_lp_Chiralities_Consistent>
1

> <s_lp_Variant>
CHEMBL4439_lig582-1

> <s_i_glide_gridfile>
glide-grid_3hmm

> <i_i_glide_lignum>
777

> <i_i_glide_rotatable_bonds>
7

> <r_i_docking_score>
-7.97439967625874

> <r_i_glide_ligand_efficiency>
-0.295348136157731

> <r_i_glide_ligand_efficiency_sa>
-0.886044407499774

> <r_i_glide_ligand_efficiency_ln>
-1.85630877637957

> <r_i_glide_gscore>
-7.97439967625874

> <r_i_glide_lipo>
-3.87374547869974

> <r_i_glide_hbond>
-0.32

> <r_i_glide_metal>
0

> <r_i_glide_rewards>
-1.38128125086226

> <r_i_glide_evdw>
-52.2683029174805

> <r_i_glide_ecoul>
-3.12958359718323

> <r_i_glide_erotb>
0.743275220990324

> <r_i_glide_esite>
-0.05979548223556

> <r_i_glide_emodel>
-80.8350554907436

> <r_i_glide_energy>
-55.3978865146637

> <r_i_glide_einternal>
3.46790313720703

> <i_i_glide_confnum>
9

> <i_i_glide_posenum>
178

> <r_i_glide_eff_state_penalty>
0

> <s_user_duplicate_titles>
CHEMBL4439_lig582,CHEMBL4439_lig582

> <i_f3d_flags>
0

> <s_m_subgroup_title>
dock_pv

> <s_m_subgroupid>
dock_pv

> <b_m_subgroup_collapsed>
1

$$$$
CHEMBL4439_lig294
                    3D
 Schrodinger Suite 2021-1.
 42 45  0  0  1  0            999 V2000
   16.0394   66.9148    7.1677 C   0  0  0  0  0  0
   17.0899   67.6982    6.8047 C   0  0  0  0  0  0
   17.7298   68.1087    7.9667 N   0  0  0  0  0  0
   17.0594   67.5398    9.0283 N   0  0  0  0  0  0
   16.0484   66.7605    8.6161 C   0  0  0  0  0  0
   15.3292   66.0567    9.3242 O   0  0  0  0  0  0
   17.5789   67.5769   10.4015 C   0  0  0  0  0  0
   17.9566   69.5366    8.1943 C   0  0  0  0  0  0
   17.5894   68.1143    5.4584 C   0  0  0  0  0  0
   16.7533   68.1980    4.3371 C   0  0  0  0  0  0
   17.2346   68.5599    3.0809 C   0  0  0  0  0  0
   18.9414   68.4577    5.3054 C   0  0  0  0  0  0
   19.4555   68.8781    4.0625 C   0  0  0  0  0  0
   18.5920   68.9081    2.9265 C   0  0  0  0  0  0
   19.0610   69.2819    1.7037 N   0  0  0  0  0  0
   20.3677   69.6569    1.6326 C   0  0  0  0  0  0
   21.2046   69.6575    2.7482 C   0  0  0  0  0  0
   20.7631   69.2563    3.9656 N   0  0  0  0  0  0
   15.0837   66.1506    6.3105 C   0  0  0  0  0  0
   15.4674   65.5465    5.1091 C   0  0  0  0  0  0
   14.5338   64.8289    4.3634 C   0  0  0  0  0  0
   13.2224   64.7403    4.8218 C   0  0  0  0  0  0
   12.8909   65.3919    6.0088 C   0  0  0  0  0  0
   13.7927   66.0911    6.7474 N   0  0  0  0  0  0
   11.4719   65.3663    6.5232 C   0  0  0  0  0  0
   16.9921   66.9705   11.0957 H   0  0  0  0  0  0
   18.6054   67.2103   10.4281 H   0  0  0  0  0  0
   17.5717   68.5958   10.7859 H   0  0  0  0  0  0
   18.3881   70.0289    7.3247 H   0  0  0  0  0  0
   17.0303   70.0623    8.4301 H   0  0  0  0  0  0
   18.6637   69.6600    9.0145 H   0  0  0  0  0  0
   15.6963   68.0049    4.4343 H   0  0  0  0  0  0
   16.5711   68.6066    2.2285 H   0  0  0  0  0  0
   19.6249   68.4085    6.1419 H   0  0  0  0  0  0
   20.7269   69.9926    0.6701 H   0  0  0  0  0  0
   22.2374   69.9676    2.6771 H   0  0  0  0  0  0
   16.4762   65.6569    4.7498 H   0  0  0  0  0  0
   14.8169   64.3584    3.4334 H   0  0  0  0  0  0
   12.4803   64.2044    4.2484 H   0  0  0  0  0  0
   10.7751   65.6697    5.7384 H   0  0  0  0  0  0
   11.3332   66.0262    7.3788 H   0  0  0  0  0  0
   11.2121   64.3506    6.8256 H   0  0  0  0  0  0
  1  5  1  0  0  0
  1  2  2  0  0  0
  1 19  1  0  0  0
  2  9  1  0  0  0
  2  3  1  0  0  0
  3  8  1  0  0  0
  3  4  1  0  0  0
  4  7  1  0  0  0
  4  5  1  0  0  0
  5  6  2  0  0  0
  7 26  1  0  0  0
  7 27  1  0  0  0
  7 28  1  0  0  0
  8 29  1  0  0  0
  8 30  1  0  0  0
  8 31  1  0  0  0
  9 12  1  0  0  0
  9 10  2  0  0  0
 10 11  1  0  0  0
 10 32  1  0  0  0
 11 14  2  0  0  0
 11 33  1  0  0  0
 12 13  2  0  0  0
 12 34  1  0  0  0
 13 14  1  0  0  0
 13 18  1  0  0  0
 14 15  1  0  0  0
 15 16  2  0  0  0
 16 17  1  0  0  0
 16 35  1  0  0  0
 17 18  2  0  0  0
 17 36  1  0  0  0
 19 20  2  0  0  0
 19 24  1  0  0  0
 20 21  1  0  0  0
 20 37  1  0  0  0
 21 22  2  0  0  0
 21 38  1  0  0  0
 22 23  1  0  0  0
 22 39  1  0  0  0
 23 24  2  0  0  0
 23 25  1  0  0  0
 25 40  1  0  0  0
 25 41  1  0  0  0
 25 42  1  0  0  0
M  END
> <s_m_entry_id>
34552

> <s_m_entry_name>
dock_pv.295

> <s_m_Source_Path>
/home/csk/Desktop/cluster/DUD-E-result/tgfr1

> <s_m_Source_File>
dock_pv.maegz

> <i_m_Source_File_Index>
295

> <chembl_id>
CHEMBL606632

> <chembl_pref_name>
None

> <i_lp_mmshare_version>
53161

> <r_lp_tautomer_probability>
1

> <s_lp_Force_Field>
OPLS_2005

> <r_lp_Energy>
41.175911

> <b_lp_Chiralities_Consistent>
1

> <s_lp_Variant>
CHEMBL4439_lig294-1

> <s_i_glide_gridfile>
glide-grid_3hmm

> <i_i_glide_lignum>
426

> <i_i_glide_rotatable_bonds>
2

> <r_i_docking_score>
-7.95572318366682

> <r_i_glide_ligand_efficiency>
-0.318228927346673

> <r_i_glide_ligand_efficiency_sa>
-0.930507027375729

> <r_i_glide_ligand_efficiency_ln>
-1.88574480831404

> <r_i_glide_gscore>
-7.95572318366682

> <r_i_glide_lipo>
-3.28721845874308

> <r_i_glide_hbond>
-0.16

> <r_i_glide_metal>
0

> <r_i_glide_rewards>
-1.82477727897747

> <r_i_glide_evdw>
-40.3940887451172

> <r_i_glide_ecoul>
-6.71209764480591

> <r_i_glide_erotb>
0.342791638030479

> <r_i_glide_esite>
0

> <r_i_glide_emodel>
-69.1781555396523

> <r_i_glide_energy>
-47.1061863899231

> <r_i_glide_einternal>
0.902842283248901

> <i_i_glide_confnum>
9

> <i_i_glide_posenum>
63

> <r_i_glide_eff_state_penalty>
0

> <s_user_duplicate_titles>
CHEMBL4439_lig294,593878

> <i_f3d_flags>
0

> <s_m_subgroup_title>
dock_pv

> <s_m_subgroupid>
dock_pv

> <b_m_subgroup_collapsed>
1

$$$$
CHEMBL4439_lig432
                    3D
 Schrodinger Suite 2021-1.
 52 56  0  0  1  0            999 V2000
   16.9953   68.4561    2.8261 C   0  0  0  0  0  0
   18.3316   68.8549    2.8196 C   0  0  0  0  0  0
   19.0368   68.8331    4.0254 C   0  0  0  0  0  0
   18.4710   68.4504    5.1993 N   0  0  0  0  0  0
   17.1633   68.0572    5.2023 C   0  0  0  0  0  0
   16.4021   68.0561    4.0250 C   0  0  0  0  0  0
   16.5679   67.7154    6.5456 C   0  0  0  0  0  0
   17.0319   68.3132    7.6323 N   0  0  0  0  0  0
   16.2509   67.9177    8.6389 N   0  0  0  0  0  0
   15.3118   67.0175    8.2323 C   0  0  0  0  0  0
   15.4824   66.8496    6.8667 C   0  0  0  0  0  0
   14.6571   65.9417    6.0150 C   0  0  0  0  0  0
   15.2310   65.2569    4.9446 C   0  0  0  0  0  0
   14.4986   64.3764    4.1551 C   0  0  0  0  0  0
   13.3024   65.7542    6.3014 C   0  0  0  0  0  0
   12.5218   64.8832    5.5075 C   0  0  0  0  0  0
   13.1331   64.1675    4.4318 C   0  0  0  0  0  0
   12.4073   63.3213    3.6475 N   0  0  0  0  0  0
   11.0763   63.2570    3.8919 C   0  0  0  0  0  0
   10.4783   63.9470    4.9421 C   0  0  0  0  0  0
   11.1922   64.7514    5.7645 N   0  0  0  0  0  0
   20.4971   69.2364    4.0973 C   0  0  0  0  0  0
   16.4389   68.4534    9.9812 C   0  0  0  0  0  0
   17.4368   67.7193   10.8820 C   0  0  0  0  0  0
   17.0912   67.6653   12.1887 N   0  0  0  0  0  0
   17.8657   67.2494   13.2848 C   0  0  0  0  0  0
   19.2683   67.2574   13.2920 C   0  0  0  0  0  0
   19.9620   66.8491   14.4286 C   0  0  0  0  0  0
   19.2590   66.4458   15.5605 C   0  0  0  0  0  0
   17.8667   66.4570   15.5695 C   0  0  0  0  0  0
   17.1706   66.8570   14.4316 C   0  0  0  0  0  0
   18.4728   67.2566   10.4076 O   0  0  0  0  0  0
   16.4174   68.4687    1.9134 H   0  0  0  0  0  0
   18.8059   69.1709    1.9012 H   0  0  0  0  0  0
   15.3569   67.7854    4.0363 H   0  0  0  0  0  0
   14.6089   66.6014    8.9359 H   0  0  0  0  0  0
   16.2669   65.4182    4.7116 H   0  0  0  0  0  0
   14.9591   63.8566    3.3269 H   0  0  0  0  0  0
   12.8234   66.2893    7.1084 H   0  0  0  0  0  0
   10.4951   62.6292    3.2319 H   0  0  0  0  0  0
    9.4205   63.8648    5.1413 H   0  0  0  0  0  0
   20.8651   69.5939    3.1348 H   0  0  0  0  0  0
   20.6397   70.0322    4.8293 H   0  0  0  0  0  0
   21.1099   68.3848    4.3968 H   0  0  0  0  0  0
   15.4670   68.4570   10.4599 H   0  0  0  0  0  0
   16.7620   69.4898    9.8970 H   0  0  0  0  0  0
   16.1293   67.8814   12.4175 H   0  0  0  0  0  0
   19.8350   67.5659   12.4260 H   0  0  0  0  0  0
   21.0426   66.8340   14.4227 H   0  0  0  0  0  0
   19.7992   66.1169   16.4367 H   0  0  0  0  0  0
   17.3283   66.1397   16.4512 H   0  0  0  0  0  0
   16.0899   66.8519   14.4479 H   0  0  0  0  0  0
  1  6  1  0  0  0
  1  2  2  0  0  0
  1 33  1  0  0  0
  2  3  1  0  0  0
  2 34  1  0  0  0
  3  4  2  0  0  0
  3 22  1  0  0  0
  4  5  1  0  0  0
  5  7  1  0  0  0
  5  6  2  0  0  0
  6 35  1  0  0  0
  7 11  1  0  0  0
  7  8  2  0  0  0
  8  9  1  0  0  0
  9 10  1  0  0  0
  9 23  1  0  0  0
 10 11  2  0  0  0
 10 36  1  0  0  0
 11 12  1  0  0  0
 12 15  1  0  0  0
 12 13  2  0  0  0
 13 14  1  0  0  0
 13 37  1  0  0  0
 14 17  2  0  0  0
 14 38  1  0  0  0
 15 16  2  0  0  0
 15 39  1  0  0  0
 16 17  1  0  0  0
 16 21  1  0  0  0
 17 18  1  0  0  0
 18 19  2  0  0  0
 19 20  1  0  0  0
 19 40  1  0  0  0
 20 21  2  0  0  0
 20 41  1  0  0  0
 22 42  1  0  0  0
 22 43  1  0  0  0
 22 44  1  0  0  0
 23 24  1  0  0  0
 23 45  1  0  0  0
 23 46  1  0  0  0
 24 25  1  0  0  0
 24 32  2  0  0  0
 25 26  1  0  0  0
 25 47  1  0  0  0
 26 27  2  0  0  0
 26 31  1  0  0  0
 27 28  1  0  0  0
 27 48  1  0  0  0
 28 29  2  0  0  0
 28 49  1  0  0  0
 29 30  1  0  0  0
 29 50  1  0  0  0
 30 31  2  0  0  0
 30 51  1  0  0  0
 31 52  1  0  0  0
M  END
> <s_m_entry_id>
34553

> <s_m_entry_name>
dock_pv.296

> <s_m_Source_Path>
/home/csk/Desktop/cluster/DUD-E-result/tgfr1

> <s_m_Source_File>
dock_pv.maegz

> <i_m_Source_File_Index>
296

> <chembl_id>
CHEMBL1824226

> <chembl_pref_name>
None

> <i_lp_mmshare_version>
53161

> <r_lp_tautomer_probability>
1

> <s_lp_Force_Field>
OPLS_2005

> <r_lp_Energy>
39.931147

> <b_lp_Chiralities_Consistent>
1

> <s_lp_Variant>
CHEMBL4439_lig432-1

> <s_i_glide_gridfile>
glide-grid_3hmm

> <i_i_glide_lignum>
572

> <i_i_glide_rotatable_bonds>
6

> <r_i_docking_score>
-7.95374268340975

> <r_i_glide_ligand_efficiency>
-0.248554458856555

> <r_i_glide_ligand_efficiency_sa>
-0.789111218008946

> <r_i_glide_ligand_efficiency_ln>
-1.78105979765245

> <r_i_glide_gscore>
-7.95374268340975

> <r_i_glide_lipo>
-4.08135143355354

> <r_i_glide_hbond>
-0.068895447131143

> <r_i_glide_metal>
0

> <r_i_glide_rewards>
-1.43413966138301

> <r_i_glide_evdw>
-59.6084289550781

> <r_i_glide_ecoul>
0.34193941950798

> <r_i_glide_erotb>
0.559774393485658

> <r_i_glide_esite>
0

> <r_i_glide_emodel>
-85.8161757033446

> <r_i_glide_energy>
-59.2664895355701

> <r_i_glide_einternal>
3.238853931427

> <i_i_glide_confnum>
26

> <i_i_glide_posenum>
54

> <r_i_glide_eff_state_penalty>
0

> <s_user_duplicate_titles>
CHEMBL4439_lig432

> <i_f3d_flags>
0

> <s_m_subgroup_title>
dock_pv

> <s_m_subgroupid>
dock_pv

> <b_m_subgroup_collapsed>
1

$$$$
CHEMBL4439_lig974
                    3D
 Schrodinger Suite 2021-1.
 46 50  0  0  1  0            999 V2000
   17.3084   67.9325    4.2460 C   0  0  0  0  0  0
   15.9711   67.5746    4.0382 C   0  0  0  0  0  0
   15.3223   68.0570    2.8882 C   0  0  0  0  0  0
   15.9786   68.8559    1.9471 C   0  0  0  0  0  0
   15.1992   66.6875    4.9705 C   0  0  0  0  0  0
   14.4266   65.7436    4.4286 N   0  0  0  0  0  0
   13.7724   65.1754    5.4066 C   0  0  0  0  0  0
   14.1331   65.7283    6.5953 N   0  0  0  0  0  0
   15.1287   66.6489    6.3825 C   0  0  0  0  0  0
   12.8746   64.1410    5.3248 N   0  0  0  0  0  0
   15.8400   67.2915    7.5422 C   0  0  0  0  0  0
   16.9332   68.0494    7.2710 N   0  0  0  0  0  0
   17.7227   68.4572    8.3007 C   0  0  0  0  0  0
   17.4471   68.1287    9.6330 C   0  0  0  0  0  0
   16.2785   67.4270    9.9141 C   0  0  0  0  0  0
   15.4658   67.0099    8.8622 C   0  0  0  0  0  0
   18.9424   69.2710    7.9083 C   0  0  0  0  0  0
   18.2911   68.4570   10.6366 F   0  0  0  0  0  0
   17.9553   68.6501    3.2827 N   0  0  0  0  0  0
   17.3436   69.0793    2.1117 C   0  0  0  0  0  0
   18.2673   69.6569    1.3274 N   0  0  0  0  0  0
   19.3372   69.6288    2.0982 C   0  0  0  0  0  0
   19.2419   69.0448    3.2800 N   0  0  0  0  0  0
   12.6054   63.3869    4.0972 C   0  0  0  0  0  0
   11.1625   63.6589    3.6709 C   0  0  0  0  0  0
   10.2402   63.2572    4.6597 O   0  0  0  0  0  0
   10.4067   64.0369    5.8270 C   0  0  0  0  0  0
   11.8340   63.8576    6.3365 C   0  0  0  0  0  0
   17.9105   67.6568    5.0910 H   0  0  0  0  0  0
   14.2818   67.8216    2.7223 H   0  0  0  0  0  0
   15.4679   69.2571    1.0911 H   0  0  0  0  0  0
   13.7541   65.4667    7.4876 H   0  0  0  0  0  0
   16.0251   67.1870   10.9364 H   0  0  0  0  0  0
   14.5728   66.4564    9.0851 H   0  0  0  0  0  0
   19.4002   69.7528    8.7733 H   0  0  0  0  0  0
   19.6907   68.6327    7.4371 H   0  0  0  0  0  0
   18.6687   70.0562    7.2030 H   0  0  0  0  0  0
   20.2753   70.0439    1.7529 H   0  0  0  0  0  0
   13.2837   63.6868    3.2966 H   0  0  0  0  0  0
   12.7904   62.3257    4.2608 H   0  0  0  0  0  0
   10.9207   63.2010    2.7199 H   0  0  0  0  0  0
   11.0672   64.7444    3.6324 H   0  0  0  0  0  0
    9.7033   63.6570    6.5658 H   0  0  0  0  0  0
   10.2087   65.0916    5.6309 H   0  0  0  0  0  0
   11.8671   62.8100    6.6260 H   0  0  0  0  0  0
   11.9880   64.4588    7.2319 H   0  0  0  0  0  0
  1  2  2  0  0  0
  1 19  1  0  0  0
  1 29  1  0  0  0
  2  3  1  0  0  0
  2  5  1  0  0  0
  3  4  2  0  0  0
  3 30  1  0  0  0
  4 20  1  0  0  0
  4 31  1  0  0  0
  5  6  1  0  0  0
  5  9  2  0  0  0
  6  7  2  0  0  0
  7 10  1  0  0  0
  7  8  1  0  0  0
  8 32  1  0  0  0
  8  9  1  0  0  0
  9 11  1  0  0  0
 10 24  1  0  0  0
 10 28  1  0  0  0
 11 16  1  0  0  0
 11 12  2  0  0  0
 12 13  1  0  0  0
 13 14  2  0  0  0
 13 17  1  0  0  0
 14 15  1  0  0  0
 14 18  1  0  0  0
 15 16  2  0  0  0
 15 33  1  0  0  0
 16 34  1  0  0  0
 17 35  1  0  0  0
 17 36  1  0  0  0
 17 37  1  0  0  0
 19 20  1  0  0  0
 19 23  1  0  0  0
 20 21  2  0  0  0
 21 22  1  0  0  0
 22 23  2  0  0  0
 22 38  1  0  0  0
 24 25  1  0  0  0
 24 39  1  0  0  0
 24 40  1  0  0  0
 25 26  1  0  0  0
 25 41  1  0  0  0
 25 42  1  0  0  0
 26 27  1  0  0  0
 27 28  1  0  0  0
 27 43  1  0  0  0
 27 44  1  0  0  0
 28 45  1  0  0  0
 28 46  1  0  0  0
M  END
> <s_m_entry_id>
34555

> <s_m_entry_name>
dock_pv.298

> <s_m_Source_Path>
/home/csk/Desktop/cluster/DUD-E-result/tgfr1

> <s_m_Source_File>
dock_pv.maegz

> <i_m_Source_File_Index>
298

> <chembl_id>
CHEMBL520104

> <chembl_pref_name>
None

> <i_lp_mmshare_version>
53161

> <r_lp_tautomer_probability>
0.4999999972705

> <s_lp_Force_Field>
OPLS_2005

> <r_lp_Energy>
24.589154

> <b_lp_Chiralities_Consistent>
1

> <s_lp_Variant>
CHEMBL4439_lig974-2

> <s_i_glide_gridfile>
glide-grid_3hmm

> <i_i_glide_lignum>
1331

> <i_i_glide_rotatable_bonds>
3

> <r_i_docking_score>
-7.94687684746833

> <r_i_glide_ligand_efficiency>
-0.283817030266726

> <r_i_glide_ligand_efficiency_sa>
-0.861835663181171

> <r_i_glide_ligand_efficiency_ln>
-1.83437250683877

> <r_i_glide_gscore>
-7.94687684746833

> <r_i_glide_lipo>
-3.21225907115195

> <r_i_glide_hbond>
-0.222376122164764

> <r_i_glide_metal>
0

> <r_i_glide_rewards>
-3.08934402940542

> <r_i_glide_evdw>
-38.5673294067383

> <r_i_glide_ecoul>
0.833728611469269

> <r_i_glide_erotb>
0.404120234506812

> <r_i_glide_esite>
-0.0237106806364812

> <r_i_glide_emodel>
-52.3936106140226

> <r_i_glide_energy>
-37.733600795269

> <r_i_glide_einternal>
1.68427002429962

> <i_i_glide_confnum>
16

> <i_i_glide_posenum>
46

> <r_i_glide_eff_state_penalty>
0

> <s_user_duplicate_titles>
CHEMBL4439_lig974,CHEMBL4439_lig974,474784

> <i_f3d_flags>
0

> <s_m_subgroup_title>
dock_pv

> <s_m_subgroupid>
dock_pv

> <b_m_subgroup_collapsed>
1

$$$$
CHEMBL4439_lig372
                    3D
 Schrodinger Suite 2021-1.
 57 61  0  0  1  0            999 V2000
   20.1951   69.6570    1.6610 C   0  0  0  0  0  0
   20.9895   69.6569    2.8028 C   0  0  0  0  0  0
   20.4306   69.2749    4.0311 C   0  0  0  0  0  0
   18.8989   69.2570    1.6455 N   0  0  0  0  0  0
   18.3351   68.8638    2.8196 C   0  0  0  0  0  0
   19.0668   68.8605    4.0461 C   0  0  0  0  0  0
   18.4047   68.4561    5.2310 C   0  0  0  0  0  0
   17.0673   68.0474    5.2135 C   0  0  0  0  0  0
   16.3679   68.0569    4.0054 C   0  0  0  0  0  0
   16.9811   68.4565    2.8199 C   0  0  0  0  0  0
   16.4365   67.6254    6.5058 C   0  0  0  0  0  0
   15.3933   66.7025    6.8013 C   0  0  0  0  0  0
   15.1791   66.6238    8.1033 N   0  0  0  0  0  0
   16.0681   67.4319    8.6818 N   0  0  0  0  0  0
   16.7987   68.1164    7.7539 C   0  0  0  0  0  0
   14.5946   65.8188    5.8892 C   0  0  0  0  0  0
   15.1665   65.1835    4.7828 C   0  0  0  0  0  0
   14.3946   64.2955    4.0316 C   0  0  0  0  0  0
   13.0672   64.0664    4.3921 C   0  0  0  0  0  0
   12.5482   64.7639    5.4835 C   0  0  0  0  0  0
   13.2914   65.6170    6.2350 N   0  0  0  0  0  0
   16.0239   67.6143   10.1317 C   0  0  0  0  0  0
   17.3664   67.6443   10.8715 C   0  0  0  0  0  0
   17.2618   67.6573   12.2170 N   0  0  0  0  0  0
   18.4312   67.6143   10.2535 O   0  0  0  0  0  0
   18.3114   67.5666   13.1425 C   0  0  0  0  0  0
   18.0566   66.8471   14.3104 C   0  0  0  0  0  0
   19.0738   66.6466   15.2402 C   0  0  0  0  0  0
   20.3298   67.2078   15.0201 C   0  0  0  0  0  0
   20.5801   67.9644   13.8772 C   0  0  0  0  0  0
   19.5711   68.1463   12.9350 C   0  0  0  0  0  0
   11.1014   64.6151    5.8951 C   0  0  0  0  0  0
   21.1156   69.3103    5.2314 O   0  0  0  0  0  0
   22.4518   69.8062    5.2584 C   0  0  0  0  0  0
   20.6111   69.9765    0.7160 H   0  0  0  0  0  0
   22.0135   69.9876    2.7207 H   0  0  0  0  0  0
   18.9648   68.4495    6.1551 H   0  0  0  0  0  0
   15.3267   67.7703    3.9809 H   0  0  0  0  0  0
   16.4220   68.4650    1.8951 H   0  0  0  0  0  0
   17.5271   68.8540    8.0607 H   0  0  0  0  0  0
   16.1977   65.3596    4.5209 H   0  0  0  0  0  0
   14.8193   63.7882    3.1779 H   0  0  0  0  0  0
   12.4530   63.3941    3.8108 H   0  0  0  0  0  0
   15.4663   66.7821   10.5610 H   0  0  0  0  0  0
   15.4676   68.5253   10.3313 H   0  0  0  0  0  0
   16.3305   67.5696   12.6026 H   0  0  0  0  0  0
   17.0871   66.3997   14.4807 H   0  0  0  0  0  0
   18.8919   66.0561   16.1266 H   0  0  0  0  0  0
   21.1203   67.0473   15.7394 H   0  0  0  0  0  0
   21.5585   68.3899   13.7085 H   0  0  0  0  0  0
   19.7799   68.7219   12.0444 H   0  0  0  0  0  0
   10.5147   64.0919    5.1393 H   0  0  0  0  0  0
   11.0276   64.0626    6.8317 H   0  0  0  0  0  0
   10.6670   65.6046    6.0324 H   0  0  0  0  0  0
   22.8581   69.7015    6.2642 H   0  0  0  0  0  0
   23.1067   69.2584    4.5800 H   0  0  0  0  0  0
   22.4879   70.8631    4.9972 H   0  0  0  0  0  0
  1  4  1  0  0  0
  1  2  2  0  0  0
  1 35  1  0  0  0
  2  3  1  0  0  0
  2 36  1  0  0  0
  3  6  2  0  0  0
  3 33  1  0  0  0
  4  5  2  0  0  0
  5 10  1  0  0  0
  5  6  1  0  0  0
  6  7  1  0  0  0
  7  8  2  0  0  0
  7 37  1  0  0  0
  8  9  1  0  0  0
  8 11  1  0  0  0
  9 10  2  0  0  0
  9 38  1  0  0  0
 10 39  1  0  0  0
 11 12  1  0  0  0
 11 15  2  0  0  0
 12 16  1  0  0  0
 12 13  2  0  0  0
 13 14  1  0  0  0
 14 22  1  0  0  0
 14 15  1  0  0  0
 15 40  1  0  0  0
 16 17  2  0  0  0
 16 21  1  0  0  0
 17 18  1  0  0  0
 17 41  1  0  0  0
 18 19  2  0  0  0
 18 42  1  0  0  0
 19 20  1  0  0  0
 19 43  1  0  0  0
 20 21  2  0  0  0
 20 32  1  0  0  0
 22 23  1  0  0  0
 22 44  1  0  0  0
 22 45  1  0  0  0
 23 24  1  0  0  0
 23 25  2  0  0  0
 24 26  1  0  0  0
 24 46  1  0  0  0
 26 27  2  0  0  0
 26 31  1  0  0  0
 27 28  1  0  0  0
 27 47  1  0  0  0
 28 29  2  0  0  0
 28 48  1  0  0  0
 29 30  1  0  0  0
 29 49  1  0  0  0
 30 31  2  0  0  0
 30 50  1  0  0  0
 31 51  1  0  0  0
 32 52  1  0  0  0
 32 53  1  0  0  0
 32 54  1  0  0  0
 33 34  1  0  0  0
 34 55  1  0  0  0
 34 56  1  0  0  0
 34 57  1  0  0  0
M  END
> <s_m_entry_id>
34556

> <s_m_entry_name>
dock_pv.299

> <s_m_Source_Path>
/home/csk/Desktop/cluster/DUD-E-result/tgfr1

> <s_m_Source_File>
dock_pv.maegz

> <i_m_Source_File_Index>
299

> <chembl_id>
CHEMBL1766442

> <chembl_pref_name>
None

> <i_lp_mmshare_version>
53161

> <r_lp_tautomer_probability>
1

> <s_lp_Force_Field>
OPLS_2005

> <r_lp_Energy>
34.063421

> <b_lp_Chiralities_Consistent>
1

> <s_lp_Variant>
CHEMBL4439_lig372-1

> <s_i_glide_gridfile>
glide-grid_3hmm

> <i_i_glide_lignum>
510

> <i_i_glide_rotatable_bonds>
7

> <r_i_docking_score>
-7.93578745815041

> <r_i_glide_ligand_efficiency>
-0.233405513475012

> <r_i_glide_ligand_efficiency_sa>
-0.756143255048068

> <r_i_glide_ligand_efficiency_ln>
-1.75323804080396

> <r_i_glide_gscore>
-7.93578745815041

> <r_i_glide_lipo>
-3.93472862467742

> <r_i_glide_hbond>
-0.0391398160773559

> <r_i_glide_metal>
0

> <r_i_glide_rewards>
-1.11019495739796

> <r_i_glide_evdw>
-56.4086685180664

> <r_i_glide_ecoul>
-3.514892578125

> <r_i_glide_erotb>
0.495943252624405

> <r_i_glide_esite>
0

> <r_i_glide_emodel>
-85.6466368219926

> <r_i_glide_energy>
-59.9235610961914

> <r_i_glide_einternal>
6.10404300689697

> <i_i_glide_confnum>
8

> <i_i_glide_posenum>
12

> <r_i_glide_eff_state_penalty>
0

> <s_user_duplicate_titles>
CHEMBL4439_lig372

> <i_f3d_flags>
0

> <s_m_subgroup_title>
dock_pv

> <s_m_subgroupid>
dock_pv

> <b_m_subgroup_collapsed>
1

$$$$
CHEMBL4439_lig878 
                    3D
 Schrodinger Suite 2021-1.
 33 35  0  0  1  0            999 V2000
   17.9274   68.2448    7.6042 C   0  0  0  0  0  0
   17.9460   68.3062    6.2297 N   0  0  0  0  0  0
   16.9105   67.6568    5.6838 N   0  0  0  0  0  0
   16.2016   67.1672    6.6795 C   0  0  0  0  0  0
   16.7672   67.5301    7.9337 C   0  0  0  0  0  0
   18.9745   68.9282    5.3771 C   0  0  0  0  0  0
   18.5887   69.0597    3.8872 C   0  0  0  0  0  0
   16.3339   67.1037    9.2459 C   0  0  0  0  0  0
   16.6625   67.9093   10.2550 N   0  0  0  0  0  0
   15.7181   66.0570    9.4311 O   0  0  0  0  0  0
   18.9246   68.8173    8.3537 N   0  0  0  0  0  0
   14.9663   66.3703    6.3589 C   0  0  0  0  0  0
   14.9796   65.4599    5.2929 C   0  0  0  0  0  0
   12.6101   65.8765    6.7997 C   0  0  0  0  0  0
   13.7921   66.5552    7.0970 C   0  0  0  0  0  0
   12.6382   64.9479    5.7520 C   0  0  0  0  0  0
   13.8219   64.7291    5.0003 C   0  0  0  0  0  0
   13.7286   63.7784    4.0323 N   0  0  0  0  0  0
   12.5350   63.2593    4.0062 C   0  0  0  0  0  0
   11.3688   63.8943    5.1425 S   0  0  0  0  0  0
   19.8874   68.3392    5.4756 H   0  0  0  0  0  0
   19.1825   69.9200    5.7814 H   0  0  0  0  0  0
   19.3753   69.5661    3.3269 H   0  0  0  0  0  0
   17.6715   69.6362    3.7596 H   0  0  0  0  0  0
   18.4388   68.0827    3.4252 H   0  0  0  0  0  0
   16.3903   67.6568   11.1930 H   0  0  0  0  0  0
   17.0844   68.8059   10.0719 H   0  0  0  0  0  0
   18.7934   69.1005    9.3138 H   0  0  0  0  0  0
   19.8647   68.9016    7.9950 H   0  0  0  0  0  0
   15.8669   65.3154    4.7010 H   0  0  0  0  0  0
   11.7055   66.0559    7.3637 H   0  0  0  0  0  0
   13.7880   67.2568    7.9172 H   0  0  0  0  0  0
   12.2540   62.5003    3.2930 H   0  0  0  0  0  0
  1  2  1  0  0  0
  1  5  2  0  0  0
  1 11  1  0  0  0
  2  3  1  0  0  0
  2  6  1  0  0  0
  3  4  2  0  0  0
  4  5  1  0  0  0
  4 12  1  0  0  0
  5  8  1  0  0  0
  6  7  1  0  0  0
  6 21  1  0  0  0
  6 22  1  0  0  0
  7 23  1  0  0  0
  7 24  1  0  0  0
  7 25  1  0  0  0
  8  9  1  0  0  0
  8 10  2  0  0  0
  9 26  1  0  0  0
  9 27  1  0  0  0
 11 28  1  0  0  0
 11 29  1  0  0  0
 12 13  2  0  0  0
 12 15  1  0  0  0
 13 17  1  0  0  0
 13 30  1  0  0  0
 14 16  1  0  0  0
 14 15  2  0  0  0
 14 31  1  0  0  0
 15 32  1  0  0  0
 16 17  2  0  0  0
 16 20  1  0  0  0
 17 18  1  0  0  0
 18 19  2  0  0  0
 19 20  1  0  0  0
 19 33  1  0  0  0
M  END
> <s_m_entry_id>
34558

> <s_m_entry_name>
dock_pv.301

> <s_m_Source_Path>
/home/csk/Desktop/cluster/DUD-E-result/tgfr1

> <s_m_Source_File>
dock_pv.maegz

> <i_m_Source_File_Index>
301

> <chembl_id>
CHEMBL4561931

> <chembl_pref_name>
None

> <i_lp_mmshare_version>
53161

> <r_lp_tautomer_probability>
1

> <s_lp_Force_Field>
OPLS_2005

> <r_lp_Energy>
15.862903

> <b_lp_Chiralities_Consistent>
1

> <s_lp_Variant>
CHEMBL4439_lig878 -1

> <s_i_glide_gridfile>
glide-grid_3hmm

> <i_i_glide_lignum>
1213

> <i_i_glide_rotatable_bonds>
3

> <r_i_docking_score>
-7.9334011340068

> <r_i_glide_ligand_efficiency>
-0.39667005670034

> <r_i_glide_ligand_efficiency_sa>
-1.07672818880791

> <r_i_glide_ligand_efficiency_ln>
-1.98546864276031

> <r_i_glide_gscore>
-7.9334011340068

> <r_i_glide_lipo>
-3.00690460287031

> <r_i_glide_hbond>
-0.0983206726278139

> <r_i_glide_metal>
0

> <r_i_glide_rewards>
-2.20850016070341

> <r_i_glide_evdw>
-43.3083076477051

> <r_i_glide_ecoul>
-4.4959192276001

> <r_i_glide_erotb>
0.220127568720007

> <r_i_glide_esite>
0

> <r_i_glide_emodel>
-70.6043289680651

> <r_i_glide_energy>
-47.8042268753052

> <r_i_glide_einternal>
2.06794691085815

> <i_i_glide_confnum>
4

> <i_i_glide_posenum>
325

> <r_i_glide_eff_state_penalty>
0

> <s_user_duplicate_titles>
CHEMBL4439_lig878 

> <i_f3d_flags>
0

> <s_m_subgroup_title>
dock_pv

> <s_m_subgroupid>
dock_pv

> <b_m_subgroup_collapsed>
1

$$$$
CHEMBL4439_lig871
                    3D
 Schrodinger Suite 2021-1.
 42 45  0  0  1  0            999 V2000
   13.6559   66.4570    7.7832 N   0  0  0  0  0  0
   13.1254   65.8649    6.7309 N   0  0  0  0  0  0
   13.9047   65.9253    5.6275 C   0  0  0  0  0  0
   14.9646   66.7705    5.9475 C   0  0  0  0  0  0
   14.8141   66.9054    7.3606 C   0  0  0  0  0  0
   13.2729   65.0942    4.5449 C   0  0  0  0  0  0
   11.9110   64.6330    5.1429 C   0  0  0  0  0  0
   11.8922   65.1630    6.5807 C   0  0  0  0  0  0
   16.5058   68.2931    2.8314 C   0  0  0  0  0  0
   15.6151   67.6569    3.6950 C   0  0  0  0  0  0
   15.9918   67.3464    5.0081 C   0  0  0  0  0  0
   17.2928   67.6570    5.4208 C   0  0  0  0  0  0
   18.1846   68.2941    4.5626 C   0  0  0  0  0  0
   17.7855   68.6175    3.2723 C   0  0  0  0  0  0
   15.7270   67.4942    8.3665 C   0  0  0  0  0  0
   16.3530   68.7103    8.1284 C   0  0  0  0  0  0
   17.3191   69.1451    9.0235 C   0  0  0  0  0  0
   17.5653   68.4101   10.1848 C   0  0  0  0  0  0
   16.8396   67.2387   10.3969 C   0  0  0  0  0  0
   15.9410   66.7637    9.4983 N   0  0  0  0  0  0
   10.6261   65.1065    4.4321 C   0  0  0  0  0  0
   11.8394   63.1078    5.1282 C   0  0  0  0  0  0
   18.6646   69.2601    2.4440 O   0  0  0  0  0  0
   13.1675   65.6530    3.6322 H   0  0  0  0  0  0
   13.9215   64.2578    4.2806 H   0  0  0  0  0  0
   11.8666   64.3392    7.2799 H   0  0  0  0  0  0
   11.0669   65.8352    6.8107 H   0  0  0  0  0  0
   16.1884   68.5410    1.8291 H   0  0  0  0  0  0
   14.6169   67.4420    3.3459 H   0  0  0  0  0  0
   17.6387   67.3811    6.4042 H   0  0  0  0  0  0
   19.1847   68.5306    4.8961 H   0  0  0  0  0  0
   16.1301   69.2575    7.2316 H   0  0  0  0  0  0
   17.8599   70.0589    8.8302 H   0  0  0  0  0  0
   18.2923   68.7545   10.9055 H   0  0  0  0  0  0
   16.9808   66.6571   11.2950 H   0  0  0  0  0  0
    9.7712   65.0726    5.1030 H   0  0  0  0  0  0
   10.6685   66.1125    4.0318 H   0  0  0  0  0  0
   10.3538   64.4268    3.6320 H   0  0  0  0  0  0
   10.9339   62.7627    5.6297 H   0  0  0  0  0  0
   11.8341   62.7138    4.1098 H   0  0  0  0  0  0
   12.6680   62.6385    5.6324 H   0  0  0  0  0  0
   18.2826   69.5257    1.6066 H   0  0  0  0  0  0
  1  2  1  0  0  0
  1  5  2  0  0  0
  2  3  1  0  0  0
  2  8  1  0  0  0
  3  4  2  0  0  0
  3  6  1  0  0  0
  4  5  1  0  0  0
  4 11  1  0  0  0
  5 15  1  0  0  0
  6  7  1  0  0  0
  6 24  1  0  0  0
  6 25  1  0  0  0
  7  8  1  0  0  0
  7 21  1  0  0  0
  7 22  1  0  0  0
  8 26  1  0  0  0
  8 27  1  0  0  0
  9 10  1  0  0  0
  9 14  2  0  0  0
  9 28  1  0  0  0
 10 11  2  0  0  0
 10 29  1  0  0  0
 11 12  1  0  0  0
 12 13  2  0  0  0
 12 30  1  0  0  0
 13 14  1  0  0  0
 13 31  1  0  0  0
 14 23  1  0  0  0
 15 16  1  0  0  0
 15 20  2  0  0  0
 16 17  2  0  0  0
 16 32  1  0  0  0
 17 18  1  0  0  0
 17 33  1  0  0  0
 18 19  2  0  0  0
 18 34  1  0  0  0
 19 20  1  0  0  0
 19 35  1  0  0  0
 21 36  1  0  0  0
 21 37  1  0  0  0
 21 38  1  0  0  0
 22 39  1  0  0  0
 22 40  1  0  0  0
 22 41  1  0  0  0
 23 42  1  0  0  0
M  END
> <s_m_entry_id>
34559

> <s_m_entry_name>
dock_pv.302

> <s_m_Source_Path>
/home/csk/Desktop/cluster/DUD-E-result/tgfr1

> <s_m_Source_File>
dock_pv.maegz

> <i_m_Source_File_Index>
302

> <chembl_id>
CHEMBL4281195

> <chembl_pref_name>
None

> <i_lp_mmshare_version>
53161

> <r_lp_tautomer_probability>
0.999999999997365

> <s_lp_Force_Field>
OPLS_2005

> <r_lp_Energy>
35.092689

> <b_lp_Chiralities_Consistent>
1

> <s_lp_Variant>
CHEMBL4439_lig871-1

> <s_i_glide_gridfile>
glide-grid_3hmm

> <i_i_glide_lignum>
1206

> <i_i_glide_rotatable_bonds>
3

> <r_i_docking_score>
-7.92790927263287

> <r_i_glide_ligand_efficiency>
-0.344691707505777

> <r_i_glide_ligand_efficiency_sa>
-0.980257364179803

> <r_i_glide_ligand_efficiency_ln>
-1.91704034842947

> <r_i_glide_gscore>
-7.92790927263287

> <r_i_glide_lipo>
-4.33249777451252

> <r_i_glide_hbond>
-0.070843838257352

> <r_i_glide_metal>
0

> <r_i_glide_rewards>
-1.95804687291116

> <r_i_glide_evdw>
-30.7145805358887

> <r_i_glide_ecoul>
-2.84414672851562

> <r_i_glide_erotb>
0.395830249119941

> <r_i_glide_esite>
0

> <r_i_glide_emodel>
-38.4485591986841

> <r_i_glide_energy>
-33.5587272644043

> <r_i_glide_einternal>
0.672475397586823

> <i_i_glide_confnum>
4

> <i_i_glide_posenum>
64

> <r_i_glide_eff_state_penalty>
0

> <s_user_duplicate_titles>
CHEMBL4439_lig871

> <i_f3d_flags>
0

> <s_m_subgroup_title>
dock_pv

> <s_m_subgroupid>
dock_pv

> <b_m_subgroup_collapsed>
1

$$$$
CHEMBL4439_lig881 
                    3D
 Schrodinger Suite 2021-1.
 37 40  0  0  1  0            999 V2000
   16.7615   67.4855    5.6380 N   0  0  0  0  0  0
   16.0593   67.0390    6.6581 C   0  0  0  0  0  0
   16.6503   67.4260    7.8913 C   0  0  0  0  0  0
   16.2003   67.0948    9.2217 C   0  0  0  0  0  0
   16.5067   67.9784   10.1717 N   0  0  0  0  0  0
   15.6001   66.0556    9.4771 O   0  0  0  0  0  0
   14.7991   66.2697    6.3743 C   0  0  0  0  0  0
   14.7847   65.3435    5.3226 C   0  0  0  0  0  0
   12.4317   65.8471    6.8315 C   0  0  0  0  0  0
   13.6348   66.4939    7.1198 C   0  0  0  0  0  0
   12.4238   64.9272    5.7776 C   0  0  0  0  0  0
   13.5988   64.6634    5.0258 C   0  0  0  0  0  0
   13.4639   63.7306    4.0457 N   0  0  0  0  0  0
   12.2425   63.2895    3.9930 C   0  0  0  0  0  0
   11.1059   63.9513    5.1427 S   0  0  0  0  0  0
   17.8381   68.0678    7.5163 C   0  0  0  0  0  0
   17.8344   68.1023    6.1412 N   0  0  0  0  0  0
   18.7966   68.7624    5.2648 C   0  0  0  0  0  0
   18.8361   68.5909    8.3074 N   0  0  0  0  0  0
   20.2527   68.3199    5.4894 C   0  0  0  0  0  0
   20.2303   68.2121    8.1065 C   0  0  0  0  0  0
   20.8738   68.7703    6.8251 C   0  0  0  0  0  0
   16.2304   67.7765   11.1214 H   0  0  0  0  0  0
   16.8701   68.8883    9.9320 H   0  0  0  0  0  0
   15.6722   65.1673    4.7327 H   0  0  0  0  0  0
   11.5344   66.0581    7.3941 H   0  0  0  0  0  0
   13.6573   67.2170    7.9223 H   0  0  0  0  0  0
   11.9188   62.5894    3.2382 H   0  0  0  0  0  0
   18.6976   69.8347    5.4363 H   0  0  0  0  0  0
   18.5148   68.5851    4.2248 H   0  0  0  0  0  0
   18.6047   68.4984    9.2861 H   0  0  0  0  0  0
   20.8655   68.7165    4.6788 H   0  0  0  0  0  0
   20.3287   67.2342    5.4000 H   0  0  0  0  0  0
   20.2283   67.1224    8.0450 H   0  0  0  0  0  0
   20.8228   68.4788    8.9818 H   0  0  0  0  0  0
   20.8679   69.8599    6.8723 H   0  0  0  0  0  0
   21.9276   68.4892    6.8300 H   0  0  0  0  0  0
  1 17  1  0  0  0
  1  2  2  0  0  0
  2  3  1  0  0  0
  2  7  1  0  0  0
  3 16  2  0  0  0
  3  4  1  0  0  0
  4  5  1  0  0  0
  4  6  2  0  0  0
  5 23  1  0  0  0
  5 24  1  0  0  0
  7  8  2  0  0  0
  7 10  1  0  0  0
  8 12  1  0  0  0
  8 25  1  0  0  0
  9 11  1  0  0  0
  9 10  2  0  0  0
  9 26  1  0  0  0
 10 27  1  0  0  0
 11 12  2  0  0  0
 11 15  1  0  0  0
 12 13  1  0  0  0
 13 14  2  0  0  0
 14 15  1  0  0  0
 14 28  1  0  0  0
 16 17  1  0  0  0
 16 19  1  0  0  0
 17 18  1  0  0  0
 18 20  1  0  0  0
 18 29  1  0  0  0
 18 30  1  0  0  0
 19 21  1  0  0  0
 19 31  1  0  0  0
 20 22  1  0  0  0
 20 32  1  0  0  0
 20 33  1  0  0  0
 21 22  1  0  0  0
 21 34  1  0  0  0
 21 35  1  0  0  0
 22 36  1  0  0  0
 22 37  1  0  0  0
M  END
> <s_m_entry_id>
34560

> <s_m_entry_name>
dock_pv.303

> <s_m_Source_Path>
/home/csk/Desktop/cluster/DUD-E-result/tgfr1

> <s_m_Source_File>
dock_pv.maegz

> <i_m_Source_File_Index>
303

> <chembl_id>
CHEMBL4535795

> <chembl_pref_name>
None

> <i_lp_mmshare_version>
53161

> <r_lp_tautomer_probability>
1

> <s_lp_Force_Field>
OPLS_2005

> <r_lp_Energy>
21.863451

> <b_lp_Chiralities_Consistent>
1

> <s_lp_Variant>
CHEMBL4439_lig881 -1

> <s_i_glide_gridfile>
glide-grid_3hmm

> <i_i_glide_lignum>
1216

> <i_i_glide_rotatable_bonds>
2

> <r_i_docking_score>
-7.92597320080004

> <r_i_glide_ligand_efficiency>
-0.360271509127275

> <r_i_glide_ligand_efficiency_sa>
-1.00949493724906

> <r_i_glide_ligand_efficiency_ln>
-1.93739695717253

> <r_i_glide_gscore>
-7.92597320080004

> <r_i_glide_lipo>
-2.90606004084746

> <r_i_glide_hbond>
-0.129093339866637

> <r_i_glide_metal>
0

> <r_i_glide_rewards>
-2.10663821454199

> <r_i_glide_evdw>
-47.2334213256836

> <r_i_glide_ecoul>
-4.07757043838501

> <r_i_glide_erotb>
0.189125026497975

> <r_i_glide_esite>
0

> <r_i_glide_emodel>
-77.047168696958

> <r_i_glide_energy>
-51.3109917640686

> <r_i_glide_einternal>
0.638617217540741

> <i_i_glide_confnum>
2

> <i_i_glide_posenum>
292

> <r_i_glide_eff_state_penalty>
0

> <s_user_duplicate_titles>
CHEMBL4439_lig881 

> <i_f3d_flags>
0

> <s_m_subgroup_title>
dock_pv

> <s_m_subgroupid>
dock_pv

> <b_m_subgroup_collapsed>
1

$$$$
CHEMBL4439_lig602
                    3D
 Schrodinger Suite 2021-1.
 45 49  0  0  1  0            999 V2000
   18.0161   68.7414    7.9853 S   0  0  0  0  0  0
   16.6955   67.6153    7.9029 C   0  0  0  0  0  0
   16.3160   67.1909    9.0927 N   0  0  0  0  0  0
   17.0587   67.6494   10.0798 C   0  0  0  0  0  0
   18.1115   68.4570    9.6900 C   0  0  0  0  0  0
   16.6689   67.2569   11.4819 C   0  0  0  0  0  0
   16.0532   67.1274    6.6489 C   0  0  0  0  0  0
   16.3118   67.3416    5.2647 C   0  0  0  0  0  0
   15.3834   66.5415    4.6507 N   0  0  0  0  0  0
   14.6673   65.9043    5.6093 C   0  0  0  0  0  0
   15.0337   66.2824    6.7985 N   0  0  0  0  0  0
   17.2832   68.0919    4.3977 C   0  0  0  0  0  0
   16.8549   68.5309    3.1341 C   0  0  0  0  0  0
   17.7233   69.1101    2.2098 C   0  0  0  0  0  0
   18.6171   68.2769    4.7733 C   0  0  0  0  0  0
   19.4960   68.8776    3.8664 C   0  0  0  0  0  0
   19.0669   69.2534    2.5688 C   0  0  0  0  0  0
   20.0613   69.6570    1.7360 N   0  0  0  0  0  0
   21.2138   69.6645    2.3443 C   0  0  0  0  0  0
   21.2043   69.2571    4.0372 S   0  0  0  0  0  0
   13.6330   64.8522    5.3104 C   0  0  0  0  0  0
   12.2100   65.0202    5.9056 C   0  0  0  0  0  0
   11.2259   63.9188    5.4583 C   0  0  0  0  0  0
   11.3727   63.6570    4.0320 N   0  0  2  0  0  0
   12.6544   63.0064    3.7891 C   0  0  0  0  0  0
   13.8096   63.9936    4.0317 C   0  0  0  0  0  0
   18.8550   68.9444   10.3024 H   0  0  0  0  0  0
   17.5296   67.2489   12.1510 H   0  0  0  0  0  0
   16.2085   66.2702   11.5408 H   0  0  0  0  0  0
   15.9590   67.9728   11.8953 H   0  0  0  0  0  0
   15.2883   66.4013    3.6559 H   0  0  0  0  0  0
   15.8227   68.4029    2.8399 H   0  0  0  0  0  0
   17.3763   69.4027    1.2321 H   0  0  0  0  0  0
   18.9966   67.8918    5.7035 H   0  0  0  0  0  0
   22.1285   69.9782    1.8609 H   0  0  0  0  0  0
   13.8782   64.0381    5.9890 H   0  0  0  0  0  0
   12.2326   65.0302    6.9971 H   0  0  0  0  0  0
   11.7824   65.9747    5.6002 H   0  0  0  0  0  0
   11.3672   63.0039    6.0369 H   0  0  0  0  0  0
   10.1996   64.2441    5.6315 H   0  0  0  0  0  0
   11.4369   64.5517    3.5587 H   0  0  0  0  0  0
   12.7684   62.1128    4.4030 H   0  0  0  0  0  0
   12.6678   62.6760    2.7493 H   0  0  0  0  0  0
   13.8671   64.6347    3.1558 H   0  0  0  0  0  0
   14.7396   63.4230    4.0451 H   0  0  0  0  0  0
  1  2  1  0  0  0
  1  5  1  0  0  0
  2  3  2  0  0  0
  2  7  1  0  0  0
  3  4  1  0  0  0
  4  5  2  0  0  0
  4  6  1  0  0  0
  5 27  1  0  0  0
  6 28  1  0  0  0
  6 29  1  0  0  0
  6 30  1  0  0  0
  7  8  2  0  0  0
  7 11  1  0  0  0
  8  9  1  0  0  0
  8 12  1  0  0  0
  9 10  1  0  0  0
  9 31  1  0  0  0
 10 11  2  0  0  0
 10 21  1  0  0  0
 12 13  2  0  0  0
 12 15  1  0  0  0
 13 14  1  0  0  0
 13 32  1  0  0  0
 14 17  2  0  0  0
 14 33  1  0  0  0
 15 16  2  0  0  0
 15 34  1  0  0  0
 16 17  1  0  0  0
 16 20  1  0  0  0
 17 18  1  0  0  0
 18 19  2  0  0  0
 19 20  1  0  0  0
 19 35  1  0  0  0
 21 22  1  0  0  0
 21 26  1  0  0  0
 21 36  1  0  0  0
 22 23  1  0  0  0
 22 37  1  0  0  0
 22 38  1  0  0  0
 23 24  1  0  0  0
 23 39  1  0  0  0
 23 40  1  0  0  0
 24 25  1  0  0  0
 24 41  1  0  0  0
 25 26  1  0  0  0
 25 42  1  0  0  0
 25 43  1  0  0  0
 26 44  1  0  0  0
 26 45  1  0  0  0
M  END
> <s_m_entry_id>
34562

> <s_m_entry_name>
dock_pv.305

> <s_m_Source_Path>
/home/csk/Desktop/cluster/DUD-E-result/tgfr1

> <s_m_Source_File>
dock_pv.maegz

> <i_m_Source_File_Index>
305

> <chembl_id>
CHEMBL2208002

> <chembl_pref_name>
None

> <i_lp_mmshare_version>
53161

> <r_lp_tautomer_probability>
0.499999999999999

> <s_lp_Force_Field>
OPLS_2005

> <r_lp_Energy>
17.308223

> <b_lp_Chiralities_Consistent>
1

> <s_lp_Variant>
CHEMBL4439_lig602-1

> <s_i_glide_gridfile>
glide-grid_3hmm

> <i_i_glide_lignum>
817

> <i_i_glide_rotatable_bonds>
3

> <r_i_docking_score>
-7.92402750393065

> <r_i_glide_ligand_efficiency>
-0.304770288612717

> <r_i_glide_ligand_efficiency_sa>
-0.902880780801997

> <r_i_glide_ligand_efficiency_ln>
-1.86093185844315

> <r_i_glide_gscore>
-7.92402750393065

> <r_i_glide_lipo>
-4.0935847089181

> <r_i_glide_hbond>
-0.123247246107801

> <r_i_glide_metal>
0

> <r_i_glide_rewards>
-1.33293038486952

> <r_i_glide_evdw>
-50.0561370849609

> <r_i_glide_ecoul>
-1.81031405925751

> <r_i_glide_erotb>
0.400088799101444

> <r_i_glide_esite>
0

> <r_i_glide_emodel>
-72.2950473792004

> <r_i_glide_energy>
-51.8664511442184

> <r_i_glide_einternal>
3.82029938697815

> <i_i_glide_confnum>
18

> <i_i_glide_posenum>
364

> <r_i_glide_eff_state_penalty>
0

> <s_user_duplicate_titles>
CHEMBL4439_lig602,CHEMBL4439_lig602

> <i_f3d_flags>
0

> <s_m_subgroup_title>
dock_pv

> <s_m_subgroupid>
dock_pv

> <b_m_subgroup_collapsed>
1

$$$$
CHEMBL4439_lig960 
                    3D
 Schrodinger Suite 2021-1.
 51 55  0  0  1  0            999 V2000
   17.0500   68.4495    2.8118 C   0  0  0  0  0  0
   18.3770   68.8578    2.6742 C   0  0  0  0  0  0
   19.1928   68.8573    3.8112 C   0  0  0  0  0  0
   18.7406   68.4906    5.0390 N   0  0  0  0  0  0
   17.4436   68.0917    5.1624 C   0  0  0  0  0  0
   16.5754   68.0565    4.0643 C   0  0  0  0  0  0
   15.9044   67.1292    7.1387 C   0  0  0  0  0  0
   16.9756   67.8328    6.5609 C   0  0  0  0  0  0
   17.6056   68.3727    7.6517 N   0  0  0  0  0  0
   16.8956   68.0317    8.7662 C   0  0  0  0  0  0
   15.8665   67.2798    8.4628 N   0  0  0  0  0  0
   17.2733   68.5706   10.1263 C   0  0  0  0  0  0
   17.0601   67.6579   11.2454 N   0  0  0  0  0  0
   17.9005   67.6155   12.3726 C   0  0  0  0  0  0
   19.1577   68.2376   12.4366 C   0  0  0  0  0  0
   19.9758   68.0550   13.5465 C   0  0  0  0  0  0
   19.5461   67.2548   14.6059 C   0  0  0  0  0  0
   18.2844   66.6621   14.5663 C   0  0  0  0  0  0
   17.4644   66.8580   13.4593 C   0  0  0  0  0  0
   20.6521   69.2632    3.7399 C   0  0  0  0  0  0
   14.9021   66.3188    6.4634 C   0  0  0  0  0  0
   15.1173   65.4268    5.4308 C   0  0  0  0  0  0
   13.2169   66.3849    6.9415 S   0  0  0  0  0  0
   12.7994   65.1808    5.7391 C   0  0  0  0  0  0
   13.9406   64.7605    5.0034 C   0  0  0  0  0  0
   13.7397   63.7848    4.0172 C   0  0  0  0  0  0
   12.5205   63.2553    3.7463 N   0  0  0  0  0  0
   11.4548   63.6852    4.4657 C   0  0  0  0  0  0
   11.5336   64.6414    5.4776 C   0  0  0  0  0  0
   20.4611   67.0124   15.7914 C   0  0  0  0  0  0
   16.3887   68.4492    1.9565 H   0  0  0  0  0  0
   18.7622   69.1605    1.7117 H   0  0  0  0  0  0
   15.5384   67.7829    4.1794 H   0  0  0  0  0  0
   18.4267   68.9620    7.6269 H   0  0  0  0  0  0
   16.6855   69.4662   10.3212 H   0  0  0  0  0  0
   18.3118   68.8831   10.0668 H   0  0  0  0  0  0
   16.1601   67.2016   11.3093 H   0  0  0  0  0  0
   19.5467   68.8394   11.6306 H   0  0  0  0  0  0
   20.9550   68.5121   13.5648 H   0  0  0  0  0  0
   17.9425   66.0384   15.3808 H   0  0  0  0  0  0
   16.4908   66.3876   13.4356 H   0  0  0  0  0  0
   20.9166   69.6368    2.7500 H   0  0  0  0  0  0
   20.8696   70.0496    4.4634 H   0  0  0  0  0  0
   21.2947   68.4102    3.9660 H   0  0  0  0  0  0
   16.0878   65.2573    4.9965 H   0  0  0  0  0  0
   14.5589   63.4197    3.4155 H   0  0  0  0  0  0
   10.5005   63.2562    4.2014 H   0  0  0  0  0  0
   10.6662   64.9592    6.0308 H   0  0  0  0  0  0
   20.2231   66.0711   16.2887 H   0  0  0  0  0  0
   20.3872   67.8261   16.5121 H   0  0  0  0  0  0
   21.4994   66.9354   15.4631 H   0  0  0  0  0  0
  1  2  2  0  0  0
  1  6  1  0  0  0
  1 31  1  0  0  0
  2  3  1  0  0  0
  2 32  1  0  0  0
  3  4  2  0  0  0
  3 20  1  0  0  0
  4  5  1  0  0  0
  5  6  2  0  0  0
  5  8  1  0  0  0
  6 33  1  0  0  0
  7  8  2  0  0  0
  7 11  1  0  0  0
  7 21  1  0  0  0
  8  9  1  0  0  0
  9 10  1  0  0  0
  9 34  1  0  0  0
 10 11  2  0  0  0
 10 12  1  0  0  0
 12 13  1  0  0  0
 12 35  1  0  0  0
 12 36  1  0  0  0
 13 14  1  0  0  0
 13 37  1  0  0  0
 14 15  2  0  0  0
 14 19  1  0  0  0
 15 16  1  0  0  0
 15 38  1  0  0  0
 16 17  2  0  0  0
 16 39  1  0  0  0
 17 18  1  0  0  0
 17 30  1  0  0  0
 18 19  2  0  0  0
 18 40  1  0  0  0
 19 41  1  0  0  0
 20 42  1  0  0  0
 20 43  1  0  0  0
 20 44  1  0  0  0
 21 22  2  0  0  0
 21 23  1  0  0  0
 22 25  1  0  0  0
 22 45  1  0  0  0
 23 24  1  0  0  0
 24 25  2  0  0  0
 24 29  1  0  0  0
 25 26  1  0  0  0
 26 27  2  0  0  0
 26 46  1  0  0  0
 27 28  1  0  0  0
 28 29  2  0  0  0
 28 47  1  0  0  0
 29 48  1  0  0  0
 30 49  1  0  0  0
 30 50  1  0  0  0
 30 51  1  0  0  0
M  END
> <s_m_entry_id>
34563

> <s_m_entry_name>
dock_pv.306

> <s_m_Source_Path>
/home/csk/Desktop/cluster/DUD-E-result/tgfr1

> <s_m_Source_File>
dock_pv.maegz

> <i_m_Source_File_Index>
306

> <chembl_id>
CHEMBL4519255

> <chembl_pref_name>
None

> <i_lp_mmshare_version>
53161

> <r_lp_tautomer_probability>
0.499999999999999

> <s_lp_Force_Field>
OPLS_2005

> <r_lp_Energy>
19.021817

> <b_lp_Chiralities_Consistent>
1

> <s_lp_Variant>
CHEMBL4439_lig960 -1

> <s_i_glide_gridfile>
glide-grid_3hmm

> <i_i_glide_lignum>
1307

> <i_i_glide_rotatable_bonds>
5

> <r_i_docking_score>
-7.92225265006014

> <r_i_glide_ligand_efficiency>
-0.264075088335338

> <r_i_glide_ligand_efficiency_sa>
-0.820542697557923

> <r_i_glide_ligand_efficiency_ln>
-1.80002212194996

> <r_i_glide_gscore>
-7.92225265006014

> <r_i_glide_lipo>
-4.14532219048179

> <r_i_glide_hbond>
0

> <r_i_glide_metal>
0

> <r_i_glide_rewards>
-1.28273135018542

> <r_i_glide_evdw>
-56.3483505249023

> <r_i_glide_ecoul>
-1.72479736804962

> <r_i_glide_erotb>
0.581938022059632

> <r_i_glide_esite>
0

> <r_i_glide_emodel>
-83.5917195023583

> <r_i_glide_energy>
-58.073147892952

> <r_i_glide_einternal>
4.77007818222046

> <i_i_glide_confnum>
26

> <i_i_glide_posenum>
67

> <r_i_glide_eff_state_penalty>
0

> <s_user_duplicate_titles>
CHEMBL4439_lig960 

> <i_f3d_flags>
0

> <s_m_subgroup_title>
dock_pv

> <s_m_subgroupid>
dock_pv

> <b_m_subgroup_collapsed>
1

$$$$
CHEMBL4439_lig268
                    3D
 Schrodinger Suite 2021-1.
 40 44  0  0  1  0            999 V2000
   16.6889   67.8497    5.4798 C   0  0  0  0  0  0
   15.6722   67.0918    4.8077 C   0  0  0  0  0  0
   15.7436   67.2695    3.5032 N   0  0  0  0  0  0
   14.5505   66.2032    5.2899 C   0  0  0  0  0  0
   14.1038   65.1160    4.5176 C   0  0  0  0  0  0
   12.9384   64.4443    4.8941 C   0  0  0  0  0  0
   12.2474   64.8571    6.0329 C   0  0  0  0  0  0
   12.7757   65.9034    6.7868 C   0  0  0  0  0  0
   13.9066   66.5638    6.4308 N   0  0  0  0  0  0
   16.9390   68.0533    6.9474 C   0  0  0  0  0  0
   17.1747   68.4558    9.7483 N   0  0  0  0  0  0
   15.9970   68.5904    9.1028 C   0  0  0  0  0  0
   15.8510   68.4351    7.7334 C   0  0  0  0  0  0
   17.4314   68.3999    4.4322 C   0  0  0  0  0  0
   16.7880   68.0566    3.2862 N   0  0  0  0  0  0
   17.3993   68.5514    2.0701 C   0  0  0  0  0  0
   18.3038   69.6561    2.6223 C   0  0  0  0  0  0
   18.6272   69.2538    4.0668 C   0  0  0  0  0  0
   18.2841   68.2023    9.0035 C   0  0  0  0  0  0
   18.2214   67.9781    7.5885 C   0  0  0  0  0  0
   19.4374   67.7144    6.9066 C   0  0  0  0  0  0
   20.6566   67.7896    7.5682 C   0  0  0  0  0  0
   20.7075   68.0087    8.9423 C   0  0  0  0  0  0
   19.5343   68.1895    9.6661 C   0  0  0  0  0  0
   22.2308   68.0555    9.7509 Cl  0  0  0  0  0  0
   14.6082   64.8354    3.6047 H   0  0  0  0  0  0
   12.5595   63.6346    4.2878 H   0  0  0  0  0  0
   11.3335   64.3675    6.3354 H   0  0  0  0  0  0
   12.2768   66.2390    7.6843 H   0  0  0  0  0  0
   15.1455   68.8580    9.7076 H   0  0  0  0  0  0
   14.8871   68.6273    7.2907 H   0  0  0  0  0  0
   16.6501   68.9309    1.3744 H   0  0  0  0  0  0
   17.9721   67.7588    1.5907 H   0  0  0  0  0  0
   17.7742   70.6134    2.6092 H   0  0  0  0  0  0
   19.2064   69.7868    2.0207 H   0  0  0  0  0  0
   18.7437   70.1193    4.7144 H   0  0  0  0  0  0
   19.5690   68.7064    4.0940 H   0  0  0  0  0  0
   19.4325   67.4844    5.8568 H   0  0  0  0  0  0
   21.5612   67.6612    6.9973 H   0  0  0  0  0  0
   19.5751   68.3645   10.7314 H   0  0  0  0  0  0
  1 10  1  0  0  0
  1 14  2  0  0  0
  1  2  1  0  0  0
  2  3  2  0  0  0
  2  4  1  0  0  0
  3 15  1  0  0  0
  4  9  1  0  0  0
  4  5  2  0  0  0
  5  6  1  0  0  0
  5 26  1  0  0  0
  6  7  2  0  0  0
  6 27  1  0  0  0
  7  8  1  0  0  0
  7 28  1  0  0  0
  8  9  2  0  0  0
  8 29  1  0  0  0
 10 13  1  0  0  0
 10 20  2  0  0  0
 11 12  1  0  0  0
 11 19  2  0  0  0
 12 13  2  0  0  0
 12 30  1  0  0  0
 13 31  1  0  0  0
 14 15  1  0  0  0
 14 18  1  0  0  0
 15 16  1  0  0  0
 16 17  1  0  0  0
 16 32  1  0  0  0
 16 33  1  0  0  0
 17 18  1  0  0  0
 17 34  1  0  0  0
 17 35  1  0  0  0
 18 36  1  0  0  0
 18 37  1  0  0  0
 19 20  1  0  0  0
 19 24  1  0  0  0
 20 21  1  0  0  0
 21 22  2  0  0  0
 21 38  1  0  0  0
 22 23  1  0  0  0
 22 39  1  0  0  0
 23 24  2  0  0  0
 23 25  1  0  0  0
 24 40  1  0  0  0
M  END
> <s_m_entry_id>
34564

> <s_m_entry_name>
dock_pv.307

> <s_m_Source_Path>
/home/csk/Desktop/cluster/DUD-E-result/tgfr1

> <s_m_Source_File>
dock_pv.maegz

> <i_m_Source_File_Index>
307

> <chembl_id>
CHEMBL121554

> <chembl_pref_name>
None

> <i_lp_mmshare_version>
53161

> <r_lp_tautomer_probability>
1

> <s_lp_Force_Field>
OPLS_2005

> <r_lp_Energy>
39.72516

> <b_lp_Chiralities_Consistent>
1

> <s_lp_Variant>
CHEMBL4439_lig268-1

> <s_i_glide_gridfile>
glide-grid_3hmm

> <i_i_glide_lignum>
381

> <i_i_glide_rotatable_bonds>
2

> <r_i_docking_score>
-7.9215117961301

> <r_i_glide_ligand_efficiency>
-0.316860471845204

> <r_i_glide_ligand_efficiency_sa>
-0.926505639219772

> <r_i_glide_ligand_efficiency_ln>
-1.87763568423528

> <r_i_glide_gscore>
-7.9215117961301

> <r_i_glide_lipo>
-4.16603659755619

> <r_i_glide_hbond>
0

> <r_i_glide_metal>
0

> <r_i_glide_rewards>
-1.78612621212121

> <r_i_glide_evdw>
-45.1017913818359

> <r_i_glide_ecoul>
-0.203130424022675

> <r_i_glide_erotb>
0.3162101462425

> <r_i_glide_esite>
0

> <r_i_glide_emodel>
-65.7175950236159

> <r_i_glide_energy>
-45.3049218058586

> <r_i_glide_einternal>
2.20323204994202

> <i_i_glide_confnum>
6

> <i_i_glide_posenum>
337

> <r_i_glide_eff_state_penalty>
0

> <s_user_duplicate_titles>
CHEMBL4439_lig268,197646

> <i_f3d_flags>
0

> <s_m_subgroup_title>
dock_pv

> <s_m_subgroupid>
dock_pv

> <b_m_subgroup_collapsed>
1

$$$$
CHEMBL4439_lig219
                    3D
 Schrodinger Suite 2021-1.
 37 40  0  0  1  0            999 V2000
   12.2796   65.6568    6.5410 C   0  0  0  0  0  0
   13.3006   66.3599    7.1781 C   0  0  0  0  0  0
   14.6274   66.2711    6.7450 C   0  0  0  0  0  0
   14.9363   65.4588    5.6511 C   0  0  0  0  0  0
   12.5722   64.8292    5.4388 C   0  0  0  0  0  0
   13.9220   64.7331    4.9798 C   0  0  0  0  0  0
   14.2419   63.9463    3.9127 N   0  0  0  0  0  0
   13.2297   63.2571    3.3261 C   0  0  0  0  0  0
   11.9156   63.3423    3.7808 C   0  0  0  0  0  0
   11.5719   64.1274    4.8327 N   0  0  0  0  0  0
   15.7032   67.0153    7.4807 C   0  0  0  0  0  0
   15.6622   67.0491    8.8131 N   0  0  0  0  0  0
   16.6997   67.7422    9.1939 C   0  0  0  0  0  0
   17.4480   68.1505    8.1329 N   0  0  0  0  0  0
   16.8249   67.7212    6.9861 C   0  0  0  0  0  0
   17.0400   68.0453   10.4793 N   0  0  0  0  0  0
   17.3571   68.0559    5.6209 C   0  0  0  0  0  0
   18.6673   68.4335    5.5670 N   0  0  0  0  0  0
   19.1944   68.7964    4.3671 C   0  0  0  0  0  0
   18.4311   68.8444    3.1945 C   0  0  0  0  0  0
   17.0924   68.4556    3.2565 C   0  0  0  0  0  0
   16.5496   68.0521    4.4785 C   0  0  0  0  0  0
   20.6771   69.1275    4.3585 C   0  0  0  0  0  0
   18.9683   69.2557    2.0213 F   0  0  0  0  0  0
   11.2580   65.7332    6.8801 H   0  0  0  0  0  0
   13.0645   66.9752    8.0325 H   0  0  0  0  0  0
   15.9500   65.3749    5.3073 H   0  0  0  0  0  0
   13.4679   62.6793    2.4458 H   0  0  0  0  0  0
   11.1094   62.8538    3.2551 H   0  0  0  0  0  0
   16.5070   67.6566   11.2456 H   0  0  0  0  0  0
   17.5089   68.9184   10.6860 H   0  0  0  0  0  0
   18.2926   68.6987    8.1808 H   0  0  0  0  0  0
   16.4796   68.4743    2.3661 H   0  0  0  0  0  0
   15.5084   67.7752    4.5344 H   0  0  0  0  0  0
   21.2063   68.4672    3.6705 H   0  0  0  0  0  0
   21.1340   69.0123    5.3431 H   0  0  0  0  0  0
   20.8392   70.1516    4.0302 H   0  0  0  0  0  0
  1  5  1  0  0  0
  1  2  2  0  0  0
  1 25  1  0  0  0
  2  3  1  0  0  0
  2 26  1  0  0  0
  3  4  2  0  0  0
  3 11  1  0  0  0
  4  6  1  0  0  0
  4 27  1  0  0  0
  5  6  1  0  0  0
  5 10  2  0  0  0
  6  7  2  0  0  0
  7  8  1  0  0  0
  8  9  2  0  0  0
  8 28  1  0  0  0
  9 10  1  0  0  0
  9 29  1  0  0  0
 11 12  1  0  0  0
 11 15  2  0  0  0
 12 13  2  0  0  0
 13 16  1  0  0  0
 13 14  1  0  0  0
 14 32  1  0  0  0
 14 15  1  0  0  0
 15 17  1  0  0  0
 16 31  1  0  0  0
 16 30  1  0  0  0
 17 18  2  0  0  0
 17 22  1  0  0  0
 18 19  1  0  0  0
 19 20  2  0  0  0
 19 23  1  0  0  0
 20 21  1  0  0  0
 20 24  1  0  0  0
 21 22  2  0  0  0
 21 33  1  0  0  0
 22 34  1  0  0  0
 23 35  1  0  0  0
 23 36  1  0  0  0
 23 37  1  0  0  0
M  END
> <s_m_entry_id>
34565

> <s_m_entry_name>
dock_pv.308

> <s_m_Source_Path>
/home/csk/Desktop/cluster/DUD-E-result/tgfr1

> <s_m_Source_File>
dock_pv.maegz

> <i_m_Source_File_Index>
308

> <chembl_id>
CHEMBL480742

> <chembl_pref_name>
None

> <i_lp_mmshare_version>
53161

> <r_lp_tautomer_probability>
0.499999058373973

> <s_lp_Force_Field>
OPLS_2005

> <r_lp_Energy>
23.403913

> <b_lp_Chiralities_Consistent>
1

> <s_lp_Variant>
CHEMBL4439_lig219-2

> <s_i_glide_gridfile>
glide-grid_3hmm

> <i_i_glide_lignum>
321

> <i_i_glide_rotatable_bonds>
2

> <r_i_docking_score>
-7.92103106010859

> <r_i_glide_ligand_efficiency>
-0.330042960837858

> <r_i_glide_ligand_efficiency_sa>
-0.952008635894259

> <r_i_glide_ligand_efficiency_ln>
-1.89586620511515

> <r_i_glide_gscore>
-7.92103106010859

> <r_i_glide_lipo>
-3.59159587343299

> <r_i_glide_hbond>
-0.0410814755283479

> <r_i_glide_metal>
0

> <r_i_glide_rewards>
-1.92951590180388

> <r_i_glide_evdw>
-48.1670761108398

> <r_i_glide_ecoul>
-2.09612250328064

> <r_i_glide_erotb>
0.363934371690723

> <r_i_glide_esite>
0

> <r_i_glide_emodel>
-73.4917724219505

> <r_i_glide_energy>
-50.2631986141205

> <r_i_glide_einternal>
1.380251288414

> <i_i_glide_confnum>
8

> <i_i_glide_posenum>
199

> <r_i_glide_eff_state_penalty>
0

> <s_user_duplicate_titles>
CHEMBL4439_lig219,CHEMBL4439_lig219,474846

> <i_f3d_flags>
0

> <s_m_subgroup_title>
dock_pv

> <s_m_subgroupid>
dock_pv

> <b_m_subgroup_collapsed>
1

$$$$
CHEMBL4439_lig261
                    3D
 Schrodinger Suite 2021-1.
 37 40  0  0  1  0            999 V2000
   12.6304   63.4138    3.8860 C   0  0  0  0  0  0
   11.3800   63.6559    4.4423 C   0  0  0  0  0  0
   11.2442   64.5204    5.5234 C   0  0  0  0  0  0
   13.7666   64.0522    4.3850 C   0  0  0  0  0  0
   13.6652   64.9120    5.5072 C   0  0  0  0  0  0
   12.3794   65.1652    6.0693 C   0  0  0  0  0  0
   12.2991   66.0604    7.1608 C   0  0  0  0  0  0
   13.4604   66.6709    7.6321 C   0  0  0  0  0  0
   14.6831   66.3668    7.0405 C   0  0  0  0  0  0
   14.7918   65.4883    6.0187 N   0  0  0  0  0  0
   15.9597   66.9954    7.4858 C   0  0  0  0  0  0
   17.0220   67.6304    6.7911 C   0  0  0  0  0  0
   18.0114   68.0267    7.5828 N   0  0  0  0  0  0
   17.8197   67.7481    8.8401 C   0  0  0  0  0  0
   16.3468   66.9319    9.1899 S   0  0  0  0  0  0
   17.1454   67.9231    5.3097 C   0  0  0  0  0  0
   18.3190   68.4574    4.7457 C   0  0  0  0  0  0
   18.3537   68.7437    3.3791 C   0  0  0  0  0  0
   17.2230   68.5018    2.6000 C   0  0  0  0  0  0
   16.0944   67.9639    3.2200 C   0  0  0  0  0  0
   16.0533   67.6604    4.5422 N   0  0  0  0  0  0
   18.6910   68.0555    9.8443 N   0  0  0  0  0  0
   15.1092   63.8882    3.7028 C   0  0  0  0  0  0
   12.7118   62.7599    3.0279 H   0  0  0  0  0  0
   10.5052   63.1863    4.0173 H   0  0  0  0  0  0
   10.2677   64.7028    5.9431 H   0  0  0  0  0  0
   11.3365   66.2764    7.6068 H   0  0  0  0  0  0
   13.4174   67.3886    8.4344 H   0  0  0  0  0  0
   19.1907   68.6552    5.3528 H   0  0  0  0  0  0
   19.2511   69.1521    2.9310 H   0  0  0  0  0  0
   17.2218   68.7274    1.5415 H   0  0  0  0  0  0
   15.1966   67.7624    2.6532 H   0  0  0  0  0  0
   19.5350   68.5788    9.6543 H   0  0  0  0  0  0
   18.5132   67.8127   10.8076 H   0  0  0  0  0  0
   15.8669   63.4949    4.3721 H   0  0  0  0  0  0
   15.0433   63.2561    2.8319 H   0  0  0  0  0  0
   15.4581   64.8590    3.3804 H   0  0  0  0  0  0
  1  2  2  0  0  0
  1  4  1  0  0  0
  1 24  1  0  0  0
  2  3  1  0  0  0
  2 25  1  0  0  0
  3  6  2  0  0  0
  3 26  1  0  0  0
  4  5  2  0  0  0
  4 23  1  0  0  0
  5  6  1  0  0  0
  5 10  1  0  0  0
  6  7  1  0  0  0
  7  8  2  0  0  0
  7 27  1  0  0  0
  8  9  1  0  0  0
  8 28  1  0  0  0
  9 11  1  0  0  0
  9 10  2  0  0  0
 11 12  2  0  0  0
 11 15  1  0  0  0
 12 13  1  0  0  0
 12 16  1  0  0  0
 13 14  2  0  0  0
 14 15  1  0  0  0
 14 22  1  0  0  0
 16 17  2  0  0  0
 16 21  1  0  0  0
 17 18  1  0  0  0
 17 29  1  0  0  0
 18 19  2  0  0  0
 18 30  1  0  0  0
 19 20  1  0  0  0
 19 31  1  0  0  0
 20 21  2  0  0  0
 20 32  1  0  0  0
 22 33  1  0  0  0
 22 34  1  0  0  0
 23 35  1  0  0  0
 23 36  1  0  0  0
 23 37  1  0  0  0
M  END
> <s_m_entry_id>
34567

> <s_m_entry_name>
dock_pv.310

> <s_m_Source_Path>
/home/csk/Desktop/cluster/DUD-E-result/tgfr1

> <s_m_Source_File>
dock_pv.maegz

> <i_m_Source_File_Index>
310

> <chembl_id>
CHEMBL565643

> <chembl_pref_name>
None

> <i_lp_mmshare_version>
53161

> <r_lp_tautomer_probability>
1

> <s_lp_Force_Field>
OPLS_2005

> <r_lp_Energy>
17.776592

> <b_lp_Chiralities_Consistent>
1

> <s_lp_Variant>
CHEMBL4439_lig261-1

> <s_i_glide_gridfile>
glide-grid_3hmm

> <i_i_glide_lignum>
370

> <i_i_glide_rotatable_bonds>
2

> <r_i_docking_score>
-7.91268518745611

> <r_i_glide_ligand_efficiency>
-0.344029790758961

> <r_i_glide_ligand_efficiency_sa>
-0.97837496100209

> <r_i_glide_ligand_efficiency_ln>
-1.91335902658936

> <r_i_glide_gscore>
-7.91268518745611

> <r_i_glide_lipo>
-4.2846879849085

> <r_i_glide_hbond>
0

> <r_i_glide_metal>
0

> <r_i_glide_rewards>
-1.74539789244639

> <r_i_glide_evdw>
-44.4432373046875

> <r_i_glide_ecoul>
-0.188407063484192

> <r_i_glide_erotb>
0.367823614655784

> <r_i_glide_esite>
0

> <r_i_glide_emodel>
-64.3216637725341

> <r_i_glide_energy>
-44.6316443681717

> <r_i_glide_einternal>
3.69853377342224

> <i_i_glide_confnum>
12

> <i_i_glide_posenum>
97

> <r_i_glide_eff_state_penalty>
0

> <s_user_duplicate_titles>
CHEMBL4439_lig261,582047

> <i_f3d_flags>
0

> <s_m_subgroup_title>
dock_pv

> <s_m_subgroupid>
dock_pv

> <b_m_subgroup_collapsed>
1

$$$$
CHEMBL4439_lig262
                    3D
 Schrodinger Suite 2021-1.
 51 55  0  0  1  0            999 V2000
   15.1845   66.4006    5.1562 C   0  0  0  0  0  0
   14.5897   66.4423    6.4509 C   0  0  0  0  0  0
   13.5344   65.6562    6.5409 N   0  0  0  0  0  0
   15.0386   67.2094    7.6458 C   0  0  0  0  0  0
   15.4589   68.5381    7.5562 C   0  0  0  0  0  0
   16.2001   69.0722    8.6060 C   0  0  0  0  0  0
   16.4533   68.2998    9.7394 C   0  0  0  0  0  0
   15.9334   67.0059    9.7900 C   0  0  0  0  0  0
   15.2316   66.4573    8.7655 N   0  0  0  0  0  0
   16.2562   67.2673    4.5350 C   0  0  0  0  0  0
   18.0007   69.0470    3.1611 N   0  0  0  0  0  0
   16.8794   68.5563    2.5862 C   0  0  0  0  0  0
   15.9943   67.7001    3.2325 C   0  0  0  0  0  0
   18.2973   68.6565    4.4302 C   0  0  0  0  0  0
   17.4651   67.7407    5.1536 C   0  0  0  0  0  0
   17.9111   67.3309    6.4334 C   0  0  0  0  0  0
   19.0554   67.8662    7.0108 C   0  0  0  0  0  0
   19.8201   68.8255    6.3424 C   0  0  0  0  0  0
   19.4674   69.1878    5.0402 C   0  0  0  0  0  0
   20.9638   69.4218    6.9151 N   0  0  0  0  0  0
   21.1896   69.6569    8.2294 C   0  0  0  0  0  0
   22.5278   70.3208    8.5909 C   0  0  0  0  0  0
   20.3896   69.3844    9.1241 O   0  0  0  0  0  0
   22.5343   70.9985    9.9821 C   0  0  0  0  0  0
   23.8162   71.5120   10.2835 O   0  0  0  0  0  0
   14.5344   65.3149    4.5654 C   0  0  0  0  0  0
   13.5242   64.9642    5.4070 N   0  0  0  0  0  0
   12.6030   63.9833    4.8746 C   0  0  0  0  0  0
   13.4112   63.3911    3.7151 C   0  0  0  0  0  0
   14.5073   64.4029    3.3636 C   0  0  0  0  0  0
   15.3161   69.1035    6.6483 H   0  0  0  0  0  0
   16.6247   70.0575    8.5104 H   0  0  0  0  0  0
   17.0425   68.6994   10.5528 H   0  0  0  0  0  0
   16.0891   66.3862   10.6605 H   0  0  0  0  0  0
   16.6758   68.8939    1.5804 H   0  0  0  0  0  0
   15.0928   67.3914    2.7224 H   0  0  0  0  0  0
   17.3764   66.5639    6.9653 H   0  0  0  0  0  0
   19.3387   67.5131    7.9904 H   0  0  0  0  0  0
   20.0682   69.8937    4.4849 H   0  0  0  0  0  0
   21.6648   69.7395    6.2629 H   0  0  0  0  0  0
   22.7830   71.0519    7.8247 H   0  0  0  0  0  0
   23.2987   69.5500    8.5579 H   0  0  0  0  0  0
   22.2681   70.2880   10.7667 H   0  0  0  0  0  0
   21.8060   71.8087   10.0323 H   0  0  0  0  0  0
   24.0953   72.1202    9.5799 H   0  0  0  0  0  0
   11.6960   64.4750    4.5195 H   0  0  0  0  0  0
   12.3292   63.2337    5.6185 H   0  0  0  0  0  0
   12.7822   63.1574    2.8534 H   0  0  0  0  0  0
   13.8668   62.4564    4.0292 H   0  0  0  0  0  0
   14.2670   64.9132    2.4374 H   0  0  0  0  0  0
   15.4649   63.9031    3.2139 H   0  0  0  0  0  0
  1 26  2  0  0  0
  1  2  1  0  0  0
  1 10  1  0  0  0
  2  3  2  0  0  0
  2  4  1  0  0  0
  3 27  1  0  0  0
  4  9  1  0  0  0
  4  5  2  0  0  0
  5  6  1  0  0  0
  5 31  1  0  0  0
  6  7  2  0  0  0
  6 32  1  0  0  0
  7  8  1  0  0  0
  7 33  1  0  0  0
  8  9  2  0  0  0
  8 34  1  0  0  0
 10 15  2  0  0  0
 10 13  1  0  0  0
 11 14  2  0  0  0
 11 12  1  0  0  0
 12 13  2  0  0  0
 12 35  1  0  0  0
 13 36  1  0  0  0
 14 15  1  0  0  0
 14 19  1  0  0  0
 15 16  1  0  0  0
 16 17  2  0  0  0
 16 37  1  0  0  0
 17 18  1  0  0  0
 17 38  1  0  0  0
 18 19  2  0  0  0
 18 20  1  0  0  0
 19 39  1  0  0  0
 20 21  1  0  0  0
 20 40  1  0  0  0
 21 22  1  0  0  0
 21 23  2  0  0  0
 22 24  1  0  0  0
 22 41  1  0  0  0
 22 42  1  0  0  0
 24 25  1  0  0  0
 24 43  1  0  0  0
 24 44  1  0  0  0
 25 45  1  0  0  0
 26 27  1  0  0  0
 26 30  1  0  0  0
 27 28  1  0  0  0
 28 29  1  0  0  0
 28 46  1  0  0  0
 28 47  1  0  0  0
 29 30  1  0  0  0
 29 48  1  0  0  0
 29 49  1  0  0  0
 30 50  1  0  0  0
 30 51  1  0  0  0
M  END
> <s_m_entry_id>
34568

> <s_m_entry_name>
dock_pv.311

> <s_m_Source_Path>
/home/csk/Desktop/cluster/DUD-E-result/tgfr1

> <s_m_Source_File>
dock_pv.maegz

> <i_m_Source_File_Index>
311

> <chembl_id>
CHEMBL585117

> <chembl_pref_name>
None

> <i_lp_mmshare_version>
53161

> <r_lp_tautomer_probability>
1

> <s_lp_Force_Field>
OPLS_2005

> <r_lp_Energy>
48.968428

> <b_lp_Chiralities_Consistent>
1

> <s_lp_Variant>
CHEMBL4439_lig262-1

> <s_i_glide_gridfile>
glide-grid_3hmm

> <i_i_glide_lignum>
371

> <i_i_glide_rotatable_bonds>
7

> <r_i_docking_score>
-7.91094214733839

> <r_i_glide_ligand_efficiency>
-0.263698071577947

> <r_i_glide_ligand_efficiency_sa>
-0.819371218835395

> <r_i_glide_ligand_efficiency_ln>
-1.79745225249379

> <r_i_glide_gscore>
-7.91094214733839

> <r_i_glide_lipo>
-4.49706457087079

> <r_i_glide_hbond>
-0.274774200818219

> <r_i_glide_metal>
0

> <r_i_glide_rewards>
-0.918024842135334

> <r_i_glide_evdw>
-46.621711730957

> <r_i_glide_ecoul>
-4.17887735366821

> <r_i_glide_erotb>
0.736838656084032

> <r_i_glide_esite>
0

> <r_i_glide_emodel>
-64.5588481343193

> <r_i_glide_energy>
-50.8005890846252

> <r_i_glide_einternal>
8.34361362457275

> <i_i_glide_confnum>
59

> <i_i_glide_posenum>
95

> <r_i_glide_eff_state_penalty>
0

> <s_user_duplicate_titles>
CHEMBL4439_lig262

> <i_f3d_flags>
0

> <s_m_subgroup_title>
dock_pv

> <s_m_subgroupid>
dock_pv

> <b_m_subgroup_collapsed>
1

$$$$
CHEMBL4439_lig880 
                    3D
 Schrodinger Suite 2021-1.
 34 37  0  0  1  0            999 V2000
   16.9668   67.6560    5.5746 N   0  0  0  0  0  0
   16.2549   67.1866    6.5799 C   0  0  0  0  0  0
   16.8569   67.5098    7.8244 C   0  0  0  0  0  0
   16.4186   67.1235    9.1428 C   0  0  0  0  0  0
   16.6410   68.0233   10.0998 N   0  0  0  0  0  0
   15.8675   66.0489    9.3703 O   0  0  0  0  0  0
   14.9998   66.4147    6.2859 C   0  0  0  0  0  0
   14.9908   65.4964    5.2273 C   0  0  0  0  0  0
   12.6648   65.8999    6.8037 C   0  0  0  0  0  0
   13.8472   66.5971    7.0577 C   0  0  0  0  0  0
   12.6697   64.9665    5.7596 C   0  0  0  0  0  0
   13.8326   64.7528    4.9762 C   0  0  0  0  0  0
   13.7259   63.7853    4.0276 N   0  0  0  0  0  0
   12.5354   63.2590    4.0328 C   0  0  0  0  0  0
   11.3945   63.8948    5.1940 S   0  0  0  0  0  0
   18.0828   68.1666    6.0992 N   0  0  0  0  0  0
   18.0528   68.1464    7.4810 C   0  0  0  0  0  0
   19.1460   68.6026    8.2057 N   0  0  0  0  0  0
   20.0516   69.5168    7.5027 C   0  0  0  0  0  0
   20.3913   68.9548    6.1110 C   0  0  0  0  0  0
   19.1288   68.7405    5.2507 C   0  0  0  0  0  0
   16.3496   67.8133   11.0428 H   0  0  0  0  0  0
   17.0362   68.9249    9.8785 H   0  0  0  0  0  0
   15.8668   65.3468    4.6185 H   0  0  0  0  0  0
   11.7783   66.0588    7.4012 H   0  0  0  0  0  0
   13.8668   67.3032    7.8746 H   0  0  0  0  0  0
   12.2509   62.4716    3.3509 H   0  0  0  0  0  0
   19.0201   68.8776    9.1696 H   0  0  0  0  0  0
   19.5012   70.4514    7.3871 H   0  0  0  0  0  0
   20.9467   69.7170    8.0937 H   0  0  0  0  0  0
   21.0865   69.6201    5.5972 H   0  0  0  0  0  0
   20.9271   68.0094    6.2234 H   0  0  0  0  0  0
   18.7622   69.6935    4.8672 H   0  0  0  0  0  0
   19.3189   68.0866    4.3980 H   0  0  0  0  0  0
  1 16  1  0  0  0
  1  2  2  0  0  0
  2  3  1  0  0  0
  2  7  1  0  0  0
  3 17  2  0  0  0
  3  4  1  0  0  0
  4  5  1  0  0  0
  4  6  2  0  0  0
  5 22  1  0  0  0
  5 23  1  0  0  0
  7  8  2  0  0  0
  7 10  1  0  0  0
  8 12  1  0  0  0
  8 24  1  0  0  0
  9 11  1  0  0  0
  9 10  2  0  0  0
  9 25  1  0  0  0
 10 26  1  0  0  0
 11 12  2  0  0  0
 11 15  1  0  0  0
 12 13  1  0  0  0
 13 14  2  0  0  0
 14 15  1  0  0  0
 14 27  1  0  0  0
 16 17  1  0  0  0
 16 21  1  0  0  0
 17 18  1  0  0  0
 18 19  1  0  0  0
 18 28  1  0  0  0
 19 20  1  0  0  0
 19 29  1  0  0  0
 19 30  1  0  0  0
 20 21  1  0  0  0
 20 31  1  0  0  0
 20 32  1  0  0  0
 21 33  1  0  0  0
 21 34  1  0  0  0
M  END
> <s_m_entry_id>
34569

> <s_m_entry_name>
dock_pv.312

> <s_m_Source_Path>
/home/csk/Desktop/cluster/DUD-E-result/tgfr1

> <s_m_Source_File>
dock_pv.maegz

> <i_m_Source_File_Index>
312

> <chembl_id>
CHEMBL4558980

> <chembl_pref_name>
None

> <i_lp_mmshare_version>
53161

> <r_lp_tautomer_probability>
1

> <s_lp_Force_Field>
OPLS_2005

> <r_lp_Energy>
19.378833

> <b_lp_Chiralities_Consistent>
1

> <s_lp_Variant>
CHEMBL4439_lig880 -1

> <s_i_glide_gridfile>
glide-grid_3hmm

> <i_i_glide_lignum>
1215

> <i_i_glide_rotatable_bonds>
2

> <r_i_docking_score>
-7.90535718164303

> <r_i_glide_ligand_efficiency>
-0.376445580078239

> <r_i_glide_ligand_efficiency_sa>
-1.03858481091567

> <r_i_glide_ligand_efficiency_ln>
-1.95458358888294

> <r_i_glide_gscore>
-7.90535718164303

> <r_i_glide_lipo>
-3.03668348753475

> <r_i_glide_hbond>
-0.0590085583682091

> <r_i_glide_metal>
0

> <r_i_glide_rewards>
-2.14713958574157

> <r_i_glide_evdw>
-45.7249412536621

> <r_i_glide_ecoul>
-3.87479472160339

> <r_i_glide_erotb>
0.204940720925116

> <r_i_glide_esite>
0

> <r_i_glide_emodel>
-74.5428241202326

> <r_i_glide_energy>
-49.5997359752655

> <r_i_glide_einternal>
0.0228733699768782

> <i_i_glide_confnum>
1

> <i_i_glide_posenum>
153

> <r_i_glide_eff_state_penalty>
0

> <s_user_duplicate_titles>
CHEMBL4439_lig880 

> <i_f3d_flags>
0

> <s_m_subgroup_title>
dock_pv

> <s_m_subgroupid>
dock_pv

> <b_m_subgroup_collapsed>
1

$$$$
CHEMBL4439_lig498
                    3D
 Schrodinger Suite 2021-1.
 42 45  0  0  1  0            999 V2000
   16.4811   66.7249    8.5831 C   0  0  0  0  0  0
   15.4012   66.0585    8.2792 N   0  0  0  0  0  0
   15.1912   66.2749    6.9900 C   0  0  0  0  0  0
   16.1836   67.0923    6.4298 C   0  0  0  0  0  0
   16.9878   67.3852    7.5021 N   0  0  0  0  0  0
   16.4342   67.6018    5.0517 C   0  0  0  0  0  0
   17.7159   68.0570    4.6997 C   0  0  0  0  0  0
   15.6423   68.0573    2.7787 C   0  0  0  0  0  0
   15.4085   67.6153    4.0847 C   0  0  0  0  0  0
   16.9277   68.4790    2.4653 C   0  0  0  0  0  0
   17.9218   68.4857    3.3988 C   0  0  0  0  0  0
   19.0711   68.9146    2.8294 O   0  0  0  0  0  0
   18.7033   69.3920    1.5694 C   0  0  0  0  0  0
   17.4262   68.8963    1.2719 O   0  0  0  0  0  0
   14.0456   65.6769    6.3414 C   0  0  0  0  0  0
   14.1368   64.8241    5.3502 N   0  0  0  0  0  0
   12.9545   64.3932    4.9475 C   0  0  0  0  0  0
   11.8656   64.9312    5.6311 C   0  0  0  0  0  0
   12.4273   66.0570    6.8320 S   0  0  0  0  0  0
   12.9477   63.3811    3.8210 C   0  0  0  0  0  0
   17.1109   66.7606    9.9518 C   0  0  0  0  0  0
   16.5226   67.8663   10.8498 C   0  0  0  0  0  0
   17.2463   68.0125   12.2002 C   0  0  0  0  0  0
   18.6142   68.4575   11.9905 N   0  0  0  0  0  0
   17.8129   67.9661    7.4929 H   0  0  0  0  0  0
   18.5325   68.0522    5.4056 H   0  0  0  0  0  0
   14.8511   68.0555    2.0444 H   0  0  0  0  0  0
   14.4130   67.2878    4.3371 H   0  0  0  0  0  0
   19.4372   69.1186    0.8121 H   0  0  0  0  0  0
   18.6500   70.4735    1.6320 H   0  0  0  0  0  0
   10.8129   64.7371    5.4879 H   0  0  0  0  0  0
   11.9341   63.1300    3.5046 H   0  0  0  0  0  0
   13.4700   63.7429    2.9344 H   0  0  0  0  0  0
   13.4287   62.4472    4.1103 H   0  0  0  0  0  0
   18.1925   66.8757    9.8683 H   0  0  0  0  0  0
   16.9617   65.7969   10.4318 H   0  0  0  0  0  0
   15.4688   67.6525   11.0420 H   0  0  0  0  0  0
   16.5483   68.8232   10.3216 H   0  0  0  0  0  0
   17.2453   67.0631   12.7384 H   0  0  0  0  0  0
   16.7290   68.7364   12.8323 H   0  0  0  0  0  0
   18.6242   69.3651   11.5325 H   0  0  0  0  0  0
   19.1142   68.5550   12.8604 H   0  0  0  0  0  0
  1  2  2  0  0  0
  1 21  1  0  0  0
  1  5  1  0  0  0
  2  3  1  0  0  0
  3  4  2  0  0  0
  3 15  1  0  0  0
  4  6  1  0  0  0
  4  5  1  0  0  0
  5 25  1  0  0  0
  6  7  2  0  0  0
  6  9  1  0  0  0
  7 11  1  0  0  0
  7 26  1  0  0  0
  8 10  1  0  0  0
  8  9  2  0  0  0
  8 27  1  0  0  0
  9 28  1  0  0  0
 10 14  1  0  0  0
 10 11  2  0  0  0
 11 12  1  0  0  0
 12 13  1  0  0  0
 13 14  1  0  0  0
 13 29  1  0  0  0
 13 30  1  0  0  0
 15 16  2  0  0  0
 15 19  1  0  0  0
 16 17  1  0  0  0
 17 18  2  0  0  0
 17 20  1  0  0  0
 18 19  1  0  0  0
 18 31  1  0  0  0
 20 32  1  0  0  0
 20 33  1  0  0  0
 20 34  1  0  0  0
 21 22  1  0  0  0
 21 35  1  0  0  0
 21 36  1  0  0  0
 22 23  1  0  0  0
 22 37  1  0  0  0
 22 38  1  0  0  0
 23 24  1  0  0  0
 23 39  1  0  0  0
 23 40  1  0  0  0
 24 41  1  0  0  0
 24 42  1  0  0  0
M  END
> <s_m_entry_id>
34570

> <s_m_entry_name>
dock_pv.313

> <s_m_Source_Path>
/home/csk/Desktop/cluster/DUD-E-result/tgfr1

> <s_m_Source_File>
dock_pv.maegz

> <i_m_Source_File_Index>
313

> <chembl_id>
CHEMBL1957654

> <chembl_pref_name>
None

> <i_lp_mmshare_version>
53161

> <r_lp_tautomer_probability>
0.499999999999999

> <s_lp_Force_Field>
OPLS_2005

> <r_lp_Energy>
23.849469

> <b_lp_Chiralities_Consistent>
1

> <s_lp_Variant>
CHEMBL4439_lig498-1

> <s_i_glide_gridfile>
glide-grid_3hmm

> <i_i_glide_lignum>
651

> <i_i_glide_rotatable_bonds>
5

> <r_i_docking_score>
-7.90390811682192

> <r_i_glide_ligand_efficiency>
-0.32932950486758

> <r_i_glide_ligand_efficiency_sa>
-0.949950672763307

> <r_i_glide_ligand_efficiency_ln>
-1.89176789906598

> <r_i_glide_gscore>
-7.90390811682192

> <r_i_glide_lipo>
-3.44886735126114

> <r_i_glide_hbond>
-0.590681369520579

> <r_i_glide_metal>
0

> <r_i_glide_rewards>
-1.72214639876264

> <r_i_glide_evdw>
-44.0622062683105

> <r_i_glide_ecoul>
-3.90671539306641

> <r_i_glide_erotb>
0.646904625097919

> <r_i_glide_esite>
0

> <r_i_glide_emodel>
-67.2760050144445

> <r_i_glide_energy>
-47.968921661377

> <r_i_glide_einternal>
5.16279029846191

> <i_i_glide_confnum>
19

> <i_i_glide_posenum>
108

> <r_i_glide_eff_state_penalty>
0

> <s_user_duplicate_titles>
CHEMBL4439_lig498

> <i_f3d_flags>
0

> <s_m_subgroup_title>
dock_pv

> <s_m_subgroupid>
dock_pv

> <b_m_subgroup_collapsed>
1

$$$$
CHEMBL4439_lig450
                    3D
 Schrodinger Suite 2021-1.
 34 37  0  0  1  0            999 V2000
   19.0869   68.4584    5.0196 C   0  0  0  0  0  0
   18.1713   68.6208    3.8342 C   0  0  0  0  0  0
   18.5198   69.4150    2.7322 C   0  0  0  0  0  0
   17.6223   69.5406    1.6742 C   0  0  0  0  0  0
   16.4068   68.8617    1.7168 C   0  0  0  0  0  0
   16.1273   68.0722    2.8322 C   0  0  0  0  0  0
   16.9854   67.9590    3.8749 N   0  0  0  0  0  0
   16.5621   67.0284    6.6462 C   0  0  0  0  0  0
   15.3202   66.9381    7.2882 C   0  0  0  0  0  0
   15.0650   67.6346    8.4320 N   0  0  0  0  0  0
   16.0240   68.4581    8.9193 C   0  0  0  0  0  0
   17.2491   68.6498    8.2843 C   0  0  0  0  0  0
   17.5199   67.9376    7.1103 C   0  0  0  0  0  0
   18.8095   68.1701    6.3915 C   0  0  0  0  0  0
   20.3834   68.6123    4.8247 N   0  0  0  0  0  0
   20.9559   68.4573    6.0147 N   0  0  0  0  0  0
   20.0560   68.1909    7.0023 C   0  0  0  0  0  0
   14.2633   66.1671    6.7230 N   0  0  0  0  0  0
   13.0015   66.2541    7.2000 N   0  0  0  0  0  0
   12.2677   65.4827    6.4318 C   0  0  0  0  0  0
   13.0196   64.8566    5.4379 C   0  0  0  0  0  0
   14.3092   65.3098    5.6430 C   0  0  0  0  0  0
   19.4634   69.9374    2.6949 H   0  0  0  0  0  0
   17.8672   70.1719    0.8367 H   0  0  0  0  0  0
   15.6972   68.9540    0.9083 H   0  0  0  0  0  0
   15.1923   67.5367    2.9111 H   0  0  0  0  0  0
   16.7788   66.4371    5.7723 H   0  0  0  0  0  0
   15.7850   68.9844    9.8303 H   0  0  0  0  0  0
   17.9670   69.3482    8.6912 H   0  0  0  0  0  0
   21.9637   68.4868    6.1266 H   0  0  0  0  0  0
   20.3706   68.0364    8.0236 H   0  0  0  0  0  0
   11.2045   65.3772    6.5942 H   0  0  0  0  0  0
   12.6680   64.1824    4.6706 H   0  0  0  0  0  0
   15.2232   65.1088    5.1072 H   0  0  0  0  0  0
  1  2  1  0  0  0
  1 15  2  0  0  0
  1 14  1  0  0  0
  2  3  2  0  0  0
  2  7  1  0  0  0
  3  4  1  0  0  0
  3 23  1  0  0  0
  4  5  2  0  0  0
  4 24  1  0  0  0
  5  6  1  0  0  0
  5 25  1  0  0  0
  6  7  2  0  0  0
  6 26  1  0  0  0
  8 13  1  0  0  0
  8  9  2  0  0  0
  8 27  1  0  0  0
  9 10  1  0  0  0
  9 18  1  0  0  0
 10 11  2  0  0  0
 11 12  1  0  0  0
 11 28  1  0  0  0
 12 13  2  0  0  0
 12 29  1  0  0  0
 13 14  1  0  0  0
 14 17  2  0  0  0
 15 16  1  0  0  0
 16 17  1  0  0  0
 16 30  1  0  0  0
 17 31  1  0  0  0
 18 19  1  0  0  0
 18 22  1  0  0  0
 19 20  2  0  0  0
 20 21  1  0  0  0
 20 32  1  0  0  0
 21 22  2  0  0  0
 21 33  1  0  0  0
 22 34  1  0  0  0
M  END
> <s_m_entry_id>
34572

> <s_m_entry_name>
dock_pv.315

> <s_m_Source_Path>
/home/csk/Desktop/cluster/DUD-E-result/tgfr1

> <s_m_Source_File>
dock_pv.maegz

> <i_m_Source_File_Index>
315

> <chembl_id>
CHEMBL1829504

> <chembl_pref_name>
None

> <i_lp_mmshare_version>
53161

> <r_lp_tautomer_probability>
0.5

> <s_lp_Force_Field>
OPLS_2005

> <r_lp_Energy>
14.931938

> <b_lp_Chiralities_Consistent>
1

> <s_lp_Variant>
CHEMBL4439_lig450-1

> <s_i_glide_gridfile>
glide-grid_3hmm

> <i_i_glide_lignum>
592

> <i_i_glide_rotatable_bonds>
3

> <r_i_docking_score>
-7.89631171955697

> <r_i_glide_ligand_efficiency>
-0.358923259979862

> <r_i_glide_ligand_efficiency_sa>
-1.00571709011438

> <r_i_glide_ligand_efficiency_ln>
-1.93014660922791

> <r_i_glide_gscore>
-7.89631171955697

> <r_i_glide_lipo>
-3.67327612597975

> <r_i_glide_hbond>
-0.156744701438442

> <r_i_glide_metal>
0

> <r_i_glide_rewards>
-1.9241262738159

> <r_i_glide_evdw>
-41.5788993835449

> <r_i_glide_ecoul>
-4.79836320877075

> <r_i_glide_erotb>
0.65653483216998

> <r_i_glide_esite>
0

> <r_i_glide_emodel>
-67.9973110419778

> <r_i_glide_energy>
-46.3772625923157

> <r_i_glide_einternal>
2.33978772163391

> <i_i_glide_confnum>
23

> <i_i_glide_posenum>
366

> <r_i_glide_eff_state_penalty>
0

> <s_user_duplicate_titles>
CHEMBL4439_lig450,CHEMBL4439_lig450

> <i_f3d_flags>
0

> <s_m_subgroup_title>
dock_pv

> <s_m_subgroupid>
dock_pv

> <b_m_subgroup_collapsed>
1

$$$$
CHEMBL4439_lig37
                    3D
 Schrodinger Suite 2021-1.
 36 39  0  0  1  0            999 V2000
   15.9028   67.6892    6.2020 C   0  0  0  0  0  0
   14.8954   66.7187    6.4976 C   0  0  0  0  0  0
   16.6669   68.0096    4.9405 C   0  0  0  0  0  0
   14.4822   66.8293    7.7518 N   0  0  0  0  0  0
   14.2931   65.6456    5.6287 C   0  0  0  0  0  0
   13.0267   65.2572    5.9594 N   0  0  0  0  0  0
   15.1532   67.8477    8.2730 N   0  0  0  0  0  0
   18.0525   68.3981    4.9260 C   0  0  0  0  0  0
   16.0165   68.4097    7.3851 C   0  0  0  0  0  0
   17.8964   68.8651    2.5274 N   0  0  0  0  0  0
   18.6149   68.8359    3.6825 C   0  0  0  0  0  0
   12.4292   64.2805    5.2303 C   0  0  0  0  0  0
   16.6093   68.4569    2.5653 C   0  0  0  0  0  0
   15.9734   68.0275    3.7253 C   0  0  0  0  0  0
   14.9822   65.0541    4.5631 C   0  0  0  0  0  0
   18.9042   68.3682    6.0679 C   0  0  0  0  0  0
   14.3507   64.0569    3.8152 C   0  0  0  0  0  0
   13.0580   63.6557    4.1505 C   0  0  0  0  0  0
   19.9667   69.2571    3.6320 C   0  0  0  0  0  0
   11.0249   63.9016    5.6582 C   0  0  0  0  0  0
   20.2326   68.7791    5.9822 C   0  0  0  0  0  0
   20.7566   69.2295    4.7772 C   0  0  0  0  0  0
   15.0112   68.1575    9.2246 H   0  0  0  0  0  0
   16.6192   69.2601    7.6659 H   0  0  0  0  0  0
   16.0651   68.4959    1.6312 H   0  0  0  0  0  0
   14.9267   67.7580    3.6857 H   0  0  0  0  0  0
   15.9858   65.3588    4.3133 H   0  0  0  0  0  0
   18.5382   68.0001    7.0129 H   0  0  0  0  0  0
   14.8600   63.5980    2.9803 H   0  0  0  0  0  0
   12.5561   62.8904    3.5766 H   0  0  0  0  0  0
   20.3871   69.5925    2.6933 H   0  0  0  0  0  0
   10.6873   62.9884    5.1686 H   0  0  0  0  0  0
   10.3287   64.7024    5.4044 H   0  0  0  0  0  0
   10.9792   63.7350    6.7358 H   0  0  0  0  0  0
   20.8690   68.7427    6.8536 H   0  0  0  0  0  0
   21.7932   69.5347    4.7286 H   0  0  0  0  0  0
  1  9  2  0  0  0
  1  2  1  0  0  0
  1  3  1  0  0  0
  2  5  1  0  0  0
  2  4  2  0  0  0
  3  8  1  0  0  0
  3 14  2  0  0  0
  4  7  1  0  0  0
  5  6  2  0  0  0
  5 15  1  0  0  0
  6 12  1  0  0  0
  7 23  1  0  0  0
  7  9  1  0  0  0
  8 11  2  0  0  0
  8 16  1  0  0  0
  9 24  1  0  0  0
 10 13  2  0  0  0
 10 11  1  0  0  0
 11 19  1  0  0  0
 12 20  1  0  0  0
 12 18  2  0  0  0
 13 14  1  0  0  0
 13 25  1  0  0  0
 14 26  1  0  0  0
 15 17  2  0  0  0
 15 27  1  0  0  0
 16 21  2  0  0  0
 16 28  1  0  0  0
 17 18  1  0  0  0
 17 29  1  0  0  0
 18 30  1  0  0  0
 19 22  2  0  0  0
 19 31  1  0  0  0
 20 32  1  0  0  0
 20 33  1  0  0  0
 20 34  1  0  0  0
 21 22  1  0  0  0
 21 35  1  0  0  0
 22 36  1  0  0  0
M  END
> <s_m_entry_id>
34573

> <s_m_entry_name>
dock_pv.316

> <s_m_Source_Path>
/home/csk/Desktop/cluster/DUD-E-result/tgfr1

> <s_m_Source_File>
dock_pv.maegz

> <i_m_Source_File_Index>
316

> <chembl_id>
CHEMBL129677

> <chembl_pref_name>
None

> <i_lp_mmshare_version>
53161

> <r_lp_tautomer_probability>
0.5

> <s_lp_Force_Field>
OPLS_2005

> <r_lp_Energy>
20.080856

> <b_lp_Chiralities_Consistent>
1

> <s_lp_Variant>
CHEMBL4439_lig37-2

> <s_i_glide_gridfile>
glide-grid_3hmm

> <i_i_glide_lignum>
48

> <i_i_glide_rotatable_bonds>
2

> <r_i_docking_score>
-7.89376608664278

> <r_i_glide_ligand_efficiency>
-0.358807549392854

> <r_i_glide_ligand_efficiency_sa>
-1.00539286449895

> <r_i_glide_ligand_efficiency_ln>
-1.92952436368946

> <r_i_glide_gscore>
-7.89376608664278

> <r_i_glide_lipo>
-4.24353643996286

> <r_i_glide_hbond>
0

> <r_i_glide_metal>
0

> <r_i_glide_rewards>
-1.74860834033039

> <r_i_glide_evdw>
-43.5659980773926

> <r_i_glide_ecoul>
-1.10857534408569

> <r_i_glide_erotb>
0.44296489913295

> <r_i_glide_esite>
0

> <r_i_glide_emodel>
-65.4953903007178

> <r_i_glide_energy>
-44.6745734214783

> <r_i_glide_einternal>
1.2558296918869

> <i_i_glide_confnum>
5

> <i_i_glide_posenum>
244

> <r_i_glide_eff_state_penalty>
0

> <s_user_duplicate_titles>
CHEMBL4439_lig37,CHEMBL4439_lig37,211956

> <i_f3d_flags>
0

> <s_m_subgroup_title>
dock_pv

> <s_m_subgroupid>
dock_pv

> <b_m_subgroup_collapsed>
1

$$$$
CHEMBL4439_lig74
                    3D
 Schrodinger Suite 2021-1.
 33 36  0  0  1  0            999 V2000
   17.0965   68.4568    9.9150 N   0  0  0  0  0  0
   16.7590   67.9747    8.6834 C   0  0  0  0  0  0
   17.3383   68.3023    7.5631 N   0  0  0  0  0  0
   16.8119   67.7102    6.4970 C   0  0  0  0  0  0
   15.7337   66.8353    6.7897 C   0  0  0  0  0  0
   15.4670   66.8571    8.5230 S   0  0  0  0  0  0
   14.8828   65.9432    5.9274 C   0  0  0  0  0  0
   15.4082   65.3699    4.7706 C   0  0  0  0  0  0
   14.6513   64.4629    4.0324 C   0  0  0  0  0  0
   13.3244   64.2002    4.4350 C   0  0  0  0  0  0
   12.5450   63.3722    3.6876 N   0  0  0  0  0  0
   11.2418   63.2571    4.0311 C   0  0  0  0  0  0
   10.6735   63.8625    5.1494 C   0  0  0  0  0  0
   11.4767   64.6603    5.9609 C   0  0  0  0  0  0
   12.8329   64.8596    5.6048 C   0  0  0  0  0  0
   13.6177   65.6820    6.3585 N   0  0  0  0  0  0
   17.3968   68.0761    5.1568 C   0  0  0  0  0  0
   18.7397   68.4579    5.0091 C   0  0  0  0  0  0
   19.1985   68.8569    3.7539 C   0  0  0  0  0  0
   18.3198   68.8579    2.6688 C   0  0  0  0  0  0
   17.0015   68.4568    2.8816 C   0  0  0  0  0  0
   16.5386   68.0796    4.0993 N   0  0  0  0  0  0
   17.8142   69.1634   10.0321 H   0  0  0  0  0  0
   16.6140   68.1605   10.7497 H   0  0  0  0  0  0
   16.3987   65.6472    4.4521 H   0  0  0  0  0  0
   15.0427   64.0002    3.1382 H   0  0  0  0  0  0
   10.6377   62.6631    3.3592 H   0  0  0  0  0  0
    9.6273   63.7232    5.3762 H   0  0  0  0  0  0
   11.0686   65.1520    6.8336 H   0  0  0  0  0  0
   19.4157   68.4564    5.8523 H   0  0  0  0  0  0
   20.2297   69.1533    3.6185 H   0  0  0  0  0  0
   18.6564   69.1592    1.6885 H   0  0  0  0  0  0
   16.2858   68.4501    2.0712 H   0  0  0  0  0  0
  1  2  1  0  0  0
  1 23  1  0  0  0
  1 24  1  0  0  0
  2  3  2  0  0  0
  2  6  1  0  0  0
  3  4  1  0  0  0
  4  5  2  0  0  0
  4 17  1  0  0  0
  5  6  1  0  0  0
  5  7  1  0  0  0
  7  8  2  0  0  0
  7 16  1  0  0  0
  8  9  1  0  0  0
  8 25  1  0  0  0
  9 10  2  0  0  0
  9 26  1  0  0  0
 10 11  1  0  0  0
 10 15  1  0  0  0
 11 12  2  0  0  0
 12 13  1  0  0  0
 12 27  1  0  0  0
 13 14  2  0  0  0
 13 28  1  0  0  0
 14 15  1  0  0  0
 14 29  1  0  0  0
 15 16  2  0  0  0
 17 18  2  0  0  0
 17 22  1  0  0  0
 18 19  1  0  0  0
 18 30  1  0  0  0
 19 20  2  0  0  0
 19 31  1  0  0  0
 20 21  1  0  0  0
 20 32  1  0  0  0
 21 22  2  0  0  0
 21 33  1  0  0  0
M  END
> <s_m_entry_id>
34574

> <s_m_entry_name>
dock_pv.317

> <s_m_Source_Path>
/home/csk/Desktop/cluster/DUD-E-result/tgfr1

> <s_m_Source_File>
dock_pv.maegz

> <i_m_Source_File_Index>
317

> <chembl_id>
CHEMBL181361

> <chembl_pref_name>
GW693481X

> <i_lp_mmshare_version>
53161

> <r_lp_tautomer_probability>
1

> <s_lp_Force_Field>
OPLS_2005

> <r_lp_Energy>
18.62554

> <b_lp_Chiralities_Consistent>
1

> <s_lp_Variant>
CHEMBL4439_lig74-1

> <s_i_glide_gridfile>
glide-grid_3hmm

> <i_i_glide_lignum>
110

> <i_i_glide_rotatable_bonds>
2

> <r_i_docking_score>
-7.88527047219421

> <r_i_glide_ligand_efficiency>
-0.358421385099737

> <r_i_glide_ligand_efficiency_sa>
-1.00431081696265

> <r_i_glide_ligand_efficiency_ln>
-1.92744772563316

> <r_i_glide_gscore>
-7.88527047219421

> <r_i_glide_lipo>
-3.83673112212157

> <r_i_glide_hbond>
-0.20619828702976

> <r_i_glide_metal>
0

> <r_i_glide_rewards>
-1.71756296555084

> <r_i_glide_evdw>
-45.3996963500977

> <r_i_glide_ecoul>
-1.67106020450592

> <r_i_glide_erotb>
0.395865750688737

> <r_i_glide_esite>
0

> <r_i_glide_emodel>
-69.2027299006384

> <r_i_glide_energy>
-47.0707565546036

> <r_i_glide_einternal>
1.21453845500946

> <i_i_glide_confnum>
11

> <i_i_glide_posenum>
125

> <r_i_glide_eff_state_penalty>
0

> <s_user_duplicate_titles>
CHEMBL4439_lig74,306783

> <i_f3d_flags>
0

> <s_m_subgroup_title>
dock_pv

> <s_m_subgroupid>
dock_pv

> <b_m_subgroup_collapsed>
1

$$$$
CHEMBL4439_lig549
                    3D
 Schrodinger Suite 2021-1.
 50 54  0  0  1  0            999 V2000
   17.8601   67.8626   12.4038 C   0  0  0  0  0  0
   19.2298   68.0452   12.2130 C   0  0  0  0  0  0
   19.7307   67.9738   10.9109 C   0  0  0  0  0  0
   18.9405   67.7444    9.8317 N   0  0  0  0  0  0
   17.5985   67.6413   10.0114 C   0  0  0  0  0  0
   17.0339   67.6608   11.2977 C   0  0  0  0  0  0
   16.7414   67.5841    8.7723 C   0  0  0  0  0  0
   19.2119   69.3318    7.3425 C   0  0  0  0  0  0
   18.2295   68.5482    6.7289 C   0  0  0  0  0  0
   18.4091   68.1916    5.3801 C   0  0  0  0  0  0
   19.5485   68.5431    4.6556 C   0  0  0  0  0  0
   20.3574   69.6116    6.6479 N   0  0  0  0  0  0
   20.5624   69.2412    5.3184 C   0  0  0  0  0  0
   21.7867   69.6570    4.9341 N   0  0  0  0  0  0
   22.2660   70.1409    6.0632 C   0  0  0  0  0  0
   21.4668   70.2173    7.1118 N   0  0  0  0  0  0
   17.0117   68.0403    7.4527 C   0  0  0  0  0  0
   15.5517   67.0112    8.9022 N   0  0  0  0  0  0
   14.8231   67.0407    7.8254 C   0  0  0  0  0  0
   15.5219   67.9400    6.5412 S   0  0  0  0  0  0
   21.2075   68.1429   10.6145 C   0  0  0  0  0  0
   13.5854   66.4578    7.7384 N   0  0  0  0  0  0
   12.7167   66.2728    6.5810 C   0  0  0  0  0  0
   13.0720   65.1307    5.6040 C   0  0  0  0  0  0
   14.3546   65.0204    5.0446 C   0  0  0  0  0  0
   14.6284   64.1030    4.0323 C   0  0  0  0  0  0
   13.6267   63.2568    3.5739 C   0  0  0  0  0  0
   12.3608   63.3114    4.1409 C   0  0  0  0  0  0
   12.0759   64.2409    5.1459 C   0  0  0  0  0  0
   10.6657   64.2726    5.6950 C   0  0  0  0  0  0
   17.4301   67.8954   13.3931 H   0  0  0  0  0  0
   19.8869   68.2159   13.0519 H   0  0  0  0  0  0
   15.9671   67.5701   11.4447 H   0  0  0  0  0  0
   19.1606   69.6985    8.3560 H   0  0  0  0  0  0
   17.6617   67.6020    4.8702 H   0  0  0  0  0  0
   19.6744   68.2384    3.6293 H   0  0  0  0  0  0
   23.2975   70.4569    6.1229 H   0  0  0  0  0  0
   21.7868   68.2971   11.5251 H   0  0  0  0  0  0
   21.5967   67.2565   10.1141 H   0  0  0  0  0  0
   21.3677   69.0021    9.9625 H   0  0  0  0  0  0
   13.0382   66.4530    8.5877 H   0  0  0  0  0  0
   12.6853   67.2083    6.0328 H   0  0  0  0  0  0
   11.7168   66.1380    6.9901 H   0  0  0  0  0  0
   15.1629   65.6529    5.3528 H   0  0  0  0  0  0
   15.6179   64.0497    3.6028 H   0  0  0  0  0  0
   13.8321   62.5504    2.7834 H   0  0  0  0  0  0
   11.5955   62.6441    3.7725 H   0  0  0  0  0  0
   10.6676   64.0138    6.7548 H   0  0  0  0  0  0
   10.2664   65.2798    5.5903 H   0  0  0  0  0  0
    9.9906   63.5927    5.1738 H   0  0  0  0  0  0
  1  6  1  0  0  0
  1  2  2  0  0  0
  1 31  1  0  0  0
  2  3  1  0  0  0
  2 32  1  0  0  0
  3 21  1  0  0  0
  3  4  2  0  0  0
  4  5  1  0  0  0
  5  6  2  0  0  0
  5  7  1  0  0  0
  6 33  1  0  0  0
  7 17  2  0  0  0
  7 18  1  0  0  0
  8 12  1  0  0  0
  8  9  2  0  0  0
  8 34  1  0  0  0
  9 17  1  0  0  0
  9 10  1  0  0  0
 10 11  2  0  0  0
 10 35  1  0  0  0
 11 13  1  0  0  0
 11 36  1  0  0  0
 12 16  1  0  0  0
 12 13  1  0  0  0
 13 14  2  0  0  0
 14 15  1  0  0  0
 15 16  2  0  0  0
 15 37  1  0  0  0
 17 20  1  0  0  0
 18 19  2  0  0  0
 19 20  1  0  0  0
 19 22  1  0  0  0
 21 38  1  0  0  0
 21 39  1  0  0  0
 21 40  1  0  0  0
 22 23  1  0  0  0
 22 41  1  0  0  0
 23 24  1  0  0  0
 23 42  1  0  0  0
 23 43  1  0  0  0
 24 25  2  0  0  0
 24 29  1  0  0  0
 25 26  1  0  0  0
 25 44  1  0  0  0
 26 27  2  0  0  0
 26 45  1  0  0  0
 27 28  1  0  0  0
 27 46  1  0  0  0
 28 29  2  0  0  0
 28 47  1  0  0  0
 29 30  1  0  0  0
 30 48  1  0  0  0
 30 49  1  0  0  0
 30 50  1  0  0  0
M  END
> <s_m_entry_id>
34575

> <s_m_entry_name>
dock_pv.318

> <s_m_Source_Path>
/home/csk/Desktop/cluster/DUD-E-result/tgfr1

> <s_m_Source_File>
dock_pv.maegz

> <i_m_Source_File_Index>
318

> <chembl_id>
CHEMBL2087980

> <chembl_pref_name>
None

> <i_lp_mmshare_version>
53161

> <r_lp_tautomer_probability>
1

> <s_lp_Force_Field>
OPLS_2005

> <r_lp_Energy>
15.35755

> <b_lp_Chiralities_Consistent>
1

> <s_lp_Variant>
CHEMBL4439_lig549-1

> <s_i_glide_gridfile>
glide-grid_3hmm

> <i_i_glide_lignum>
728

> <i_i_glide_rotatable_bonds>
5

> <r_i_docking_score>
-7.87891555947235

> <r_i_glide_ligand_efficiency>
-0.262630518649078

> <r_i_glide_ligand_efficiency_sa>
-0.81605408367675

> <r_i_glide_ligand_efficiency_ln>
-1.790175462773

> <r_i_glide_gscore>
-7.87891555947235

> <r_i_glide_lipo>
-4.40418683845748

> <r_i_glide_hbond>
0

> <r_i_glide_metal>
0

> <r_i_glide_rewards>
-1.36989006113329

> <r_i_glide_evdw>
-55.1264915466309

> <r_i_glide_ecoul>
0.480406612157822

> <r_i_glide_erotb>
0.5794249256263

> <r_i_glide_esite>
0

> <r_i_glide_emodel>
-77.9842976749355

> <r_i_glide_energy>
-54.646084934473

> <r_i_glide_einternal>
6.05723714828491

> <i_i_glide_confnum>
30

> <i_i_glide_posenum>
178

> <r_i_glide_eff_state_penalty>
0

> <s_user_duplicate_titles>
CHEMBL4439_lig549

> <i_f3d_flags>
0

> <s_m_subgroup_title>
dock_pv

> <s_m_subgroupid>
dock_pv

> <b_m_subgroup_collapsed>
1

$$$$
CHEMBL4439_lig514
                    3D
 Schrodinger Suite 2021-1.
 38 41  0  0  1  0            999 V2000
   17.4618   68.3328    9.9094 N   0  0  0  0  0  0
   17.1022   68.0366    8.6019 C   0  0  0  0  0  0
   17.7305   68.4615    7.5375 N   0  0  0  0  0  0
   17.0760   67.9680    6.4837 C   0  0  0  0  0  0
   15.9538   67.2148    6.8955 C   0  0  0  0  0  0
   15.9954   67.3140    8.2591 N   0  0  0  0  0  0
   14.9014   66.3913    6.2296 C   0  0  0  0  0  0
   15.2247   65.6159    5.1059 C   0  0  0  0  0  0
   12.6494   65.4275    6.2684 C   0  0  0  0  0  0
   13.6089   66.3028    6.7916 C   0  0  0  0  0  0
   13.0245   64.6414    5.1866 C   0  0  0  0  0  0
   14.2633   64.7372    4.6210 C   0  0  0  0  0  0
   14.3780   63.8177    3.6293 O   0  0  0  0  0  0
   13.0996   63.2571    3.4786 C   0  0  0  0  0  0
   12.3216   63.6520    4.5757 O   0  0  0  0  0  0
   17.5543   68.2806    5.1215 C   0  0  0  0  0  0
   16.7752   68.3014    4.0674 N   0  0  0  0  0  0
   17.3956   68.7313    2.9805 C   0  0  0  0  0  0
   18.7387   69.0423    3.1430 C   0  0  0  0  0  0
   19.1944   68.7771    4.7941 S   0  0  0  0  0  0
   16.5731   68.8587    1.7194 C   0  0  0  0  0  0
   17.0491   67.6492   10.9981 C   0  0  0  0  0  0
   17.6186   68.1075   12.3331 C   0  0  0  0  0  0
   16.2686   66.6942   10.9726 O   0  0  0  0  0  0
   18.1553   69.0577   10.0366 H   0  0  0  0  0  0
   15.3640   66.8782    8.9168 H   0  0  0  0  0  0
   16.2068   65.6598    4.6653 H   0  0  0  0  0  0
   11.6710   65.3443    6.7206 H   0  0  0  0  0  0
   13.3496   66.8883    7.6606 H   0  0  0  0  0  0
   13.1691   62.1706    3.4343 H   0  0  0  0  0  0
   12.6521   63.6548    2.5655 H   0  0  0  0  0  0
   19.4400   69.4164    2.4101 H   0  0  0  0  0  0
   17.1746   68.6672    0.8315 H   0  0  0  0  0  0
   16.1680   69.8674    1.6105 H   0  0  0  0  0  0
   15.7234   68.1740    1.6932 H   0  0  0  0  0  0
   18.6378   67.7360   12.4518 H   0  0  0  0  0  0
   17.6327   69.1970   12.4001 H   0  0  0  0  0  0
   17.0110   67.7208   13.1539 H   0  0  0  0  0  0
  1  2  1  0  0  0
  1 22  1  0  0  0
  1 25  1  0  0  0
  2  6  1  0  0  0
  2  3  2  0  0  0
  3  4  1  0  0  0
  4  5  2  0  0  0
  4 16  1  0  0  0
  5  6  1  0  0  0
  5  7  1  0  0  0
  6 26  1  0  0  0
  7  8  2  0  0  0
  7 10  1  0  0  0
  8 12  1  0  0  0
  8 27  1  0  0  0
  9 11  1  0  0  0
  9 10  2  0  0  0
  9 28  1  0  0  0
 10 29  1  0  0  0
 11 15  1  0  0  0
 11 12  2  0  0  0
 12 13  1  0  0  0
 13 14  1  0  0  0
 14 15  1  0  0  0
 14 30  1  0  0  0
 14 31  1  0  0  0
 16 17  2  0  0  0
 16 20  1  0  0  0
 17 18  1  0  0  0
 18 19  2  0  0  0
 18 21  1  0  0  0
 19 20  1  0  0  0
 19 32  1  0  0  0
 21 33  1  0  0  0
 21 34  1  0  0  0
 21 35  1  0  0  0
 22 23  1  0  0  0
 22 24  2  0  0  0
 23 36  1  0  0  0
 23 37  1  0  0  0
 23 38  1  0  0  0
M  END
> <s_m_entry_id>
34576

> <s_m_entry_name>
dock_pv.319

> <s_m_Source_Path>
/home/csk/Desktop/cluster/DUD-E-result/tgfr1

> <s_m_Source_File>
dock_pv.maegz

> <i_m_Source_File_Index>
319

> <chembl_id>
CHEMBL1957669

> <chembl_pref_name>
None

> <i_lp_mmshare_version>
53161

> <r_lp_tautomer_probability>
0.501079232216438

> <s_lp_Force_Field>
OPLS_2005

> <r_lp_Energy>
24.544213

> <b_lp_Chiralities_Consistent>
1

> <s_lp_Variant>
CHEMBL4439_lig514-1

> <s_i_glide_gridfile>
glide-grid_3hmm

> <i_i_glide_lignum>
682

> <i_i_glide_rotatable_bonds>
4

> <r_i_docking_score>
-7.87476574612609

> <r_i_glide_ligand_efficiency>
-0.32811523942192

> <r_i_glide_ligand_efficiency_sa>
-0.946448125132533

> <r_i_glide_ligand_efficiency_ln>
-1.88479279250222

> <r_i_glide_gscore>
-7.87476574612609

> <r_i_glide_lipo>
-2.99540517173425

> <r_i_glide_hbond>
-0.143920935359885

> <r_i_glide_metal>
0

> <r_i_glide_rewards>
-2.33316123682363

> <r_i_glide_evdw>
-49.857307434082

> <r_i_glide_ecoul>
-2.6313316822052

> <r_i_glide_erotb>
0.485286721826563

> <r_i_glide_esite>
0

> <r_i_glide_emodel>
-76.2464352693039

> <r_i_glide_energy>
-52.4886391162872

> <r_i_glide_einternal>
2.10576462745667

> <i_i_glide_confnum>
9

> <i_i_glide_posenum>
162

> <r_i_glide_eff_state_penalty>
0

> <s_user_duplicate_titles>
CHEMBL4439_lig514

> <i_f3d_flags>
0

> <s_m_subgroup_title>
dock_pv

> <s_m_subgroupid>
dock_pv

> <b_m_subgroup_collapsed>
1

$$$$
CHEMBL4439_lig867
                    3D
 Schrodinger Suite 2021-1.
 50 53  0  0  1  0            999 V2000
   20.1049   66.9786    9.2720 C   0  0  0  0  0  0
   18.7018   67.5408    8.9643 C   0  0  0  0  0  0
   18.4903   68.8003    9.8260 C   0  0  0  0  0  0
   17.6191   67.7983    4.0874 C   0  0  0  0  0  0
   17.6669   68.3002    2.7891 C   0  0  0  0  0  0
   16.5570   68.4591    2.0321 N   0  0  0  0  0  0
   15.3705   68.0631    2.5570 C   0  0  0  0  0  0
   15.2430   67.6008    3.8611 C   0  0  0  0  0  0
   16.3806   67.4790    4.6622 C   0  0  0  0  0  0
   16.2634   67.0380    6.0892 C   0  0  0  0  0  0
   15.4905   66.0573    7.9943 N   0  0  0  0  0  0
   15.2427   66.2695    6.7189 C   0  0  0  0  0  0
   16.6670   66.6345    8.2145 N   0  0  0  0  0  0
   17.1796   67.2570    7.1159 C   0  0  0  0  0  0
   18.5535   67.8123    7.4337 C   0  0  1  0  0  0
   17.5906   66.5207    9.3210 C   0  0  0  0  0  0
   14.0333   65.6363    6.1245 C   0  0  0  0  0  0
   14.2543   64.8026    5.0711 N   0  0  0  0  0  0
   13.1810   64.1901    4.5030 C   0  0  0  0  0  0
   11.8741   64.3875    4.9541 C   0  0  0  0  0  0
   11.6659   65.2489    6.0319 C   0  0  0  0  0  0
   12.7541   65.8786    6.6355 C   0  0  0  0  0  0
   13.4682   63.2552    3.3439 C   0  0  0  0  0  0
   18.7796   69.2769    6.9585 C   0  0  0  0  0  0
   20.1115   69.7355    7.1797 O   0  0  0  0  0  0
   21.0982   69.2087    6.2987 C   0  0  0  0  0  0
   20.2668   66.0113    8.7970 H   0  0  0  0  0  0
   20.8889   67.6508    8.9209 H   0  0  0  0  0  0
   20.2492   66.8576   10.3442 H   0  0  0  0  0  0
   17.5198   69.2574    9.6320 H   0  0  0  0  0  0
   18.5332   68.5751   10.8928 H   0  0  0  0  0  0
   19.2711   69.5365    9.6283 H   0  0  0  0  0  0
   18.5388   67.6673    4.6343 H   0  0  0  0  0  0
   18.6063   68.5783    2.3354 H   0  0  0  0  0  0
   14.5022   68.1808    1.9252 H   0  0  0  0  0  0
   14.2671   67.3673    4.2425 H   0  0  0  0  0  0
   19.2574   67.1861    6.8864 H   0  0  0  0  0  0
   17.0937   66.7263   10.2708 H   0  0  0  0  0  0
   17.9693   65.4991    9.3711 H   0  0  0  0  0  0
   11.0393   63.8936    4.4782 H   0  0  0  0  0  0
   10.6671   65.4345    6.3917 H   0  0  0  0  0  0
   12.6042   66.5462    7.4712 H   0  0  0  0  0  0
   12.7013   63.3379    2.5729 H   0  0  0  0  0  0
   14.4317   63.4640    2.8760 H   0  0  0  0  0  0
   13.4670   62.2256    3.6979 H   0  0  0  0  0  0
   18.1123   69.9471    7.4976 H   0  0  0  0  0  0
   18.5263   69.4240    5.9116 H   0  0  0  0  0  0
   22.0582   69.6824    6.5056 H   0  0  0  0  0  0
   21.2317   68.1342    6.4258 H   0  0  0  0  0  0
   20.8495   69.4067    5.2552 H   0  0  0  0  0  0
  1  2  1  0  0  0
  1 27  1  0  0  0
  1 28  1  0  0  0
  1 29  1  0  0  0
  2  3  1  0  0  0
  2 15  1  0  0  0
  2 16  1  0  0  0
  3 30  1  0  0  0
  3 31  1  0  0  0
  3 32  1  0  0  0
  4  5  2  0  0  0
  4  9  1  0  0  0
  4 33  1  0  0  0
  5  6  1  0  0  0
  5 34  1  0  0  0
  6  7  2  0  0  0
  7  8  1  0  0  0
  7 35  1  0  0  0
  8  9  2  0  0  0
  8 36  1  0  0  0
  9 10  1  0  0  0
 10 14  2  0  0  0
 10 12  1  0  0  0
 11 13  1  0  0  0
 11 12  2  0  0  0
 12 17  1  0  0  0
 13 14  1  0  0  0
 13 16  1  0  0  0
 14 15  1  0  0  0
 15 24  1  0  0  0
 15 37  1  0  0  0
 16 38  1  0  0  0
 16 39  1  0  0  0
 17 18  2  0  0  0
 17 22  1  0  0  0
 18 19  1  0  0  0
 19 20  2  0  0  0
 19 23  1  0  0  0
 20 21  1  0  0  0
 20 40  1  0  0  0
 21 22  2  0  0  0
 21 41  1  0  0  0
 22 42  1  0  0  0
 23 43  1  0  0  0
 23 44  1  0  0  0
 23 45  1  0  0  0
 24 25  1  0  0  0
 24 46  1  0  0  0
 24 47  1  0  0  0
 25 26  1  0  0  0
 26 48  1  0  0  0
 26 49  1  0  0  0
 26 50  1  0  0  0
M  END
> <s_m_entry_id>
34577

> <s_m_entry_name>
dock_pv.320

> <s_m_Source_Path>
/home/csk/Desktop/cluster/DUD-E-result/tgfr1

> <s_m_Source_File>
dock_pv.maegz

> <i_m_Source_File_Index>
320

> <chembl_id>
CHEMBL4292878

> <chembl_pref_name>
None

> <i_lp_mmshare_version>
53161

> <r_lp_tautomer_probability>
1

> <s_lp_Force_Field>
OPLS_2005

> <r_lp_Energy>
37.520915

> <b_lp_Chiralities_Consistent>
1

> <s_lp_Variant>
CHEMBL4439_lig867-1

> <s_i_glide_gridfile>
glide-grid_3hmm

> <i_i_glide_lignum>
1200

> <i_i_glide_rotatable_bonds>
4

> <r_i_docking_score>
-7.87430880826136

> <r_i_glide_ligand_efficiency>
-0.302858031086975

> <r_i_glide_ligand_efficiency_sa>
-0.897215725406357

> <r_i_glide_ligand_efficiency_ln>
-1.84925558590556

> <r_i_glide_gscore>
-7.87430880826136

> <r_i_glide_lipo>
-4.1883818234733

> <r_i_glide_hbond>
-0.0616729354072892

> <r_i_glide_metal>
0

> <r_i_glide_rewards>
-1.63251477132153

> <r_i_glide_evdw>
-41.2969779968262

> <r_i_glide_ecoul>
-2.64849019050598

> <r_i_glide_erotb>
0.470383150357962

> <r_i_glide_esite>
0

> <r_i_glide_emodel>
-61.5238968908011

> <r_i_glide_energy>
-43.9454681873322

> <r_i_glide_einternal>
4.94144535064697

> <i_i_glide_confnum>
13

> <i_i_glide_posenum>
270

> <r_i_glide_eff_state_penalty>
0

> <s_user_duplicate_titles>
CHEMBL4439_lig867

> <i_f3d_flags>
0

> <s_m_subgroup_title>
dock_pv

> <s_m_subgroupid>
dock_pv

> <b_m_subgroup_collapsed>
1

$$$$
CHEMBL4439_lig982
                    3D
 Schrodinger Suite 2021-1.
 44 47  0  0  1  0            999 V2000
   17.3263   67.7739    7.4874 C   0  0  0  0  0  0
   16.2081   67.1742    7.9811 C   0  0  0  0  0  0
   16.2545   67.2390    9.3685 N   0  0  0  0  0  0
   17.4547   67.8276    9.7015 N   0  0  0  0  0  0
   18.1282   68.2391    8.6165 C   0  0  0  0  0  0
   19.1881   68.8667    8.6212 O   0  0  0  0  0  0
   17.8528   68.1052   11.0900 C   0  0  0  0  0  0
   15.9828   66.0511   10.1788 C   0  0  0  0  0  0
   15.0733   66.5116    7.2775 C   0  0  0  0  0  0
   13.7669   66.7296    7.7267 C   0  0  0  0  0  0
   12.6680   66.1065    7.1386 C   0  0  0  0  0  0
   15.2722   65.6611    6.1832 C   0  0  0  0  0  0
   14.1774   65.0537    5.5240 C   0  0  0  0  0  0
   12.8569   65.2570    6.0315 C   0  0  0  0  0  0
   11.7828   64.6246    5.4780 N   0  0  0  0  0  0
   12.0275   63.8074    4.4242 C   0  0  0  0  0  0
   13.3079   63.6485    3.8939 C   0  0  0  0  0  0
   14.3878   64.2677    4.4321 N   0  0  0  0  0  0
   17.7078   68.0564    6.0538 C   0  0  0  0  0  0
   19.0427   68.3200    5.6892 C   0  0  0  0  0  0
   19.4118   68.6312    4.3761 C   0  0  0  0  0  0
   18.4378   68.6172    3.3778 C   0  0  0  0  0  0
   17.1152   68.3335    3.6997 C   0  0  0  0  0  0
   16.7575   68.0701    5.0209 C   0  0  0  0  0  0
   20.8569   68.9532    4.0106 C   0  0  0  0  0  0
   21.6321   69.4653    5.0732 O   0  0  0  0  0  0
   18.6417   68.8551   11.1593 H   0  0  0  0  0  0
   17.0046   68.4580   11.6756 H   0  0  0  0  0  0
   18.2300   67.1949   11.5543 H   0  0  0  0  0  0
   15.0024   65.6572    9.9483 H   0  0  0  0  0  0
   16.7115   65.2630    9.9933 H   0  0  0  0  0  0
   15.9761   66.2785   11.2447 H   0  0  0  0  0  0
   13.5980   67.3961    8.5591 H   0  0  0  0  0  0
   11.6676   66.2619    7.5220 H   0  0  0  0  0  0
   16.2690   65.4636    5.8160 H   0  0  0  0  0  0
   11.1764   63.3111    3.9800 H   0  0  0  0  0  0
   13.4809   63.0258    3.0262 H   0  0  0  0  0  0
   19.8268   68.2865    6.4269 H   0  0  0  0  0  0
   18.6988   68.8375    2.3523 H   0  0  0  0  0  0
   16.3571   68.3440    2.9312 H   0  0  0  0  0  0
   15.7088   67.9445    5.2266 H   0  0  0  0  0  0
   20.8798   69.6971    3.2123 H   0  0  0  0  0  0
   21.3445   68.0572    3.6321 H   0  0  0  0  0  0
   22.3544   68.8415    5.2327 H   0  0  0  0  0  0
  1  5  1  0  0  0
  1  2  2  0  0  0
  1 19  1  0  0  0
  2  9  1  0  0  0
  2  3  1  0  0  0
  3  8  1  0  0  0
  3  4  1  0  0  0
  4  7  1  0  0  0
  4  5  1  0  0  0
  5  6  2  0  0  0
  7 27  1  0  0  0
  7 28  1  0  0  0
  7 29  1  0  0  0
  8 30  1  0  0  0
  8 31  1  0  0  0
  8 32  1  0  0  0
  9 10  2  0  0  0
  9 12  1  0  0  0
 10 11  1  0  0  0
 10 33  1  0  0  0
 11 14  2  0  0  0
 11 34  1  0  0  0
 12 13  2  0  0  0
 12 35  1  0  0  0
 13 14  1  0  0  0
 13 18  1  0  0  0
 14 15  1  0  0  0
 15 16  2  0  0  0
 16 17  1  0  0  0
 16 36  1  0  0  0
 17 18  2  0  0  0
 17 37  1  0  0  0
 19 20  2  0  0  0
 19 24  1  0  0  0
 20 21  1  0  0  0
 20 38  1  0  0  0
 21 22  2  0  0  0
 21 25  1  0  0  0
 22 23  1  0  0  0
 22 39  1  0  0  0
 23 24  2  0  0  0
 23 40  1  0  0  0
 24 41  1  0  0  0
 25 26  1  0  0  0
 25 42  1  0  0  0
 25 43  1  0  0  0
 26 44  1  0  0  0
M  END
> <s_m_entry_id>
34578

> <s_m_entry_name>
dock_pv.321

> <s_m_Source_Path>
/home/csk/Desktop/cluster/DUD-E-result/tgfr1

> <s_m_Source_File>
dock_pv.maegz

> <i_m_Source_File_Index>
321

> <chembl_id>
CHEMBL595332

> <chembl_pref_name>
None

> <i_lp_mmshare_version>
53161

> <r_lp_tautomer_probability>
1

> <s_lp_Force_Field>
OPLS_2005

> <r_lp_Energy>
43.014447

> <b_lp_Chiralities_Consistent>
1

> <s_lp_Variant>
CHEMBL4439_lig982-1

> <s_i_glide_gridfile>
glide-grid_3hmm

> <i_i_glide_lignum>
1341

> <i_i_glide_rotatable_bonds>
4

> <r_i_docking_score>
-7.87216416687723

> <r_i_glide_ligand_efficiency>
-0.302775544879893

> <r_i_glide_ligand_efficiency_sa>
-0.896971360342444

> <r_i_glide_ligand_efficiency_ln>
-1.84875192391364

> <r_i_glide_gscore>
-7.87216416687723

> <r_i_glide_lipo>
-3.52847407326299

> <r_i_glide_hbond>
-0.32

> <r_i_glide_metal>
0

> <r_i_glide_rewards>
-1.75108531817101

> <r_i_glide_evdw>
-48.8897438049316

> <r_i_glide_ecoul>
-2.02319526672363

> <r_i_glide_erotb>
0.4753617048119

> <r_i_glide_esite>
0

> <r_i_glide_emodel>
-73.2944191876921

> <r_i_glide_energy>
-50.9129390716553

> <r_i_glide_einternal>
3.4278736114502

> <i_i_glide_confnum>
42

> <i_i_glide_posenum>
18

> <r_i_glide_eff_state_penalty>
0

> <s_user_duplicate_titles>
CHEMBL4439_lig982,593921

> <i_f3d_flags>
0

> <s_m_subgroup_title>
dock_pv

> <s_m_subgroupid>
dock_pv

> <b_m_subgroup_collapsed>
1

$$$$
CHEMBL4439_lig101
                    3D
 Schrodinger Suite 2021-1.
 41 45  0  0  1  0            999 V2000
   17.8124   68.0560    6.6184 N   0  0  0  0  0  0
   15.9378   66.7990    6.7766 C   0  0  0  0  0  0
   16.8008   67.5511    5.9252 C   0  0  0  0  0  0
   16.6654   67.8760    4.4525 C   0  0  0  0  0  0
   15.4820   67.6597    3.7281 C   0  0  0  0  0  0
   15.3708   68.1784    2.4363 C   0  0  0  0  0  0
   16.4470   68.8570    1.8648 C   0  0  0  0  0  0
   17.6227   68.9647    2.6053 C   0  0  0  0  0  0
   17.7380   68.4935    3.8733 N   0  0  0  0  0  0
   16.5182   66.8938    8.0320 C   0  0  0  0  0  0
   17.6306   67.6575    7.8731 N   0  0  0  0  0  0
   18.3322   67.9539    9.1021 C   0  0  0  0  0  0
   17.7621   66.8803   10.0383 C   0  0  0  0  0  0
   16.3901   66.4808    9.4750 C   0  0  0  0  0  0
   14.6758   66.0807    6.4660 C   0  0  0  0  0  0
   11.2739   64.1410    5.2276 N   0  0  0  0  0  0
   11.8841   63.3746    4.2620 C   0  0  0  0  0  0
   13.1790   63.5407    4.1965 N   0  0  0  0  0  0
   13.4440   64.4930    5.1451 C   0  0  0  0  0  0
   14.6688   65.0775    5.4914 C   0  0  0  0  0  0
   13.4989   66.4500    7.1275 C   0  0  0  0  0  0
   12.2670   65.8591    6.8306 C   0  0  0  0  0  0
   12.2613   64.8951    5.8180 C   0  0  0  0  0  0
   18.8398   69.6572    2.0321 C   0  0  0  0  0  0
   14.6100   67.2110    4.1679 H   0  0  0  0  0  0
   14.4473   68.0663    1.8902 H   0  0  0  0  0  0
   16.3673   69.2612    0.8660 H   0  0  0  0  0  0
   18.0876   68.9621    9.4403 H   0  0  0  0  0  0
   19.4121   67.8719    8.9769 H   0  0  0  0  0  0
   17.7013   67.2239   11.0715 H   0  0  0  0  0  0
   18.4312   66.0175   10.0303 H   0  0  0  0  0  0
   15.5749   67.0022    9.9786 H   0  0  0  0  0  0
   16.2187   65.4107    9.5954 H   0  0  0  0  0  0
   10.2812   64.1367    5.4117 H   0  0  0  0  0  0
   11.2970   62.7180    3.6356 H   0  0  0  0  0  0
   15.5761   64.7983    4.9765 H   0  0  0  0  0  0
   13.5380   67.2256    7.8811 H   0  0  0  0  0  0
   11.3587   66.1440    7.3425 H   0  0  0  0  0  0
   19.0208   69.3400    1.0037 H   0  0  0  0  0  0
   18.6648   70.7332    2.0320 H   0  0  0  0  0  0
   19.7418   69.4554    2.6130 H   0  0  0  0  0  0
  1  3  2  0  0  0
  1 11  1  0  0  0
  2 10  2  0  0  0
  2  3  1  0  0  0
  2 15  1  0  0  0
  3  4  1  0  0  0
  4  5  2  0  0  0
  4  9  1  0  0  0
  5  6  1  0  0  0
  5 25  1  0  0  0
  6  7  2  0  0  0
  6 26  1  0  0  0
  7  8  1  0  0  0
  7 27  1  0  0  0
  8  9  2  0  0  0
  8 24  1  0  0  0
 10 14  1  0  0  0
 10 11  1  0  0  0
 11 12  1  0  0  0
 12 13  1  0  0  0
 12 28  1  0  0  0
 12 29  1  0  0  0
 13 14  1  0  0  0
 13 30  1  0  0  0
 13 31  1  0  0  0
 14 32  1  0  0  0
 14 33  1  0  0  0
 15 20  2  0  0  0
 15 21  1  0  0  0
 16 17  1  0  0  0
 16 23  1  0  0  0
 16 34  1  0  0  0
 17 18  2  0  0  0
 17 35  1  0  0  0
 18 19  1  0  0  0
 19 23  2  0  0  0
 19 20  1  0  0  0
 20 36  1  0  0  0
 21 22  2  0  0  0
 21 37  1  0  0  0
 22 23  1  0  0  0
 22 38  1  0  0  0
 24 39  1  0  0  0
 24 40  1  0  0  0
 24 41  1  0  0  0
M  END
> <s_m_entry_id>
34579

> <s_m_entry_name>
dock_pv.322

> <s_m_Source_Path>
/home/csk/Desktop/cluster/DUD-E-result/tgfr1

> <s_m_Source_File>
dock_pv.maegz

> <i_m_Source_File_Index>
322

> <chembl_id>
CHEMBL382838

> <chembl_pref_name>
None

> <i_lp_mmshare_version>
53161

> <r_lp_tautomer_probability>
1

> <s_lp_Force_Field>
OPLS_2005

> <r_lp_Energy>
36.222186

> <b_lp_Chiralities_Consistent>
1

> <s_lp_Variant>
CHEMBL4439_lig101-1

> <s_i_glide_gridfile>
glide-grid_3hmm

> <i_i_glide_lignum>
140

> <i_i_glide_rotatable_bonds>
2

> <r_i_docking_score>
-7.87170024241632

> <r_i_glide_ligand_efficiency>
-0.32798751010068

> <r_i_glide_ligand_efficiency_sa>
-0.946079690015574

> <r_i_glide_ligand_efficiency_ln>
-1.88405907679767

> <r_i_glide_gscore>
-7.87170024241632

> <r_i_glide_lipo>
-3.84521813614962

> <r_i_glide_hbond>
0

> <r_i_glide_metal>
0

> <r_i_glide_rewards>
-2.06020861505923

> <r_i_glide_evdw>
-45.8756523132324

> <r_i_glide_ecoul>
-0.310310423374176

> <r_i_glide_erotb>
0.374055687960268

> <r_i_glide_esite>
0

> <r_i_glide_emodel>
-66.9873518697254

> <r_i_glide_energy>
-46.1859627366066

> <r_i_glide_einternal>
1.81304895877838

> <i_i_glide_confnum>
10

> <i_i_glide_posenum>
240

> <r_i_glide_eff_state_penalty>
0

> <s_user_duplicate_titles>
CHEMBL4439_lig101,341041

> <i_f3d_flags>
0

> <s_m_subgroup_title>
dock_pv

> <s_m_subgroupid>
dock_pv

> <b_m_subgroup_collapsed>
1

$$$$
CHEMBL4439_lig117
                    3D
 Schrodinger Suite 2021-1.
 46 49  0  0  1  0            999 V2000
   16.3861   67.1604    7.7718 C   0  0  0  0  0  0
   16.7214   66.6358    8.9810 N   0  0  0  0  0  0
   17.9722   66.8826    9.4483 C   0  0  0  0  0  0
   18.9257   67.5978    8.7184 C   0  0  0  0  0  0
   18.5736   68.1499    7.4755 C   0  0  0  0  0  0
   17.2516   67.9850    7.0580 C   0  0  0  0  0  0
   19.6093   68.8471    6.6344 C   0  0  0  0  0  0
   19.7326   69.0720    5.2373 C   0  0  0  0  0  0
   20.9516   69.7021    5.1326 N   0  0  0  0  0  0
   21.5680   69.9533    6.2809 N   0  0  0  0  0  0
   20.7648   69.4455    7.1733 C   0  0  0  0  0  0
   18.9008   68.8330    3.9965 C   0  0  0  0  0  0
   17.7941   68.0570    4.1132 N   0  0  0  0  0  0
   16.8848   68.0430    3.1068 C   0  0  0  0  0  0
   17.0674   68.7444    1.9185 C   0  0  0  0  0  0
   18.2606   69.4380    1.7475 C   0  0  0  0  0  0
   19.1876   69.4825    2.7874 C   0  0  0  0  0  0
   15.0974   66.7289    7.1794 C   0  0  0  0  0  0
   15.0564   66.1846    5.8930 C   0  0  0  0  0  0
   13.8504   65.7498    5.3523 C   0  0  0  0  0  0
   12.6671   65.8320    6.1081 C   0  0  0  0  0  0
   12.7105   66.3950    7.3722 C   0  0  0  0  0  0
   13.9105   66.8569    7.8890 C   0  0  0  0  0  0
   11.4095   65.4283    5.6933 O   0  0  0  0  0  0
   11.2254   64.7880    4.4320 C   0  0  0  0  0  0
   11.9742   63.4573    4.3587 C   0  0  0  0  0  0
   12.2669   62.8570    5.3820 O   0  0  0  0  0  0
   12.3497   62.8979    3.0005 C   0  0  0  0  0  0
   18.2247   66.4571   10.4085 H   0  0  0  0  0  0
   19.9243   67.7021    9.1142 H   0  0  0  0  0  0
   16.8700   68.4569    6.1773 H   0  0  0  0  0  0
   21.3707   69.9691    4.2547 H   0  0  0  0  0  0
   21.0205   69.4991    8.2211 H   0  0  0  0  0  0
   15.9900   67.4611    3.2715 H   0  0  0  0  0  0
   16.3147   68.7290    1.1437 H   0  0  0  0  0  0
   18.4554   69.9694    0.8320 H   0  0  0  0  0  0
   20.0898   70.0570    2.6537 H   0  0  0  0  0  0
   15.9641   66.0866    5.3148 H   0  0  0  0  0  0
   13.8533   65.3574    4.3477 H   0  0  0  0  0  0
   11.8006   66.4572    7.9506 H   0  0  0  0  0  0
   13.9235   67.3484    8.8320 H   0  0  0  0  0  0
   11.4961   65.4672    3.6322 H   0  0  0  0  0  0
   10.1606   64.5810    4.3270 H   0  0  0  0  0  0
   11.4636   62.5336    2.4904 H   0  0  0  0  0  0
   13.0475   62.0721    3.1308 H   0  0  0  0  0  0
   12.8371   63.6570    2.3903 H   0  0  0  0  0  0
  1 18  1  0  0  0
  1  6  1  0  0  0
  1  2  2  0  0  0
  2  3  1  0  0  0
  3  4  2  0  0  0
  3 29  1  0  0  0
  4  5  1  0  0  0
  4 30  1  0  0  0
  5  6  2  0  0  0
  5  7  1  0  0  0
  6 31  1  0  0  0
  7  8  2  0  0  0
  7 11  1  0  0  0
  8  9  1  0  0  0
  8 12  1  0  0  0
  9 10  1  0  0  0
  9 32  1  0  0  0
 10 11  2  0  0  0
 11 33  1  0  0  0
 12 17  1  0  0  0
 12 13  2  0  0  0
 13 14  1  0  0  0
 14 15  2  0  0  0
 14 34  1  0  0  0
 15 16  1  0  0  0
 15 35  1  0  0  0
 16 17  2  0  0  0
 16 36  1  0  0  0
 17 37  1  0  0  0
 18 19  2  0  0  0
 18 23  1  0  0  0
 19 20  1  0  0  0
 19 38  1  0  0  0
 20 21  2  0  0  0
 20 39  1  0  0  0
 21 22  1  0  0  0
 21 24  1  0  0  0
 22 23  2  0  0  0
 22 40  1  0  0  0
 23 41  1  0  0  0
 24 25  1  0  0  0
 25 26  1  0  0  0
 25 42  1  0  0  0
 25 43  1  0  0  0
 26 27  2  0  0  0
 26 28  1  0  0  0
 28 44  1  0  0  0
 28 45  1  0  0  0
 28 46  1  0  0  0
M  END
> <s_m_entry_id>
34580

> <s_m_entry_name>
dock_pv.323

> <s_m_Source_Path>
/home/csk/Desktop/cluster/DUD-E-result/tgfr1

> <s_m_Source_File>
dock_pv.maegz

> <i_m_Source_File_Index>
323

> <chembl_id>
CHEMBL202943

> <chembl_pref_name>
None

> <i_lp_mmshare_version>
53161

> <r_lp_tautomer_probability>
0.499999985

> <s_lp_Force_Field>
OPLS_2005

> <r_lp_Energy>
21.257784

> <b_lp_Chiralities_Consistent>
1

> <s_lp_Variant>
CHEMBL4439_lig117-2

> <s_i_glide_gridfile>
glide-grid_3hmm

> <i_i_glide_lignum>
171

> <i_i_glide_rotatable_bonds>
6

> <r_i_docking_score>
-7.86556524318283

> <r_i_glide_ligand_efficiency>
-0.280913044399387

> <r_i_glide_ligand_efficiency_sa>
-0.853017451731721

> <r_i_glide_ligand_efficiency_ln>
-1.81560340115724

> <r_i_glide_gscore>
-7.86556524318283

> <r_i_glide_lipo>
-4.42722929609087

> <r_i_glide_hbond>
0

> <r_i_glide_metal>
0

> <r_i_glide_rewards>
-1.35240980953527

> <r_i_glide_evdw>
-45.2286720275879

> <r_i_glide_ecoul>
-3.51698660850525

> <r_i_glide_erotb>
0.703055455098482

> <r_i_glide_esite>
0

> <r_i_glide_emodel>
-68.504741717437

> <r_i_glide_energy>
-48.7456586360931

> <r_i_glide_einternal>
5.902991771698

> <i_i_glide_confnum>
74

> <i_i_glide_posenum>
187

> <r_i_glide_eff_state_penalty>
0

> <s_user_duplicate_titles>
CHEMBL4439_lig117,343190

> <i_f3d_flags>
0

> <s_m_subgroup_title>
dock_pv

> <s_m_subgroupid>
dock_pv

> <b_m_subgroup_collapsed>
1

$$$$
CHEMBL4439_lig486
                    3D
 Schrodinger Suite 2021-1.
 50 54  0  0  1  0            999 V2000
   20.6919   68.9155    4.5074 C   0  0  0  0  0  0
   19.3020   68.8528    4.3331 C   0  0  0  0  0  0
   18.7731   69.2562    3.0950 C   0  0  0  0  0  0
   19.5847   69.6567    2.0322 C   0  0  0  0  0  0
   21.4702   69.3948    3.4873 N   0  0  0  0  0  0
   20.9724   69.7175    2.2277 C   0  0  0  0  0  0
   22.0007   70.0994    1.4339 N   0  0  0  0  0  0
   23.0189   70.0560    2.2735 C   0  0  0  0  0  0
   22.7927   69.6570    3.5115 N   0  0  0  0  0  0
   18.3431   68.3290    5.3715 C   0  0  0  0  0  0
   18.4054   68.1617    6.7922 C   0  0  0  0  0  0
   17.2921   67.6202    7.2523 N   0  0  0  0  0  0
   16.5056   67.3583    6.1993 N   0  0  0  0  0  0
   17.0952   67.8017    5.0445 C   0  0  0  0  0  0
   15.2905   66.6677    6.3420 C   0  0  0  0  0  0
   14.3118   66.8570    7.6891 S   0  0  0  0  0  0
   15.1067   65.8389    5.2639 N   0  0  0  0  0  0
   14.0756   64.9809    4.8355 C   0  0  0  0  0  0
   12.7635   64.9541    5.3401 C   0  0  0  0  0  0
   11.8128   64.0865    4.7991 C   0  0  0  0  0  0
   12.1665   63.2537    3.7406 C   0  0  0  0  0  0
   13.4665   63.2569    3.2449 C   0  0  0  0  0  0
   14.4154   64.1176    3.7887 C   0  0  0  0  0  0
   19.4788   68.4648    7.8035 C   0  0  0  0  0  0
   19.5650   67.7676    9.0215 C   0  0  0  0  0  0
   20.6092   68.0547    9.9015 C   0  0  0  0  0  0
   21.5627   69.0062    9.5439 C   0  0  0  0  0  0
   21.4182   69.6581    8.3188 C   0  0  0  0  0  0
   20.3774   69.4282    7.4777 N   0  0  0  0  0  0
   22.4698   70.6267    7.8270 C   0  0  0  0  0  0
   10.4026   64.0564    5.3530 C   0  0  0  0  0  0
   21.2300   68.5976    5.3849 H   0  0  0  0  0  0
   17.7064   69.2419    2.9275 H   0  0  0  0  0  0
   19.1535   69.9348    1.0865 H   0  0  0  0  0  0
   24.0135   70.3368    1.9555 H   0  0  0  0  0  0
   16.6013   67.6821    4.0914 H   0  0  0  0  0  0
   15.8846   65.8281    4.6211 H   0  0  0  0  0  0
   12.4351   65.6143    6.1230 H   0  0  0  0  0  0
   11.4374   62.5889    3.3007 H   0  0  0  0  0  0
   13.7320   62.6006    2.4320 H   0  0  0  0  0  0
   15.4153   64.1072    3.3785 H   0  0  0  0  0  0
   18.8454   67.0056    9.2835 H   0  0  0  0  0  0
   20.6903   67.5224   10.8385 H   0  0  0  0  0  0
   22.4013   69.2173   10.1907 H   0  0  0  0  0  0
   22.8230   71.2686    8.6350 H   0  0  0  0  0  0
   23.3266   70.0785    7.4334 H   0  0  0  0  0  0
   22.0901   71.2573    7.0228 H   0  0  0  0  0  0
    9.7991   63.2623    4.9114 H   0  0  0  0  0  0
    9.9116   65.0132    5.1763 H   0  0  0  0  0  0
   10.4325   63.8887    6.4299 H   0  0  0  0  0  0
  1  2  2  0  0  0
  1  5  1  0  0  0
  1 32  1  0  0  0
  2 10  1  0  0  0
  2  3  1  0  0  0
  3  4  2  0  0  0
  3 33  1  0  0  0
  4  6  1  0  0  0
  4 34  1  0  0  0
  5  9  1  0  0  0
  5  6  1  0  0  0
  6  7  2  0  0  0
  7  8  1  0  0  0
  8  9  2  0  0  0
  8 35  1  0  0  0
 10 11  1  0  0  0
 10 14  2  0  0  0
 11 12  2  0  0  0
 11 24  1  0  0  0
 12 13  1  0  0  0
 13 15  1  0  0  0
 13 14  1  0  0  0
 14 36  1  0  0  0
 15 16  2  0  0  0
 15 17  1  0  0  0
 17 18  1  0  0  0
 17 37  1  0  0  0
 18 19  2  0  0  0
 18 23  1  0  0  0
 19 20  1  0  0  0
 19 38  1  0  0  0
 20 21  2  0  0  0
 20 31  1  0  0  0
 21 22  1  0  0  0
 21 39  1  0  0  0
 22 23  2  0  0  0
 22 40  1  0  0  0
 23 41  1  0  0  0
 24 25  2  0  0  0
 24 29  1  0  0  0
 25 26  1  0  0  0
 25 42  1  0  0  0
 26 27  2  0  0  0
 26 43  1  0  0  0
 27 28  1  0  0  0
 27 44  1  0  0  0
 28 29  2  0  0  0
 28 30  1  0  0  0
 30 45  1  0  0  0
 30 46  1  0  0  0
 30 47  1  0  0  0
 31 48  1  0  0  0
 31 49  1  0  0  0
 31 50  1  0  0  0
M  END
> <s_m_entry_id>
34581

> <s_m_entry_name>
dock_pv.324

> <s_m_Source_Path>
/home/csk/Desktop/cluster/DUD-E-result/tgfr1

> <s_m_Source_File>
dock_pv.maegz

> <i_m_Source_File_Index>
324

> <chembl_id>
CHEMBL1835520

> <chembl_pref_name>
None

> <i_lp_mmshare_version>
53161

> <r_lp_tautomer_probability>
1

> <s_lp_Force_Field>
OPLS_2005

> <r_lp_Energy>
30.930558

> <b_lp_Chiralities_Consistent>
1

> <s_lp_Variant>
CHEMBL4439_lig486-1

> <s_i_glide_gridfile>
glide-grid_3hmm

> <i_i_glide_lignum>
632

> <i_i_glide_rotatable_bonds>
5

> <r_i_docking_score>
-7.86475508954435

> <r_i_glide_ligand_efficiency>
-0.253701777082076

> <r_i_glide_ligand_efficiency_sa>
-0.796973853090681

> <r_i_glide_ligand_efficiency_ln>
-1.77374329848964

> <r_i_glide_gscore>
-7.86475508954435

> <r_i_glide_lipo>
-3.63040486989789

> <r_i_glide_hbond>
0

> <r_i_glide_metal>
0

> <r_i_glide_rewards>
-1.75873698883888

> <r_i_glide_evdw>
-56.4064292907715

> <r_i_glide_ecoul>
-1.35414326190948

> <r_i_glide_erotb>
0.54782972301741

> <r_i_glide_esite>
0

> <r_i_glide_emodel>
-82.2085520028313

> <r_i_glide_energy>
-57.760572552681

> <r_i_glide_einternal>
6.29690408706665

> <i_i_glide_confnum>
31

> <i_i_glide_posenum>
334

> <r_i_glide_eff_state_penalty>
0

> <s_user_duplicate_titles>
CHEMBL4439_lig486

> <i_f3d_flags>
0

> <s_m_subgroup_title>
dock_pv

> <s_m_subgroupid>
dock_pv

> <b_m_subgroup_collapsed>
1

$$$$
CHEMBL4439_lig844
                    3D
 Schrodinger Suite 2021-1.
 40 43  0  0  1  0            999 V2000
   13.3530   64.8552    4.4319 C   0  0  0  0  0  0
   12.2184   64.6401    5.2136 C   0  0  0  0  0  0
   12.1127   65.2566    6.4563 C   0  0  0  0  0  0
   13.0970   66.0023    7.0211 N   0  0  0  0  0  0
   14.3088   65.7268    4.9579 C   0  0  0  0  0  0
   14.1878   66.2238    6.2774 C   0  0  0  0  0  0
   15.4196   66.8806    6.5999 C   0  0  0  0  0  0
   16.0825   67.0878    5.3799 C   0  0  0  0  0  0
   15.4444   66.3056    4.4384 N   0  0  0  0  0  0
   15.8349   67.2793    7.9653 C   0  0  0  0  0  0
   15.7031   66.3168    8.9196 N   0  0  0  0  0  0
   16.1924   66.5739   10.1598 C   0  0  0  0  0  0
   16.8324   67.7694   10.4809 C   0  0  0  0  0  0
   16.9401   68.7438    9.4888 C   0  0  0  0  0  0
   16.3990   68.5208    8.2298 C   0  0  0  0  0  0
   17.2977   67.8923    5.0122 C   0  0  0  0  0  0
   17.3842   68.5148    3.7588 C   0  0  0  0  0  0
   18.5255   69.2555    3.4444 C   0  0  0  0  0  0
   19.5713   69.3934    4.2972 N   0  0  0  0  0  0
   19.4955   68.7849    5.5136 C   0  0  0  0  0  0
   18.3780   68.0420    5.8933 C   0  0  0  0  0  0
   20.5677   68.8101    6.4188 N   0  0  0  0  0  0
   21.4745   69.7920    6.5827 C   0  0  0  0  0  0
   22.5516   69.5528    7.6329 C   0  0  0  0  0  0
   21.4655   70.8570    5.9723 O   0  0  0  0  0  0
   17.4715   68.0392   12.0618 Cl  0  0  0  0  0  0
   13.4414   64.4377    3.4389 H   0  0  0  0  0  0
   11.4105   64.0268    4.8413 H   0  0  0  0  0  0
   11.2243   65.1200    7.0552 H   0  0  0  0  0  0
   15.7938   66.2156    3.4962 H   0  0  0  0  0  0
   16.0683   65.8016   10.9029 H   0  0  0  0  0  0
   17.4657   69.6570    9.6617 H   0  0  0  0  0  0
   16.4902   69.2573    7.4510 H   0  0  0  0  0  0
   16.5777   68.4428    3.0438 H   0  0  0  0  0  0
   18.6193   69.7540    2.4903 H   0  0  0  0  0  0
   18.3693   67.5359    6.8466 H   0  0  0  0  0  0
   20.5844   68.0616    7.0922 H   0  0  0  0  0  0
   22.3509   68.6659    8.2339 H   0  0  0  0  0  0
   22.6251   70.4141    8.2984 H   0  0  0  0  0  0
   23.5163   69.4248    7.1410 H   0  0  0  0  0  0
  1  5  1  0  0  0
  1  2  2  0  0  0
  1 27  1  0  0  0
  2  3  1  0  0  0
  2 28  1  0  0  0
  3  4  2  0  0  0
  3 29  1  0  0  0
  4  6  1  0  0  0
  5  6  2  0  0  0
  5  9  1  0  0  0
  6  7  1  0  0  0
  7  8  2  0  0  0
  7 10  1  0  0  0
  8  9  1  0  0  0
  8 16  1  0  0  0
  9 30  1  0  0  0
 10 11  2  0  0  0
 10 15  1  0  0  0
 11 12  1  0  0  0
 12 13  2  0  0  0
 12 31  1  0  0  0
 13 14  1  0  0  0
 13 26  1  0  0  0
 14 15  2  0  0  0
 14 32  1  0  0  0
 15 33  1  0  0  0
 16 17  2  0  0  0
 16 21  1  0  0  0
 17 18  1  0  0  0
 17 34  1  0  0  0
 18 19  2  0  0  0
 18 35  1  0  0  0
 19 20  1  0  0  0
 20 21  2  0  0  0
 20 22  1  0  0  0
 21 36  1  0  0  0
 22 23  1  0  0  0
 22 37  1  0  0  0
 23 24  1  0  0  0
 23 25  2  0  0  0
 24 38  1  0  0  0
 24 39  1  0  0  0
 24 40  1  0  0  0
M  END
> <s_m_entry_id>
34582

> <s_m_entry_name>
dock_pv.325

> <s_m_Source_Path>
/home/csk/Desktop/cluster/DUD-E-result/tgfr1

> <s_m_Source_File>
dock_pv.maegz

> <i_m_Source_File_Index>
325

> <chembl_id>
CHEMBL4280660

> <chembl_pref_name>
None

> <i_lp_mmshare_version>
53161

> <r_lp_tautomer_probability>
0.999991217065141

> <s_lp_Force_Field>
OPLS_2005

> <r_lp_Energy>
14.476975

> <b_lp_Chiralities_Consistent>
1

> <s_lp_Variant>
CHEMBL4439_lig844-1

> <s_i_glide_gridfile>
glide-grid_3hmm

> <i_i_glide_lignum>
1162

> <i_i_glide_rotatable_bonds>
4

> <r_i_docking_score>
-7.86466943505119

> <r_i_glide_ligand_efficiency>
-0.302487285963507

> <r_i_glide_ligand_efficiency_sa>
-0.896117394436895

> <r_i_glide_ligand_efficiency_ln>
-1.84699181073652

> <r_i_glide_gscore>
-7.86466943505119

> <r_i_glide_lipo>
-3.57274501991362

> <r_i_glide_hbond>
-0.364604116691867

> <r_i_glide_metal>
0

> <r_i_glide_rewards>
-1.10854687340038

> <r_i_glide_evdw>
-45.1063041687012

> <r_i_glide_ecoul>
-6.66042757034302

> <r_i_glide_erotb>
0.435605918941187

> <r_i_glide_esite>
0

> <r_i_glide_emodel>
-70.4174967277858

> <r_i_glide_energy>
-51.7667317390442

> <r_i_glide_einternal>
6.22406959533691

> <i_i_glide_confnum>
36

> <i_i_glide_posenum>
119

> <r_i_glide_eff_state_penalty>
0

> <s_user_duplicate_titles>
CHEMBL4439_lig844

> <i_f3d_flags>
0

> <s_m_subgroup_title>
dock_pv

> <s_m_subgroupid>
dock_pv

> <b_m_subgroup_collapsed>
1

$$$$
CHEMBL4439_lig958 
                    3D
 Schrodinger Suite 2021-1.
 51 55  0  0  1  0            999 V2000
   19.7583   67.8308   10.0389 C   0  0  0  0  0  0
   20.7881   68.7583    9.8848 C   0  0  0  0  0  0
   20.8590   69.4777    8.6914 C   0  0  0  0  0  0
   19.9592   69.3220    7.6853 N   0  0  0  0  0  0
   18.9813   68.3875    7.8225 C   0  0  0  0  0  0
   18.8486   67.6340    8.9993 C   0  0  0  0  0  0
   18.2660   68.4215    5.2647 C   0  0  0  0  0  0
   18.0640   68.1890    6.6474 C   0  0  0  0  0  0
   16.8471   67.6961    6.8699 N   0  0  0  0  0  0
   16.2596   67.6016    5.7058 C   0  0  0  0  0  0
   17.0676   68.0545    4.7079 N   0  0  0  0  0  0
   14.8895   67.0179    5.4517 C   0  0  0  0  0  0
   14.8621   65.5998    5.7893 N   0  0  0  0  0  0
   13.8058   64.8851    5.2076 C   0  0  0  0  0  0
   14.1159   64.0560    4.1278 C   0  0  0  0  0  0
   13.1340   63.2570    3.5462 C   0  0  0  0  0  0
   11.8289   63.2981    4.0294 C   0  0  0  0  0  0
   11.5017   64.1378    5.0916 C   0  0  0  0  0  0
   12.4825   64.9368    5.6888 C   0  0  0  0  0  0
   21.9891   70.4571    8.4437 C   0  0  0  0  0  0
   19.3753   68.8617    4.4023 C   0  0  0  0  0  0
   20.7194   68.9422    4.7164 C   0  0  0  0  0  0
   19.0897   69.2793    2.7124 S   0  0  0  0  0  0
   20.8042   69.6570    2.4708 C   0  0  0  0  0  0
   21.5366   69.4332    3.6680 C   0  0  0  0  0  0
   22.9149   69.6977    3.6321 C   0  0  0  0  0  0
   23.5548   70.1329    2.5202 N   0  0  0  0  0  0
   22.8356   70.2980    1.3873 C   0  0  0  0  0  0
   21.4667   70.0570    1.2954 C   0  0  0  0  0  0
   12.0893   65.8109    6.8702 C   0  0  0  0  0  0
   19.6773   67.2567   10.9500 H   0  0  0  0  0  0
   21.5164   68.9077   10.6682 H   0  0  0  0  0  0
   18.0654   66.8980    9.1044 H   0  0  0  0  0  0
   16.8465   68.0689    3.7229 H   0  0  0  0  0  0
   14.6178   67.1489    4.4018 H   0  0  0  0  0  0
   14.1435   67.5650    6.0266 H   0  0  0  0  0  0
   15.7594   65.2057    5.5468 H   0  0  0  0  0  0
   15.1244   64.0081    3.7429 H   0  0  0  0  0  0
   13.3818   62.6169    2.7116 H   0  0  0  0  0  0
   11.0667   62.6949    3.5608 H   0  0  0  0  0  0
   10.4826   64.1631    5.4512 H   0  0  0  0  0  0
   21.9683   71.2530    9.1888 H   0  0  0  0  0  0
   22.9514   69.9498    8.5187 H   0  0  0  0  0  0
   21.9342   70.9091    7.4522 H   0  0  0  0  0  0
   21.1454   68.6603    5.6647 H   0  0  0  0  0  0
   23.5290   69.5497    4.5083 H   0  0  0  0  0  0
   23.3882   70.6493    0.5274 H   0  0  0  0  0  0
   20.9422   70.1909    0.3627 H   0  0  0  0  0  0
   12.7715   65.6579    7.7038 H   0  0  0  0  0  0
   12.1468   66.8571    6.5977 H   0  0  0  0  0  0
   11.0783   65.6120    7.2249 H   0  0  0  0  0  0
  1  2  2  0  0  0
  1  6  1  0  0  0
  1 31  1  0  0  0
  2  3  1  0  0  0
  2 32  1  0  0  0
  3  4  2  0  0  0
  3 20  1  0  0  0
  4  5  1  0  0  0
  5  6  2  0  0  0
  5  8  1  0  0  0
  6 33  1  0  0  0
  7  8  2  0  0  0
  7 21  1  0  0  0
  7 11  1  0  0  0
  8  9  1  0  0  0
  9 10  2  0  0  0
 10 11  1  0  0  0
 10 12  1  0  0  0
 11 34  1  0  0  0
 12 13  1  0  0  0
 12 35  1  0  0  0
 12 36  1  0  0  0
 13 14  1  0  0  0
 13 37  1  0  0  0
 14 15  2  0  0  0
 14 19  1  0  0  0
 15 16  1  0  0  0
 15 38  1  0  0  0
 16 17  2  0  0  0
 16 39  1  0  0  0
 17 18  1  0  0  0
 17 40  1  0  0  0
 18 19  2  0  0  0
 18 41  1  0  0  0
 19 30  1  0  0  0
 20 42  1  0  0  0
 20 43  1  0  0  0
 20 44  1  0  0  0
 21 22  2  0  0  0
 21 23  1  0  0  0
 22 25  1  0  0  0
 22 45  1  0  0  0
 23 24  1  0  0  0
 24 25  2  0  0  0
 24 29  1  0  0  0
 25 26  1  0  0  0
 26 27  2  0  0  0
 26 46  1  0  0  0
 27 28  1  0  0  0
 28 29  2  0  0  0
 28 47  1  0  0  0
 29 48  1  0  0  0
 30 49  1  0  0  0
 30 50  1  0  0  0
 30 51  1  0  0  0
M  END
> <s_m_entry_id>
34584

> <s_m_entry_name>
dock_pv.327

> <s_m_Source_Path>
/home/csk/Desktop/cluster/DUD-E-result/tgfr1

> <s_m_Source_File>
dock_pv.maegz

> <i_m_Source_File_Index>
327

> <chembl_id>
CHEMBL4474911

> <chembl_pref_name>
None

> <i_lp_mmshare_version>
53161

> <r_lp_tautomer_probability>
0.499999999999999

> <s_lp_Force_Field>
OPLS_2005

> <r_lp_Energy>
21.964335

> <b_lp_Chiralities_Consistent>
1

> <s_lp_Variant>
CHEMBL4439_lig958 -2

> <s_i_glide_gridfile>
glide-grid_3hmm

> <i_i_glide_lignum>
1304

> <i_i_glide_rotatable_bonds>
5

> <r_i_docking_score>
-7.85529089307029

> <r_i_glide_ligand_efficiency>
-0.26184302976901

> <r_i_glide_ligand_efficiency_sa>
-0.813607172633298

> <r_i_glide_ligand_efficiency_ln>
-1.78480768115509

> <r_i_glide_gscore>
-7.85529089307029

> <r_i_glide_lipo>
-4.05885070518161

> <r_i_glide_hbond>
0

> <r_i_glide_metal>
0

> <r_i_glide_rewards>
-1.33090803372837

> <r_i_glide_evdw>
-53.0524444580078

> <r_i_glide_ecoul>
-2.632319688797

> <r_i_glide_erotb>
0.581938022059632

> <r_i_glide_esite>
0

> <r_i_glide_emodel>
-75.8658617172385

> <r_i_glide_energy>
-55.6847641468048

> <r_i_glide_einternal>
11.5442895889282

> <i_i_glide_confnum>
98

> <i_i_glide_posenum>
370

> <r_i_glide_eff_state_penalty>
0

> <s_user_duplicate_titles>
CHEMBL4439_lig958 ,CHEMBL4439_lig958 

> <i_f3d_flags>
0

> <s_m_subgroup_title>
dock_pv

> <s_m_subgroupid>
dock_pv

> <b_m_subgroup_collapsed>
1

$$$$
CHEMBL4439_lig497
                    3D
 Schrodinger Suite 2021-1.
 39 42  0  0  1  0            999 V2000
   18.2881   68.7346    2.9824 C   0  0  0  0  0  0
   17.4057   68.0536    4.0123 C   0  0  0  0  0  0
   17.6131   68.1472    5.3569 N   0  0  0  0  0  0
   16.6875   67.3563    5.9904 C   0  0  0  0  0  0
   15.9570   66.8080    4.9123 C   0  0  0  0  0  0
   16.4042   67.2584    3.7454 N   0  0  0  0  0  0
   14.8415   65.8162    4.9012 C   0  0  0  0  0  0
   13.6846   66.0494    5.6593 C   0  0  0  0  0  0
   13.8667   63.7378    4.0321 C   0  0  0  0  0  0
   14.9221   64.6590    4.0920 C   0  0  0  0  0  0
   12.7556   63.9888    4.8253 C   0  0  0  0  0  0
   12.6691   65.1026    5.6078 C   0  0  0  0  0  0
   11.4663   65.1209    6.2337 O   0  0  0  0  0  0
   10.8552   63.8929    5.9372 C   0  0  0  0  0  0
   11.6170   63.2581    4.9452 O   0  0  0  0  0  0
   16.7194   67.2179    7.4599 C   0  0  0  0  0  0
   17.7147   67.6554    8.2015 N   0  0  0  0  0  0
   17.5620   67.3918    9.4877 C   0  0  0  0  0  0
   16.3710   66.7614    9.8273 C   0  0  0  0  0  0
   15.4670   66.4572    8.3811 S   0  0  0  0  0  0
   18.6953   67.7918   10.4040 C   0  0  0  0  0  0
   17.5873   69.8417    2.1791 C   0  0  0  0  0  0
   16.6597   69.2569    1.2323 N   0  0  0  0  0  0
   19.1698   69.1594    3.4612 H   0  0  0  0  0  0
   18.6674   67.9887    2.2860 H   0  0  0  0  0  0
   18.3374   68.6861    5.8085 H   0  0  0  0  0  0
   13.5795   66.9469    6.2490 H   0  0  0  0  0  0
   13.9313   62.8650    3.4009 H   0  0  0  0  0  0
   15.8095   64.4668    3.5084 H   0  0  0  0  0  0
    9.8411   64.0568    5.5722 H   0  0  0  0  0  0
   10.8417   63.2790    6.8381 H   0  0  0  0  0  0
   16.0113   66.4690   10.8038 H   0  0  0  0  0  0
   18.4682   67.5794   11.4482 H   0  0  0  0  0  0
   18.9172   68.8569   10.3418 H   0  0  0  0  0  0
   19.6165   67.2565   10.1701 H   0  0  0  0  0  0
   17.0684   70.5349    2.8400 H   0  0  0  0  0  0
   18.3243   70.4304    1.6317 H   0  0  0  0  0  0
   16.0418   68.6194    1.7168 H   0  0  0  0  0  0
   16.0598   69.9711    0.8388 H   0  0  0  0  0  0
  1 22  1  0  0  0
  1 24  1  0  0  0
  1 25  1  0  0  0
  1  2  1  0  0  0
  2  3  1  0  0  0
  2  6  2  0  0  0
  3  4  1  0  0  0
  3 26  1  0  0  0
  4  5  2  0  0  0
  4 16  1  0  0  0
  5  7  1  0  0  0
  5  6  1  0  0  0
  7  8  2  0  0  0
  7 10  1  0  0  0
  8 12  1  0  0  0
  8 27  1  0  0  0
  9 11  1  0  0  0
  9 10  2  0  0  0
  9 28  1  0  0  0
 10 29  1  0  0  0
 11 12  2  0  0  0
 11 15  1  0  0  0
 12 13  1  0  0  0
 13 14  1  0  0  0
 14 15  1  0  0  0
 14 30  1  0  0  0
 14 31  1  0  0  0
 16 17  2  0  0  0
 16 20  1  0  0  0
 17 18  1  0  0  0
 18 19  2  0  0  0
 18 21  1  0  0  0
 19 20  1  0  0  0
 19 32  1  0  0  0
 21 33  1  0  0  0
 21 34  1  0  0  0
 21 35  1  0  0  0
 22 23  1  0  0  0
 22 36  1  0  0  0
 22 37  1  0  0  0
 23 38  1  0  0  0
 23 39  1  0  0  0
M  END
> <s_m_entry_id>
34585

> <s_m_entry_name>
dock_pv.328

> <s_m_Source_Path>
/home/csk/Desktop/cluster/DUD-E-result/tgfr1

> <s_m_Source_File>
dock_pv.maegz

> <i_m_Source_File_Index>
328

> <chembl_id>
CHEMBL1957653

> <chembl_pref_name>
None

> <i_lp_mmshare_version>
53161

> <r_lp_tautomer_probability>
0.499999999999999

> <s_lp_Force_Field>
OPLS_2005

> <r_lp_Energy>
25.588919

> <b_lp_Chiralities_Consistent>
1

> <s_lp_Variant>
CHEMBL4439_lig497-2

> <s_i_glide_gridfile>
glide-grid_3hmm

> <i_i_glide_lignum>
650

> <i_i_glide_rotatable_bonds>
4

> <r_i_docking_score>
-7.85523396213914

> <r_i_glide_ligand_efficiency>
-0.341531911397354

> <r_i_glide_ligand_efficiency_sa>
-0.971271324373387

> <r_i_glide_ligand_efficiency_ln>
-1.8994667993688

> <r_i_glide_gscore>
-7.85523396213914

> <r_i_glide_lipo>
-3.31430899034842

> <r_i_glide_hbond>
-0.125434670759381

> <r_i_glide_metal>
0

> <r_i_glide_rewards>
-2.4732338466659

> <r_i_glide_evdw>
-44.3872947692871

> <r_i_glide_ecoul>
-1.63572156429291

> <r_i_glide_erotb>
0.522466518742854

> <r_i_glide_esite>
0

> <r_i_glide_emodel>
-66.4297506304953

> <r_i_glide_energy>
-46.02301633358

> <r_i_glide_einternal>
2.39517498016357

> <i_i_glide_confnum>
2

> <i_i_glide_posenum>
1

> <r_i_glide_eff_state_penalty>
0

> <s_user_duplicate_titles>
CHEMBL4439_lig497,CHEMBL4439_lig497

> <i_f3d_flags>
0

> <s_m_subgroup_title>
dock_pv

> <s_m_subgroupid>
dock_pv

> <b_m_subgroup_collapsed>
1

$$$$
CHEMBL4439_lig595
                    3D
 Schrodinger Suite 2021-1.
 42 45  0  0  1  0            999 V2000
   15.3026   67.6570    3.2991 S   0  0  0  0  0  0
   16.6810   67.8908    4.3276 C   0  0  0  0  0  0
   17.6933   68.4804    3.7323 N   0  0  0  0  0  0
   17.4378   68.7970    2.4763 C   0  0  0  0  0  0
   16.1606   68.4813    2.0388 C   0  0  0  0  0  0
   18.5468   69.4580    1.6943 C   0  0  0  0  0  0
   16.6716   67.5609    5.7584 C   0  0  0  0  0  0
   15.8414   66.8165    6.6126 C   0  0  0  0  0  0
   16.2572   66.8772    7.8720 N   0  0  0  0  0  0
   17.3333   67.6321    7.8747 C   0  0  0  0  0  0
   17.6286   68.0545    6.6073 N   0  0  0  0  0  0
   14.6139   66.0451    6.2699 C   0  0  0  0  0  0
   13.4136   66.3235    6.9310 C   0  0  0  0  0  0
   12.2209   65.6872    6.5819 C   0  0  0  0  0  0
   14.6629   65.0782    5.2596 C   0  0  0  0  0  0
   13.4655   64.4568    4.8811 C   0  0  0  0  0  0
   12.2388   64.7688    5.5240 C   0  0  0  0  0  0
   11.1457   64.1300    5.0297 N   0  0  0  0  0  0
   11.4731   63.3568    4.0346 C   0  0  0  0  0  0
   13.1665   63.2570    3.6321 S   0  0  0  0  0  0
   18.1766   67.9640    9.1128 C   0  0  0  0  0  0
   17.2485   68.3960   10.2728 C   0  0  0  0  0  0
   19.1792   69.1114    8.8306 C   0  0  0  0  0  0
   18.9677   66.7103    9.5396 C   0  0  0  0  0  0
   15.7055   68.6595    1.0770 H   0  0  0  0  0  0
   18.2867   69.5882    0.6454 H   0  0  0  0  0  0
   18.7773   70.4525    2.0753 H   0  0  0  0  0  0
   19.4665   68.8715    1.7209 H   0  0  0  0  0  0
   18.4063   68.6407    6.3444 H   0  0  0  0  0  0
   13.4011   67.0672    7.7168 H   0  0  0  0  0  0
   11.2958   65.9200    7.0889 H   0  0  0  0  0  0
   15.5903   64.8535    4.7518 H   0  0  0  0  0  0
   10.7418   62.8104    3.4597 H   0  0  0  0  0  0
   16.5575   67.6018   10.5593 H   0  0  0  0  0  0
   17.8133   68.6722   11.1636 H   0  0  0  0  0  0
   16.6451   69.2571    9.9899 H   0  0  0  0  0  0
   19.8927   68.8454    8.0495 H   0  0  0  0  0  0
   18.6679   70.0185    8.5030 H   0  0  0  0  0  0
   19.7597   69.3659    9.7191 H   0  0  0  0  0  0
   19.7353   66.4544    8.8079 H   0  0  0  0  0  0
   19.4671   66.8588   10.4968 H   0  0  0  0  0  0
   18.3194   65.8385    9.6377 H   0  0  0  0  0  0
  1  2  1  0  0  0
  1  5  1  0  0  0
  2  3  2  0  0  0
  2  7  1  0  0  0
  3  4  1  0  0  0
  4  5  2  0  0  0
  4  6  1  0  0  0
  5 25  1  0  0  0
  6 26  1  0  0  0
  6 27  1  0  0  0
  6 28  1  0  0  0
  7  8  2  0  0  0
  7 11  1  0  0  0
  8 12  1  0  0  0
  8  9  1  0  0  0
  9 10  2  0  0  0
 10 11  1  0  0  0
 10 21  1  0  0  0
 11 29  1  0  0  0
 12 13  2  0  0  0
 12 15  1  0  0  0
 13 14  1  0  0  0
 13 30  1  0  0  0
 14 17  2  0  0  0
 14 31  1  0  0  0
 15 16  2  0  0  0
 15 32  1  0  0  0
 16 17  1  0  0  0
 16 20  1  0  0  0
 17 18  1  0  0  0
 18 19  2  0  0  0
 19 20  1  0  0  0
 19 33  1  0  0  0
 21 22  1  0  0  0
 21 23  1  0  0  0
 21 24  1  0  0  0
 22 34  1  0  0  0
 22 35  1  0  0  0
 22 36  1  0  0  0
 23 37  1  0  0  0
 23 38  1  0  0  0
 23 39  1  0  0  0
 24 40  1  0  0  0
 24 41  1  0  0  0
 24 42  1  0  0  0
M  END
> <s_m_entry_id>
34586

> <s_m_entry_name>
dock_pv.329

> <s_m_Source_Path>
/home/csk/Desktop/cluster/DUD-E-result/tgfr1

> <s_m_Source_File>
dock_pv.maegz

> <i_m_Source_File_Index>
329

> <chembl_id>
CHEMBL2207994

> <chembl_pref_name>
None

> <i_lp_mmshare_version>
53161

> <r_lp_tautomer_probability>
0.499999999999999

> <s_lp_Force_Field>
OPLS_2005

> <r_lp_Energy>
10.984231

> <b_lp_Chiralities_Consistent>
1

> <s_lp_Variant>
CHEMBL4439_lig595-2

> <s_i_glide_gridfile>
glide-grid_3hmm

> <i_i_glide_lignum>
804

> <i_i_glide_rotatable_bonds>
3

> <r_i_docking_score>
-7.85518434474753

> <r_i_glide_ligand_efficiency>
-0.327299347697814

> <r_i_glide_ligand_efficiency_sa>
-0.944094686158006

> <r_i_glide_ligand_efficiency_ln>
-1.88010606462037

> <r_i_glide_gscore>
-7.85518434474753

> <r_i_glide_lipo>
-4.09239577405013

> <r_i_glide_hbond>
0

> <r_i_glide_metal>
0

> <r_i_glide_rewards>
-1.64498072397396

> <r_i_glide_evdw>
-46.6454811096191

> <r_i_glide_ecoul>
-0.597754299640656

> <r_i_glide_erotb>
0.304129353703608

> <r_i_glide_esite>
0

> <r_i_glide_emodel>
-67.5475181899456

> <r_i_glide_energy>
-47.2432354092598

> <r_i_glide_einternal>
2.32988500595093

> <i_i_glide_confnum>
4

> <i_i_glide_posenum>
45

> <r_i_glide_eff_state_penalty>
0

> <s_user_duplicate_titles>
CHEMBL4439_lig595,CHEMBL4439_lig595

> <i_f3d_flags>
0

> <s_m_subgroup_title>
dock_pv

> <s_m_subgroupid>
dock_pv

> <b_m_subgroup_collapsed>
1

$$$$
CHEMBL4439_lig872
                    3D
 Schrodinger Suite 2021-1.
 43 46  0  0  1  0            999 V2000
   15.4893   66.0574    7.8378 N   0  0  0  0  0  0
   16.6656   66.6357    8.0502 N   0  0  0  0  0  0
   17.1525   67.2566    6.9426 C   0  0  0  0  0  0
   16.2202   67.0755    5.9286 C   0  0  0  0  0  0
   15.2189   66.2820    6.5658 C   0  0  0  0  0  0
   18.5095   67.8266    7.2413 C   0  0  0  0  0  0
   18.7055   67.5565    8.7498 C   0  0  0  0  0  0
   17.5968   66.5522    9.1553 C   0  0  0  0  0  0
   15.3559   68.2992    2.4319 C   0  0  0  0  0  0
   15.2291   67.6574    3.6652 C   0  0  0  0  0  0
   16.3311   67.6166    4.5292 C   0  0  0  0  0  0
   17.5416   68.1620    4.0653 C   0  0  0  0  0  0
   17.5926   68.7642    2.8088 C   0  0  0  0  0  0
   16.5133   68.8566    1.9968 N   0  0  0  0  0  0
   14.0029   65.6354    6.0032 C   0  0  0  0  0  0
   12.7396   65.8094    6.5786 C   0  0  0  0  0  0
   11.6574   65.1212    6.0309 C   0  0  0  0  0  0
   11.8540   64.2724    4.9422 C   0  0  0  0  0  0
   13.1440   64.1518    4.4251 C   0  0  0  0  0  0
   14.2119   64.8199    4.9348 N   0  0  0  0  0  0
   20.1217   66.9999    8.9991 C   0  0  0  0  0  0
   18.5118   68.8569    9.5445 C   0  0  0  0  0  0
   13.4203   63.2819    3.2162 C   0  0  0  0  0  0
   19.2654   67.3238    6.6353 H   0  0  0  0  0  0
   18.5794   68.8869    6.9913 H   0  0  0  0  0  0
   17.1105   66.7943   10.1011 H   0  0  0  0  0  0
   17.9740   65.5328    9.2377 H   0  0  0  0  0  0
   14.5143   68.3698    1.7604 H   0  0  0  0  0  0
   14.2676   67.2649    3.9529 H   0  0  0  0  0  0
   18.4367   68.1447    4.6641 H   0  0  0  0  0  0
   18.5104   69.2013    2.4427 H   0  0  0  0  0  0
   12.5982   66.4602    7.4301 H   0  0  0  0  0  0
   10.6674   65.2444    6.4327 H   0  0  0  0  0  0
   11.0228   63.7389    4.5048 H   0  0  0  0  0  0
   20.3149   66.8570   10.0568 H   0  0  0  0  0  0
   20.2676   66.0430    8.5002 H   0  0  0  0  0  0
   20.8876   67.6802    8.6254 H   0  0  0  0  0  0
   18.6565   68.7013   10.6142 H   0  0  0  0  0  0
   19.2197   69.6259    9.2313 H   0  0  0  0  0  0
   17.5072   69.2568    9.4066 H   0  0  0  0  0  0
   12.5036   62.8692    2.7935 H   0  0  0  0  0  0
   13.9159   63.8593    2.4360 H   0  0  0  0  0  0
   14.0685   62.4573    3.4918 H   0  0  0  0  0  0
  1  2  1  0  0  0
  1  5  2  0  0  0
  2  3  1  0  0  0
  2  8  1  0  0  0
  3  4  2  0  0  0
  3  6  1  0  0  0
  4  5  1  0  0  0
  4 11  1  0  0  0
  5 15  1  0  0  0
  6  7  1  0  0  0
  6 24  1  0  0  0
  6 25  1  0  0  0
  7  8  1  0  0  0
  7 21  1  0  0  0
  7 22  1  0  0  0
  8 26  1  0  0  0
  8 27  1  0  0  0
  9 10  1  0  0  0
  9 14  2  0  0  0
  9 28  1  0  0  0
 10 11  2  0  0  0
 10 29  1  0  0  0
 11 12  1  0  0  0
 12 13  2  0  0  0
 12 30  1  0  0  0
 13 14  1  0  0  0
 13 31  1  0  0  0
 15 16  1  0  0  0
 15 20  2  0  0  0
 16 17  2  0  0  0
 16 32  1  0  0  0
 17 18  1  0  0  0
 17 33  1  0  0  0
 18 19  2  0  0  0
 18 34  1  0  0  0
 19 20  1  0  0  0
 19 23  1  0  0  0
 21 35  1  0  0  0
 21 36  1  0  0  0
 21 37  1  0  0  0
 22 38  1  0  0  0
 22 39  1  0  0  0
 22 40  1  0  0  0
 23 41  1  0  0  0
 23 42  1  0  0  0
 23 43  1  0  0  0
M  END
> <s_m_entry_id>
34587

> <s_m_entry_name>
dock_pv.330

> <s_m_Source_Path>
/home/csk/Desktop/cluster/DUD-E-result/tgfr1

> <s_m_Source_File>
dock_pv.maegz

> <i_m_Source_File_Index>
330

> <chembl_id>
CHEMBL4276896

> <chembl_pref_name>
None

> <i_lp_mmshare_version>
53161

> <r_lp_tautomer_probability>
1

> <s_lp_Force_Field>
OPLS_2005

> <r_lp_Energy>
33.253549

> <b_lp_Chiralities_Consistent>
1

> <s_lp_Variant>
CHEMBL4439_lig872-1

> <s_i_glide_gridfile>
glide-grid_3hmm

> <i_i_glide_lignum>
1207

> <i_i_glide_rotatable_bonds>
2

> <r_i_docking_score>
-7.84656911013037

> <r_i_glide_ligand_efficiency>
-0.341155178701321

> <r_i_glide_ligand_efficiency_sa>
-0.970199946700027

> <r_i_glide_ligand_efficiency_ln>
-1.89737155958455

> <r_i_glide_gscore>
-7.84656911013037

> <r_i_glide_lipo>
-3.95934115154524

> <r_i_glide_hbond>
-0.0297451655268303

> <r_i_glide_metal>
0

> <r_i_glide_rewards>
-1.93672845150429

> <r_i_glide_evdw>
-40.5794944763184

> <r_i_glide_ecoul>
-1.9323832988739

> <r_i_glide_erotb>
0.398077877092983

> <r_i_glide_esite>
0

> <r_i_glide_emodel>
-58.9442168845121

> <r_i_glide_energy>
-42.5118777751923

> <r_i_glide_einternal>
4.53668260574341

> <i_i_glide_confnum>
9

> <i_i_glide_posenum>
355

> <r_i_glide_eff_state_penalty>
0

> <s_user_duplicate_titles>
CHEMBL4439_lig872

> <i_f3d_flags>
0

> <s_m_subgroup_title>
dock_pv

> <s_m_subgroupid>
dock_pv

> <b_m_subgroup_collapsed>
1

$$$$
CHEMBL4439_lig65
                    3D
 Schrodinger Suite 2021-1.
 38 42  0  0  1  0            999 V2000
   17.8672   69.0024    2.8732 C   0  0  0  0  0  0
   18.9409   69.0571    3.9717 C   0  0  0  0  0  0
   18.1833   68.4562    5.1273 C   0  0  0  0  0  0
   18.2762   68.4574    6.4257 N   0  0  0  0  0  0
   17.2196   67.7678    6.8609 C   0  0  0  0  0  0
   16.4252   67.3148    5.7741 C   0  0  0  0  0  0
   15.1974   66.4668    5.6624 C   0  0  0  0  0  0
   14.0904   66.6556    6.5147 C   0  0  0  0  0  0
   12.9598   65.8271    6.4317 C   0  0  0  0  0  0
   12.9653   64.8291    5.4644 C   0  0  0  0  0  0
   12.0407   63.8616    5.2233 O   0  0  0  0  0  0
   12.4485   63.2586    4.0236 C   0  0  0  0  0  0
   13.7946   63.5823    3.8186 O   0  0  0  0  0  0
   14.0252   64.6510    4.6225 C   0  0  0  0  0  0
   15.1575   65.4484    4.6941 C   0  0  0  0  0  0
   17.0679   67.8327    4.6720 N   0  0  0  0  0  0
   17.0122   67.7761    3.2265 C   0  0  0  0  0  0
   17.0574   67.5627    8.3448 C   0  0  0  0  0  0
   17.7798   68.3290    9.2740 C   0  0  0  0  0  0
   17.5820   68.1142   10.6378 C   0  0  0  0  0  0
   16.6672   67.1512   11.0536 C   0  0  0  0  0  0
   15.9973   66.4123   10.0806 C   0  0  0  0  0  0
   16.1835   66.5992    8.7486 N   0  0  0  0  0  0
   18.3026   68.9339    1.8752 H   0  0  0  0  0  0
   17.2588   69.9087    2.8958 H   0  0  0  0  0  0
   19.2951   70.0691    4.1612 H   0  0  0  0  0  0
   19.8121   68.4561    3.7073 H   0  0  0  0  0  0
   14.1147   67.4420    7.2549 H   0  0  0  0  0  0
   12.1220   65.9593    7.1012 H   0  0  0  0  0  0
   11.8518   63.6627    3.2066 H   0  0  0  0  0  0
   12.3184   62.1787    4.0315 H   0  0  0  0  0  0
   15.9909   65.2711    4.0333 H   0  0  0  0  0  0
   17.5201   66.8759    2.8737 H   0  0  0  0  0  0
   15.9889   67.7939    2.8482 H   0  0  0  0  0  0
   18.4737   69.0944    8.9557 H   0  0  0  0  0  0
   18.1195   68.7095   11.3611 H   0  0  0  0  0  0
   16.4776   66.9830   12.1042 H   0  0  0  0  0  0
   15.2859   65.6587   10.3764 H   0  0  0  0  0  0
  1  2  1  0  0  0
  1 17  1  0  0  0
  1 24  1  0  0  0
  1 25  1  0  0  0
  2  3  1  0  0  0
  2 26  1  0  0  0
  2 27  1  0  0  0
  3  4  2  0  0  0
  3 16  1  0  0  0
  4  5  1  0  0  0
  5  6  2  0  0  0
  5 18  1  0  0  0
  6  7  1  0  0  0
  6 16  1  0  0  0
  7  8  2  0  0  0
  7 15  1  0  0  0
  8  9  1  0  0  0
  8 28  1  0  0  0
  9 10  2  0  0  0
  9 29  1  0  0  0
 10 11  1  0  0  0
 10 14  1  0  0  0
 11 12  1  0  0  0
 12 13  1  0  0  0
 12 30  1  0  0  0
 12 31  1  0  0  0
 13 14  1  0  0  0
 14 15  2  0  0  0
 15 32  1  0  0  0
 16 17  1  0  0  0
 17 33  1  0  0  0
 17 34  1  0  0  0
 18 19  2  0  0  0
 18 23  1  0  0  0
 19 20  1  0  0  0
 19 35  1  0  0  0
 20 21  2  0  0  0
 20 36  1  0  0  0
 21 22  1  0  0  0
 21 37  1  0  0  0
 22 23  2  0  0  0
 22 38  1  0  0  0
M  END
> <s_m_entry_id>
34588

> <s_m_entry_name>
dock_pv.331

> <s_m_Source_Path>
/home/csk/Desktop/cluster/DUD-E-result/tgfr1

> <s_m_Source_File>
dock_pv.maegz

> <i_m_Source_File_Index>
331

> <chembl_id>
CHEMBL268889

> <chembl_pref_name>
None

> <i_lp_mmshare_version>
53161

> <r_lp_tautomer_probability>
1

> <s_lp_Force_Field>
OPLS_2005

> <r_lp_Energy>
46.781975

> <b_lp_Chiralities_Consistent>
1

> <s_lp_Variant>
CHEMBL4439_lig65-1

> <s_i_glide_gridfile>
glide-grid_3hmm

> <i_i_glide_lignum>
98

> <i_i_glide_rotatable_bonds>
2

> <r_i_docking_score>
-7.83996836237404

> <r_i_glide_ligand_efficiency>
-0.340868189668437

> <r_i_glide_ligand_efficiency_sa>
-0.969383788066682

> <r_i_glide_ligand_efficiency_ln>
-1.8957754389248

> <r_i_glide_gscore>
-7.83996836237404

> <r_i_glide_lipo>
-3.28825873807237

> <r_i_glide_hbond>
0

> <r_i_glide_metal>
0

> <r_i_glide_rewards>
-2.67936986640502

> <r_i_glide_evdw>
-45.3155937194824

> <r_i_glide_ecoul>
-0.0165880043059587

> <r_i_glide_erotb>
0.395928128723367

> <r_i_glide_esite>
0

> <r_i_glide_emodel>
-65.7426573916391

> <r_i_glide_energy>
-45.3321817237884

> <r_i_glide_einternal>
0.131052106618881

> <i_i_glide_confnum>
12

> <i_i_glide_posenum>
116

> <r_i_glide_eff_state_penalty>
0

> <s_user_duplicate_titles>
CHEMBL4439_lig65,251

> <i_f3d_flags>
0

> <s_m_subgroup_title>
dock_pv

> <s_m_subgroupid>
dock_pv

> <b_m_subgroup_collapsed>
1

$$$$
CHEMBL4439_lig49
                    3D
 Schrodinger Suite 2021-1.
 31 33  0  0  1  0            999 V2000
   15.0474   66.5395    7.0481 C   0  0  0  0  0  0
   16.1264   67.3376    6.5674 C   0  0  0  0  0  0
   14.9745   66.5653    8.3661 N   0  0  0  0  0  0
   14.0509   65.7142    6.2925 C   0  0  0  0  0  0
   14.5316   65.0197    5.2255 N   0  0  0  0  0  0
   15.9777   67.3394    8.7679 N   0  0  0  0  0  0
   16.7101   67.8304    7.7294 C   0  0  0  0  0  0
   16.5766   67.6614    5.1719 C   0  0  0  0  0  0
   15.6802   67.6568    4.0987 C   0  0  0  0  0  0
   17.9015   68.0571    4.9463 C   0  0  0  0  0  0
   13.6630   64.2750    4.4945 C   0  0  0  0  0  0
   17.4109   68.4504    2.6220 C   0  0  0  0  0  0
   18.3200   68.4467    3.6753 C   0  0  0  0  0  0
   16.0926   68.0572    2.8320 C   0  0  0  0  0  0
   17.8068   68.8383    1.3877 F   0  0  0  0  0  0
   12.7011   65.6570    6.6652 C   0  0  0  0  0  0
   11.8282   64.8606    5.9219 C   0  0  0  0  0  0
   12.3100   64.1565    4.8186 C   0  0  0  0  0  0
   14.2452   63.5910    3.2758 C   0  0  0  0  0  0
   16.1480   67.5381    9.7440 H   0  0  0  0  0  0
   17.5481   68.4913    7.9019 H   0  0  0  0  0  0
   14.6439   67.3964    4.2431 H   0  0  0  0  0  0
   18.6145   68.0743    5.7564 H   0  0  0  0  0  0
   19.3424   68.7515    3.5071 H   0  0  0  0  0  0
   15.3881   68.0621    2.0132 H   0  0  0  0  0  0
   12.3321   66.2129    7.5143 H   0  0  0  0  0  0
   10.7844   64.7998    6.1925 H   0  0  0  0  0  0
   11.6444   63.5550    4.2175 H   0  0  0  0  0  0
   13.6548   62.7213    2.9855 H   0  0  0  0  0  0
   15.2656   63.2606    3.4680 H   0  0  0  0  0  0
   14.2670   64.2839    2.4346 H   0  0  0  0  0  0
  1  4  1  0  0  0
  1  3  2  0  0  0
  1  2  1  0  0  0
  2  7  2  0  0  0
  2  8  1  0  0  0
  3  6  1  0  0  0
  4  5  2  0  0  0
  4 16  1  0  0  0
  5 11  1  0  0  0
  6 20  1  0  0  0
  6  7  1  0  0  0
  7 21  1  0  0  0
  8  9  2  0  0  0
  8 10  1  0  0  0
  9 14  1  0  0  0
  9 22  1  0  0  0
 10 13  2  0  0  0
 10 23  1  0  0  0
 11 19  1  0  0  0
 11 18  2  0  0  0
 12 13  1  0  0  0
 12 15  1  0  0  0
 12 14  2  0  0  0
 13 24  1  0  0  0
 14 25  1  0  0  0
 16 17  2  0  0  0
 16 26  1  0  0  0
 17 18  1  0  0  0
 17 27  1  0  0  0
 18 28  1  0  0  0
 19 29  1  0  0  0
 19 30  1  0  0  0
 19 31  1  0  0  0
M  END
> <s_m_entry_id>
34589

> <s_m_entry_name>
dock_pv.332

> <s_m_Source_Path>
/home/csk/Desktop/cluster/DUD-E-result/tgfr1

> <s_m_Source_File>
dock_pv.maegz

> <i_m_Source_File_Index>
332

> <chembl_id>
CHEMBL125846

> <chembl_pref_name>
None

> <i_lp_mmshare_version>
53161

> <r_lp_tautomer_probability>
0.5

> <s_lp_Force_Field>
OPLS_2005

> <r_lp_Energy>
16.238046

> <b_lp_Chiralities_Consistent>
1

> <s_lp_Variant>
CHEMBL4439_lig49-2

> <s_i_glide_gridfile>
glide-grid_3hmm

> <i_i_glide_lignum>
70

> <i_i_glide_rotatable_bonds>
2

> <r_i_docking_score>
-7.83951674891382

> <r_i_glide_ligand_efficiency>
-0.412606144679674

> <r_i_glide_ligand_efficiency_sa>
-1.10099891565544

> <r_i_glide_ligand_efficiency_ln>
-1.9874858732307

> <r_i_glide_gscore>
-7.83951674891382

> <r_i_glide_lipo>
-3.60428978350319

> <r_i_glide_hbond>
-0.088631389937199

> <r_i_glide_metal>
0

> <r_i_glide_rewards>
-2.49967785254972

> <r_i_glide_evdw>
-37.5043029785156

> <r_i_glide_ecoul>
-2.12893199920654

> <r_i_glide_erotb>
0.547637225883064

> <r_i_glide_esite>
0

> <r_i_glide_emodel>
-57.7910413171801

> <r_i_glide_energy>
-39.6332349777222

> <r_i_glide_einternal>
2.24301743507385

> <i_i_glide_confnum>
11

> <i_i_glide_posenum>
41

> <r_i_glide_eff_state_penalty>
0

> <s_user_duplicate_titles>
CHEMBL4439_lig49,CHEMBL4439_lig49,211468

> <i_f3d_flags>
0

> <s_m_subgroup_title>
dock_pv

> <s_m_subgroupid>
dock_pv

> <b_m_subgroup_collapsed>
1

$$$$
CHEMBL4439_lig845
                    3D
 Schrodinger Suite 2021-1.
 40 43  0  0  1  0            999 V2000
   13.0443   64.1092    4.1540 C   0  0  0  0  0  0
   11.9565   63.8373    4.9822 C   0  0  0  0  0  0
   11.8196   64.5174    6.1903 C   0  0  0  0  0  0
   12.7270   65.4072    6.6762 N   0  0  0  0  0  0
   13.9167   65.1055    4.6104 C   0  0  0  0  0  0
   13.7724   65.6946    5.8915 C   0  0  0  0  0  0
   14.9232   66.5329    6.1164 C   0  0  0  0  0  0
   15.5256   66.7066    4.8623 C   0  0  0  0  0  0
   14.9777   65.7521    4.0317 N   0  0  0  0  0  0
   15.3428   67.1148    7.4152 C   0  0  0  0  0  0
   15.4835   66.2102    8.4224 N   0  0  0  0  0  0
   16.0511   66.6286    9.5829 C   0  0  0  0  0  0
   16.4972   67.9351    9.7730 C   0  0  0  0  0  0
   16.3077   68.8575    8.7435 C   0  0  0  0  0  0
   15.6882   68.4566    7.5609 C   0  0  0  0  0  0
   16.6048   67.6211    4.3426 C   0  0  0  0  0  0
   16.5258   68.0607    3.0138 C   0  0  0  0  0  0
   17.5363   68.8703    2.4977 C   0  0  0  0  0  0
   18.6095   69.2576    3.2270 N   0  0  0  0  0  0
   18.6887   68.8586    4.5211 C   0  0  0  0  0  0
   17.6952   68.0568    5.1117 C   0  0  0  0  0  0
   19.8516   69.2965    5.1737 N   0  0  0  0  0  0
   20.1277   69.3302    6.4924 C   0  0  0  0  0  0
   21.5263   69.8097    6.8653 C   0  0  0  0  0  0
   19.3420   69.0326    7.3905 O   0  0  0  0  0  0
   17.1045   68.2931   10.9259 F   0  0  0  0  0  0
   13.1480   63.6459    3.1827 H   0  0  0  0  0  0
   11.2073   63.1228    4.6744 H   0  0  0  0  0  0
   10.9738   64.3145    6.8295 H   0  0  0  0  0  0
   15.3119   65.6167    3.0904 H   0  0  0  0  0  0
   16.1736   65.8946   10.3643 H   0  0  0  0  0  0
   16.6747   69.8669    8.8322 H   0  0  0  0  0  0
   15.5468   69.1523    6.7489 H   0  0  0  0  0  0
   15.6895   67.7883    2.3868 H   0  0  0  0  0  0
   17.4992   69.2219    1.4775 H   0  0  0  0  0  0
   17.7938   67.7052    6.1260 H   0  0  0  0  0  0
   20.5636   69.6514    4.5546 H   0  0  0  0  0  0
   22.1152   68.9743    7.2464 H   0  0  0  0  0  0
   21.4705   70.5694    7.6448 H   0  0  0  0  0  0
   22.0582   70.2345    6.0135 H   0  0  0  0  0  0
  1  5  1  0  0  0
  1  2  2  0  0  0
  1 27  1  0  0  0
  2  3  1  0  0  0
  2 28  1  0  0  0
  3  4  2  0  0  0
  3 29  1  0  0  0
  4  6  1  0  0  0
  5  6  2  0  0  0
  5  9  1  0  0  0
  6  7  1  0  0  0
  7  8  2  0  0  0
  7 10  1  0  0  0
  8  9  1  0  0  0
  8 16  1  0  0  0
  9 30  1  0  0  0
 10 11  2  0  0  0
 10 15  1  0  0  0
 11 12  1  0  0  0
 12 13  2  0  0  0
 12 31  1  0  0  0
 13 14  1  0  0  0
 13 26  1  0  0  0
 14 15  2  0  0  0
 14 32  1  0  0  0
 15 33  1  0  0  0
 16 17  2  0  0  0
 16 21  1  0  0  0
 17 18  1  0  0  0
 17 34  1  0  0  0
 18 19  2  0  0  0
 18 35  1  0  0  0
 19 20  1  0  0  0
 20 21  2  0  0  0
 20 22  1  0  0  0
 21 36  1  0  0  0
 22 23  1  0  0  0
 22 37  1  0  0  0
 23 24  1  0  0  0
 23 25  2  0  0  0
 24 38  1  0  0  0
 24 39  1  0  0  0
 24 40  1  0  0  0
M  END
> <s_m_entry_id>
34590

> <s_m_entry_name>
dock_pv.333

> <s_m_Source_Path>
/home/csk/Desktop/cluster/DUD-E-result/tgfr1

> <s_m_Source_File>
dock_pv.maegz

> <i_m_Source_File_Index>
333

> <chembl_id>
CHEMBL4291307

> <chembl_pref_name>
None

> <i_lp_mmshare_version>
53161

> <r_lp_tautomer_probability>
0.999991217065141

> <s_lp_Force_Field>
OPLS_2005

> <r_lp_Energy>
14.995361

> <b_lp_Chiralities_Consistent>
1

> <s_lp_Variant>
CHEMBL4439_lig845-1

> <s_i_glide_gridfile>
glide-grid_3hmm

> <i_i_glide_lignum>
1163

> <i_i_glide_rotatable_bonds>
4

> <r_i_docking_score>
-7.83206059648204

> <r_i_glide_ligand_efficiency>
-0.301233099864694

> <r_i_glide_ligand_efficiency_sa>
-0.892401873054143

> <r_i_glide_ligand_efficiency_ln>
-1.83933373199688

> <r_i_glide_gscore>
-7.83206059648204

> <r_i_glide_lipo>
-3.99483611918908

> <r_i_glide_hbond>
-0.0938273970504426

> <r_i_glide_metal>
0

> <r_i_glide_rewards>
-1.71316211581233

> <r_i_glide_evdw>
-47.3840446472168

> <r_i_glide_ecoul>
-0.893703043460846

> <r_i_glide_erotb>
0.473022724449781

> <r_i_glide_esite>
0

> <r_i_glide_emodel>
-67.3529822545235

> <r_i_glide_energy>
-48.2777476906776

> <r_i_glide_einternal>
5.975905418396

> <i_i_glide_confnum>
13

> <i_i_glide_posenum>
300

> <r_i_glide_eff_state_penalty>
0

> <s_user_duplicate_titles>
CHEMBL4439_lig845

> <i_f3d_flags>
0

> <s_m_subgroup_title>
dock_pv

> <s_m_subgroupid>
dock_pv

> <b_m_subgroup_collapsed>
1

$$$$
CHEMBL4439_lig496
                    3D
 Schrodinger Suite 2021-1.
 36 39  0  0  1  0            999 V2000
   16.6251   67.4070   10.1980 C   0  0  0  0  0  0
   16.1970   67.1808    8.7565 C   0  0  0  0  0  0
   15.1529   66.4633    8.4313 N   0  0  0  0  0  0
   15.0818   66.4830    7.1073 C   0  0  0  0  0  0
   16.1002   67.2647    6.5412 C   0  0  0  0  0  0
   16.8054   67.6946    7.6400 N   0  0  0  0  0  0
   16.4257   67.6570    5.1322 C   0  0  0  0  0  0
   17.7240   68.0659    4.7771 C   0  0  0  0  0  0
   15.6688   68.0570    2.8321 C   0  0  0  0  0  0
   15.4155   67.6540    4.1476 C   0  0  0  0  0  0
   16.9594   68.4600    2.5243 C   0  0  0  0  0  0
   17.9469   68.4735    3.4657 C   0  0  0  0  0  0
   19.0954   68.9155    2.8966 O   0  0  0  0  0  0
   18.7352   69.3700    1.6194 C   0  0  0  0  0  0
   17.4633   68.8618    1.3280 O   0  0  0  0  0  0
   14.0236   65.7612    6.4216 C   0  0  0  0  0  0
   14.2386   64.9257    5.4325 N   0  0  0  0  0  0
   13.1192   64.4265    4.9383 C   0  0  0  0  0  0
   11.9529   64.8566    5.5679 C   0  0  0  0  0  0
   12.3523   65.9801    6.8320 S   0  0  0  0  0  0
   13.2553   63.4786    3.7658 C   0  0  0  0  0  0
   17.9169   68.0571   10.3448 N   0  0  0  0  0  0
   15.8773   67.9942   10.7343 H   0  0  0  0  0  0
   16.6744   66.4529   10.7247 H   0  0  0  0  0  0
   17.6138   68.2984    7.6308 H   0  0  0  0  0  0
   18.5266   68.0787    5.4986 H   0  0  0  0  0  0
   14.8835   68.0556    2.0896 H   0  0  0  0  0  0
   14.4064   67.3693    4.3981 H   0  0  0  0  0  0
   19.4663   69.0678    0.8683 H   0  0  0  0  0  0
   18.6750   70.4570    1.6322 H   0  0  0  0  0  0
   10.9275   64.5969    5.3498 H   0  0  0  0  0  0
   12.2845   63.1857    3.3639 H   0  0  0  0  0  0
   13.7769   62.5598    4.0326 H   0  0  0  0  0  0
   13.8091   63.9304    2.9412 H   0  0  0  0  0  0
   18.6524   67.5650    9.8565 H   0  0  0  0  0  0
   17.9106   69.0221   10.0342 H   0  0  0  0  0  0
  1  2  1  0  0  0
  1 22  1  0  0  0
  1 23  1  0  0  0
  1 24  1  0  0  0
  2  6  1  0  0  0
  2  3  2  0  0  0
  3  4  1  0  0  0
  4  5  2  0  0  0
  4 16  1  0  0  0
  5  7  1  0  0  0
  5  6  1  0  0  0
  6 25  1  0  0  0
  7  8  2  0  0  0
  7 10  1  0  0  0
  8 12  1  0  0  0
  8 26  1  0  0  0
  9 11  1  0  0  0
  9 10  2  0  0  0
  9 27  1  0  0  0
 10 28  1  0  0  0
 11 12  2  0  0  0
 11 15  1  0  0  0
 12 13  1  0  0  0
 13 14  1  0  0  0
 14 15  1  0  0  0
 14 29  1  0  0  0
 14 30  1  0  0  0
 16 17  2  0  0  0
 16 20  1  0  0  0
 17 18  1  0  0  0
 18 19  2  0  0  0
 18 21  1  0  0  0
 19 20  1  0  0  0
 19 31  1  0  0  0
 21 32  1  0  0  0
 21 33  1  0  0  0
 21 34  1  0  0  0
 22 35  1  0  0  0
 22 36  1  0  0  0
M  END
> <s_m_entry_id>
34593

> <s_m_entry_name>
dock_pv.336

> <s_m_Source_Path>
/home/csk/Desktop/cluster/DUD-E-result/tgfr1

> <s_m_Source_File>
dock_pv.maegz

> <i_m_Source_File_Index>
336

> <chembl_id>
CHEMBL1957652

> <chembl_pref_name>
None

> <i_lp_mmshare_version>
53161

> <r_lp_tautomer_probability>
0.499999999999999

> <s_lp_Force_Field>
OPLS_2005

> <r_lp_Energy>
19.066082

> <b_lp_Chiralities_Consistent>
1

> <s_lp_Variant>
CHEMBL4439_lig496-1

> <s_i_glide_gridfile>
glide-grid_3hmm

> <i_i_glide_lignum>
647

> <i_i_glide_rotatable_bonds>
3

> <r_i_docking_score>
-7.82927177447651

> <r_i_glide_ligand_efficiency>
-0.355875989748932

> <r_i_glide_ligand_efficiency_sa>
-0.997178519084981

> <r_i_glide_ligand_efficiency_ln>
-1.91375960130883

> <r_i_glide_gscore>
-7.82927177447651

> <r_i_glide_lipo>
-3.2437978172645

> <r_i_glide_hbond>
-0.294641210072876

> <r_i_glide_metal>
0

> <r_i_glide_rewards>
-1.93940276774991

> <r_i_glide_evdw>
-42.1648597717285

> <r_i_glide_ecoul>
-4.12904024124146

> <r_i_glide_erotb>
0.376169045383426

> <r_i_glide_esite>
0

> <r_i_glide_emodel>
-66.4598896398888

> <r_i_glide_energy>
-46.29390001297

> <r_i_glide_einternal>
2.72259902954102

> <i_i_glide_confnum>
8

> <i_i_glide_posenum>
14

> <r_i_glide_eff_state_penalty>
0

> <s_user_duplicate_titles>
CHEMBL4439_lig496,CHEMBL4439_lig496

> <i_f3d_flags>
0

> <s_m_subgroup_title>
dock_pv

> <s_m_subgroupid>
dock_pv

> <b_m_subgroup_collapsed>
1

$$$$
CHEMBL4439_lig449
                    3D
 Schrodinger Suite 2021-1.
 37 40  0  0  1  0            999 V2000
   19.0253   68.4556    5.2161 C   0  0  0  0  0  0
   18.2521   68.6715    3.9427 C   0  0  0  0  0  0
   18.8238   69.2570    2.8022 C   0  0  0  0  0  0
   18.0433   69.4221    1.6585 C   0  0  0  0  0  0
   16.7095   69.0186    1.6694 C   0  0  0  0  0  0
   16.2087   68.4361    2.8299 C   0  0  0  0  0  0
   16.9557   68.2680    3.9453 N   0  0  0  0  0  0
   16.3727   66.8585    6.4532 C   0  0  0  0  0  0
   15.0728   66.6933    6.9379 C   0  0  0  0  0  0
   14.6230   67.3649    8.0317 N   0  0  0  0  0  0
   15.4669   68.2483    8.6293 C   0  0  0  0  0  0
   16.7613   68.4917    8.1729 C   0  0  0  0  0  0
   17.2214   67.7949    7.0525 C   0  0  0  0  0  0
   18.5873   68.0820    6.5225 C   0  0  0  0  0  0
   20.3340   68.6243    5.1951 N   0  0  0  0  0  0
   20.7565   68.3940    6.4349 N   0  0  0  0  0  0
   19.7448   68.0679    7.2864 C   0  0  0  0  0  0
   14.0948   65.8101    6.2284 C   0  0  0  0  0  0
   12.7100   65.6559    6.4356 C   0  0  0  0  0  0
   12.1449   64.7901    5.6245 N   0  0  0  0  0  0
   13.1390   64.3773    4.8315 N   0  0  0  0  0  0
   14.3386   64.9520    5.1611 C   0  0  0  0  0  0
   12.8767   63.3836    3.8032 C   0  0  0  0  0  0
   19.8559   69.5767    2.7935 H   0  0  0  0  0  0
   18.4786   69.8683    0.7800 H   0  0  0  0  0  0
   16.0724   69.1504    0.8106 H   0  0  0  0  0  0
   15.1809   68.1072    2.8854 H   0  0  0  0  0  0
   16.6997   66.3034    5.5896 H   0  0  0  0  0  0
   15.0793   68.7897    9.4820 H   0  0  0  0  0  0
   17.3844   69.2245    8.6666 H   0  0  0  0  0  0
   21.7386   68.4517    6.6778 H   0  0  0  0  0  0
   19.9302   67.8546    8.3296 H   0  0  0  0  0  0
   12.1251   66.1673    7.1868 H   0  0  0  0  0  0
   15.2371   64.7088    4.6128 H   0  0  0  0  0  0
   13.7224   63.3199    3.1178 H   0  0  0  0  0  0
   11.9868   63.6591    3.2367 H   0  0  0  0  0  0
   12.7164   62.4160    4.2735 H   0  0  0  0  0  0
  1  2  1  0  0  0
  1 15  2  0  0  0
  1 14  1  0  0  0
  2  3  2  0  0  0
  2  7  1  0  0  0
  3  4  1  0  0  0
  3 24  1  0  0  0
  4  5  2  0  0  0
  4 25  1  0  0  0
  5  6  1  0  0  0
  5 26  1  0  0  0
  6  7  2  0  0  0
  6 27  1  0  0  0
  8 13  1  0  0  0
  8  9  2  0  0  0
  8 28  1  0  0  0
  9 10  1  0  0  0
  9 18  1  0  0  0
 10 11  2  0  0  0
 11 12  1  0  0  0
 11 29  1  0  0  0
 12 13  2  0  0  0
 12 30  1  0  0  0
 13 14  1  0  0  0
 14 17  2  0  0  0
 15 16  1  0  0  0
 16 17  1  0  0  0
 16 31  1  0  0  0
 17 32  1  0  0  0
 18 19  1  0  0  0
 18 22  2  0  0  0
 19 20  2  0  0  0
 19 33  1  0  0  0
 20 21  1  0  0  0
 21 22  1  0  0  0
 21 23  1  0  0  0
 22 34  1  0  0  0
 23 35  1  0  0  0
 23 36  1  0  0  0
 23 37  1  0  0  0
M  END
> <s_m_entry_id>
34595

> <s_m_entry_name>
dock_pv.338

> <s_m_Source_Path>
/home/csk/Desktop/cluster/DUD-E-result/tgfr1

> <s_m_Source_File>
dock_pv.maegz

> <i_m_Source_File_Index>
338

> <chembl_id>
CHEMBL1828640

> <chembl_pref_name>
None

> <i_lp_mmshare_version>
53161

> <r_lp_tautomer_probability>
0.5

> <s_lp_Force_Field>
OPLS_2005

> <r_lp_Energy>
14.653999

> <b_lp_Chiralities_Consistent>
1

> <s_lp_Variant>
CHEMBL4439_lig449-1

> <s_i_glide_gridfile>
glide-grid_3hmm

> <i_i_glide_lignum>
590

> <i_i_glide_rotatable_bonds>
3

> <r_i_docking_score>
-7.8105731008241

> <r_i_glide_ligand_efficiency>
-0.339590134818439

> <r_i_glide_ligand_efficiency_sa>
-0.965749170084134

> <r_i_glide_ligand_efficiency_ln>
-1.88866739814053

> <r_i_glide_gscore>
-7.8105731008241

> <r_i_glide_lipo>
-3.99894318574844

> <r_i_glide_hbond>
0

> <r_i_glide_metal>
0

> <r_i_glide_rewards>
-1.62726084863309

> <r_i_glide_evdw>
-46.8259925842285

> <r_i_glide_ecoul>
-2.98211860656738

> <r_i_glide_erotb>
0.60424835375396

> <r_i_glide_esite>
0

> <r_i_glide_emodel>
-72.6817049220862

> <r_i_glide_energy>
-49.8081111907959

> <r_i_glide_einternal>
2.05138540267944

> <i_i_glide_confnum>
3

> <i_i_glide_posenum>
281

> <r_i_glide_eff_state_penalty>
0

> <s_user_duplicate_titles>
CHEMBL4439_lig449,CHEMBL4439_lig449

> <i_f3d_flags>
0

> <s_m_subgroup_title>
dock_pv

> <s_m_subgroupid>
dock_pv

> <b_m_subgroup_collapsed>
1

$$$$
CHEMBL4439_lig956 
                    3D
 Schrodinger Suite 2021-1.
 48 52  0  0  1  0            999 V2000
   16.9152   68.4569    2.5708 C   0  0  0  0  0  0
   18.2321   68.8775    2.3719 C   0  0  0  0  0  0
   19.1016   68.8615    3.4648 C   0  0  0  0  0  0
   18.7187   68.4589    4.6985 N   0  0  0  0  0  0
   17.4314   68.0573    4.8923 C   0  0  0  0  0  0
   16.5056   68.0422    3.8413 C   0  0  0  0  0  0
   16.0325   66.8752    6.7906 C   0  0  0  0  0  0
   17.0861   67.6662    6.3030 C   0  0  0  0  0  0
   17.8340   68.1146    7.3085 N   0  0  0  0  0  0
   17.3077   67.6682    8.4168 C   0  0  0  0  0  0
   16.1993   66.9161    8.1534 N   0  0  0  0  0  0
   17.8101   67.9671    9.8221 C   0  0  0  0  0  0
   19.1867   67.5461   10.0892 N   0  0  0  0  0  0
   20.3279   68.2285    9.6330 C   0  0  0  0  0  0
   20.2859   69.3796    8.8344 C   0  0  0  0  0  0
   21.4681   69.9836    8.4022 C   0  0  0  0  0  0
   22.7014   69.4600    8.7828 C   0  0  0  0  0  0
   22.7524   68.3324    9.5981 C   0  0  0  0  0  0
   21.5714   67.7243   10.0210 C   0  0  0  0  0  0
   20.5528   69.2849    3.3524 C   0  0  0  0  0  0
   14.9578   66.1060    6.1777 C   0  0  0  0  0  0
   15.0305   65.2579    5.0875 C   0  0  0  0  0  0
   13.3357   66.1919    6.8320 S   0  0  0  0  0  0
   12.7587   65.0447    5.6426 C   0  0  0  0  0  0
   13.8035   64.6143    4.7818 C   0  0  0  0  0  0
   13.4714   63.6601    3.8046 C   0  0  0  0  0  0
   12.2064   63.2057    3.6336 N   0  0  0  0  0  0
   11.2344   63.6568    4.4612 C   0  0  0  0  0  0
   11.4548   64.5610    5.4971 C   0  0  0  0  0  0
   23.9445   67.8194    9.9762 F   0  0  0  0  0  0
   16.2116   68.4591    1.7507 H   0  0  0  0  0  0
   18.5668   69.2053    1.3984 H   0  0  0  0  0  0
   15.4823   67.7394    4.0034 H   0  0  0  0  0  0
   15.6137   66.4660    8.8395 H   0  0  0  0  0  0
   17.1842   67.4307   10.5360 H   0  0  0  0  0  0
   17.6808   69.0213   10.0705 H   0  0  0  0  0  0
   19.3374   66.8748   10.8312 H   0  0  0  0  0  0
   19.3445   69.8209    8.5468 H   0  0  0  0  0  0
   21.4350   70.8581    7.7725 H   0  0  0  0  0  0
   23.6146   69.9313    8.4477 H   0  0  0  0  0  0
   21.6340   66.8578   10.6593 H   0  0  0  0  0  0
   20.8026   69.6272    2.3475 H   0  0  0  0  0  0
   20.7626   70.0946    4.0494 H   0  0  0  0  0  0
   21.2124   68.4573    3.6167 H   0  0  0  0  0  0
   15.9229   65.0886    4.5164 H   0  0  0  0  0  0
   14.2093   63.2890    3.1101 H   0  0  0  0  0  0
   10.2465   63.2579    4.2849 H   0  0  0  0  0  0
   10.6672   64.8872    6.1552 H   0  0  0  0  0  0
  1  2  2  0  0  0
  1  6  1  0  0  0
  1 31  1  0  0  0
  2  3  1  0  0  0
  2 32  1  0  0  0
  3  4  2  0  0  0
  3 20  1  0  0  0
  4  5  1  0  0  0
  5  6  2  0  0  0
  5  8  1  0  0  0
  6 33  1  0  0  0
  7  8  2  0  0  0
  7 21  1  0  0  0
  7 11  1  0  0  0
  8  9  1  0  0  0
  9 10  2  0  0  0
 10 11  1  0  0  0
 10 12  1  0  0  0
 11 34  1  0  0  0
 12 13  1  0  0  0
 12 35  1  0  0  0
 12 36  1  0  0  0
 13 14  1  0  0  0
 13 37  1  0  0  0
 14 15  2  0  0  0
 14 19  1  0  0  0
 15 16  1  0  0  0
 15 38  1  0  0  0
 16 17  2  0  0  0
 16 39  1  0  0  0
 17 18  1  0  0  0
 17 40  1  0  0  0
 18 19  2  0  0  0
 18 30  1  0  0  0
 19 41  1  0  0  0
 20 42  1  0  0  0
 20 43  1  0  0  0
 20 44  1  0  0  0
 21 22  2  0  0  0
 21 23  1  0  0  0
 22 25  1  0  0  0
 22 45  1  0  0  0
 23 24  1  0  0  0
 24 25  2  0  0  0
 24 29  1  0  0  0
 25 26  1  0  0  0
 26 27  2  0  0  0
 26 46  1  0  0  0
 27 28  1  0  0  0
 28 29  2  0  0  0
 28 47  1  0  0  0
 29 48  1  0  0  0
M  END
> <s_m_entry_id>
34596

> <s_m_entry_name>
dock_pv.339

> <s_m_Source_Path>
/home/csk/Desktop/cluster/DUD-E-result/tgfr1

> <s_m_Source_File>
dock_pv.maegz

> <i_m_Source_File_Index>
339

> <chembl_id>
CHEMBL4576341

> <chembl_pref_name>
None

> <i_lp_mmshare_version>
53161

> <r_lp_tautomer_probability>
0.499999999999999

> <s_lp_Force_Field>
OPLS_2005

> <r_lp_Energy>
24.149851

> <b_lp_Chiralities_Consistent>
1

> <s_lp_Variant>
CHEMBL4439_lig956 -2

> <s_i_glide_gridfile>
glide-grid_3hmm

> <i_i_glide_lignum>
1300

> <i_i_glide_rotatable_bonds>
5

> <r_i_docking_score>
-7.78691740674314

> <r_i_glide_ligand_efficiency>
-0.259563913558105

> <r_i_glide_ligand_efficiency_sa>
-0.806525428665956

> <r_i_glide_ligand_efficiency_ln>
-1.76927248007276

> <r_i_glide_gscore>
-7.78691740674314

> <r_i_glide_lipo>
-4.30571674066763

> <r_i_glide_hbond>
-0.121362750128172

> <r_i_glide_metal>
0

> <r_i_glide_rewards>
-1.15998406372764

> <r_i_glide_evdw>
-55.5223007202148

> <r_i_glide_ecoul>
0.0287147760391235

> <r_i_glide_erotb>
0.571953967385176

> <r_i_glide_esite>
0

> <r_i_glide_emodel>
-80.5011077477165

> <r_i_glide_energy>
-55.4935859441757

> <r_i_glide_einternal>
1.0253803730011

> <i_i_glide_confnum>
106

> <i_i_glide_posenum>
176

> <r_i_glide_eff_state_penalty>
0

> <s_user_duplicate_titles>
CHEMBL4439_lig956 ,CHEMBL4439_lig956 

> <i_f3d_flags>
0

> <s_m_subgroup_title>
dock_pv

> <s_m_subgroupid>
dock_pv

> <b_m_subgroup_collapsed>
1

$$$$
CHEMBL4439_lig377
                    3D
 Schrodinger Suite 2021-1.
 57 61  0  0  1  0            999 V2000
   10.7411   63.7343    4.6170 C   0  0  0  0  0  0
   11.9094   63.2579    4.0452 C   0  0  0  0  0  0
   13.1249   63.7457    4.5106 C   0  0  0  0  0  0
   10.7283   64.6511    5.6096 N   0  0  0  0  0  0
   11.9142   65.1299    6.0777 C   0  0  0  0  0  0
   13.1632   64.6983    5.5579 C   0  0  0  0  0  0
   14.3686   65.2036    6.1195 C   0  0  0  0  0  0
   14.3359   66.1694    7.1179 C   0  0  0  0  0  0
   13.1081   66.5674    7.6320 C   0  0  0  0  0  0
   11.9130   66.0594    7.1330 C   0  0  0  0  0  0
   15.6018   66.7594    7.6324 C   0  0  0  0  0  0
   16.6614   67.3844    6.9359 C   0  0  0  0  0  0
   17.5894   67.6578    7.9458 N   0  0  0  0  0  0
   17.1263   67.3579    9.1708 N   0  0  0  0  0  0
   15.9603   66.8155    8.9806 C   0  0  0  0  0  0
   16.7832   67.7393    5.4608 C   0  0  0  0  0  0
   15.7050   67.6506    4.5705 C   0  0  0  0  0  0
   15.8773   68.0055    3.2317 C   0  0  0  0  0  0
   17.1146   68.4740    2.7954 C   0  0  0  0  0  0
   18.1424   68.5744    3.7315 C   0  0  0  0  0  0
   17.9861   68.2111    5.0301 N   0  0  0  0  0  0
   19.5064   69.1219    3.3663 C   0  0  0  0  0  0
   18.8895   68.3598    7.8573 C   0  0  0  0  0  0
   19.9530   68.0452    8.9253 C   0  0  0  0  0  0
   20.6149   69.1185    9.4087 N   0  0  0  0  0  0
   20.1755   66.8711    9.2314 O   0  0  0  0  0  0
   21.6078   69.1775   10.4026 C   0  0  0  0  0  0
   21.7938   68.1873   11.3816 C   0  0  0  0  0  0
   22.7922   68.3407   12.3397 C   0  0  0  0  0  0
   23.6010   69.4741   12.3250 C   0  0  0  0  0  0
   23.4199   70.4624   11.3599 C   0  0  0  0  0  0
   22.4174   70.3173   10.4045 C   0  0  0  0  0  0
   14.2668   63.2517    3.9723 O   0  0  0  0  0  0
   14.9940   64.1538    3.1901 C   0  0  0  0  0  0
    9.7828   63.3698    4.2866 H   0  0  0  0  0  0
   11.8808   62.5206    3.2543 H   0  0  0  0  0  0
   15.3264   64.8461    5.7715 H   0  0  0  0  0  0
   13.0675   67.2926    8.4288 H   0  0  0  0  0  0
   10.9741   66.3788    7.5581 H   0  0  0  0  0  0
   15.3754   66.4595    9.8148 H   0  0  0  0  0  0
   14.7234   67.3532    4.8872 H   0  0  0  0  0  0
   15.0472   67.9339    2.5433 H   0  0  0  0  0  0
   17.2567   68.7703    1.7690 H   0  0  0  0  0  0
   19.5901   69.3135    2.2975 H   0  0  0  0  0  0
   19.6903   70.0570    3.8984 H   0  0  0  0  0  0
   20.2934   68.4165    3.6369 H   0  0  0  0  0  0
   18.6795   69.4289    7.8013 H   0  0  0  0  0  0
   19.3957   68.0703    6.9395 H   0  0  0  0  0  0
   20.3993   70.0074    8.9848 H   0  0  0  0  0  0
   21.1687   67.3066   11.4180 H   0  0  0  0  0  0
   22.9364   67.5787   13.0912 H   0  0  0  0  0  0
   24.3769   69.5877   13.0674 H   0  0  0  0  0  0
   24.0495   71.3394   11.3499 H   0  0  0  0  0  0
   22.2880   71.0939    9.6609 H   0  0  0  0  0  0
   15.8941   63.6573    2.8322 H   0  0  0  0  0  0
   14.3737   64.4534    2.3458 H   0  0  0  0  0  0
   15.3058   65.0646    3.6929 H   0  0  0  0  0  0
  1  4  1  0  0  0
  1  2  2  0  0  0
  1 35  1  0  0  0
  2  3  1  0  0  0
  2 36  1  0  0  0
  3  6  2  0  0  0
  3 33  1  0  0  0
  4  5  2  0  0  0
  5 10  1  0  0  0
  5  6  1  0  0  0
  6  7  1  0  0  0
  7  8  2  0  0  0
  7 37  1  0  0  0
  8  9  1  0  0  0
  8 11  1  0  0  0
  9 10  2  0  0  0
  9 38  1  0  0  0
 10 39  1  0  0  0
 11 12  2  0  0  0
 11 15  1  0  0  0
 12 16  1  0  0  0
 12 13  1  0  0  0
 13 23  1  0  0  0
 13 14  1  0  0  0
 14 15  2  0  0  0
 15 40  1  0  0  0
 16 17  2  0  0  0
 16 21  1  0  0  0
 17 18  1  0  0  0
 17 41  1  0  0  0
 18 19  2  0  0  0
 18 42  1  0  0  0
 19 20  1  0  0  0
 19 43  1  0  0  0
 20 21  2  0  0  0
 20 22  1  0  0  0
 22 44  1  0  0  0
 22 45  1  0  0  0
 22 46  1  0  0  0
 23 24  1  0  0  0
 23 47  1  0  0  0
 23 48  1  0  0  0
 24 25  1  0  0  0
 24 26  2  0  0  0
 25 27  1  0  0  0
 25 49  1  0  0  0
 27 28  2  0  0  0
 27 32  1  0  0  0
 28 29  1  0  0  0
 28 50  1  0  0  0
 29 30  2  0  0  0
 29 51  1  0  0  0
 30 31  1  0  0  0
 30 52  1  0  0  0
 31 32  2  0  0  0
 31 53  1  0  0  0
 32 54  1  0  0  0
 33 34  1  0  0  0
 34 55  1  0  0  0
 34 56  1  0  0  0
 34 57  1  0  0  0
M  END
> <s_m_entry_id>
34597

> <s_m_entry_name>
dock_pv.340

> <s_m_Source_Path>
/home/csk/Desktop/cluster/DUD-E-result/tgfr1

> <s_m_Source_File>
dock_pv.maegz

> <i_m_Source_File_Index>
340

> <chembl_id>
CHEMBL1766447

> <chembl_pref_name>
None

> <i_lp_mmshare_version>
53161

> <r_lp_tautomer_probability>
1

> <s_lp_Force_Field>
OPLS_2005

> <r_lp_Energy>
33.616335

> <b_lp_Chiralities_Consistent>
1

> <s_lp_Variant>
CHEMBL4439_lig377-1

> <s_i_glide_gridfile>
glide-grid_3hmm

> <i_i_glide_lignum>
515

> <i_i_glide_rotatable_bonds>
7

> <r_i_docking_score>
-7.78312805146306

> <r_i_glide_ligand_efficiency>
-0.228915530925384

> <r_i_glide_ligand_efficiency_sa>
-0.741597454609861

> <r_i_glide_ligand_efficiency_ln>
-1.7195112959154

> <r_i_glide_gscore>
-7.78312805146306

> <r_i_glide_lipo>
-4.2012582939567

> <r_i_glide_hbond>
0

> <r_i_glide_metal>
0

> <r_i_glide_rewards>
-1.09401900044524

> <r_i_glide_evdw>
-52.6063804626465

> <r_i_glide_ecoul>
-2.35649991035461

> <r_i_glide_erotb>
0.495943252624405

> <r_i_glide_esite>
0

> <r_i_glide_emodel>
-72.322067772645

> <r_i_glide_energy>
-54.9628803730011

> <r_i_glide_einternal>
14.3435792922974

> <i_i_glide_confnum>
3

> <i_i_glide_posenum>
40

> <r_i_glide_eff_state_penalty>
0

> <s_user_duplicate_titles>
CHEMBL4439_lig377

> <i_f3d_flags>
0

> <s_m_subgroup_title>
dock_pv

> <s_m_subgroupid>
dock_pv

> <b_m_subgroup_collapsed>
1

$$$$
CHEMBL4439_lig218
                    3D
 Schrodinger Suite 2021-1.
 43 46  0  0  1  0            999 V2000
   15.9279   67.1546    6.1244 C   0  0  0  0  0  0
   14.9369   66.1674    6.3484 C   0  0  0  0  0  0
   14.6540   66.0599    7.6316 N   0  0  0  0  0  0
   15.3751   66.9436    8.2359 C   0  0  0  0  0  0
   16.1991   67.6485    7.4021 N   0  0  0  0  0  0
   16.5195   67.6682    4.8359 C   0  0  0  0  0  0
   15.6879   67.7816    3.7166 C   0  0  0  0  0  0
   16.1583   68.3369    2.5275 C   0  0  0  0  0  0
   17.4860   68.7342    2.4324 C   0  0  0  0  0  0
   18.3425   68.5888    3.5201 C   0  0  0  0  0  0
   17.8589   68.0588    4.7151 C   0  0  0  0  0  0
   14.2050   65.2485    5.4127 C   0  0  0  0  0  0
   14.8166   64.6346    4.3163 C   0  0  0  0  0  0
   14.0666   63.6748    3.6296 C   0  0  0  0  0  0
   12.8017   63.3319    3.9839 N   0  0  0  0  0  0
   12.2826   64.0012    5.0381 C   0  0  0  0  0  0
   12.9205   64.9485    5.7637 N   0  0  0  0  0  0
   17.9442   69.2506    1.2712 F   0  0  0  0  0  0
   17.0411   68.7673    7.8494 C   0  0  0  0  0  0
   17.9627   68.4602    9.0320 C   0  0  0  0  0  0
   19.3475   68.3523    8.8464 C   0  0  0  0  0  0
   20.1933   68.1573    9.9445 C   0  0  0  0  0  0
   19.6555   68.0549   11.2305 C   0  0  0  0  0  0
   18.2785   68.1277   11.4175 C   0  0  0  0  0  0
   17.4404   68.3493   10.3280 C   0  0  0  0  0  0
   21.6326   68.0578    9.7658 C   0  0  0  0  0  0
   22.7776   67.9724    9.6304 N   0  0  0  0  0  0
   11.0001   63.6625    5.4418 N   0  0  0  0  0  0
   15.3410   67.1407    9.2939 H   0  0  0  0  0  0
   14.6493   67.4921    3.7783 H   0  0  0  0  0  0
   15.4941   68.4560    1.6836 H   0  0  0  0  0  0
   19.3755   68.8852    3.4328 H   0  0  0  0  0  0
   18.5453   67.9334    5.5377 H   0  0  0  0  0  0
   15.8314   64.8639    4.0316 H   0  0  0  0  0  0
   14.4785   63.1626    2.7754 H   0  0  0  0  0  0
   16.3711   69.5799    8.1303 H   0  0  0  0  0  0
   17.6256   69.1661    7.0300 H   0  0  0  0  0  0
   19.7616   68.4451    7.8512 H   0  0  0  0  0  0
   20.2970   67.8911   12.0862 H   0  0  0  0  0  0
   17.8612   68.0438   12.4097 H   0  0  0  0  0  0
   16.3840   68.4658   10.5133 H   0  0  0  0  0  0
   10.6158   64.1178    6.2583 H   0  0  0  0  0  0
   10.4801   62.9823    4.9120 H   0  0  0  0  0  0
  1  2  2  0  0  0
  1  5  1  0  0  0
  1  6  1  0  0  0
  2  3  1  0  0  0
  2 12  1  0  0  0
  3  4  2  0  0  0
  4  5  1  0  0  0
  4 29  1  0  0  0
  5 19  1  0  0  0
  6  7  2  0  0  0
  6 11  1  0  0  0
  7  8  1  0  0  0
  7 30  1  0  0  0
  8  9  2  0  0  0
  8 31  1  0  0  0
  9 10  1  0  0  0
  9 18  1  0  0  0
 10 11  2  0  0  0
 10 32  1  0  0  0
 11 33  1  0  0  0
 12 13  2  0  0  0
 12 17  1  0  0  0
 13 14  1  0  0  0
 13 34  1  0  0  0
 14 15  2  0  0  0
 14 35  1  0  0  0
 15 16  1  0  0  0
 16 17  2  0  0  0
 16 28  1  0  0  0
 19 20  1  0  0  0
 19 36  1  0  0  0
 19 37  1  0  0  0
 20 21  2  0  0  0
 20 25  1  0  0  0
 21 22  1  0  0  0
 21 38  1  0  0  0
 22 23  2  0  0  0
 22 26  1  0  0  0
 23 24  1  0  0  0
 23 39  1  0  0  0
 24 25  2  0  0  0
 24 40  1  0  0  0
 25 41  1  0  0  0
 26 27  3  0  0  0
 28 42  1  0  0  0
 28 43  1  0  0  0
M  END
> <s_m_entry_id>
34598

> <s_m_entry_name>
dock_pv.341

> <s_m_Source_Path>
/home/csk/Desktop/cluster/DUD-E-result/tgfr1

> <s_m_Source_File>
dock_pv.maegz

> <i_m_Source_File_Index>
341

> <chembl_id>
CHEMBL492849

> <chembl_pref_name>
None

> <i_lp_mmshare_version>
53161

> <r_lp_tautomer_probability>
0.999999987636

> <s_lp_Force_Field>
OPLS_2005

> <r_lp_Energy>
14.656351

> <b_lp_Chiralities_Consistent>
1

> <s_lp_Variant>
CHEMBL4439_lig218-1

> <s_i_glide_gridfile>
glide-grid_3hmm

> <i_i_glide_lignum>
319

> <i_i_glide_rotatable_bonds>
4

> <r_i_docking_score>
-7.78148610325163

> <r_i_glide_ligand_efficiency>
-0.277910217973273

> <r_i_glide_ligand_efficiency_sa>
-0.843899102131853

> <r_i_glide_ligand_efficiency_ln>
-1.7961954669903

> <r_i_glide_gscore>
-7.78148610325163

> <r_i_glide_lipo>
-3.57813747670017

> <r_i_glide_hbond>
-0.134834156307132

> <r_i_glide_metal>
0

> <r_i_glide_rewards>
-2.00468705974027

> <r_i_glide_evdw>
-50.9282341003418

> <r_i_glide_ecoul>
-0.532789826393127

> <r_i_glide_erotb>
0.562502768471996

> <r_i_glide_esite>
0

> <r_i_glide_emodel>
-72.9936809747572

> <r_i_glide_energy>
-51.4610239267349

> <r_i_glide_einternal>
4.74884986877441

> <i_i_glide_confnum>
9

> <i_i_glide_posenum>
149

> <r_i_glide_eff_state_penalty>
0

> <s_user_duplicate_titles>
CHEMBL4439_lig218

> <i_f3d_flags>
0

> <s_m_subgroup_title>
dock_pv

> <s_m_subgroupid>
dock_pv

> <b_m_subgroup_collapsed>
1

$$$$
CHEMBL4439_lig519
                    3D
 Schrodinger Suite 2021-1.
 44 46  0  0  1  0            999 V2000
   17.0098   68.4140    2.8301 C   0  0  0  0  0  0
   16.5039   67.7595    4.0831 C   0  0  0  0  0  0
   16.8769   67.9952    5.3139 N   0  0  0  0  0  0
   16.0646   67.2836    6.0913 C   0  0  0  0  0  0
   15.1788   66.5129    5.3113 C   0  0  0  0  0  0
   15.4881   66.8623    4.0323 N   0  0  0  0  0  0
   14.0316   65.6030    5.5318 C   0  0  0  0  0  0
   13.0369   65.9757    6.4296 C   0  0  0  0  0  0
   12.6804   63.7442    4.7730 C   0  0  0  0  0  0
   13.8660   64.4715    4.7215 C   0  0  0  0  0  0
   11.6656   64.1537    5.6304 C   0  0  0  0  0  0
   11.8488   65.2576    6.4602 C   0  0  0  0  0  0
   16.1855   67.3953    7.5507 C   0  0  0  0  0  0
   15.8233   66.4541    8.3884 N   0  0  0  0  0  0
   16.0889   66.7685    9.6457 C   0  0  0  0  0  0
   16.6671   68.0155    9.8479 C   0  0  0  0  0  0
   16.8732   68.8017    8.3221 S   0  0  0  0  0  0
   15.7435   65.7468   10.6943 C   0  0  0  0  0  0
   18.3822   68.8954    2.9369 N   0  0  0  0  0  0
   19.0667   69.2575    1.8432 C   0  0  0  0  0  0
   20.5472   69.6777    1.9585 C   0  0  0  0  0  0
   18.5351   69.2569    0.7383 O   0  0  0  0  0  0
   21.2101   69.4707    3.3414 C   0  0  0  0  0  0
   22.6987   69.8488    3.3428 C   0  0  0  0  0  0
   10.4988   63.4732    5.6601 F   0  0  0  0  0  0
   16.3466   69.2188    2.5063 H   0  0  0  0  0  0
   16.9826   67.6688    2.0319 H   0  0  0  0  0  0
   15.0108   66.5437    3.2015 H   0  0  0  0  0  0
   13.1524   66.8543    7.0471 H   0  0  0  0  0  0
   12.5363   62.8889    4.1289 H   0  0  0  0  0  0
   14.6315   64.1812    4.0165 H   0  0  0  0  0  0
   11.0684   65.5637    7.1409 H   0  0  0  0  0  0
   16.9718   68.4869   10.7711 H   0  0  0  0  0  0
   16.1555   66.0163   11.6678 H   0  0  0  0  0  0
   14.6683   65.6569   10.8316 H   0  0  0  0  0  0
   16.1289   64.7654   10.4318 H   0  0  0  0  0  0
   18.8103   68.9246    3.8499 H   0  0  0  0  0  0
   20.6436   70.7134    1.6320 H   0  0  0  0  0  0
   21.1148   69.1287    1.2107 H   0  0  0  0  0  0
   21.1227   68.4274    3.6486 H   0  0  0  0  0  0
   20.6949   70.0581    4.1017 H   0  0  0  0  0  0
   23.1427   69.6886    4.3273 H   0  0  0  0  0  0
   22.8468   70.8937    3.0802 H   0  0  0  0  0  0
   23.2665   69.2589    2.6238 H   0  0  0  0  0  0
  1  2  1  0  0  0
  1 19  1  0  0  0
  1 26  1  0  0  0
  1 27  1  0  0  0
  2  6  1  0  0  0
  2  3  2  0  0  0
  3  4  1  0  0  0
  4 13  1  0  0  0
  4  5  2  0  0  0
  5  7  1  0  0  0
  5  6  1  0  0  0
  6 28  1  0  0  0
  7  8  2  0  0  0
  7 10  1  0  0  0
  8 12  1  0  0  0
  8 29  1  0  0  0
  9 11  1  0  0  0
  9 10  2  0  0  0
  9 30  1  0  0  0
 10 31  1  0  0  0
 11 12  2  0  0  0
 11 25  1  0  0  0
 12 32  1  0  0  0
 13 14  2  0  0  0
 13 17  1  0  0  0
 14 15  1  0  0  0
 15 16  2  0  0  0
 15 18  1  0  0  0
 16 17  1  0  0  0
 16 33  1  0  0  0
 18 34  1  0  0  0
 18 35  1  0  0  0
 18 36  1  0  0  0
 19 20  1  0  0  0
 19 37  1  0  0  0
 20 21  1  0  0  0
 20 22  2  0  0  0
 21 23  1  0  0  0
 21 38  1  0  0  0
 21 39  1  0  0  0
 23 24  1  0  0  0
 23 40  1  0  0  0
 23 41  1  0  0  0
 24 42  1  0  0  0
 24 43  1  0  0  0
 24 44  1  0  0  0
M  END
> <s_m_entry_id>
34599

> <s_m_entry_name>
dock_pv.342

> <s_m_Source_Path>
/home/csk/Desktop/cluster/DUD-E-result/tgfr1

> <s_m_Source_File>
dock_pv.maegz

> <i_m_Source_File_Index>
342

> <chembl_id>
CHEMBL1957674

> <chembl_pref_name>
None

> <i_lp_mmshare_version>
53161

> <r_lp_tautomer_probability>
0.499999999999999

> <s_lp_Force_Field>
OPLS_2005

> <r_lp_Energy>
4.840049

> <b_lp_Chiralities_Consistent>
1

> <s_lp_Variant>
CHEMBL4439_lig519-1

> <s_i_glide_gridfile>
glide-grid_3hmm

> <i_i_glide_lignum>
692

> <i_i_glide_rotatable_bonds>
7

> <r_i_docking_score>
-7.77991475556452

> <r_i_glide_ligand_efficiency>
-0.311196590222581

> <r_i_glide_ligand_efficiency_sa>
-0.909944348905855

> <r_i_glide_ligand_efficiency_ln>
-1.84407294230035

> <r_i_glide_gscore>
-7.77991475556452

> <r_i_glide_lipo>
-3.3460146021037

> <r_i_glide_hbond>
-0.32

> <r_i_glide_metal>
0

> <r_i_glide_rewards>
-2.27789855722999

> <r_i_glide_evdw>
-45.8027153015137

> <r_i_glide_ecoul>
-2.93647027015686

> <r_i_glide_erotb>
0.894604709368384

> <r_i_glide_esite>
0

> <r_i_glide_emodel>
-65.4780436898613

> <r_i_glide_energy>
-48.7391855716705

> <r_i_glide_einternal>
7.62771081924438

> <i_i_glide_confnum>
37

> <i_i_glide_posenum>
391

> <r_i_glide_eff_state_penalty>
0

> <s_user_duplicate_titles>
CHEMBL4439_lig519,CHEMBL4439_lig519

> <i_f3d_flags>
0

> <s_m_subgroup_title>
dock_pv

> <s_m_subgroupid>
dock_pv

> <b_m_subgroup_collapsed>
1

$$$$
CHEMBL4439_lig41
                    3D
 Schrodinger Suite 2021-1.
 33 36  0  0  1  0            999 V2000
   15.7803   67.5185    6.3743 C   0  0  0  0  0  0
   14.7367   66.5714    6.5947 C   0  0  0  0  0  0
   16.6035   67.8356    5.1576 C   0  0  0  0  0  0
   14.2802   66.6534    7.8342 N   0  0  0  0  0  0
   12.8633   65.1652    5.9086 N   0  0  0  0  0  0
   14.1493   65.5472    5.6569 C   0  0  0  0  0  0
   14.9746   67.6239    8.4186 N   0  0  0  0  0  0
   18.0017   68.1563    5.2140 C   0  0  0  0  0  0
   15.8724   68.2029    7.5794 C   0  0  0  0  0  0
   12.2854   64.2264    5.1125 C   0  0  0  0  0  0
   17.9737   68.6807    2.8232 N   0  0  0  0  0  0
   18.6381   68.5953    4.0085 C   0  0  0  0  0  0
   10.5101   63.6577    5.4977 Br  0  0  0  0  0  0
   16.6685   68.3359    2.7980 C   0  0  0  0  0  0
   15.9653   67.9074    3.9160 C   0  0  0  0  0  0
   14.8780   64.9955    4.5981 C   0  0  0  0  0  0
   18.7920   68.0694    6.3984 C   0  0  0  0  0  0
   14.2665   64.0558    3.7686 C   0  0  0  0  0  0
   12.9578   63.6543    4.0319 C   0  0  0  0  0  0
   20.0052   68.9645    4.0338 C   0  0  0  0  0  0
   20.1333   68.4371    6.3866 C   0  0  0  0  0  0
   20.7299   68.8908    5.2185 C   0  0  0  0  0  0
   14.8122   67.9025    9.3757 H   0  0  0  0  0  0
   16.4941   69.0291    7.9045 H   0  0  0  0  0  0
   16.1728   68.4440    1.8426 H   0  0  0  0  0  0
   14.9100   67.6905    3.8268 H   0  0  0  0  0  0
   15.8988   65.2822    4.4094 H   0  0  0  0  0  0
   18.3614   67.7000    7.3167 H   0  0  0  0  0  0
   14.8018   63.6330    2.9338 H   0  0  0  0  0  0
   12.4731   62.9187    3.4051 H   0  0  0  0  0  0
   20.4861   69.2991    3.1245 H   0  0  0  0  0  0
   20.7190   68.3665    7.2936 H   0  0  0  0  0  0
   21.7756   69.1638    5.2274 H   0  0  0  0  0  0
  1  9  2  0  0  0
  1  2  1  0  0  0
  1  3  1  0  0  0
  2  6  1  0  0  0
  2  4  2  0  0  0
  3  8  1  0  0  0
  3 15  2  0  0  0
  4  7  1  0  0  0
  5  6  2  0  0  0
  5 10  1  0  0  0
  6 16  1  0  0  0
  7 23  1  0  0  0
  7  9  1  0  0  0
  8 12  2  0  0  0
  8 17  1  0  0  0
  9 24  1  0  0  0
 10 13  1  0  0  0
 10 19  2  0  0  0
 11 14  2  0  0  0
 11 12  1  0  0  0
 12 20  1  0  0  0
 14 15  1  0  0  0
 14 25  1  0  0  0
 15 26  1  0  0  0
 16 18  2  0  0  0
 16 27  1  0  0  0
 17 21  2  0  0  0
 17 28  1  0  0  0
 18 19  1  0  0  0
 18 29  1  0  0  0
 19 30  1  0  0  0
 20 22  2  0  0  0
 20 31  1  0  0  0
 21 22  1  0  0  0
 21 32  1  0  0  0
 22 33  1  0  0  0
M  END
> <s_m_entry_id>
34600

> <s_m_entry_name>
dock_pv.343

> <s_m_Source_Path>
/home/csk/Desktop/cluster/DUD-E-result/tgfr1

> <s_m_Source_File>
dock_pv.maegz

> <i_m_Source_File_Index>
343

> <chembl_id>
CHEMBL341280

> <chembl_pref_name>
None

> <i_lp_mmshare_version>
53161

> <r_lp_tautomer_probability>
0.5

> <s_lp_Force_Field>
OPLS_2005

> <r_lp_Energy>
18.720781

> <b_lp_Chiralities_Consistent>
1

> <s_lp_Variant>
CHEMBL4439_lig41-2

> <s_i_glide_gridfile>
glide-grid_3hmm

> <i_i_glide_lignum>
55

> <i_i_glide_rotatable_bonds>
2

> <r_i_docking_score>
-7.77875271429397

> <r_i_glide_ligand_efficiency>
-0.353579668831544

> <r_i_glide_ligand_efficiency_sa>
-0.990744137565283

> <r_i_glide_ligand_efficiency_ln>
-1.90141090027272

> <r_i_glide_gscore>
-7.77875271429397

> <r_i_glide_lipo>
-4.32144542600638

> <r_i_glide_hbond>
-0.0390966727286431

> <r_i_glide_metal>
0

> <r_i_glide_rewards>
-1.39393501079697

> <r_i_glide_evdw>
-44.1220893859863

> <r_i_glide_ecoul>
-0.849297106266022

> <r_i_glide_erotb>
0.309223430477246

> <r_i_glide_esite>
0

> <r_i_glide_emodel>
-65.823246337547

> <r_i_glide_energy>
-44.9713864922523

> <r_i_glide_einternal>
0.871131837368011

> <i_i_glide_confnum>
1

> <i_i_glide_posenum>
7

> <r_i_glide_eff_state_penalty>
0

> <s_user_duplicate_titles>
CHEMBL4439_lig41,CHEMBL4439_lig41,211977

> <i_f3d_flags>
0

> <s_m_subgroup_title>
dock_pv

> <s_m_subgroupid>
dock_pv

> <b_m_subgroup_collapsed>
1

$$$$
CHEMBL4439_lig614
                    3D
 Schrodinger Suite 2021-1.
 50 54  0  0  1  0            999 V2000
   16.9385   67.2542    7.9363 C   0  0  0  0  0  0
   17.7184   67.6542    9.1769 C   0  0  0  0  0  0
   19.1617   67.6360    8.9529 N   0  0  0  0  0  0
   20.0917   67.9575    9.9541 C   0  0  0  0  0  0
   19.7366   68.1405   11.2970 C   0  0  0  0  0  0
   20.7128   68.4569   12.2408 C   0  0  0  0  0  0
   22.0454   68.5959   11.8477 C   0  0  0  0  0  0
   22.4047   68.4110   10.5106 C   0  0  0  0  0  0
   21.4275   68.0895    9.5704 C   0  0  0  0  0  0
   23.0630   68.9504   12.8295 C   0  0  0  0  0  0
   23.8666   69.2400   13.6119 N   0  0  0  0  0  0
   13.2757   65.4619    6.3654 C   0  0  0  0  0  0
   14.5807   65.4942    5.8445 C   0  0  0  0  0  0
   14.8871   64.7604    4.6774 C   0  0  0  0  0  0
   13.9203   63.9806    4.0320 C   0  0  0  0  0  0
   12.3362   64.6808    5.6965 C   0  0  0  0  0  0
   12.6480   63.9602    4.5791 C   0  0  0  0  0  0
   11.5591   63.2571    4.1716 O   0  0  0  0  0  0
   10.4992   63.7061    4.9710 C   0  0  0  0  0  0
   11.0477   64.4377    6.0328 O   0  0  0  0  0  0
   15.5691   66.3039    6.4539 N   0  0  0  0  0  0
   16.3888   67.2659    5.8857 C   0  0  0  0  0  0
   17.1871   67.8244    6.7735 N   0  0  0  0  0  0
   15.9257   66.3177    7.7826 C   0  0  0  0  0  0
   16.3561   67.7157    4.4581 C   0  0  0  0  0  0
   15.1903   67.6571    3.6870 C   0  0  0  0  0  0
   15.1867   68.2474    2.4318 C   0  0  0  0  0  0
   16.3430   68.8569    1.9453 C   0  0  0  0  0  0
   17.4742   68.8759    2.7609 C   0  0  0  0  0  0
   17.4944   68.3077    3.9935 N   0  0  0  0  0  0
   18.7384   69.5924    2.3340 C   0  0  0  0  0  0
   17.4852   66.9666    9.9912 H   0  0  0  0  0  0
   17.4225   68.6515    9.5069 H   0  0  0  0  0  0
   19.4676   67.6956    7.9902 H   0  0  0  0  0  0
   18.7116   68.0407   11.6182 H   0  0  0  0  0  0
   20.4209   68.5957   13.2718 H   0  0  0  0  0  0
   23.4323   68.5182   10.1868 H   0  0  0  0  0  0
   21.7136   67.9602    8.5368 H   0  0  0  0  0  0
   13.0027   66.0268    7.2448 H   0  0  0  0  0  0
   15.8672   64.8084    4.2418 H   0  0  0  0  0  0
   14.1579   63.4235    3.1379 H   0  0  0  0  0  0
    9.8659   64.3703    4.3816 H   0  0  0  0  0  0
    9.9191   62.8623    5.3505 H   0  0  0  0  0  0
   15.4640   65.6569    8.4943 H   0  0  0  0  0  0
   14.2671   67.2494    4.0605 H   0  0  0  0  0  0
   14.2857   68.2404    1.8391 H   0  0  0  0  0  0
   16.3433   69.3242    0.9718 H   0  0  0  0  0  0
   18.5052   70.3899    1.6319 H   0  0  0  0  0  0
   19.2372   70.0516    3.1897 H   0  0  0  0  0  0
   19.4353   68.9049    1.8556 H   0  0  0  0  0  0
  1  2  1  0  0  0
  1 23  1  0  0  0
  1 24  2  0  0  0
  2  3  1  0  0  0
  2 32  1  0  0  0
  2 33  1  0  0  0
  3  4  1  0  0  0
  3 34  1  0  0  0
  4  5  2  0  0  0
  4  9  1  0  0  0
  5  6  1  0  0  0
  5 35  1  0  0  0
  6  7  2  0  0  0
  6 36  1  0  0  0
  7  8  1  0  0  0
  7 10  1  0  0  0
  8  9  2  0  0  0
  8 37  1  0  0  0
  9 38  1  0  0  0
 10 11  3  0  0  0
 12 16  1  0  0  0
 12 13  2  0  0  0
 12 39  1  0  0  0
 13 14  1  0  0  0
 13 21  1  0  0  0
 14 15  2  0  0  0
 14 40  1  0  0  0
 15 17  1  0  0  0
 15 41  1  0  0  0
 16 17  2  0  0  0
 16 20  1  0  0  0
 17 18  1  0  0  0
 18 19  1  0  0  0
 19 20  1  0  0  0
 19 42  1  0  0  0
 19 43  1  0  0  0
 21 22  1  0  0  0
 21 24  1  0  0  0
 22 23  2  0  0  0
 22 25  1  0  0  0
 24 44  1  0  0  0
 25 26  2  0  0  0
 25 30  1  0  0  0
 26 27  1  0  0  0
 26 45  1  0  0  0
 27 28  2  0  0  0
 27 46  1  0  0  0
 28 29  1  0  0  0
 28 47  1  0  0  0
 29 30  2  0  0  0
 29 31  1  0  0  0
 31 48  1  0  0  0
 31 49  1  0  0  0
 31 50  1  0  0  0
M  END
> <s_m_entry_id>
34603

> <s_m_entry_name>
dock_pv.346

> <s_m_Source_Path>
/home/csk/Desktop/cluster/DUD-E-result/tgfr1

> <s_m_Source_File>
dock_pv.maegz

> <i_m_Source_File_Index>
346

> <chembl_id>
CHEMBL2435035

> <chembl_pref_name>
None

> <i_lp_mmshare_version>
53161

> <r_lp_tautomer_probability>
1

> <s_lp_Force_Field>
OPLS_2005

> <r_lp_Energy>
32.935509

> <b_lp_Chiralities_Consistent>
1

> <s_lp_Variant>
CHEMBL4439_lig614-1

> <s_i_glide_gridfile>
glide-grid_3hmm

> <i_i_glide_lignum>
830

> <i_i_glide_rotatable_bonds>
5

> <r_i_docking_score>
-7.7743257817174

> <r_i_glide_ligand_efficiency>
-0.250784702636045

> <r_i_glide_ligand_efficiency_sa>
-0.787810211874824

> <r_i_glide_ligand_efficiency_ln>
-1.7533487182492

> <r_i_glide_gscore>
-7.7743257817174

> <r_i_glide_lipo>
-3.74515481545743

> <r_i_glide_hbond>
0

> <r_i_glide_metal>
0

> <r_i_glide_rewards>
-2.26501438227497

> <r_i_glide_evdw>
-51.3412971496582

> <r_i_glide_ecoul>
1.43745291233063

> <r_i_glide_erotb>
0.587290336648323

> <r_i_glide_esite>
0

> <r_i_glide_emodel>
-69.8391535022221

> <r_i_glide_energy>
-49.9038442373276

> <r_i_glide_einternal>
4.28905391693115

> <i_i_glide_confnum>
14

> <i_i_glide_posenum>
87

> <r_i_glide_eff_state_penalty>
0

> <s_user_duplicate_titles>
CHEMBL4439_lig614

> <i_f3d_flags>
0

> <s_m_subgroup_title>
dock_pv

> <s_m_subgroupid>
dock_pv

> <b_m_subgroup_collapsed>
1

$$$$
CHEMBL4439_lig307
                    3D
 Schrodinger Suite 2021-1.
 47 50  0  0  1  0            999 V2000
   21.7241   67.6593    9.6172 C   0  0  0  0  0  0
   21.3154   68.9267    9.1216 O   0  0  0  0  0  0
   20.0280   69.3573    9.5527 C   0  0  0  0  0  0
   18.9159   68.5069    8.9505 C   0  0  0  0  0  0
   18.2586   67.5627    9.7365 C   0  0  0  0  0  0
   17.2960   66.7426    9.1640 C   0  0  0  0  0  0
   17.0040   66.8578    7.8054 C   0  0  0  0  0  0
   17.6122   67.8239    6.9826 C   0  0  0  0  0  0
   18.5665   68.6544    7.6039 C   0  0  0  0  0  0
   17.2902   67.9363    5.5060 C   0  0  0  0  0  0
   16.2601   67.3789    4.8115 C   0  0  0  0  0  0
   16.4283   67.6568    3.4644 N   0  0  0  0  0  0
   15.3032   68.0479    2.6023 C   0  0  0  0  0  0
   17.5309   68.4722    3.3545 N   0  0  0  0  0  0
   18.0865   68.8864    2.0581 C   0  0  0  0  0  0
   18.1602   68.6108    4.5369 C   0  0  0  0  0  0
   19.2354   69.1846    4.7149 O   0  0  0  0  0  0
   15.0797   66.6026    5.2614 C   0  0  0  0  0  0
   14.2848   67.0279    6.3312 C   0  0  0  0  0  0
   13.1116   66.3571    6.6754 C   0  0  0  0  0  0
   12.6788   65.2640    5.8929 C   0  0  0  0  0  0
   11.4674   64.6938    6.1339 N   0  0  0  0  0  0
   11.0658   63.7030    5.3014 C   0  0  0  0  0  0
   11.8719   63.2569    4.2574 C   0  0  0  0  0  0
   13.1072   63.7622    4.0326 N   0  0  0  0  0  0
   13.5015   64.7978    4.8242 C   0  0  0  0  0  0
   14.7109   65.4597    4.5447 C   0  0  0  0  0  0
   22.7410   67.4533    9.2840 H   0  0  0  0  0  0
   21.0843   66.8598    9.2447 H   0  0  0  0  0  0
   21.7187   67.6355   10.7076 H   0  0  0  0  0  0
   19.9748   69.3717   10.6433 H   0  0  0  0  0  0
   19.8915   70.3885    9.2266 H   0  0  0  0  0  0
   18.5141   67.4430   10.7794 H   0  0  0  0  0  0
   16.8113   65.9847    9.7610 H   0  0  0  0  0  0
   16.3334   66.1218    7.4014 H   0  0  0  0  0  0
   19.0826   69.4215    7.0497 H   0  0  0  0  0  0
   14.4839   67.3354    2.6885 H   0  0  0  0  0  0
   14.8895   69.0204    2.8319 H   0  0  0  0  0  0
   15.5833   68.0575    1.5542 H   0  0  0  0  0  0
   19.0580   69.3765    2.1463 H   0  0  0  0  0  0
   18.2150   68.0223    1.4054 H   0  0  0  0  0  0
   17.4173   69.5924    1.5663 H   0  0  0  0  0  0
   14.5678   67.9136    6.8833 H   0  0  0  0  0  0
   12.4877   66.7078    7.4843 H   0  0  0  0  0  0
   10.0905   63.2748    5.4842 H   0  0  0  0  0  0
   11.5470   62.4691    3.5943 H   0  0  0  0  0  0
   15.3081   65.1133    3.7130 H   0  0  0  0  0  0
  1  2  1  0  0  0
  1 28  1  0  0  0
  1 29  1  0  0  0
  1 30  1  0  0  0
  2  3  1  0  0  0
  3  4  1  0  0  0
  3 31  1  0  0  0
  3 32  1  0  0  0
  4  5  2  0  0  0
  4  9  1  0  0  0
  5  6  1  0  0  0
  5 33  1  0  0  0
  6  7  2  0  0  0
  6 34  1  0  0  0
  7  8  1  0  0  0
  7 35  1  0  0  0
  8  9  2  0  0  0
  8 10  1  0  0  0
  9 36  1  0  0  0
 10 11  2  0  0  0
 10 16  1  0  0  0
 11 12  1  0  0  0
 11 18  1  0  0  0
 12 13  1  0  0  0
 12 14  1  0  0  0
 13 37  1  0  0  0
 13 38  1  0  0  0
 13 39  1  0  0  0
 14 15  1  0  0  0
 14 16  1  0  0  0
 15 40  1  0  0  0
 15 41  1  0  0  0
 15 42  1  0  0  0
 16 17  2  0  0  0
 18 19  2  0  0  0
 18 27  1  0  0  0
 19 20  1  0  0  0
 19 43  1  0  0  0
 20 21  2  0  0  0
 20 44  1  0  0  0
 21 22  1  0  0  0
 21 26  1  0  0  0
 22 23  2  0  0  0
 23 24  1  0  0  0
 23 45  1  0  0  0
 24 25  2  0  0  0
 24 46  1  0  0  0
 25 26  1  0  0  0
 26 27  2  0  0  0
 27 47  1  0  0  0
M  END
> <s_m_entry_id>
34604

> <s_m_entry_name>
dock_pv.347

> <s_m_Source_Path>
/home/csk/Desktop/cluster/DUD-E-result/tgfr1

> <s_m_Source_File>
dock_pv.maegz

> <i_m_Source_File_Index>
347

> <chembl_id>
CHEMBL606919

> <chembl_pref_name>
None

> <i_lp_mmshare_version>
53161

> <r_lp_tautomer_probability>
1

> <s_lp_Force_Field>
OPLS_2005

> <r_lp_Energy>
45.423196

> <b_lp_Chiralities_Consistent>
1

> <s_lp_Variant>
CHEMBL4439_lig307-1

> <s_i_glide_gridfile>
glide-grid_3hmm

> <i_i_glide_lignum>
439

> <i_i_glide_rotatable_bonds>
4

> <r_i_docking_score>
-7.77203169432086

> <r_i_glide_ligand_efficiency>
-0.287853025715587

> <r_i_glide_ligand_efficiency_sa>
-0.863559076198045

> <r_i_glide_ligand_efficiency_ln>
-1.80920084648136

> <r_i_glide_gscore>
-7.77203169432086

> <r_i_glide_lipo>
-4.08814002034115

> <r_i_glide_hbond>
0

> <r_i_glide_metal>
0

> <r_i_glide_rewards>
-2.0184228030303

> <r_i_glide_evdw>
-48.6028366088867

> <r_i_glide_ecoul>
2.14486742019653

> <r_i_glide_erotb>
0.442942846465456

> <r_i_glide_esite>
0

> <r_i_glide_emodel>
-64.0301113833171

> <r_i_glide_energy>
-46.4579691886902

> <r_i_glide_einternal>
2.94060158729553

> <i_i_glide_confnum>
13

> <i_i_glide_posenum>
16

> <r_i_glide_eff_state_penalty>
0

> <s_user_duplicate_titles>
CHEMBL4439_lig307,593942

> <i_f3d_flags>
0

> <s_m_subgroup_title>
dock_pv

> <s_m_subgroupid>
dock_pv

> <b_m_subgroup_collapsed>
1

$$$$
CHEMBL4439_lig836
                    3D
 Schrodinger Suite 2021-1.
 43 47  0  0  1  0            999 V2000
   16.9221   67.5769    5.4312 C   0  0  0  0  0  0
   19.2104   68.8946    6.3553 N   0  0  0  0  0  0
   18.3386   68.2368    7.1662 C   0  0  0  0  0  0
   17.2189   67.5889    6.7533 N   0  0  0  0  0  0
   18.8685   68.8703    5.0557 N   0  0  0  0  0  0
   17.7356   68.2436    4.4950 C   0  0  0  0  0  0
   17.7661   68.4848    3.0916 C   0  0  0  0  0  0
   18.8964   69.2571    2.8466 C   0  0  0  0  0  0
   19.5791   69.4580    4.0415 C   0  0  0  0  0  0
   18.6616   68.1906    8.6323 C   0  0  0  0  0  0
   17.6298   67.9042    9.4806 N   0  0  0  0  0  0
   17.8704   67.8414   10.8146 C   0  0  0  0  0  0
   19.1352   68.0569   11.3634 C   0  0  0  0  0  0
   20.1892   68.3561   10.5016 C   0  0  0  0  0  0
   19.9557   68.4269    9.1255 C   0  0  0  0  0  0
   15.8396   66.8070    4.9850 N   0  0  0  0  0  0
   14.7087   66.2920    5.6495 C   0  0  0  0  0  0
   14.2605   66.8671    6.8423 C   0  0  0  0  0  0
   13.0555   66.4569    7.3912 C   0  0  0  0  0  0
   12.2505   65.5365    6.8224 N   0  0  0  0  0  0
   16.6706   67.5214   11.6823 C   0  0  0  0  0  0
   13.9342   65.2303    5.0841 C   0  0  0  0  0  0
   12.6785   64.9162    5.6921 C   0  0  0  0  0  0
   11.8499   63.9205    5.1328 C   0  0  0  0  0  0
   12.2764   63.2148    4.0152 C   0  0  0  0  0  0
   13.5238   63.4562    3.4562 C   0  0  0  0  0  0
   14.3461   64.4573    3.9647 C   0  0  0  0  0  0
   17.0561   68.1636    2.3434 H   0  0  0  0  0  0
   19.2087   69.6262    1.8780 H   0  0  0  0  0  0
   20.5012   69.9859    4.2386 H   0  0  0  0  0  0
   19.2997   67.9937   12.4287 H   0  0  0  0  0  0
   21.1811   68.5320   10.8916 H   0  0  0  0  0  0
   20.7727   68.6580    8.4558 H   0  0  0  0  0  0
   15.8438   66.6374    3.9909 H   0  0  0  0  0  0
   14.7977   67.6697    7.3229 H   0  0  0  0  0  0
   12.6920   66.8828    8.3115 H   0  0  0  0  0  0
   16.8387   67.8027   12.7216 H   0  0  0  0  0  0
   16.4476   66.4570   11.6447 H   0  0  0  0  0  0
   15.7907   68.0567   11.3281 H   0  0  0  0  0  0
   10.8911   63.7064    5.5825 H   0  0  0  0  0  0
   11.6395   62.4582    3.5814 H   0  0  0  0  0  0
   13.8419   62.8839    2.5958 H   0  0  0  0  0  0
   15.3091   64.6344    3.5143 H   0  0  0  0  0  0
  1  6  1  0  0  0
  1  4  2  0  0  0
  1 16  1  0  0  0
  2  5  1  0  0  0
  2  3  2  0  0  0
  3  4  1  0  0  0
  3 10  1  0  0  0
  5  6  1  0  0  0
  5  9  1  0  0  0
  6  7  2  0  0  0
  7  8  1  0  0  0
  7 28  1  0  0  0
  8  9  2  0  0  0
  8 29  1  0  0  0
  9 30  1  0  0  0
 10 11  2  0  0  0
 10 15  1  0  0  0
 11 12  1  0  0  0
 12 13  2  0  0  0
 12 21  1  0  0  0
 13 14  1  0  0  0
 13 31  1  0  0  0
 14 15  2  0  0  0
 14 32  1  0  0  0
 15 33  1  0  0  0
 16 17  1  0  0  0
 16 34  1  0  0  0
 17 18  2  0  0  0
 17 22  1  0  0  0
 18 19  1  0  0  0
 18 35  1  0  0  0
 19 20  2  0  0  0
 19 36  1  0  0  0
 20 23  1  0  0  0
 21 37  1  0  0  0
 21 38  1  0  0  0
 21 39  1  0  0  0
 22 23  1  0  0  0
 22 27  2  0  0  0
 23 24  2  0  0  0
 24 25  1  0  0  0
 24 40  1  0  0  0
 25 26  2  0  0  0
 25 41  1  0  0  0
 26 27  1  0  0  0
 26 42  1  0  0  0
 27 43  1  0  0  0
M  END
> <s_m_entry_id>
34605

> <s_m_entry_name>
dock_pv.348

> <s_m_Source_Path>
/home/csk/Desktop/cluster/DUD-E-result/tgfr1

> <s_m_Source_File>
dock_pv.maegz

> <i_m_Source_File_Index>
348

> <chembl_id>
CHEMBL4205979

> <chembl_pref_name>
None

> <i_lp_mmshare_version>
53161

> <r_lp_tautomer_probability>
1

> <s_lp_Force_Field>
OPLS_2005

> <r_lp_Energy>
37.590606

> <b_lp_Chiralities_Consistent>
1

> <s_lp_Variant>
CHEMBL4439_lig836-1

> <s_i_glide_gridfile>
glide-grid_3hmm

> <i_i_glide_lignum>
1154

> <i_i_glide_rotatable_bonds>
3

> <r_i_docking_score>
-7.75138045976825

> <r_i_glide_ligand_efficiency>
-0.287088165176602

> <r_i_glide_ligand_efficiency_sa>
-0.86126449458361

> <r_i_glide_ligand_efficiency_ln>
-1.80439357953972

> <r_i_glide_gscore>
-7.75138045976825

> <r_i_glide_lipo>
-4.06022846330778

> <r_i_glide_hbond>
0

> <r_i_glide_metal>
0

> <r_i_glide_rewards>
-1.8666988807871

> <r_i_glide_evdw>
-51.1305961608887

> <r_i_glide_ecoul>
1.80685532093048

> <r_i_glide_erotb>
0.46104839423149

> <r_i_glide_esite>
0

> <r_i_glide_emodel>
-69.584047947767

> <r_i_glide_energy>
-49.3237408399582

> <r_i_glide_einternal>
3.3170473575592

> <i_i_glide_confnum>
5

> <i_i_glide_posenum>
241

> <r_i_glide_eff_state_penalty>
0

> <s_user_duplicate_titles>
CHEMBL4439_lig836

> <i_f3d_flags>
0

> <s_m_subgroup_title>
dock_pv

> <s_m_subgroupid>
dock_pv

> <b_m_subgroup_collapsed>
1

$$$$
CHEMBL4439_lig876 
                    3D
 Schrodinger Suite 2021-1.
 39 41  0  0  1  0            999 V2000
   18.0935   68.0573    7.9457 C   0  0  0  0  0  0
   18.1771   68.2042    6.5715 N   0  0  0  0  0  0
   17.1030   67.6580    5.9695 N   0  0  0  0  0  0
   16.3099   67.1938    6.9117 C   0  0  0  0  0  0
   16.8531   67.4588    8.1968 C   0  0  0  0  0  0
   19.2841   68.7827    5.7374 C   0  0  0  0  0  0
   20.4988   67.8302    5.7718 C   0  0  0  0  0  0
   19.7002   70.1734    6.2791 C   0  0  0  0  0  0
   18.8490   68.9707    4.2545 C   0  0  0  0  0  0
   16.3275   67.0445    9.4794 C   0  0  0  0  0  0
   16.6670   67.8124   10.5133 N   0  0  0  0  0  0
   15.6137   66.0569    9.6190 O   0  0  0  0  0  0
   19.1064   68.4158    8.7965 N   0  0  0  0  0  0
   15.0308   66.5013    6.5193 C   0  0  0  0  0  0
   15.0098   65.6438    5.4113 C   0  0  0  0  0  0
   12.6590   66.0568    6.9365 C   0  0  0  0  0  0
   13.8553   66.7055    7.2498 C   0  0  0  0  0  0
   12.6641   65.1617    5.8610 C   0  0  0  0  0  0
   13.8365   64.9527    5.0931 C   0  0  0  0  0  0
   13.7208   64.0544    4.0805 N   0  0  0  0  0  0
   12.5152   63.5642    4.0340 C   0  0  0  0  0  0
   11.3770   64.1417    5.2274 S   0  0  0  0  0  0
   21.3280   68.2417    5.1953 H   0  0  0  0  0  0
   20.2691   66.8566    5.3455 H   0  0  0  0  0  0
   20.8659   67.6607    6.7842 H   0  0  0  0  0  0
   18.8396   70.8189    6.4506 H   0  0  0  0  0  0
   20.2561   70.1126    7.2132 H   0  0  0  0  0  0
   20.3550   70.6902    5.5754 H   0  0  0  0  0  0
   17.9831   69.6270    4.1676 H   0  0  0  0  0  0
   19.6461   69.4096    3.6541 H   0  0  0  0  0  0
   18.5896   68.0227    3.7824 H   0  0  0  0  0  0
   16.3097   67.5917   11.4306 H   0  0  0  0  0  0
   17.2372   68.6336   10.3666 H   0  0  0  0  0  0
   19.2345   67.9589    9.6897 H   0  0  0  0  0  0
   19.7369   69.1777    8.5842 H   0  0  0  0  0  0
   15.8814   65.5007    4.8030 H   0  0  0  0  0  0
   11.7638   66.2174    7.5181 H   0  0  0  0  0  0
   13.8676   67.3869    8.0876 H   0  0  0  0  0  0
   12.2112   62.8573    3.2767 H   0  0  0  0  0  0
  1  2  1  0  0  0
  1  5  2  0  0  0
  1 13  1  0  0  0
  2  3  1  0  0  0
  2  6  1  0  0  0
  3  4  2  0  0  0
  4  5  1  0  0  0
  4 14  1  0  0  0
  5 10  1  0  0  0
  6  7  1  0  0  0
  6  8  1  0  0  0
  6  9  1  0  0  0
  7 23  1  0  0  0
  7 24  1  0  0  0
  7 25  1  0  0  0
  8 26  1  0  0  0
  8 27  1  0  0  0
  8 28  1  0  0  0
  9 29  1  0  0  0
  9 30  1  0  0  0
  9 31  1  0  0  0
 10 11  1  0  0  0
 10 12  2  0  0  0
 11 32  1  0  0  0
 11 33  1  0  0  0
 13 34  1  0  0  0
 13 35  1  0  0  0
 14 15  2  0  0  0
 14 17  1  0  0  0
 15 19  1  0  0  0
 15 36  1  0  0  0
 16 18  1  0  0  0
 16 17  2  0  0  0
 16 37  1  0  0  0
 17 38  1  0  0  0
 18 19  2  0  0  0
 18 22  1  0  0  0
 19 20  1  0  0  0
 20 21  2  0  0  0
 21 22  1  0  0  0
 21 39  1  0  0  0
M  END
> <s_m_entry_id>
34606

> <s_m_entry_name>
dock_pv.349

> <s_m_Source_Path>
/home/csk/Desktop/cluster/DUD-E-result/tgfr1

> <s_m_Source_File>
dock_pv.maegz

> <i_m_Source_File_Index>
349

> <chembl_id>
CHEMBL4437124

> <chembl_pref_name>
None

> <i_lp_mmshare_version>
53161

> <r_lp_tautomer_probability>
1

> <s_lp_Force_Field>
OPLS_2005

> <r_lp_Energy>
25.30089

> <b_lp_Chiralities_Consistent>
1

> <s_lp_Variant>
CHEMBL4439_lig876 -1

> <s_i_glide_gridfile>
glide-grid_3hmm

> <i_i_glide_lignum>
1211

> <i_i_glide_rotatable_bonds>
3

> <r_i_docking_score>
-7.74365163565172

> <r_i_glide_ligand_efficiency>
-0.351984165256896

> <r_i_glide_ligand_efficiency_sa>
-0.986273473801525

> <r_i_glide_ligand_efficiency_ln>
-1.89283091630961

> <r_i_glide_gscore>
-7.74365163565172

> <r_i_glide_lipo>
-2.82844371180664

> <r_i_glide_hbond>
-0.107320643331762

> <r_i_glide_metal>
0

> <r_i_glide_rewards>
-2.11541620480763

> <r_i_glide_evdw>
-46.1570243835449

> <r_i_glide_ecoul>
-3.8108274936676

> <r_i_glide_erotb>
0.187004267521695

> <r_i_glide_esite>
0

> <r_i_glide_emodel>
-72.6186532744469

> <r_i_glide_energy>
-49.9678518772125

> <r_i_glide_einternal>
3.87939500808716

> <i_i_glide_confnum>
4

> <i_i_glide_posenum>
157

> <r_i_glide_eff_state_penalty>
0

> <s_user_duplicate_titles>
CHEMBL4439_lig876 

> <i_f3d_flags>
0

> <s_m_subgroup_title>
dock_pv

> <s_m_subgroupid>
dock_pv

> <b_m_subgroup_collapsed>
1

$$$$
CHEMBL4439_lig606
                    3D
 Schrodinger Suite 2021-1.
 46 49  0  0  1  0            999 V2000
   17.2618   68.8572    1.4399 N   0  0  0  0  0  0
   18.5377   69.2569    1.2324 C   0  0  0  0  0  0
   19.4651   69.3292    2.2661 C   0  0  0  0  0  0
   19.1726   68.9322    3.5273 N   0  0  0  0  0  0
   17.9075   68.4869    3.7507 C   0  0  0  0  0  0
   17.5478   68.0560    5.0396 C   0  0  0  0  0  0
   16.2408   67.6637    5.3299 C   0  0  0  0  0  0
   15.2990   67.6570    4.2910 C   0  0  0  0  0  0
   15.6231   68.0542    2.9949 C   0  0  0  0  0  0
   16.9360   68.4700    2.7046 C   0  0  0  0  0  0
   14.8563   66.4855    7.1596 N   0  0  0  0  0  0
   14.7712   66.4573    8.4904 N   0  0  0  0  0  0
   15.7345   67.2924    8.9866 N   0  0  0  0  0  0
   16.3920   67.8286    7.9799 C   0  0  0  0  0  0
   15.8771   67.3405    6.7541 C   0  0  0  0  0  0
   13.9408   65.6929    6.4267 C   0  0  0  0  0  0
   12.5869   65.6570    6.7948 C   0  0  0  0  0  0
   11.7090   64.8882    6.0311 C   0  0  0  0  0  0
   12.1778   64.2079    4.9081 C   0  0  0  0  0  0
   13.5352   64.3020    4.6000 C   0  0  0  0  0  0
   14.4200   64.9994    5.3592 N   0  0  0  0  0  0
   14.1039   63.6563    3.3560 C   0  0  0  0  0  0
   17.4744   68.8572    8.3101 C   0  0  0  0  0  0
   18.4026   68.4682    9.4882 C   0  0  0  0  0  0
   19.1249   67.1093    9.3717 C   0  0  0  0  0  0
   20.1862   67.0470    8.2655 C   0  0  0  0  0  0
   18.8109   69.5677    0.2356 H   0  0  0  0  0  0
   20.4691   69.6844    2.0852 H   0  0  0  0  0  0
   18.3206   68.0275    5.7846 H   0  0  0  0  0  0
   14.2707   67.4022    4.4887 H   0  0  0  0  0  0
   14.8779   68.0567    2.2124 H   0  0  0  0  0  0
   12.2120   66.2027    7.6485 H   0  0  0  0  0  0
   10.6672   64.8341    6.2954 H   0  0  0  0  0  0
   11.4987   63.6409    4.2870 H   0  0  0  0  0  0
   13.3275   63.2459    2.7099 H   0  0  0  0  0  0
   14.7815   62.8574    3.6321 H   0  0  0  0  0  0
   14.6664   64.3899    2.7818 H   0  0  0  0  0  0
   18.0931   69.1308    7.4638 H   0  0  0  0  0  0
   16.9835   69.7935    8.5734 H   0  0  0  0  0  0
   19.1443   69.2555    9.6261 H   0  0  0  0  0  0
   17.8148   68.4687   10.4075 H   0  0  0  0  0  0
   19.6072   66.8943   10.3253 H   0  0  0  0  0  0
   18.3978   66.3075    9.2324 H   0  0  0  0  0  0
   20.6666   66.0684    8.2576 H   0  0  0  0  0  0
   19.7493   67.2009    7.2800 H   0  0  0  0  0  0
   20.9610   67.8005    8.4138 H   0  0  0  0  0  0
  1  2  2  0  0  0
  1 10  1  0  0  0
  2  3  1  0  0  0
  2 27  1  0  0  0
  3  4  2  0  0  0
  3 28  1  0  0  0
  4  5  1  0  0  0
  5  6  2  0  0  0
  5 10  1  0  0  0
  6  7  1  0  0  0
  6 29  1  0  0  0
  7  8  2  0  0  0
  7 15  1  0  0  0
  8  9  1  0  0  0
  8 30  1  0  0  0
  9 10  2  0  0  0
  9 31  1  0  0  0
 11 12  1  0  0  0
 11 15  1  0  0  0
 11 16  1  0  0  0
 12 13  2  0  0  0
 13 14  1  0  0  0
 14 15  2  0  0  0
 14 23  1  0  0  0
 16 17  1  0  0  0
 16 21  2  0  0  0
 17 18  2  0  0  0
 17 32  1  0  0  0
 18 19  1  0  0  0
 18 33  1  0  0  0
 19 20  2  0  0  0
 19 34  1  0  0  0
 20 21  1  0  0  0
 20 22  1  0  0  0
 22 35  1  0  0  0
 22 36  1  0  0  0
 22 37  1  0  0  0
 23 24  1  0  0  0
 23 38  1  0  0  0
 23 39  1  0  0  0
 24 25  1  0  0  0
 24 40  1  0  0  0
 24 41  1  0  0  0
 25 26  1  0  0  0
 25 42  1  0  0  0
 25 43  1  0  0  0
 26 44  1  0  0  0
 26 45  1  0  0  0
 26 46  1  0  0  0
M  END
> <s_m_entry_id>
34610

> <s_m_entry_name>
dock_pv.353

> <s_m_Source_Path>
/home/csk/Desktop/cluster/DUD-E-result/tgfr1

> <s_m_Source_File>
dock_pv.maegz

> <i_m_Source_File_Index>
353

> <chembl_id>
CHEMBL2321907

> <chembl_pref_name>
None

> <i_lp_mmshare_version>
53161

> <r_lp_tautomer_probability>
1

> <s_lp_Force_Field>
OPLS_2005

> <r_lp_Energy>
20.921739

> <b_lp_Chiralities_Consistent>
1

> <s_lp_Variant>
CHEMBL4439_lig606-1

> <s_i_glide_gridfile>
glide-grid_3hmm

> <i_i_glide_lignum>
822

> <i_i_glide_rotatable_bonds>
5

> <r_i_docking_score>
-7.73145399948213

> <r_i_glide_ligand_efficiency>
-0.297363615364697

> <r_i_glide_ligand_efficiency_sa>
-0.880938540448589

> <r_i_glide_ligand_efficiency_ln>
-1.81570660280862

> <r_i_glide_gscore>
-7.73145399948213

> <r_i_glide_lipo>
-3.886739067714

> <r_i_glide_hbond>
-0.000152574647429526

> <r_i_glide_metal>
0

> <r_i_glide_rewards>
-1.76857061222272

> <r_i_glide_evdw>
-45.0026168823242

> <r_i_glide_ecoul>
-2.63540410995483

> <r_i_glide_erotb>
0.640265034940041

> <r_i_glide_esite>
-0.0708153192285884

> <r_i_glide_emodel>
-68.8668599244337

> <r_i_glide_energy>
-47.6380209922791

> <r_i_glide_einternal>
3.58571076393127

> <i_i_glide_confnum>
39

> <i_i_glide_posenum>
260

> <r_i_glide_eff_state_penalty>
0

> <s_user_duplicate_titles>
CHEMBL4439_lig606

> <i_f3d_flags>
0

> <s_m_subgroup_title>
dock_pv

> <s_m_subgroupid>
dock_pv

> <b_m_subgroup_collapsed>
1

$$$$
CHEMBL4439_lig132
                    3D
 Schrodinger Suite 2021-1.
 40 43  0  0  1  0            999 V2000
   15.7614   66.6723    4.8578 C   0  0  0  0  0  0
   14.8766   66.0077    5.7184 C   0  0  0  0  0  0
   14.8834   66.2461    7.0604 N   0  0  0  0  0  0
   15.7118   67.2032    7.5449 C   0  0  0  0  0  0
   16.5886   67.9214    6.7338 C   0  0  0  0  0  0
   16.6524   67.6248    5.3677 C   0  0  0  0  0  0
   17.6304   68.2843    4.4446 C   0  0  0  0  0  0
   18.9638   68.7387    4.6690 C   0  0  0  0  0  0
   19.4807   69.2572    3.5712 N   0  0  0  0  0  0
   18.5307   69.1772    2.6441 N   0  0  0  0  0  0
   17.3940   68.5859    3.1083 C   0  0  0  0  0  0
   19.8074   68.7035    5.9124 C   0  0  0  0  0  0
   20.7607   69.6971    6.1802 C   0  0  0  0  0  0
   21.4707   69.6524    7.3814 C   0  0  0  0  0  0
   21.2151   68.6235    8.2895 C   0  0  0  0  0  0
   20.2675   67.6568    7.9498 C   0  0  0  0  0  0
   19.5855   67.6761    6.7772 N   0  0  0  0  0  0
   13.8649   65.0360    5.1919 C   0  0  0  0  0  0
   12.5199   65.0000    5.6332 C   0  0  0  0  0  0
   11.6110   64.1122    5.0504 C   0  0  0  0  0  0
   12.0149   63.2570    4.0323 C   0  0  0  0  0  0
   13.3368   63.2578    3.6061 C   0  0  0  0  0  0
   14.2475   64.1451    4.1750 C   0  0  0  0  0  0
   11.9846   65.9493    6.6950 C   0  0  0  0  0  0
   15.7523   66.4530    3.8008 H   0  0  0  0  0  0
   15.6631   67.3949    8.6072 H   0  0  0  0  0  0
   17.2224   68.6800    7.1677 H   0  0  0  0  0  0
   18.6706   69.5224    1.7045 H   0  0  0  0  0  0
   16.5336   68.4466    2.4693 H   0  0  0  0  0  0
   20.9431   70.4932    5.4757 H   0  0  0  0  0  0
   22.2075   70.4118    7.6058 H   0  0  0  0  0  0
   21.7464   68.5744    9.2286 H   0  0  0  0  0  0
   20.0460   66.8397    8.6210 H   0  0  0  0  0  0
   10.5799   64.0959    5.3740 H   0  0  0  0  0  0
   11.3048   62.5875    3.5717 H   0  0  0  0  0  0
   13.6495   62.5900    2.8169 H   0  0  0  0  0  0
   15.2652   64.1355    3.8127 H   0  0  0  0  0  0
   12.2648   65.6158    7.6919 H   0  0  0  0  0  0
   12.3937   66.9442    6.5497 H   0  0  0  0  0  0
   10.9038   66.0559    6.6400 H   0  0  0  0  0  0
  1  6  1  0  0  0
  1  2  2  0  0  0
  1 25  1  0  0  0
  2  3  1  0  0  0
  2 18  1  0  0  0
  3  4  2  0  0  0
  4  5  1  0  0  0
  4 26  1  0  0  0
  5  6  2  0  0  0
  5 27  1  0  0  0
  6  7  1  0  0  0
  7  8  1  0  0  0
  7 11  2  0  0  0
  8 12  1  0  0  0
  8  9  2  0  0  0
  9 10  1  0  0  0
 10 11  1  0  0  0
 10 28  1  0  0  0
 11 29  1  0  0  0
 12 13  2  0  0  0
 12 17  1  0  0  0
 13 14  1  0  0  0
 13 30  1  0  0  0
 14 15  2  0  0  0
 14 31  1  0  0  0
 15 16  1  0  0  0
 15 32  1  0  0  0
 16 17  2  0  0  0
 16 33  1  0  0  0
 18 19  2  0  0  0
 18 23  1  0  0  0
 19 20  1  0  0  0
 19 24  1  0  0  0
 20 21  2  0  0  0
 20 34  1  0  0  0
 21 22  1  0  0  0
 21 35  1  0  0  0
 22 23  2  0  0  0
 22 36  1  0  0  0
 23 37  1  0  0  0
 24 38  1  0  0  0
 24 39  1  0  0  0
 24 40  1  0  0  0
M  END
> <s_m_entry_id>
34611

> <s_m_entry_name>
dock_pv.354

> <s_m_Source_Path>
/home/csk/Desktop/cluster/DUD-E-result/tgfr1

> <s_m_Source_File>
dock_pv.maegz

> <i_m_Source_File_Index>
354

> <chembl_id>
CHEMBL383433

> <chembl_pref_name>
None

> <i_lp_mmshare_version>
53161

> <r_lp_tautomer_probability>
0.5

> <s_lp_Force_Field>
OPLS_2005

> <r_lp_Energy>
23.570221

> <b_lp_Chiralities_Consistent>
1

> <s_lp_Variant>
CHEMBL4439_lig132-1

> <s_i_glide_gridfile>
glide-grid_3hmm

> <i_i_glide_lignum>
200

> <i_i_glide_rotatable_bonds>
3

> <r_i_docking_score>
-7.72922933435812

> <r_i_glide_ligand_efficiency>
-0.322051222264922

> <r_i_glide_ligand_efficiency_sa>
-0.928956472873027

> <r_i_glide_ligand_efficiency_ln>
-1.84995925093537

> <r_i_glide_gscore>
-7.72922933435812

> <r_i_glide_lipo>
-4.36415100939382

> <r_i_glide_hbond>
0

> <r_i_glide_metal>
0

> <r_i_glide_rewards>
-1.58704075411858

> <r_i_glide_evdw>
-48.384033203125

> <r_i_glide_ecoul>
0.470388114452362

> <r_i_glide_erotb>
0.570605872142673

> <r_i_glide_esite>
0

> <r_i_glide_emodel>
-70.2077868643798

> <r_i_glide_energy>
-47.9136450886726

> <r_i_glide_einternal>
0.876946687698364

> <i_i_glide_confnum>
26

> <i_i_glide_posenum>
82

> <r_i_glide_eff_state_penalty>
0

> <s_user_duplicate_titles>
CHEMBL4439_lig132,CHEMBL4439_lig132

> <i_f3d_flags>
0

> <s_m_subgroup_title>
dock_pv

> <s_m_subgroupid>
dock_pv

> <b_m_subgroup_collapsed>
1

$$$$
CHEMBL4439_lig31
                    3D
 Schrodinger Suite 2021-1.
 35 38  0  0  1  0            999 V2000
   20.5145   69.1657    3.9107 C   0  0  0  0  0  0
   19.0590   68.7421    3.9849 C   0  0  0  0  0  0
   18.2668   68.6513    2.8381 C   0  0  0  0  0  0
   16.9409   68.2438    2.9792 C   0  0  0  0  0  0
   16.4429   67.9501    4.2502 C   0  0  0  0  0  0
   17.2906   68.0572    5.3605 C   0  0  0  0  0  0
   18.5884   68.4571    5.2262 N   0  0  0  0  0  0
   16.8185   67.8527    6.7726 C   0  0  0  0  0  0
   17.4955   68.3857    7.8463 N   0  0  0  0  0  0
   16.9302   68.1731    9.0323 N   0  0  0  0  0  0
   15.8679   67.4710    8.7421 C   0  0  0  0  0  0
   15.7186   67.2090    7.3680 C   0  0  0  0  0  0
   14.6077   66.4048    6.7763 C   0  0  0  0  0  0
   13.3168   66.4568    7.3079 C   0  0  0  0  0  0
   12.3099   65.6680    6.7464 C   0  0  0  0  0  0
   12.6160   64.8512    5.6346 C   0  0  0  0  0  0
   11.6474   64.0679    5.0851 N   0  0  0  0  0  0
   11.9886   63.2907    4.0277 C   0  0  0  0  0  0
   13.2659   63.2569    3.4744 C   0  0  0  0  0  0
   14.2658   64.0568    4.0300 C   0  0  0  0  0  0
   13.9581   64.8655    5.1459 C   0  0  0  0  0  0
   14.9360   65.6165    5.7213 N   0  0  0  0  0  0
   20.7765   69.5447    2.9220 H   0  0  0  0  0  0
   21.1639   68.3177    4.1317 H   0  0  0  0  0  0
   20.7225   69.9523    4.6358 H   0  0  0  0  0  0
   18.6676   68.8924    1.8642 H   0  0  0  0  0  0
   16.2966   68.1694    2.1148 H   0  0  0  0  0  0
   15.4041   67.6866    4.3584 H   0  0  0  0  0  0
   18.3469   68.9199    7.7564 H   0  0  0  0  0  0
   15.2103   67.1262    9.5251 H   0  0  0  0  0  0
   13.0925   67.0971    8.1487 H   0  0  0  0  0  0
   11.3049   65.6736    7.1471 H   0  0  0  0  0  0
   11.1953   62.6994    3.5972 H   0  0  0  0  0  0
   13.4690   62.6371    2.6139 H   0  0  0  0  0  0
   15.2677   64.0553    3.6267 H   0  0  0  0  0  0
  1  2  1  0  0  0
  1 23  1  0  0  0
  1 24  1  0  0  0
  1 25  1  0  0  0
  2  3  2  0  0  0
  2  7  1  0  0  0
  3  4  1  0  0  0
  3 26  1  0  0  0
  4  5  2  0  0  0
  4 27  1  0  0  0
  5  6  1  0  0  0
  5 28  1  0  0  0
  6  7  2  0  0  0
  6  8  1  0  0  0
  8  9  1  0  0  0
  8 12  2  0  0  0
  9 10  1  0  0  0
  9 29  1  0  0  0
 10 11  2  0  0  0
 11 30  1  0  0  0
 11 12  1  0  0  0
 12 13  1  0  0  0
 13 14  2  0  0  0
 13 22  1  0  0  0
 14 15  1  0  0  0
 14 31  1  0  0  0
 15 16  2  0  0  0
 15 32  1  0  0  0
 16 17  1  0  0  0
 16 21  1  0  0  0
 17 18  2  0  0  0
 18 19  1  0  0  0
 18 33  1  0  0  0
 19 20  2  0  0  0
 19 34  1  0  0  0
 20 21  1  0  0  0
 20 35  1  0  0  0
 21 22  2  0  0  0
M  END
> <s_m_entry_id>
34612

> <s_m_entry_name>
dock_pv.355

> <s_m_Source_Path>
/home/csk/Desktop/cluster/DUD-E-result/tgfr1

> <s_m_Source_File>
dock_pv.maegz

> <i_m_Source_File_Index>
355

> <chembl_id>
CHEMBL185238

> <chembl_pref_name>
GW786460X

> <i_lp_mmshare_version>
53161

> <r_lp_tautomer_probability>
0.5

> <s_lp_Force_Field>
OPLS_2005

> <r_lp_Energy>
18.911161

> <b_lp_Chiralities_Consistent>
1

> <s_lp_Variant>
CHEMBL4439_lig31-2

> <s_i_glide_gridfile>
glide-grid_3hmm

> <i_i_glide_lignum>
40

> <i_i_glide_rotatable_bonds>
2

> <r_i_docking_score>
-7.72805601820436

> <r_i_glide_ligand_efficiency>
-0.351275273554744

> <r_i_glide_ligand_efficiency_sa>
-0.984287131372964

> <r_i_glide_ligand_efficiency_ln>
-1.8890187785415

> <r_i_glide_gscore>
-7.72805601820436

> <r_i_glide_lipo>
-4.10784975422262

> <r_i_glide_hbond>
0

> <r_i_glide_metal>
0

> <r_i_glide_rewards>
-1.78123962002328

> <r_i_glide_evdw>
-45.6974563598633

> <r_i_glide_ecoul>
0.0372714400291443

> <r_i_glide_erotb>
0.440315458030332

> <r_i_glide_esite>
0

> <r_i_glide_emodel>
-65.8956857466386

> <r_i_glide_energy>
-45.6601849198341

> <r_i_glide_einternal>
2.20579624176025

> <i_i_glide_confnum>
6

> <i_i_glide_posenum>
150

> <r_i_glide_eff_state_penalty>
0

> <s_user_duplicate_titles>
CHEMBL4439_lig31,CHEMBL4439_lig31,306655

> <i_f3d_flags>
0

> <s_m_subgroup_title>
dock_pv

> <s_m_subgroupid>
dock_pv

> <b_m_subgroup_collapsed>
1

$$$$
CHEMBL4439_lig762
                    3D
 Schrodinger Suite 2021-1.
 36 39  0  0  1  0            999 V2000
   16.5170   66.3270    9.7633 C   0  0  0  0  0  0
   17.3888   67.2405    8.9235 C   0  0  0  0  0  0
   18.4049   68.0080    9.4938 C   0  0  0  0  0  0
   19.1634   68.8268    8.6585 C   0  0  0  0  0  0
   18.8902   68.8555    7.2899 C   0  0  0  0  0  0
   17.8490   68.0568    6.7736 C   0  0  0  0  0  0
   17.1164   67.2568    7.5937 N   0  0  0  0  0  0
   17.5094   68.0754    5.3815 N   0  0  0  0  0  0
   18.2721   68.8274    4.5513 N   0  0  0  0  0  0
   17.7694   68.7304    3.3479 C   0  0  0  0  0  0
   18.3888   69.4749    2.1889 C   0  0  0  0  0  0
   16.6592   67.8990    3.3644 C   0  0  0  0  0  0
   16.4839   67.4531    4.6677 C   0  0  0  0  0  0
   15.4163   66.5310    5.0804 C   0  0  0  0  0  0
   15.1004   65.3520    4.4301 C   0  0  0  0  0  0
   13.8682   64.7855    4.8422 C   0  0  0  0  0  0
   13.1740   63.6573    4.3764 C   0  0  0  0  0  0
   11.9754   63.2771    4.8772 N   0  0  0  0  0  0
   11.4313   64.0095    5.8767 C   0  0  0  0  0  0
   12.0244   65.1426    6.4311 C   0  0  0  0  0  0
   13.2666   65.5241    5.8984 C   0  0  0  0  0  0
   14.2670   66.8908    6.3554 S   0  0  0  0  0  0
   16.6898   66.4767   10.8304 H   0  0  0  0  0  0
   15.4620   66.5217    9.5665 H   0  0  0  0  0  0
   16.7284   65.2839    9.5253 H   0  0  0  0  0  0
   18.6029   67.9798   10.5551 H   0  0  0  0  0  0
   19.9512   69.4415    9.0702 H   0  0  0  0  0  0
   19.4811   69.5000    6.6554 H   0  0  0  0  0  0
   17.9436   69.1866    1.2370 H   0  0  0  0  0  0
   18.2572   70.5524    2.2859 H   0  0  0  0  0  0
   19.4599   69.2862    2.1087 H   0  0  0  0  0  0
   16.0389   67.6571    2.5145 H   0  0  0  0  0  0
   15.6951   64.9403    3.6322 H   0  0  0  0  0  0
   13.5648   63.0595    3.5667 H   0  0  0  0  0  0
   10.4784   63.6613    6.2480 H   0  0  0  0  0  0
   11.5421   65.6903    7.2296 H   0  0  0  0  0  0
  1  2  1  0  0  0
  1 23  1  0  0  0
  1 24  1  0  0  0
  1 25  1  0  0  0
  2  3  2  0  0  0
  2  7  1  0  0  0
  3  4  1  0  0  0
  3 26  1  0  0  0
  4  5  2  0  0  0
  4 27  1  0  0  0
  5  6  1  0  0  0
  5 28  1  0  0  0
  6  7  2  0  0  0
  6  8  1  0  0  0
  8  9  1  0  0  0
  8 13  1  0  0  0
  9 10  2  0  0  0
 10 11  1  0  0  0
 10 12  1  0  0  0
 11 29  1  0  0  0
 11 30  1  0  0  0
 11 31  1  0  0  0
 12 13  2  0  0  0
 12 32  1  0  0  0
 13 14  1  0  0  0
 14 15  2  0  0  0
 14 22  1  0  0  0
 15 16  1  0  0  0
 15 33  1  0  0  0
 16 17  2  0  0  0
 16 21  1  0  0  0
 17 18  1  0  0  0
 17 34  1  0  0  0
 18 19  2  0  0  0
 19 20  1  0  0  0
 19 35  1  0  0  0
 20 21  2  0  0  0
 20 36  1  0  0  0
 21 22  1  0  0  0
M  END
> <s_m_entry_id>
34613

> <s_m_entry_name>
dock_pv.356

> <s_m_Source_Path>
/home/csk/Desktop/cluster/DUD-E-result/tgfr1

> <s_m_Source_File>
dock_pv.maegz

> <i_m_Source_File_Index>
356

> <chembl_id>
CHEMBL3704649

> <chembl_pref_name>
None

> <i_lp_mmshare_version>
53161

> <r_lp_tautomer_probability>
1

> <s_lp_Force_Field>
OPLS_2005

> <r_lp_Energy>
11.272204

> <b_lp_Chiralities_Consistent>
1

> <s_lp_Variant>
CHEMBL4439_lig762-1

> <s_i_glide_gridfile>
glide-grid_3hmm

> <i_i_glide_lignum>
1076

> <i_i_glide_rotatable_bonds>
2

> <r_i_docking_score>
-7.72667683929662

> <r_i_glide_ligand_efficiency>
-0.351212583604392

> <r_i_glide_ligand_efficiency_sa>
-0.984111471666623

> <r_i_glide_ligand_efficiency_ln>
-1.88868165690968

> <r_i_glide_gscore>
-7.72667683929662

> <r_i_glide_lipo>
-3.77982916519809

> <r_i_glide_hbond>
0

> <r_i_glide_metal>
0

> <r_i_glide_rewards>
-2.1186933436674

> <r_i_glide_evdw>
-44.0096969604492

> <r_i_glide_ecoul>
-0.141395896673203

> <r_i_glide_erotb>
0.393539902092311

> <r_i_glide_esite>
0

> <r_i_glide_emodel>
-63.7542063203874

> <r_i_glide_energy>
-44.1510928571224

> <r_i_glide_einternal>
1.12191522121429

> <i_i_glide_confnum>
4

> <i_i_glide_posenum>
76

> <r_i_glide_eff_state_penalty>
0

> <s_user_duplicate_titles>
CHEMBL4439_lig762

> <i_f3d_flags>
0

> <s_m_subgroup_title>
dock_pv

> <s_m_subgroupid>
dock_pv

> <b_m_subgroup_collapsed>
1

$$$$
CHEMBL4439_lig47
                    3D
 Schrodinger Suite 2021-1.
 28 30  0  0  1  0            999 V2000
   14.4446   66.3459    6.3774 C   0  0  0  0  0  0
   15.4796   67.3017    6.1569 C   0  0  0  0  0  0
   13.9580   66.4572    7.6005 N   0  0  0  0  0  0
   14.6691   67.4128    8.1909 N   0  0  0  0  0  0
   15.6075   67.9569    7.3726 C   0  0  0  0  0  0
   16.2667   67.6476    4.9375 C   0  0  0  0  0  0
   13.8845   65.2877    5.4641 C   0  0  0  0  0  0
   14.7133   64.8342    4.4833 N   0  0  0  0  0  0
   17.6004   68.0571    5.0521 C   0  0  0  0  0  0
   15.6445   67.6625    3.6881 C   0  0  0  0  0  0
   17.6567   68.5483    2.6968 C   0  0  0  0  0  0
   18.3010   68.4913    3.9289 C   0  0  0  0  0  0
   16.3293   68.1494    2.5807 C   0  0  0  0  0  0
   18.3162   68.9988    1.6052 F   0  0  0  0  0  0
   14.2660   63.8576    3.6528 C   0  0  0  0  0  0
   12.5914   64.7671    5.6310 C   0  0  0  0  0  0
   13.0060   63.2720    3.7818 C   0  0  0  0  0  0
   12.1577   63.7426    4.7854 C   0  0  0  0  0  0
   14.4932   67.7040    9.1425 H   0  0  0  0  0  0
   16.2435   68.7644    7.7078 H   0  0  0  0  0  0
   18.0957   68.0487    6.0123 H   0  0  0  0  0  0
   14.6092   67.3756    3.5826 H   0  0  0  0  0  0
   19.3312   68.8040    4.0167 H   0  0  0  0  0  0
   15.8222   68.2240    1.6322 H   0  0  0  0  0  0
   14.9432   63.5388    2.8746 H   0  0  0  0  0  0
   11.9356   65.1350    6.4073 H   0  0  0  0  0  0
   12.6879   62.4906    3.1064 H   0  0  0  0  0  0
   11.1694   63.3231    4.9029 H   0  0  0  0  0  0
  1  2  1  0  0  0
  1  3  2  0  0  0
  1  7  1  0  0  0
  2  5  2  0  0  0
  2  6  1  0  0  0
  3  4  1  0  0  0
  4  5  1  0  0  0
  4 19  1  0  0  0
  5 20  1  0  0  0
  6  9  2  0  0  0
  6 10  1  0  0  0
  7  8  1  0  0  0
  7 16  2  0  0  0
  8 15  2  0  0  0
  9 12  1  0  0  0
  9 21  1  0  0  0
 10 13  2  0  0  0
 10 22  1  0  0  0
 11 13  1  0  0  0
 11 14  1  0  0  0
 11 12  2  0  0  0
 12 23  1  0  0  0
 13 24  1  0  0  0
 15 17  1  0  0  0
 15 25  1  0  0  0
 16 18  1  0  0  0
 16 26  1  0  0  0
 17 18  2  0  0  0
 17 27  1  0  0  0
 18 28  1  0  0  0
M  END
> <s_m_entry_id>
34614

> <s_m_entry_name>
dock_pv.357

> <s_m_Source_Path>
/home/csk/Desktop/cluster/DUD-E-result/tgfr1

> <s_m_Source_File>
dock_pv.maegz

> <i_m_Source_File_Index>
357

> <chembl_id>
CHEMBL337978

> <chembl_pref_name>
None

> <i_lp_mmshare_version>
53161

> <r_lp_tautomer_probability>
0.5

> <s_lp_Force_Field>
OPLS_2005

> <r_lp_Energy>
16.642427

> <b_lp_Chiralities_Consistent>
1

> <s_lp_Variant>
CHEMBL4439_lig47-1

> <s_i_glide_gridfile>
glide-grid_3hmm

> <i_i_glide_lignum>
65

> <i_i_glide_rotatable_bonds>
2

> <r_i_docking_score>
-7.72517312593664

> <r_i_glide_ligand_efficiency>
-0.429176284774258

> <r_i_glide_ligand_efficiency_sa>
-1.12476005383703

> <r_i_glide_ligand_efficiency_ln>
-1.98571591783153

> <r_i_glide_gscore>
-7.72517312593664

> <r_i_glide_lipo>
-3.81296353881456

> <r_i_glide_hbond>
-0.0476881580857479

> <r_i_glide_metal>
0

> <r_i_glide_rewards>
-2.58021287931396

> <r_i_glide_evdw>
-36.0690460205078

> <r_i_glide_ecoul>
-0.56380295753479

> <r_i_glide_erotb>
0.603714194933236

> <r_i_glide_esite>
0

> <r_i_glide_emodel>
-53.6805218139281

> <r_i_glide_energy>
-36.6328489780426

> <r_i_glide_einternal>
1.97059094905853

> <i_i_glide_confnum>
9

> <i_i_glide_posenum>
281

> <r_i_glide_eff_state_penalty>
0

> <s_user_duplicate_titles>
CHEMBL4439_lig47,CHEMBL4439_lig47,211425

> <i_f3d_flags>
0

> <s_m_subgroup_title>
dock_pv

> <s_m_subgroupid>
dock_pv

> <b_m_subgroup_collapsed>
1

$$$$
CHEMBL4439_lig300
                    3D
 Schrodinger Suite 2021-1.
 41 44  0  0  1  0            999 V2000
   16.2753   68.0576   10.1946 C   0  0  0  0  0  0
   15.6166   68.8210    9.2321 C   0  0  0  0  0  0
   16.1999   69.0403    8.0021 C   0  0  0  0  0  0
   17.3983   68.4228    7.6474 C   0  0  0  0  0  0
   18.1486   67.8347    8.6873 C   0  0  0  0  0  0
   17.5705   67.6205    9.9436 C   0  0  0  0  0  0
   17.7678   68.4062    6.2018 C   0  0  0  0  0  0
   17.1022   67.7857    5.1870 C   0  0  0  0  0  0
   17.7823   68.0663    4.0132 N   0  0  0  0  0  0
   18.8044   68.9434    4.3415 N   0  0  0  0  0  0
   18.8829   69.1675    5.6661 C   0  0  0  0  0  0
   19.6891   69.8848    6.2614 O   0  0  0  0  0  0
   15.9094   66.8772    5.1946 C   0  0  0  0  0  0
   15.8669   65.7952    4.3095 C   0  0  0  0  0  0
   14.8033   64.8934    4.2583 C   0  0  0  0  0  0
   14.8101   67.0581    6.0326 C   0  0  0  0  0  0
   13.7180   66.1814    6.0177 C   0  0  0  0  0  0
   13.6991   65.0804    5.1113 C   0  0  0  0  0  0
   12.6146   64.2548    5.0401 N   0  0  0  0  0  0
   11.5547   64.5657    5.8303 C   0  0  0  0  0  0
   11.5870   65.6570    6.6995 C   0  0  0  0  0  0
   12.6672   66.4514    6.8320 N   0  0  0  0  0  0
   19.5498   67.5038    8.5389 C   0  0  0  0  0  0
   20.6669   67.2567    8.4322 N   0  0  0  0  0  0
   19.6609   69.5735    3.3375 C   0  0  0  0  0  0
   17.0436   68.4756    2.8135 C   0  0  0  0  0  0
   15.8225   67.8892   11.1618 H   0  0  0  0  0  0
   14.6495   69.2564    9.4216 H   0  0  0  0  0  0
   15.6498   69.6247    7.2789 H   0  0  0  0  0  0
   18.1215   67.1325   10.7369 H   0  0  0  0  0  0
   16.6937   65.6532    3.6320 H   0  0  0  0  0  0
   14.7990   64.0747    3.5521 H   0  0  0  0  0  0
   14.6911   67.9105    6.6569 H   0  0  0  0  0  0
   10.6790   63.9372    5.7553 H   0  0  0  0  0  0
   10.7502   65.9423    7.3155 H   0  0  0  0  0  0
   20.5317   70.0589    3.7764 H   0  0  0  0  0  0
   20.0436   68.8570    2.6286 H   0  0  0  0  0  0
   19.0670   70.2803    2.7570 H   0  0  0  0  0  0
   16.1638   67.8558    2.6435 H   0  0  0  0  0  0
   16.7066   69.5081    2.8907 H   0  0  0  0  0  0
   17.6698   68.3845    1.9254 H   0  0  0  0  0  0
  1  6  1  0  0  0
  1  2  2  0  0  0
  1 27  1  0  0  0
  2  3  1  0  0  0
  2 28  1  0  0  0
  3  4  2  0  0  0
  3 29  1  0  0  0
  4  5  1  0  0  0
  4  7  1  0  0  0
  5 23  1  0  0  0
  5  6  2  0  0  0
  6 30  1  0  0  0
  7  8  2  0  0  0
  7 11  1  0  0  0
  8 13  1  0  0  0
  8  9  1  0  0  0
  9 10  1  0  0  0
  9 26  1  0  0  0
 10 11  1  0  0  0
 10 25  1  0  0  0
 11 12  2  0  0  0
 13 14  2  0  0  0
 13 16  1  0  0  0
 14 15  1  0  0  0
 14 31  1  0  0  0
 15 18  2  0  0  0
 15 32  1  0  0  0
 16 17  2  0  0  0
 16 33  1  0  0  0
 17 18  1  0  0  0
 17 22  1  0  0  0
 18 19  1  0  0  0
 19 20  2  0  0  0
 20 21  1  0  0  0
 20 34  1  0  0  0
 21 22  2  0  0  0
 21 35  1  0  0  0
 23 24  3  0  0  0
 25 36  1  0  0  0
 25 37  1  0  0  0
 25 38  1  0  0  0
 26 39  1  0  0  0
 26 40  1  0  0  0
 26 41  1  0  0  0
M  END
> <s_m_entry_id>
34615

> <s_m_entry_name>
dock_pv.358

> <s_m_Source_Path>
/home/csk/Desktop/cluster/DUD-E-result/tgfr1

> <s_m_Source_File>
dock_pv.maegz

> <i_m_Source_File_Index>
358

> <chembl_id>
CHEMBL603853

> <chembl_pref_name>
None

> <i_lp_mmshare_version>
53161

> <r_lp_tautomer_probability>
1

> <s_lp_Force_Field>
OPLS_2005

> <r_lp_Energy>
45.130117

> <b_lp_Chiralities_Consistent>
1

> <s_lp_Variant>
CHEMBL4439_lig300-1

> <s_i_glide_gridfile>
glide-grid_3hmm

> <i_i_glide_lignum>
432

> <i_i_glide_rotatable_bonds>
2

> <r_i_docking_score>
-7.72169831336929

> <r_i_glide_ligand_efficiency>
-0.29698839666805

> <r_i_glide_ligand_efficiency_sa>
-0.879826956536186

> <r_i_glide_ligand_efficiency_ln>
-1.81341551193604

> <r_i_glide_gscore>
-7.72169831336929

> <r_i_glide_lipo>
-4.02274812886886

> <r_i_glide_hbond>
0

> <r_i_glide_metal>
0

> <r_i_glide_rewards>
-2.1942662770803

> <r_i_glide_evdw>
-33.2080078125

> <r_i_glide_ecoul>
-1.13002192974091

> <r_i_glide_erotb>
0.325219772666

> <r_i_glide_esite>
0

> <r_i_glide_emodel>
-51.4779724529839

> <r_i_glide_energy>
-34.3380297422409

> <r_i_glide_einternal>
2.69990348815918

> <i_i_glide_confnum>
4

> <i_i_glide_posenum>
65

> <r_i_glide_eff_state_penalty>
0

> <s_user_duplicate_titles>
CHEMBL4439_lig300

> <i_f3d_flags>
0

> <s_m_subgroup_title>
dock_pv

> <s_m_subgroupid>
dock_pv

> <b_m_subgroup_collapsed>
1

$$$$
CHEMBL4439_lig29
                    3D
 Schrodinger Suite 2021-1.
 38 41  0  0  1  0            999 V2000
   17.7814   67.6585    7.5429 C   0  0  0  0  0  0
   16.5353   67.0606    7.4252 C   0  0  0  0  0  0
   15.8376   67.0376    6.2092 C   0  0  0  0  0  0
   16.4302   67.6517    5.0703 C   0  0  0  0  0  0
   18.3795   68.2084    6.4247 C   0  0  0  0  0  0
   17.7419   68.2004    5.1728 C   0  0  0  0  0  0
   18.5190   68.7902    3.9803 C   0  0  0  0  0  0
   19.7475   69.3898    4.2828 N   0  0  0  0  0  0
   20.2497   69.3609    5.4517 C   0  0  0  0  0  0
   19.6426   68.7911    6.5456 N   0  0  0  0  0  0
   18.0883   68.7043    2.8333 O   0  0  0  0  0  0
   14.4795   66.3821    6.2211 C   0  0  0  0  0  0
   11.8670   65.2548    6.3761 N   0  0  0  0  0  0
   12.2888   66.2021    7.2321 C   0  0  0  0  0  0
   13.5548   66.7783    7.1933 C   0  0  0  0  0  0
   12.7366   64.8122    5.4432 C   0  0  0  0  0  0
   14.0705   65.3260    5.3332 C   0  0  0  0  0  0
   14.9158   64.7416    4.3621 C   0  0  0  0  0  0
   14.4534   63.7188    3.5458 C   0  0  0  0  0  0
   13.1512   63.2543    3.6350 C   0  0  0  0  0  0
   12.2884   63.7843    4.5831 C   0  0  0  0  0  0
   15.6273   67.7576    3.7670 C   0  0  0  0  0  0
   21.6012   69.9986    5.6805 C   0  0  0  0  0  0
   18.2825   67.6723    8.4989 H   0  0  0  0  0  0
   16.0975   66.6139    8.3068 H   0  0  0  0  0  0
   20.1028   68.8036    7.4418 H   0  0  0  0  0  0
   11.5707   66.4579    7.9932 H   0  0  0  0  0  0
   13.8149   67.5445    7.9112 H   0  0  0  0  0  0
   15.9286   65.0905    4.2571 H   0  0  0  0  0  0
   15.1217   63.2727    2.8320 H   0  0  0  0  0  0
   12.8148   62.4594    2.9802 H   0  0  0  0  0  0
   11.2783   63.4099    4.6740 H   0  0  0  0  0  0
   14.5649   67.5534    3.8865 H   0  0  0  0  0  0
   15.6862   68.7628    3.3498 H   0  0  0  0  0  0
   16.0383   67.0860    3.0166 H   0  0  0  0  0  0
   22.0026   70.4473    4.7728 H   0  0  0  0  0  0
   21.5475   70.7815    6.4353 H   0  0  0  0  0  0
   22.3271   69.2580    6.0189 H   0  0  0  0  0  0
  1  2  2  0  0  0
  1 24  1  0  0  0
  1  5  1  0  0  0
  2  3  1  0  0  0
  2 25  1  0  0  0
  3  4  2  0  0  0
  3 12  1  0  0  0
  4  6  1  0  0  0
  4 22  1  0  0  0
  5  6  2  0  0  0
  5 10  1  0  0  0
  6  7  1  0  0  0
  7 11  2  0  0  0
  7  8  1  0  0  0
  8  9  2  0  0  0
  9 10  1  0  0  0
  9 23  1  0  0  0
 10 26  1  0  0  0
 12 17  2  0  0  0
 12 15  1  0  0  0
 13 16  2  0  0  0
 13 14  1  0  0  0
 14 15  2  0  0  0
 14 27  1  0  0  0
 15 28  1  0  0  0
 16 17  1  0  0  0
 16 21  1  0  0  0
 17 18  1  0  0  0
 18 19  2  0  0  0
 18 29  1  0  0  0
 19 20  1  0  0  0
 19 30  1  0  0  0
 20 21  2  0  0  0
 20 31  1  0  0  0
 21 32  1  0  0  0
 22 33  1  0  0  0
 22 34  1  0  0  0
 22 35  1  0  0  0
 23 36  1  0  0  0
 23 37  1  0  0  0
 23 38  1  0  0  0
M  END
> <s_m_entry_id>
34617

> <s_m_entry_name>
dock_pv.360

> <s_m_Source_Path>
/home/csk/Desktop/cluster/DUD-E-result/tgfr1

> <s_m_Source_File>
dock_pv.maegz

> <i_m_Source_File_Index>
360

> <chembl_id>
CHEMBL4247751

> <chembl_pref_name>
None

> <i_lp_mmshare_version>
53161

> <r_lp_tautomer_probability>
0.116051

> <s_lp_Force_Field>
OPLS_2005

> <r_lp_Energy>
27.045213

> <b_lp_Chiralities_Consistent>
1

> <s_lp_Variant>
CHEMBL4439_lig29-2

> <s_i_glide_gridfile>
glide-grid_3hmm

> <i_i_glide_lignum>
36

> <i_i_glide_rotatable_bonds>
1

> <r_i_docking_score>
-7.69641569699634

> <r_i_glide_ligand_efficiency>
-0.334626769434624

> <r_i_glide_ligand_efficiency_sa>
-0.951634019174915

> <r_i_glide_ligand_efficiency_ln>
-1.86106310277287

> <r_i_glide_gscore>
-7.69641569699634

> <r_i_glide_lipo>
-3.83558576598815

> <r_i_glide_hbond>
0

> <r_i_glide_metal>
0

> <r_i_glide_rewards>
-2.00502843040715

> <r_i_glide_evdw>
-42.5458374023438

> <r_i_glide_ecoul>
0.459416478872299

> <r_i_glide_erotb>
0.202577897685302

> <r_i_glide_esite>
0

> <r_i_glide_emodel>
-61.0193052381801

> <r_i_glide_energy>
-42.0864209234715

> <r_i_glide_einternal>
1.73428070545197

> <i_i_glide_confnum>
3

> <i_i_glide_posenum>
270

> <r_i_glide_eff_state_penalty>
0

> <s_user_duplicate_titles>
CHEMBL4439_lig29,CHEMBL4439_lig29

> <i_f3d_flags>
0

> <s_m_subgroup_title>
dock_pv

> <s_m_subgroupid>
dock_pv

> <b_m_subgroup_collapsed>
1

$$$$
CHEMBL4439_lig663
                    3D
 Schrodinger Suite 2021-1.
 47 51  0  0  1  0            999 V2000
   17.7864   67.6570    7.5828 C   0  0  0  0  0  0
   16.5326   67.2230    7.1257 C   0  0  0  0  0  0
   15.5837   66.7992    8.0651 C   0  0  0  0  0  0
   15.8669   66.7698    9.4381 C   0  0  0  0  0  0
   18.0540   67.6145    8.9218 N   0  0  0  0  0  0
   17.1343   67.1831    9.8752 C   0  0  0  0  0  0
   17.7121   67.2592   11.0970 N   0  0  0  0  0  0
   18.9185   67.7090   10.7978 C   0  0  0  0  0  0
   19.2079   67.9448    9.5315 N   0  0  0  0  0  0
   16.2398   67.2263    5.6547 C   0  0  0  0  0  0
   15.3776   66.4199    4.8786 C   0  0  0  0  0  0
   15.5353   66.9192    3.6320 N   0  0  0  0  0  0
   16.5260   67.8328    3.6399 C   0  0  0  0  0  0
   16.9265   68.0568    4.8642 N   0  0  0  0  0  0
   14.4199   65.2936    4.9813 C   0  0  0  0  0  0
   14.5242   64.2164    4.0838 C   0  0  0  0  0  0
   13.4658   63.3139    3.9873 C   0  0  0  0  0  0
   12.3311   63.5168    4.7671 C   0  0  0  0  0  0
   12.3098   64.6127    5.6321 C   0  0  0  0  0  0
   13.3407   65.4831    5.7743 N   0  0  0  0  0  0
   11.0670   64.9363    6.4049 C   0  0  0  0  0  0
   17.0794   68.3595    2.3343 C   0  0  0  0  0  0
   17.8760   69.9642    2.4321 S   0  0  0  0  0  0
   19.5020   69.6570    3.0478 C   0  0  0  0  0  0
   20.5692   69.6570    2.1486 C   0  0  0  0  0  0
   21.8756   69.6570    2.6294 C   0  0  0  0  0  0
   22.1042   69.6569    4.0042 C   0  0  0  0  0  0
   21.0411   69.6262    4.9045 C   0  0  0  0  0  0
   19.7340   69.6354    4.4254 C   0  0  0  0  0  0
   18.5869   67.9963    6.9418 H   0  0  0  0  0  0
   14.6041   66.4988    7.7291 H   0  0  0  0  0  0
   15.1274   66.4568   10.1590 H   0  0  0  0  0  0
   19.6568   67.8704   11.5708 H   0  0  0  0  0  0
   15.0592   66.5770    2.8099 H   0  0  0  0  0  0
   15.3852   64.1022    3.4414 H   0  0  0  0  0  0
   13.5077   62.4907    3.2889 H   0  0  0  0  0  0
   11.4804   62.8572    4.6785 H   0  0  0  0  0  0
   10.6660   64.0193    6.8320 H   0  0  0  0  0  0
   11.2433   65.6554    7.2073 H   0  0  0  0  0  0
   10.3354   65.3546    5.7109 H   0  0  0  0  0  0
   16.2825   68.4600    1.5968 H   0  0  0  0  0  0
   17.7963   67.6550    1.9113 H   0  0  0  0  0  0
   20.3874   69.7132    1.0849 H   0  0  0  0  0  0
   22.7085   69.6803    1.9420 H   0  0  0  0  0  0
   23.1178   69.6634    4.3795 H   0  0  0  0  0  0
   21.2346   69.6228    5.9674 H   0  0  0  0  0  0
   18.9138   69.6912    5.1236 H   0  0  0  0  0  0
  1  5  1  0  0  0
  1  2  2  0  0  0
  1 30  1  0  0  0
  2  3  1  0  0  0
  2 10  1  0  0  0
  3  4  2  0  0  0
  3 31  1  0  0  0
  4  6  1  0  0  0
  4 32  1  0  0  0
  5  6  1  0  0  0
  5  9  1  0  0  0
  6  7  2  0  0  0
  7  8  1  0  0  0
  8  9  2  0  0  0
  8 33  1  0  0  0
 10 11  2  0  0  0
 10 14  1  0  0  0
 11 12  1  0  0  0
 11 15  1  0  0  0
 12 13  1  0  0  0
 12 34  1  0  0  0
 13 14  2  0  0  0
 13 22  1  0  0  0
 15 16  2  0  0  0
 15 20  1  0  0  0
 16 17  1  0  0  0
 16 35  1  0  0  0
 17 18  2  0  0  0
 17 36  1  0  0  0
 18 19  1  0  0  0
 18 37  1  0  0  0
 19 20  2  0  0  0
 19 21  1  0  0  0
 21 38  1  0  0  0
 21 39  1  0  0  0
 21 40  1  0  0  0
 22 23  1  0  0  0
 22 41  1  0  0  0
 22 42  1  0  0  0
 23 24  1  0  0  0
 24 25  2  0  0  0
 24 29  1  0  0  0
 25 26  1  0  0  0
 25 43  1  0  0  0
 26 27  2  0  0  0
 26 44  1  0  0  0
 27 28  1  0  0  0
 27 45  1  0  0  0
 28 29  2  0  0  0
 28 46  1  0  0  0
 29 47  1  0  0  0
M  END
> <s_m_entry_id>
34618

> <s_m_entry_name>
dock_pv.361

> <s_m_Source_Path>
/home/csk/Desktop/cluster/DUD-E-result/tgfr1

> <s_m_Source_File>
dock_pv.maegz

> <i_m_Source_File_Index>
361

> <chembl_id>
CHEMBL3260565

> <chembl_pref_name>
None

> <i_lp_mmshare_version>
53161

> <r_lp_tautomer_probability>
0.499999999999999

> <s_lp_Force_Field>
OPLS_2005

> <r_lp_Energy>
13.872042

> <b_lp_Chiralities_Consistent>
1

> <s_lp_Variant>
CHEMBL4439_lig663-1

> <s_i_glide_gridfile>
glide-grid_3hmm

> <i_i_glide_lignum>
914

> <i_i_glide_rotatable_bonds>
5

> <r_i_docking_score>
-7.69637506541629

> <r_i_glide_ligand_efficiency>
-0.265392243635045

> <r_i_glide_ligand_efficiency_sa>
-0.815369054611269

> <r_i_glide_ligand_efficiency_ln>
-1.76227472674782

> <r_i_glide_gscore>
-7.69637506541629

> <r_i_glide_lipo>
-3.64427010236709

> <r_i_glide_hbond>
0

> <r_i_glide_metal>
0

> <r_i_glide_rewards>
-2.03702774168517

> <r_i_glide_evdw>
-50.0891418457031

> <r_i_glide_ecoul>
-0.848791480064392

> <r_i_glide_erotb>
0.616698592930783

> <r_i_glide_esite>
0

> <r_i_glide_emodel>
-62.5805343757475

> <r_i_glide_energy>
-50.9379333257675

> <r_i_glide_einternal>
8.19278049468994

> <i_i_glide_confnum>
45

> <i_i_glide_posenum>
118

> <r_i_glide_eff_state_penalty>
0

> <s_user_duplicate_titles>
CHEMBL4439_lig663,CHEMBL4439_lig663

> <i_f3d_flags>
0

> <s_m_subgroup_title>
dock_pv

> <s_m_subgroupid>
dock_pv

> <b_m_subgroup_collapsed>
1

$$$$
CHEMBL4439_lig315
                    3D
 Schrodinger Suite 2021-1.
 37 40  0  0  1  0            999 V2000
   17.1405   67.8158    6.3792 C   0  0  0  0  0  0
   16.1818   67.1352    7.0612 C   0  0  0  0  0  0
   16.4291   67.2718    8.4192 N   0  0  0  0  0  0
   17.6114   67.9792    8.5363 N   0  0  0  0  0  0
   18.0715   68.3923    7.3414 C   0  0  0  0  0  0
   19.0522   69.1120    7.1414 O   0  0  0  0  0  0
   18.1549   68.4056    9.8312 C   0  0  0  0  0  0
   16.3975   66.0975    9.2921 C   0  0  0  0  0  0
   15.0183   66.3567    6.5564 C   0  0  0  0  0  0
   13.7745   66.4573    7.1936 C   0  0  0  0  0  0
   12.6623   65.7448    6.7470 C   0  0  0  0  0  0
   15.1468   65.5087    5.4520 C   0  0  0  0  0  0
   14.0429   64.7702    4.9716 C   0  0  0  0  0  0
   12.7791   64.8898    5.6289 C   0  0  0  0  0  0
   11.6943   64.1902    5.1907 N   0  0  0  0  0  0
   11.8714   63.3821    4.1150 C   0  0  0  0  0  0
   13.1081   63.2570    3.4821 C   0  0  0  0  0  0
   14.1996   63.9496    3.8945 N   0  0  0  0  0  0
   17.2891   68.0724    4.9256 C   0  0  0  0  0  0
   16.2370   68.0569    3.9929 C   0  0  0  0  0  0
   16.5988   68.4460    2.7111 C   0  0  0  0  0  0
   18.2670   68.8569    2.6071 S   0  0  0  0  0  0
   18.4740   68.4533    4.2817 C   0  0  0  0  0  0
   18.9765   69.1168    9.7296 H   0  0  0  0  0  0
   17.3796   68.8796   10.4310 H   0  0  0  0  0  0
   18.5365   67.5515   10.3883 H   0  0  0  0  0  0
   15.4695   65.5447    9.1525 H   0  0  0  0  0  0
   17.2299   65.4224    9.0901 H   0  0  0  0  0  0
   16.4313   66.3893   10.3435 H   0  0  0  0  0  0
   13.6647   67.1191    8.0422 H   0  0  0  0  0  0
   11.7044   65.8362    7.2401 H   0  0  0  0  0  0
   16.0980   65.4094    4.9524 H   0  0  0  0  0  0
   11.0014   62.8568    3.7499 H   0  0  0  0  0  0
   13.2281   62.6230    2.6155 H   0  0  0  0  0  0
   15.2152   67.8189    4.2395 H   0  0  0  0  0  0
   15.9600   68.5339    1.8422 H   0  0  0  0  0  0
   19.4526   68.5608    4.7255 H   0  0  0  0  0  0
  1  2  2  0  0  0
  1 19  1  0  0  0
  1  5  1  0  0  0
  2  9  1  0  0  0
  2  3  1  0  0  0
  3  8  1  0  0  0
  3  4  1  0  0  0
  4  7  1  0  0  0
  4  5  1  0  0  0
  5  6  2  0  0  0
  7 24  1  0  0  0
  7 25  1  0  0  0
  7 26  1  0  0  0
  8 27  1  0  0  0
  8 28  1  0  0  0
  8 29  1  0  0  0
  9 12  1  0  0  0
  9 10  2  0  0  0
 10 11  1  0  0  0
 10 30  1  0  0  0
 11 14  2  0  0  0
 11 31  1  0  0  0
 12 13  2  0  0  0
 12 32  1  0  0  0
 13 14  1  0  0  0
 13 18  1  0  0  0
 14 15  1  0  0  0
 15 16  2  0  0  0
 16 17  1  0  0  0
 16 33  1  0  0  0
 17 18  2  0  0  0
 17 34  1  0  0  0
 19 20  1  0  0  0
 19 23  2  0  0  0
 20 21  2  0  0  0
 20 35  1  0  0  0
 21 22  1  0  0  0
 21 36  1  0  0  0
 22 23  1  0  0  0
 23 37  1  0  0  0
M  END
> <s_m_entry_id>
34621

> <s_m_entry_name>
dock_pv.364

> <s_m_Source_Path>
/home/csk/Desktop/cluster/DUD-E-result/tgfr1

> <s_m_Source_File>
dock_pv.maegz

> <i_m_Source_File_Index>
364

> <chembl_id>
CHEMBL593951

> <chembl_pref_name>
None

> <i_lp_mmshare_version>
53161

> <r_lp_tautomer_probability>
1

> <s_lp_Force_Field>
OPLS_2005

> <r_lp_Energy>
38.627768

> <b_lp_Chiralities_Consistent>
1

> <s_lp_Variant>
CHEMBL4439_lig315-1

> <s_i_glide_gridfile>
glide-grid_3hmm

> <i_i_glide_lignum>
447

> <i_i_glide_rotatable_bonds>
2

> <r_i_docking_score>
-7.65983649614896

> <r_i_glide_ligand_efficiency>
-0.333036369397781

> <r_i_glide_ligand_efficiency_sa>
-0.94711113303011

> <r_i_glide_ligand_efficiency_ln>
-1.85221792032611

> <r_i_glide_gscore>
-7.65983649614896

> <r_i_glide_lipo>
-3.82876036786294

> <r_i_glide_hbond>
0

> <r_i_glide_metal>
0

> <r_i_glide_rewards>
-1.8580442968305

> <r_i_glide_evdw>
-47.6777992248535

> <r_i_glide_ecoul>
0.340105891227722

> <r_i_glide_erotb>
0.359842246103003

> <r_i_glide_esite>
0

> <r_i_glide_emodel>
-67.8925905549404

> <r_i_glide_energy>
-47.3376933336258

> <r_i_glide_einternal>
2.14314675331116

> <i_i_glide_confnum>
10

> <i_i_glide_posenum>
262

> <r_i_glide_eff_state_penalty>
0

> <s_user_duplicate_titles>
CHEMBL4439_lig315,593945

> <i_f3d_flags>
0

> <s_m_subgroup_title>
dock_pv

> <s_m_subgroupid>
dock_pv

> <b_m_subgroup_collapsed>
1

$$$$
CHEMBL4439_lig76
                    3D
 Schrodinger Suite 2021-1.
 36 39  0  0  1  0            999 V2000
   15.9617   67.0227    7.5019 C   0  0  0  0  0  0
   17.0346   67.6515    6.8186 C   0  0  0  0  0  0
   18.0106   68.0499    7.6254 N   0  0  0  0  0  0
   14.8016   65.5104    6.0250 N   0  0  0  0  0  0
   17.8062   67.7642    8.8809 C   0  0  0  0  0  0
   16.3211   66.9615    9.2116 S   0  0  0  0  0  0
   14.6893   66.3965    7.0410 C   0  0  0  0  0  0
   13.6730   64.9293    5.5278 C   0  0  0  0  0  0
   17.1860   67.9329    5.3415 C   0  0  0  0  0  0
   12.3863   65.1718    6.0957 C   0  0  0  0  0  0
   11.2573   64.5624    5.6390 N   0  0  0  0  0  0
   16.1131   67.6572    4.5534 N   0  0  0  0  0  0
   13.4661   66.7008    7.6338 C   0  0  0  0  0  0
   13.7418   64.0605    4.4110 C   0  0  0  0  0  0
   18.6685   68.0570    9.8935 N   0  0  0  0  0  0
   12.3040   66.0734    7.1794 C   0  0  0  0  0  0
   11.3764   63.7007    4.6010 C   0  0  0  0  0  0
   12.5827   63.4215    3.9667 C   0  0  0  0  0  0
   16.1835   67.9237    3.2258 C   0  0  0  0  0  0
   18.3683   68.4602    4.7920 C   0  0  0  0  0  0
   15.0543   63.9118    3.6689 C   0  0  0  0  0  0
   17.3199   68.4574    2.6229 C   0  0  0  0  0  0
   18.4308   68.7269    3.4231 C   0  0  0  0  0  0
   13.4220   67.4245    8.4320 H   0  0  0  0  0  0
   19.5240   68.5661    9.7204 H   0  0  0  0  0  0
   18.4493   67.8485   10.8563 H   0  0  0  0  0  0
   11.3397   66.2663    7.6304 H   0  0  0  0  0  0
   10.4559   63.2537    4.2549 H   0  0  0  0  0  0
   12.6058   62.7644    3.1084 H   0  0  0  0  0  0
   15.3019   67.6955    2.6460 H   0  0  0  0  0  0
   19.2288   68.6681    5.4110 H   0  0  0  0  0  0
   15.8655   63.5659    4.3022 H   0  0  0  0  0  0
   15.3441   64.8795    3.2891 H   0  0  0  0  0  0
   14.9512   63.2540    2.8213 H   0  0  0  0  0  0
   17.3418   68.6555    1.5617 H   0  0  0  0  0  0
   19.3289   69.1396    2.9875 H   0  0  0  0  0  0
  1  2  2  0  0  0
  1  6  1  0  0  0
  1  7  1  0  0  0
  2  3  1  0  0  0
  2  9  1  0  0  0
  3  5  2  0  0  0
  4  7  2  0  0  0
  4  8  1  0  0  0
  5  6  1  0  0  0
  5 15  1  0  0  0
  7 13  1  0  0  0
  8 14  2  0  0  0
  8 10  1  0  0  0
  9 12  1  0  0  0
  9 20  2  0  0  0
 10 16  1  0  0  0
 10 11  2  0  0  0
 11 17  1  0  0  0
 12 19  2  0  0  0
 13 16  2  0  0  0
 13 24  1  0  0  0
 14 18  1  0  0  0
 14 21  1  0  0  0
 15 25  1  0  0  0
 15 26  1  0  0  0
 16 27  1  0  0  0
 17 18  2  0  0  0
 17 28  1  0  0  0
 18 29  1  0  0  0
 19 22  1  0  0  0
 19 30  1  0  0  0
 20 23  1  0  0  0
 20 31  1  0  0  0
 21 32  1  0  0  0
 21 33  1  0  0  0
 21 34  1  0  0  0
 22 23  2  0  0  0
 22 35  1  0  0  0
 23 36  1  0  0  0
M  END
> <s_m_entry_id>
34623

> <s_m_entry_name>
dock_pv.366

> <s_m_Source_Path>
/home/csk/Desktop/cluster/DUD-E-result/tgfr1

> <s_m_Source_File>
dock_pv.maegz

> <i_m_Source_File_Index>
366

> <chembl_id>
CHEMBL182354

> <chembl_pref_name>
None

> <i_lp_mmshare_version>
53161

> <r_lp_tautomer_probability>
1

> <s_lp_Force_Field>
OPLS_2005

> <r_lp_Energy>
19.568071

> <b_lp_Chiralities_Consistent>
1

> <s_lp_Variant>
CHEMBL4439_lig76-1

> <s_i_glide_gridfile>
glide-grid_3hmm

> <i_i_glide_lignum>
112

> <i_i_glide_rotatable_bonds>
2

> <r_i_docking_score>
-7.65061451404801

> <r_i_glide_ligand_efficiency>
-0.332635413654261

> <r_i_glide_ligand_efficiency_sa>
-0.945970868231924

> <r_i_glide_ligand_efficiency_ln>
-1.84998796143379

> <r_i_glide_gscore>
-7.65061451404801

> <r_i_glide_lipo>
-3.9833525994993

> <r_i_glide_hbond>
0

> <r_i_glide_metal>
0

> <r_i_glide_rewards>
-1.71620654625177

> <r_i_glide_evdw>
-45.8412818908691

> <r_i_glide_ecoul>
-0.165420487523079

> <r_i_glide_erotb>
0.365821799374981

> <r_i_glide_esite>
0

> <r_i_glide_emodel>
-65.4541541725737

> <r_i_glide_energy>
-46.0067023783922

> <r_i_glide_einternal>
3.56295657157898

> <i_i_glide_confnum>
12

> <i_i_glide_posenum>
159

> <r_i_glide_eff_state_penalty>
0

> <s_user_duplicate_titles>
CHEMBL4439_lig76,306861

> <i_f3d_flags>
0

> <s_m_subgroup_title>
dock_pv

> <s_m_subgroupid>
dock_pv

> <b_m_subgroup_collapsed>
1

$$$$
CHEMBL4439_lig877
                    3D
 Schrodinger Suite 2021-1.
 47 50  0  0  1  0            999 V2000
   20.2677   68.8455    9.6440 O   0  0  0  0  0  0
   19.4357   67.8555    8.9481 S   0  0  0  0  0  0
   19.8761   66.4592    8.8880 O   0  0  0  0  0  0
   19.2781   69.6567    3.2610 N   0  0  0  0  0  0
   18.3450   69.2078    2.3977 C   0  0  0  0  0  0
   17.3592   68.3035    2.7589 C   0  0  0  0  0  0
   17.2987   67.8207    4.0643 C   0  0  0  0  0  0
   18.2761   68.2902    5.0152 C   0  0  0  0  0  0
   18.3841   67.8523    6.3657 C   0  0  0  0  0  0
   19.3247   68.4042    7.2366 C   0  0  0  0  0  0
   20.2317   69.3530    6.7684 C   0  0  0  0  0  0
   20.2116   69.7542    5.4381 C   0  0  0  0  0  0
   19.2430   69.2353    4.5504 C   0  0  0  0  0  0
   16.2800   66.8776    4.2872 N   0  0  0  0  0  0
   14.2667   67.2569    7.0798 N   0  0  0  0  0  0
   15.3173   67.6271    6.3342 N   0  0  0  0  0  0
   15.3694   66.8152    5.3102 C   0  0  0  0  0  0
   14.2761   65.8934    5.3250 C   0  0  0  0  0  0
   13.8126   64.8465    4.5092 C   0  0  0  0  0  0
   12.6040   64.2319    4.8330 C   0  0  0  0  0  0
   11.8671   64.6396    5.9436 C   0  0  0  0  0  0
   12.3120   65.6569    6.7924 C   0  0  0  0  0  0
   13.5322   66.2587    6.4721 C   0  0  0  0  0  0
   12.1352   63.2358    4.0504 F   0  0  0  0  0  0
   17.6622   67.9138    9.7091 C   0  0  0  0  0  0
   16.8895   69.1231    9.1382 C   0  0  0  0  0  0
   17.8339   68.0545   11.2382 C   0  0  0  0  0  0
   16.9171   66.5873    9.4328 C   0  0  0  0  0  0
   18.4074   69.5947    1.3897 H   0  0  0  0  0  0
   16.6288   67.9905    2.0306 H   0  0  0  0  0  0
   17.7373   67.0667    6.7067 H   0  0  0  0  0  0
   20.9833   69.7614    7.4304 H   0  0  0  0  0  0
   20.9453   70.4584    5.0747 H   0  0  0  0  0  0
   16.0466   66.3874    3.4376 H   0  0  0  0  0  0
   14.0407   67.7682    7.9210 H   0  0  0  0  0  0
   14.3517   64.5413    3.6249 H   0  0  0  0  0  0
   10.9295   64.1477    6.1573 H   0  0  0  0  0  0
   11.7212   65.9591    7.6437 H   0  0  0  0  0  0
   15.9292   69.2569    9.6333 H   0  0  0  0  0  0
   16.6831   69.0146    8.0771 H   0  0  0  0  0  0
   17.4542   70.0518    9.2298 H   0  0  0  0  0  0
   18.4261   67.2313   11.6420 H   0  0  0  0  0  0
   18.3603   68.9690   11.5066 H   0  0  0  0  0  0
   16.8741   68.0579   11.7571 H   0  0  0  0  0  0
   17.5060   65.7290    9.7565 H   0  0  0  0  0  0
   15.9653   66.5491    9.9637 H   0  0  0  0  0  0
   16.6988   66.4277    8.3821 H   0  0  0  0  0  0
  1  2  2  0  0  0
  2  3  2  0  0  0
  2 10  1  0  0  0
  2 25  1  0  0  0
  4  5  2  0  0  0
  4 13  1  0  0  0
  5  6  1  0  0  0
  5 29  1  0  0  0
  6  7  2  0  0  0
  6 30  1  0  0  0
  7  8  1  0  0  0
  7 14  1  0  0  0
  8  9  2  0  0  0
  8 13  1  0  0  0
  9 10  1  0  0  0
  9 31  1  0  0  0
 10 11  2  0  0  0
 11 12  1  0  0  0
 11 32  1  0  0  0
 12 13  2  0  0  0
 12 33  1  0  0  0
 14 17  1  0  0  0
 14 34  1  0  0  0
 15 16  1  0  0  0
 15 23  1  0  0  0
 15 35  1  0  0  0
 16 17  2  0  0  0
 17 18  1  0  0  0
 18 19  1  0  0  0
 18 23  2  0  0  0
 19 20  2  0  0  0
 19 36  1  0  0  0
 20 21  1  0  0  0
 20 24  1  0  0  0
 21 22  2  0  0  0
 21 37  1  0  0  0
 22 23  1  0  0  0
 22 38  1  0  0  0
 25 26  1  0  0  0
 25 27  1  0  0  0
 25 28  1  0  0  0
 26 39  1  0  0  0
 26 40  1  0  0  0
 26 41  1  0  0  0
 27 42  1  0  0  0
 27 43  1  0  0  0
 27 44  1  0  0  0
 28 45  1  0  0  0
 28 46  1  0  0  0
 28 47  1  0  0  0
M  END
> <s_m_entry_id>
34624

> <s_m_entry_name>
dock_pv.367

> <s_m_Source_Path>
/home/csk/Desktop/cluster/DUD-E-result/tgfr1

> <s_m_Source_File>
dock_pv.maegz

> <i_m_Source_File_Index>
367

> <chembl_id>
CHEMBL3823499

> <chembl_pref_name>
None

> <i_lp_mmshare_version>
53161

> <r_lp_tautomer_probability>
1

> <s_lp_Force_Field>
OPLS_2005

> <r_lp_Energy>
14.516497

> <b_lp_Chiralities_Consistent>
1

> <s_lp_Variant>
CHEMBL4439_lig877-1

> <s_i_glide_gridfile>
glide-grid_3hmm

> <i_i_glide_lignum>
1212

> <i_i_glide_rotatable_bonds>
4

> <r_i_docking_score>
-7.6480553909898

> <r_i_glide_ligand_efficiency>
-0.273144835392493

> <r_i_glide_ligand_efficiency_sa>
-0.829428593956361

> <r_i_glide_ligand_efficiency_ln>
-1.76539574090432

> <r_i_glide_gscore>
-7.6480553909898

> <r_i_glide_lipo>
-4.21243854414421

> <r_i_glide_hbond>
0

> <r_i_glide_metal>
0

> <r_i_glide_rewards>
-1.66995640815812

> <r_i_glide_evdw>
-46.6438865661621

> <r_i_glide_ecoul>
1.30976784229279

> <r_i_glide_erotb>
0.370068713276726

> <r_i_glide_esite>
0

> <r_i_glide_emodel>
-58.2719656142011

> <r_i_glide_energy>
-45.3341187238693

> <r_i_glide_einternal>
14.5739231109619

> <i_i_glide_confnum>
8

> <i_i_glide_posenum>
121

> <r_i_glide_eff_state_penalty>
0

> <s_user_duplicate_titles>
CHEMBL4439_lig877

> <i_f3d_flags>
0

> <s_m_subgroup_title>
dock_pv

> <s_m_subgroupid>
dock_pv

> <b_m_subgroup_collapsed>
1

$$$$
CHEMBL4439_lig620
                    3D
 Schrodinger Suite 2021-1.
 38 41  0  0  1  0            999 V2000
   17.5370   68.4844    3.3692 C   0  0  0  0  0  0
   18.2140   69.0855    2.1512 C   0  0  0  0  0  0
   17.8670   70.4518    2.0323 O   0  0  0  0  0  0
   14.7319   65.4572    4.5941 C   0  0  0  0  0  0
   15.0743   66.6653    5.2368 C   0  0  0  0  0  0
   14.2691   67.1567    6.2857 C   0  0  0  0  0  0
   13.1318   66.4562    6.7113 C   0  0  0  0  0  0
   13.5834   64.7999    5.0205 C   0  0  0  0  0  0
   12.8078   65.2867    6.0330 C   0  0  0  0  0  0
   11.7542   64.4572    6.2378 O   0  0  0  0  0  0
   11.8088   63.5140    5.2024 C   0  0  0  0  0  0
   13.0602   63.6262    4.5797 O   0  0  0  0  0  0
   16.1809   67.4104    4.7693 N   0  0  0  0  0  0
   17.2643   67.9907    5.4280 C   0  0  0  0  0  0
   18.0624   68.6075    4.5740 N   0  0  0  0  0  0
   16.3800   67.7362    3.4493 C   0  0  0  0  0  0
   17.5996   67.9399    6.9034 C   0  0  0  0  0  0
   18.6557   68.6991    7.4357 C   0  0  0  0  0  0
   18.9240   68.6323    8.8041 C   0  0  0  0  0  0
   18.1341   67.8219    9.6211 C   0  0  0  0  0  0
   17.1009   67.0925    9.0301 C   0  0  0  0  0  0
   16.8452   67.1328    7.6989 N   0  0  0  0  0  0
   16.1825   66.2111    9.8520 C   0  0  0  0  0  0
   19.3001   69.0294    2.2357 H   0  0  0  0  0  0
   17.9448   68.5629    1.2333 H   0  0  0  0  0  0
   18.4528   70.8719    1.3863 H   0  0  0  0  0  0
   15.3281   65.0587    3.7873 H   0  0  0  0  0  0
   14.5226   68.0883    6.7698 H   0  0  0  0  0  0
   12.5195   66.8298    7.5178 H   0  0  0  0  0  0
   11.0258   63.7353    4.4772 H   0  0  0  0  0  0
   11.6702   62.5153    5.6174 H   0  0  0  0  0  0
   15.6680   67.4392    2.6956 H   0  0  0  0  0  0
   19.2607   69.3350    6.8047 H   0  0  0  0  0  0
   19.7278   69.2141    9.2312 H   0  0  0  0  0  0
   18.3198   67.7681   10.6857 H   0  0  0  0  0  0
   16.2880   66.3996   10.9233 H   0  0  0  0  0  0
   15.1384   66.4013    9.5875 H   0  0  0  0  0  0
   16.4056   65.1613    9.6605 H   0  0  0  0  0  0
  1  2  1  0  0  0
  1 15  1  0  0  0
  1 16  2  0  0  0
  2  3  1  0  0  0
  2 24  1  0  0  0
  2 25  1  0  0  0
  3 26  1  0  0  0
  4  8  1  0  0  0
  4  5  2  0  0  0
  4 27  1  0  0  0
  5  6  1  0  0  0
  5 13  1  0  0  0
  6  7  2  0  0  0
  6 28  1  0  0  0
  7  9  1  0  0  0
  7 29  1  0  0  0
  8  9  2  0  0  0
  8 12  1  0  0  0
  9 10  1  0  0  0
 10 11  1  0  0  0
 11 12  1  0  0  0
 11 30  1  0  0  0
 11 31  1  0  0  0
 13 14  1  0  0  0
 13 16  1  0  0  0
 14 15  2  0  0  0
 14 17  1  0  0  0
 16 32  1  0  0  0
 17 18  2  0  0  0
 17 22  1  0  0  0
 18 19  1  0  0  0
 18 33  1  0  0  0
 19 20  2  0  0  0
 19 34  1  0  0  0
 20 21  1  0  0  0
 20 35  1  0  0  0
 21 22  2  0  0  0
 21 23  1  0  0  0
 23 36  1  0  0  0
 23 37  1  0  0  0
 23 38  1  0  0  0
M  END
> <s_m_entry_id>
34625

> <s_m_entry_name>
dock_pv.368

> <s_m_Source_Path>
/home/csk/Desktop/cluster/DUD-E-result/tgfr1

> <s_m_Source_File>
dock_pv.maegz

> <i_m_Source_File_Index>
368

> <chembl_id>
CHEMBL2435044

> <chembl_pref_name>
None

> <i_lp_mmshare_version>
53161

> <r_lp_tautomer_probability>
1

> <s_lp_Force_Field>
OPLS_2005

> <r_lp_Energy>
29.141393

> <b_lp_Chiralities_Consistent>
1

> <s_lp_Variant>
CHEMBL4439_lig620-1

> <s_i_glide_gridfile>
glide-grid_3hmm

> <i_i_glide_lignum>
836

> <i_i_glide_rotatable_bonds>
4

> <r_i_docking_score>
-7.64579159739507

> <r_i_glide_ligand_efficiency>
-0.332425721625872

> <r_i_glide_ligand_efficiency_sa>
-0.945374531997075

> <r_i_glide_ligand_efficiency_ln>
-1.84882173645532

> <r_i_glide_gscore>
-7.64579159739507

> <r_i_glide_lipo>
-2.95323619246741

> <r_i_glide_hbond>
-0.32

> <r_i_glide_metal>
0

> <r_i_glide_rewards>
-2.65110398318747

> <r_i_glide_evdw>
-41.4694328308105

> <r_i_glide_ecoul>
-1.52333998680115

> <r_i_glide_erotb>
0.58052121782051

> <r_i_glide_esite>
0

> <r_i_glide_emodel>
-63.6614264306189

> <r_i_glide_energy>
-42.9927728176117

> <r_i_glide_einternal>
0.661261916160583

> <i_i_glide_confnum>
19

> <i_i_glide_posenum>
350

> <r_i_glide_eff_state_penalty>
0

> <s_user_duplicate_titles>
CHEMBL4439_lig620

> <i_f3d_flags>
0

> <s_m_subgroup_title>
dock_pv

> <s_m_subgroupid>
dock_pv

> <b_m_subgroup_collapsed>
1

$$$$
CHEMBL4439_lig50
                    3D
 Schrodinger Suite 2021-1.
 31 33  0  0  1  0            999 V2000
   15.0051   66.4912    7.1170 C   0  0  0  0  0  0
   16.0920   67.3006    6.6767 C   0  0  0  0  0  0
   14.9258   66.4628    8.4334 N   0  0  0  0  0  0
   14.0074   65.6997    6.3326 C   0  0  0  0  0  0
   14.4911   65.0162    5.2619 N   0  0  0  0  0  0
   15.9212   67.2265    8.8729 N   0  0  0  0  0  0
   16.6600   67.7586    7.8605 C   0  0  0  0  0  0
   16.5671   67.6579    5.2995 C   0  0  0  0  0  0
   15.7036   67.6568    4.1970 C   0  0  0  0  0  0
   17.8971   68.0583    5.1197 C   0  0  0  0  0  0
   13.6193   64.2930    4.5140 C   0  0  0  0  0  0
   17.4833   68.4461    2.7836 C   0  0  0  0  0  0
   18.3567   68.4487    3.8664 C   0  0  0  0  0  0
   16.1572   68.0574    2.9434 C   0  0  0  0  0  0
   18.0503   68.9292    1.2325 Cl  0  0  0  0  0  0
   12.6533   65.6571    6.6944 C   0  0  0  0  0  0
   11.7791   64.8777    5.9355 C   0  0  0  0  0  0
   12.2625   64.1828    4.8278 C   0  0  0  0  0  0
   14.2004   63.6367    3.2799 C   0  0  0  0  0  0
   16.0835   67.3861    9.8571 H   0  0  0  0  0  0
   17.4966   68.4106    8.0667 H   0  0  0  0  0  0
   14.6642   67.3934    4.3077 H   0  0  0  0  0  0
   18.5869   68.0713    5.9509 H   0  0  0  0  0  0
   19.3860   68.7526    3.7360 H   0  0  0  0  0  0
   15.4788   68.0691    2.1028 H   0  0  0  0  0  0
   12.2819   66.2030    7.5500 H   0  0  0  0  0  0
   10.7327   64.8212    6.1950 H   0  0  0  0  0  0
   11.5942   63.5997    4.2103 H   0  0  0  0  0  0
   13.5823   62.8041    2.9432 H   0  0  0  0  0  0
   15.2022   63.2579    3.4802 H   0  0  0  0  0  0
   14.2671   64.3624    2.4690 H   0  0  0  0  0  0
  1  4  1  0  0  0
  1  3  2  0  0  0
  1  2  1  0  0  0
  2  7  2  0  0  0
  2  8  1  0  0  0
  3  6  1  0  0  0
  4  5  2  0  0  0
  4 16  1  0  0  0
  5 11  1  0  0  0
  6 20  1  0  0  0
  6  7  1  0  0  0
  7 21  1  0  0  0
  8  9  2  0  0  0
  8 10  1  0  0  0
  9 14  1  0  0  0
  9 22  1  0  0  0
 10 13  2  0  0  0
 10 23  1  0  0  0
 11 19  1  0  0  0
 11 18  2  0  0  0
 12 13  1  0  0  0
 12 15  1  0  0  0
 12 14  2  0  0  0
 13 24  1  0  0  0
 14 25  1  0  0  0
 16 17  2  0  0  0
 16 26  1  0  0  0
 17 18  1  0  0  0
 17 27  1  0  0  0
 18 28  1  0  0  0
 19 29  1  0  0  0
 19 30  1  0  0  0
 19 31  1  0  0  0
M  END
> <s_m_entry_id>
34626

> <s_m_entry_name>
dock_pv.369

> <s_m_Source_Path>
/home/csk/Desktop/cluster/DUD-E-result/tgfr1

> <s_m_Source_File>
dock_pv.maegz

> <i_m_Source_File_Index>
369

> <chembl_id>
CHEMBL125738

> <chembl_pref_name>
None

> <i_lp_mmshare_version>
53161

> <r_lp_tautomer_probability>
0.5

> <s_lp_Force_Field>
OPLS_2005

> <r_lp_Energy>
16.390085

> <b_lp_Chiralities_Consistent>
1

> <s_lp_Variant>
CHEMBL4439_lig50-2

> <s_i_glide_gridfile>
glide-grid_3hmm

> <i_i_glide_lignum>
72

> <i_i_glide_rotatable_bonds>
2

> <r_i_docking_score>
-7.63922222082668

> <r_i_glide_ligand_efficiency>
-0.402064327411931

> <r_i_glide_ligand_efficiency_sa>
-1.07286911310528

> <r_i_glide_ligand_efficiency_ln>
-1.9367069084286

> <r_i_glide_gscore>
-7.63922222082668

> <r_i_glide_lipo>
-3.71823419281085

> <r_i_glide_hbond>
-0.14041331311653

> <r_i_glide_metal>
0

> <r_i_glide_rewards>
-1.97003240909091

> <r_i_glide_evdw>
-39.9224281311035

> <r_i_glide_ecoul>
-2.03843593597412

> <r_i_glide_erotb>
0.491344491142902

> <r_i_glide_esite>
0

> <r_i_glide_emodel>
-60.469880098904

> <r_i_glide_energy>
-41.9608640670776

> <r_i_glide_einternal>
2.36092638969421

> <i_i_glide_confnum>
8

> <i_i_glide_posenum>
184

> <r_i_glide_eff_state_penalty>
0

> <s_user_duplicate_titles>
CHEMBL4439_lig50,CHEMBL4439_lig50,211419

> <i_f3d_flags>
0

> <s_m_subgroup_title>
dock_pv

> <s_m_subgroupid>
dock_pv

> <b_m_subgroup_collapsed>
1

$$$$
CHEMBL4439_lig811
                    3D
 Schrodinger Suite 2021-1.
 47 50  0  0  1  0            999 V2000
   17.8952   67.9132    8.9292 C   0  0  0  0  0  0
   16.6154   67.7618    9.4796 C   0  0  0  0  0  0
   16.4610   67.6566   10.8597 C   0  0  0  0  0  0
   17.4755   67.7403   11.7580 N   0  0  0  0  0  0
   18.1524   67.9774    7.5480 N   0  0  0  0  0  0
   17.3827   67.6739    6.4110 C   0  0  0  0  0  0
   17.7531   68.1841    5.1520 C   0  0  0  0  0  0
   16.9531   67.8712    4.0468 C   0  0  0  0  0  0
   15.8401   67.0999    4.1287 N   0  0  0  0  0  0
   15.4987   66.5894    5.3435 C   0  0  0  0  0  0
   16.2670   66.8319    6.4833 C   0  0  0  0  0  0
   14.2548   65.7697    5.3992 C   0  0  0  0  0  0
   14.0010   64.7948    4.4264 C   0  0  0  0  0  0
   12.8234   64.0439    4.4410 C   0  0  0  0  0  0
   11.8664   64.2835    5.4296 C   0  0  0  0  0  0
   12.1084   65.2412    6.4132 C   0  0  0  0  0  0
   13.2999   65.9631    6.4122 C   0  0  0  0  0  0
   13.5052   66.8540    7.4106 F   0  0  0  0  0  0
   18.9614   68.0407    9.8442 C   0  0  0  0  0  0
   18.6902   67.9458   11.2452 C   0  0  0  0  0  0
   19.9508   68.1170   11.8651 C   0  0  0  0  0  0
   20.8394   68.3029   10.8301 N   0  0  0  0  0  0
   20.2936   68.2492    9.5976 N   0  0  0  0  0  0
   12.5794   62.9922    3.3776 C   0  0  0  0  0  0
   22.2678   68.5704   10.9475 C   0  0  0  0  0  0
   18.9833   69.0673    4.9611 C   0  0  0  0  0  0
   22.6056   70.0135   10.5198 C   0  0  0  0  0  0
   15.7286   67.7556    8.8674 H   0  0  0  0  0  0
   15.4684   67.5388   11.2755 H   0  0  0  0  0  0
   19.0836   68.3021    7.3384 H   0  0  0  0  0  0
   17.1925   68.2439    3.0603 H   0  0  0  0  0  0
   15.9986   66.3380    7.4016 H   0  0  0  0  0  0
   14.7221   64.6242    3.6395 H   0  0  0  0  0  0
   10.9445   63.7216    5.4470 H   0  0  0  0  0  0
   11.3749   65.4138    7.1862 H   0  0  0  0  0  0
   20.2832   68.1294   12.8902 H   0  0  0  0  0  0
   12.9907   63.3017    2.4160 H   0  0  0  0  0  0
   13.0566   62.0572    3.6632 H   0  0  0  0  0  0
   11.5126   62.8233    3.2231 H   0  0  0  0  0  0
   22.8048   67.8460   10.3318 H   0  0  0  0  0  0
   22.5718   68.3992   11.9816 H   0  0  0  0  0  0
   19.0543   69.4636    3.9459 H   0  0  0  0  0  0
   18.9510   69.9163    5.6452 H   0  0  0  0  0  0
   19.8932   68.5049    5.1790 H   0  0  0  0  0  0
   23.6682   70.2198   10.6465 H   0  0  0  0  0  0
   22.0524   70.7485   11.1077 H   0  0  0  0  0  0
   22.3665   70.1853    9.4686 H   0  0  0  0  0  0
  1 19  1  0  0  0
  1  2  2  0  0  0
  1  5  1  0  0  0
  2  3  1  0  0  0
  2 28  1  0  0  0
  3  4  2  0  0  0
  3 29  1  0  0  0
  4 20  1  0  0  0
  5  6  1  0  0  0
  5 30  1  0  0  0
  6  7  2  0  0  0
  6 11  1  0  0  0
  7  8  1  0  0  0
  7 26  1  0  0  0
  8  9  2  0  0  0
  8 31  1  0  0  0
  9 10  1  0  0  0
 10 11  2  0  0  0
 10 12  1  0  0  0
 11 32  1  0  0  0
 12 13  2  0  0  0
 12 17  1  0  0  0
 13 14  1  0  0  0
 13 33  1  0  0  0
 14 15  2  0  0  0
 14 24  1  0  0  0
 15 16  1  0  0  0
 15 34  1  0  0  0
 16 17  2  0  0  0
 16 35  1  0  0  0
 17 18  1  0  0  0
 19 20  1  0  0  0
 19 23  2  0  0  0
 20 21  2  0  0  0
 21 22  1  0  0  0
 21 36  1  0  0  0
 22 23  1  0  0  0
 22 25  1  0  0  0
 24 37  1  0  0  0
 24 38  1  0  0  0
 24 39  1  0  0  0
 25 27  1  0  0  0
 25 40  1  0  0  0
 25 41  1  0  0  0
 26 42  1  0  0  0
 26 43  1  0  0  0
 26 44  1  0  0  0
 27 45  1  0  0  0
 27 46  1  0  0  0
 27 47  1  0  0  0
M  END
> <s_m_entry_id>
34628

> <s_m_entry_name>
dock_pv.371

> <s_m_Source_Path>
/home/csk/Desktop/cluster/DUD-E-result/tgfr1

> <s_m_Source_File>
dock_pv.maegz

> <i_m_Source_File_Index>
371

> <chembl_id>
CHEMBL4082868

> <chembl_pref_name>
None

> <i_lp_mmshare_version>
53161

> <r_lp_tautomer_probability>
0.999999106000799

> <s_lp_Force_Field>
OPLS_2005

> <r_lp_Energy>
34.054973

> <b_lp_Chiralities_Consistent>
1

> <s_lp_Variant>
CHEMBL4439_lig811-1

> <s_i_glide_gridfile>
glide-grid_3hmm

> <i_i_glide_lignum>
1127

> <i_i_glide_rotatable_bonds>
4

> <r_i_docking_score>
-7.62807494361449

> <r_i_glide_ligand_efficiency>
-0.282521294207944

> <r_i_glide_ligand_efficiency_sa>
-0.847563881692688

> <r_i_glide_ligand_efficiency_ln>
-1.77569008822944

> <r_i_glide_gscore>
-7.62807494361449

> <r_i_glide_lipo>
-3.77589613555222

> <r_i_glide_hbond>
0

> <r_i_glide_metal>
0

> <r_i_glide_rewards>
-1.90982970887223

> <r_i_glide_evdw>
-47.8516960144043

> <r_i_glide_ecoul>
0.0632632300257683

> <r_i_glide_erotb>
0.440746217026309

> <r_i_glide_esite>
0

> <r_i_glide_emodel>
-69.176055720873

> <r_i_glide_energy>
-47.7884327843785

> <r_i_glide_einternal>
0.468302369117737

> <i_i_glide_confnum>
10

> <i_i_glide_posenum>
170

> <r_i_glide_eff_state_penalty>
0

> <s_user_duplicate_titles>
CHEMBL4439_lig811

> <i_f3d_flags>
0

> <s_m_subgroup_title>
dock_pv

> <s_m_subgroupid>
dock_pv

> <b_m_subgroup_collapsed>
1

$$$$
CHEMBL4439_lig89
                    3D
 Schrodinger Suite 2021-1.
 38 42  0  0  1  0            999 V2000
   17.9122   68.2431    6.9182 N   0  0  0  0  0  0
   16.0730   66.9288    6.7266 C   0  0  0  0  0  0
   17.0559   67.7173    6.0574 C   0  0  0  0  0  0
   17.1889   68.0588    4.5984 C   0  0  0  0  0  0
   16.0970   68.0521    3.7232 C   0  0  0  0  0  0
   16.2775   68.4568    2.4039 C   0  0  0  0  0  0
   17.5377   68.8693    1.9753 C   0  0  0  0  0  0
   18.5857   68.8583    2.8939 C   0  0  0  0  0  0
   18.4266   68.4566    4.1802 N   0  0  0  0  0  0
   16.4353   67.0152    8.0634 C   0  0  0  0  0  0
   17.5243   67.8235    8.1149 N   0  0  0  0  0  0
   18.0123   68.1151    9.4406 C   0  0  0  0  0  0
   17.1288   67.2292   10.3326 C   0  0  0  0  0  0
   16.0738   66.5533    9.4459 C   0  0  0  0  0  0
   14.9089   66.1541    6.2049 C   0  0  0  0  0  0
   11.9011   63.8178    4.6513 N   0  0  0  0  0  0
   12.6572   63.2512    3.6513 C   0  0  0  0  0  0
   13.8994   63.6579    3.6337 N   0  0  0  0  0  0
   13.9699   64.5609    4.6625 C   0  0  0  0  0  0
   15.0674   65.3152    5.0989 C   0  0  0  0  0  0
   13.6665   66.2533    6.8452 C   0  0  0  0  0  0
   12.5443   65.5275    6.4318 C   0  0  0  0  0  0
   12.7249   64.6800    5.3341 C   0  0  0  0  0  0
   15.1112   67.7724    4.0568 H   0  0  0  0  0  0
   15.4437   68.4641    1.7154 H   0  0  0  0  0  0
   17.7001   69.1968    0.9612 H   0  0  0  0  0  0
   19.5763   69.1831    2.6093 H   0  0  0  0  0  0
   17.8825   69.1755    9.6636 H   0  0  0  0  0  0
   19.0727   67.8747    9.5368 H   0  0  0  0  0  0
   16.6587   67.8185   11.1208 H   0  0  0  0  0  0
   17.7424   66.4769   10.8271 H   0  0  0  0  0  0
   15.0675   66.8569    9.7186 H   0  0  0  0  0  0
   16.1148   65.4680    9.5398 H   0  0  0  0  0  0
   10.9233   63.6180    4.8036 H   0  0  0  0  0  0
   12.2124   62.5435    2.9644 H   0  0  0  0  0  0
   16.0137   65.2562    4.5890 H   0  0  0  0  0  0
   13.5657   66.9181    7.6915 H   0  0  0  0  0  0
   11.5911   65.6116    6.9368 H   0  0  0  0  0  0
  1 11  1  0  0  0
  1  3  2  0  0  0
  2 10  2  0  0  0
  2  3  1  0  0  0
  2 15  1  0  0  0
  3  4  1  0  0  0
  4  5  2  0  0  0
  4  9  1  0  0  0
  5  6  1  0  0  0
  5 24  1  0  0  0
  6  7  2  0  0  0
  6 25  1  0  0  0
  7  8  1  0  0  0
  7 26  1  0  0  0
  8  9  2  0  0  0
  8 27  1  0  0  0
 10 14  1  0  0  0
 10 11  1  0  0  0
 11 12  1  0  0  0
 12 13  1  0  0  0
 12 28  1  0  0  0
 12 29  1  0  0  0
 13 14  1  0  0  0
 13 30  1  0  0  0
 13 31  1  0  0  0
 14 32  1  0  0  0
 14 33  1  0  0  0
 15 20  2  0  0  0
 15 21  1  0  0  0
 16 17  1  0  0  0
 16 23  1  0  0  0
 16 34  1  0  0  0
 17 18  2  0  0  0
 17 35  1  0  0  0
 18 19  1  0  0  0
 19 23  2  0  0  0
 19 20  1  0  0  0
 20 36  1  0  0  0
 21 22  2  0  0  0
 21 37  1  0  0  0
 22 23  1  0  0  0
 22 38  1  0  0  0
M  END
> <s_m_entry_id>
34630

> <s_m_entry_name>
dock_pv.373

> <s_m_Source_Path>
/home/csk/Desktop/cluster/DUD-E-result/tgfr1

> <s_m_Source_File>
dock_pv.maegz

> <i_m_Source_File_Index>
373

> <chembl_id>
CHEMBL204139

> <chembl_pref_name>
None

> <i_lp_mmshare_version>
53161

> <r_lp_tautomer_probability>
1

> <s_lp_Force_Field>
OPLS_2005

> <r_lp_Energy>
36.729495

> <b_lp_Chiralities_Consistent>
1

> <s_lp_Variant>
CHEMBL4439_lig89-1

> <s_i_glide_gridfile>
glide-grid_3hmm

> <i_i_glide_lignum>
128

> <i_i_glide_rotatable_bonds>
2

> <r_i_docking_score>
-7.62108659470886

> <r_i_glide_ligand_efficiency>
-0.331351591074298

> <r_i_glide_ligand_efficiency_sa>
-0.942319847592596

> <r_i_glide_ligand_efficiency_ln>
-1.84284784279322

> <r_i_glide_gscore>
-7.62108659470886

> <r_i_glide_lipo>
-3.62292828813782

> <r_i_glide_hbond>
0

> <r_i_glide_metal>
0

> <r_i_glide_rewards>
-2.11307072873618

> <r_i_glide_evdw>
-46.4353637695312

> <r_i_glide_ecoul>
0.210217222571373

> <r_i_glide_erotb>
0.40514802725599

> <r_i_glide_esite>
0

> <r_i_glide_emodel>
-66.9844745098628

> <r_i_glide_energy>
-46.2251465469599

> <r_i_glide_einternal>
1.36297583580017

> <i_i_glide_confnum>
4

> <i_i_glide_posenum>
33

> <r_i_glide_eff_state_penalty>
0

> <s_user_duplicate_titles>
CHEMBL4439_lig89,341622

> <i_f3d_flags>
0

> <s_m_subgroup_title>
dock_pv

> <s_m_subgroupid>
dock_pv

> <b_m_subgroup_collapsed>
1

$$$$
CHEMBL4439_lig966
                    3D
 Schrodinger Suite 2021-1.
 36 39  0  0  1  0            999 V2000
   12.3346   65.7920    6.7099 C   0  0  0  0  0  0
   13.4368   66.4568    7.2454 C   0  0  0  0  0  0
   14.7261   66.2547    6.7428 C   0  0  0  0  0  0
   14.9179   65.3837    5.6715 C   0  0  0  0  0  0
   12.5084   64.9113    5.6191 C   0  0  0  0  0  0
   13.8208   64.7147    5.0871 C   0  0  0  0  0  0
   14.0314   63.8817    4.0314 N   0  0  0  0  0  0
   12.9475   63.2566    3.5115 C   0  0  0  0  0  0
   11.6680   63.4405    4.0321 C   0  0  0  0  0  0
   11.4330   64.2616    5.0872 N   0  0  0  0  0  0
   15.8974   66.9434    7.3616 C   0  0  0  0  0  0
   16.0778   66.8071    9.0969 S   0  0  0  0  0  0
   17.5067   67.7496    8.9837 C   0  0  0  0  0  0
   17.8244   68.1205    7.7760 N   0  0  0  0  0  0
   16.9848   67.6904    6.8379 C   0  0  0  0  0  0
   18.2131   68.0576   10.1076 N   0  0  0  0  0  0
   17.2785   68.0565    5.3955 C   0  0  0  0  0  0
   18.5574   68.4571    5.1264 N   0  0  0  0  0  0
   18.8872   68.8131    3.8589 C   0  0  0  0  0  0
   17.9730   68.7769    2.8048 C   0  0  0  0  0  0
   16.6690   68.3634    3.0748 C   0  0  0  0  0  0
   16.3143   68.0057    4.3780 C   0  0  0  0  0  0
   20.3230   69.2578    3.6525 C   0  0  0  0  0  0
   11.3436   65.9432    7.1150 H   0  0  0  0  0  0
   13.2886   67.1357    8.0729 H   0  0  0  0  0  0
   15.9028   65.2196    5.2671 H   0  0  0  0  0  0
   13.1169   62.6142    2.6591 H   0  0  0  0  0  0
   10.8136   62.9437    3.5956 H   0  0  0  0  0  0
   19.0209   68.6631   10.0629 H   0  0  0  0  0  0
   17.9091   67.7721   11.0256 H   0  0  0  0  0  0
   18.2627   69.0656    1.8048 H   0  0  0  0  0  0
   15.9334   68.3358    2.2837 H   0  0  0  0  0  0
   15.2943   67.7225    4.5825 H   0  0  0  0  0  0
   20.4847   69.6501    2.6472 H   0  0  0  0  0  0
   21.0053   68.4212    3.8077 H   0  0  0  0  0  0
   20.5849   70.0430    4.3628 H   0  0  0  0  0  0
  1  2  2  0  0  0
  1  5  1  0  0  0
  1 24  1  0  0  0
  2  3  1  0  0  0
  2 25  1  0  0  0
  3 11  1  0  0  0
  3  4  2  0  0  0
  4  6  1  0  0  0
  4 26  1  0  0  0
  5  6  1  0  0  0
  5 10  2  0  0  0
  6  7  2  0  0  0
  7  8  1  0  0  0
  8  9  2  0  0  0
  8 27  1  0  0  0
  9 10  1  0  0  0
  9 28  1  0  0  0
 11 15  2  0  0  0
 11 12  1  0  0  0
 12 13  1  0  0  0
 13 14  2  0  0  0
 13 16  1  0  0  0
 14 15  1  0  0  0
 15 17  1  0  0  0
 16 29  1  0  0  0
 16 30  1  0  0  0
 17 18  2  0  0  0
 17 22  1  0  0  0
 18 19  1  0  0  0
 19 20  2  0  0  0
 19 23  1  0  0  0
 20 21  1  0  0  0
 20 31  1  0  0  0
 21 22  2  0  0  0
 21 32  1  0  0  0
 22 33  1  0  0  0
 23 34  1  0  0  0
 23 35  1  0  0  0
 23 36  1  0  0  0
M  END
> <s_m_entry_id>
34631

> <s_m_entry_name>
dock_pv.374

> <s_m_Source_Path>
/home/csk/Desktop/cluster/DUD-E-result/tgfr1

> <s_m_Source_File>
dock_pv.maegz

> <i_m_Source_File_Index>
374

> <chembl_id>
CHEMBL519948

> <chembl_pref_name>
None

> <i_lp_mmshare_version>
53161

> <r_lp_tautomer_probability>
1

> <s_lp_Force_Field>
OPLS_2005

> <r_lp_Energy>
23.842264

> <b_lp_Chiralities_Consistent>
1

> <s_lp_Variant>
CHEMBL4439_lig966-1

> <s_i_glide_gridfile>
glide-grid_3hmm

> <i_i_glide_lignum>
1315

> <i_i_glide_rotatable_bonds>
2

> <r_i_docking_score>
-7.61852704270381

> <r_i_glide_ligand_efficiency>
-0.331240306204513

> <r_i_glide_ligand_efficiency_sa>
-0.942003368226389

> <r_i_glide_ligand_efficiency_ln>
-1.84222891990966

> <r_i_glide_gscore>
-7.61852704270381

> <r_i_glide_lipo>
-4.02065062599638

> <r_i_glide_hbond>
0

> <r_i_glide_metal>
0

> <r_i_glide_rewards>
-1.48980183333333

> <r_i_glide_evdw>
-48.1799583435059

> <r_i_glide_ecoul>
-0.432656437158585

> <r_i_glide_erotb>
0.365821799374981

> <r_i_glide_esite>
0

> <r_i_glide_emodel>
-70.8095098029309

> <r_i_glide_energy>
-48.6126147806644

> <r_i_glide_einternal>
0.308809012174606

> <i_i_glide_confnum>
2

> <i_i_glide_posenum>
130

> <r_i_glide_eff_state_penalty>
0

> <s_user_duplicate_titles>
CHEMBL4439_lig966,474847

> <i_f3d_flags>
0

> <s_m_subgroup_title>
dock_pv

> <s_m_subgroupid>
dock_pv

> <b_m_subgroup_collapsed>
1

$$$$
CHEMBL4439_lig546
                    3D
 Schrodinger Suite 2021-1.
 47 51  0  0  1  0            999 V2000
   21.3493   70.1769    7.7209 C   0  0  0  0  0  0
   21.9332   70.0513    6.4627 C   0  0  0  0  0  0
   21.2177   69.3891    5.4671 C   0  0  0  0  0  0
   20.0109   68.8147    5.6941 N   0  0  0  0  0  0
   19.4431   68.9223    6.9326 C   0  0  0  0  0  0
   20.0717   69.6570    7.9441 C   0  0  0  0  0  0
   18.1452   68.1672    7.1209 C   0  0  0  0  0  0
   19.2590   67.7180   10.1807 C   0  0  0  0  0  0
   17.9239   67.7005    9.7678 C   0  0  0  0  0  0
   16.9208   67.7481   10.7515 C   0  0  0  0  0  0
   17.2160   67.8335   12.1157 C   0  0  0  0  0  0
   19.5378   67.8959   11.5069 N   0  0  0  0  0  0
   18.5606   67.9312   12.5003 C   0  0  0  0  0  0
   19.1731   68.0577   13.7018 N   0  0  0  0  0  0
   20.4466   68.1189   13.3517 C   0  0  0  0  0  0
   20.7516   68.0579   12.0707 N   0  0  0  0  0  0
   17.5603   67.6493    8.3112 C   0  0  0  0  0  0
   17.4422   67.9053    6.0253 N   0  0  0  0  0  0
   16.4334   67.1110    6.2151 C   0  0  0  0  0  0
   16.1514   66.7058    7.8646 S   0  0  0  0  0  0
   21.7621   69.2552    4.0595 C   0  0  0  0  0  0
   15.6838   66.5836    5.1995 N   0  0  0  0  0  0
   15.4009   65.1614    5.0496 C   0  0  0  0  0  0
   13.9108   64.8589    5.0783 C   0  0  0  0  0  0
   13.0666   65.4434    6.0318 C   0  0  0  0  0  0
   11.7103   65.1250    6.0623 C   0  0  0  0  0  0
   11.1835   64.2293    5.1354 C   0  0  0  0  0  0
   12.0149   63.6612    4.1733 C   0  0  0  0  0  0
   13.3768   63.9576    4.1534 C   0  0  0  0  0  0
   11.4902   62.8570    3.2325 F   0  0  0  0  0  0
    9.8689   63.9157    5.1655 F   0  0  0  0  0  0
   21.8643   70.7119    8.5057 H   0  0  0  0  0  0
   22.9149   70.4584    6.2650 H   0  0  0  0  0  0
   19.5945   69.8263    8.8957 H   0  0  0  0  0  0
   20.1057   67.6437    9.5162 H   0  0  0  0  0  0
   15.8799   67.7328   10.4635 H   0  0  0  0  0  0
   16.4212   67.8542   12.8473 H   0  0  0  0  0  0
   21.2238   68.2213   14.0964 H   0  0  0  0  0  0
   22.8523   69.2971    4.0495 H   0  0  0  0  0  0
   21.4661   68.2980    3.6316 H   0  0  0  0  0  0
   21.3788   70.0533    3.4235 H   0  0  0  0  0  0
   15.6355   67.0727    4.3170 H   0  0  0  0  0  0
   15.8649   64.5920    5.8572 H   0  0  0  0  0  0
   15.8562   64.8133    4.1202 H   0  0  0  0  0  0
   13.4539   66.1452    6.7542 H   0  0  0  0  0  0
   11.0673   65.5716    6.8063 H   0  0  0  0  0  0
   14.0018   63.5058    3.3959 H   0  0  0  0  0  0
  1  6  1  0  0  0
  1  2  2  0  0  0
  1 32  1  0  0  0
  2  3  1  0  0  0
  2 33  1  0  0  0
  3 21  1  0  0  0
  3  4  2  0  0  0
  4  5  1  0  0  0
  5  6  2  0  0  0
  5  7  1  0  0  0
  6 34  1  0  0  0
  7 17  2  0  0  0
  7 18  1  0  0  0
  8 12  1  0  0  0
  8  9  2  0  0  0
  8 35  1  0  0  0
  9 17  1  0  0  0
  9 10  1  0  0  0
 10 11  2  0  0  0
 10 36  1  0  0  0
 11 13  1  0  0  0
 11 37  1  0  0  0
 12 16  1  0  0  0
 12 13  1  0  0  0
 13 14  2  0  0  0
 14 15  1  0  0  0
 15 16  2  0  0  0
 15 38  1  0  0  0
 17 20  1  0  0  0
 18 19  2  0  0  0
 19 20  1  0  0  0
 19 22  1  0  0  0
 21 39  1  0  0  0
 21 40  1  0  0  0
 21 41  1  0  0  0
 22 23  1  0  0  0
 22 42  1  0  0  0
 23 24  1  0  0  0
 23 43  1  0  0  0
 23 44  1  0  0  0
 24 25  2  0  0  0
 24 29  1  0  0  0
 25 26  1  0  0  0
 25 45  1  0  0  0
 26 27  2  0  0  0
 26 46  1  0  0  0
 27 28  1  0  0  0
 27 31  1  0  0  0
 28 29  2  0  0  0
 28 30  1  0  0  0
 29 47  1  0  0  0
M  END
> <s_m_entry_id>
34632

> <s_m_entry_name>
dock_pv.375

> <s_m_Source_Path>
/home/csk/Desktop/cluster/DUD-E-result/tgfr1

> <s_m_Source_File>
dock_pv.maegz

> <i_m_Source_File_Index>
375

> <chembl_id>
CHEMBL2087983

> <chembl_pref_name>
None

> <i_lp_mmshare_version>
53161

> <r_lp_tautomer_probability>
1

> <s_lp_Force_Field>
OPLS_2005

> <r_lp_Energy>
12.08517

> <b_lp_Chiralities_Consistent>
1

> <s_lp_Variant>
CHEMBL4439_lig546-1

> <s_i_glide_gridfile>
glide-grid_3hmm

> <i_i_glide_lignum>
725

> <i_i_glide_rotatable_bonds>
5

> <r_i_docking_score>
-7.6115772439297

> <r_i_glide_ligand_efficiency>
-0.245534749804184

> <r_i_glide_ligand_efficiency_sa>
-0.771318111641726

> <r_i_glide_ligand_efficiency_ln>
-1.71664393533439

> <r_i_glide_gscore>
-7.6115772439297

> <r_i_glide_lipo>
-3.19673023919074

> <r_i_glide_hbond>
0

> <r_i_glide_metal>
0

> <r_i_glide_rewards>
-1.84846562958285

> <r_i_glide_evdw>
-53.3045806884766

> <r_i_glide_ecoul>
-2.55097603797913

> <r_i_glide_erotb>
0.527547068765341

> <r_i_glide_esite>
-0.0460530038007583

> <r_i_glide_emodel>
-75.5840939488753

> <r_i_glide_energy>
-55.8555567264557

> <r_i_glide_einternal>
13.7705507278442

> <i_i_glide_confnum>
82

> <i_i_glide_posenum>
211

> <r_i_glide_eff_state_penalty>
0

> <s_user_duplicate_titles>
CHEMBL4439_lig546

> <i_f3d_flags>
0

> <s_m_subgroup_title>
dock_pv

> <s_m_subgroupid>
dock_pv

> <b_m_subgroup_collapsed>
1

$$$$
CHEMBL4439_lig599
                    3D
 Schrodinger Suite 2021-1.
 36 39  0  0  1  0            999 V2000
   16.3475   68.7219    8.3868 S   0  0  0  0  0  0
   17.4300   68.0075    7.2262 C   0  0  0  0  0  0
   18.5889   67.6564    7.7315 N   0  0  0  0  0  0
   18.6780   67.8821    9.0288 C   0  0  0  0  0  0
   17.5506   68.4552    9.6088 C   0  0  0  0  0  0
   19.9816   67.5010    9.6886 C   0  0  0  0  0  0
   17.1469   67.8985    5.7922 C   0  0  0  0  0  0
   16.1082   67.2406    5.1013 C   0  0  0  0  0  0
   16.3975   67.4963    3.7852 N   0  0  0  0  0  0
   17.5560   68.2092    3.7400 C   0  0  0  0  0  0
   18.0054   68.4560    4.9421 N   0  0  0  0  0  0
   14.9125   66.4216    5.4625 C   0  0  0  0  0  0
   14.0597   66.7991    6.5033 C   0  0  0  0  0  0
   12.8765   66.1130    6.7738 C   0  0  0  0  0  0
   14.6129   65.2987    4.6766 C   0  0  0  0  0  0
   13.4024   64.6335    4.9010 C   0  0  0  0  0  0
   12.5235   65.0539    5.9334 C   0  0  0  0  0  0
   11.3583   64.3693    6.0153 N   0  0  0  0  0  0
   11.2895   63.4658    5.0863 C   0  0  0  0  0  0
   12.6802   63.2721    4.0461 S   0  0  0  0  0  0
   18.2115   68.6429    2.4478 C   0  0  0  0  0  0
   17.4656   69.8009    1.7738 C   0  0  0  0  0  0
   17.3912   68.7485   10.6363 H   0  0  0  0  0  0
   19.9580   67.6739   10.7656 H   0  0  0  0  0  0
   20.2144   66.4462    9.5435 H   0  0  0  0  0  0
   20.8194   68.0754    9.2906 H   0  0  0  0  0  0
   15.8538   67.1963    2.9896 H   0  0  0  0  0  0
   14.2683   67.6801    7.0828 H   0  0  0  0  0  0
   12.2084   66.4321    7.5596 H   0  0  0  0  0  0
   15.2654   64.9835    3.8754 H   0  0  0  0  0  0
   10.4096   62.8572    4.9616 H   0  0  0  0  0  0
   19.2455   68.9428    2.6244 H   0  0  0  0  0  0
   18.2674   67.8018    1.7555 H   0  0  0  0  0  0
   17.9465   70.0568    0.8320 H   0  0  0  0  0  0
   16.4272   69.5442    1.5589 H   0  0  0  0  0  0
   17.4689   70.6924    2.4024 H   0  0  0  0  0  0
  1  2  1  0  0  0
  1  5  1  0  0  0
  2  3  2  0  0  0
  2  7  1  0  0  0
  3  4  1  0  0  0
  4  5  2  0  0  0
  4  6  1  0  0  0
  5 23  1  0  0  0
  6 24  1  0  0  0
  6 25  1  0  0  0
  6 26  1  0  0  0
  7  8  2  0  0  0
  7 11  1  0  0  0
  8  9  1  0  0  0
  8 12  1  0  0  0
  9 10  1  0  0  0
  9 27  1  0  0  0
 10 11  2  0  0  0
 10 21  1  0  0  0
 12 13  2  0  0  0
 12 15  1  0  0  0
 13 14  1  0  0  0
 13 28  1  0  0  0
 14 17  2  0  0  0
 14 29  1  0  0  0
 15 16  2  0  0  0
 15 30  1  0  0  0
 16 17  1  0  0  0
 16 20  1  0  0  0
 17 18  1  0  0  0
 18 19  2  0  0  0
 19 20  1  0  0  0
 19 31  1  0  0  0
 21 22  1  0  0  0
 21 32  1  0  0  0
 21 33  1  0  0  0
 22 34  1  0  0  0
 22 35  1  0  0  0
 22 36  1  0  0  0
M  END
> <s_m_entry_id>
34638

> <s_m_entry_name>
dock_pv.381

> <s_m_Source_Path>
/home/csk/Desktop/cluster/DUD-E-result/tgfr1

> <s_m_Source_File>
dock_pv.maegz

> <i_m_Source_File_Index>
381

> <chembl_id>
CHEMBL2207990

> <chembl_pref_name>
None

> <i_lp_mmshare_version>
53161

> <r_lp_tautomer_probability>
0.499999999999999

> <s_lp_Force_Field>
OPLS_2005

> <r_lp_Energy>
7.026817

> <b_lp_Chiralities_Consistent>
1

> <s_lp_Variant>
CHEMBL4439_lig599-1

> <s_i_glide_gridfile>
glide-grid_3hmm

> <i_i_glide_lignum>
811

> <i_i_glide_rotatable_bonds>
3

> <r_i_docking_score>
-7.59004771291174

> <r_i_glide_ligand_efficiency>
-0.345002168768716

> <r_i_glide_ligand_efficiency_sa>
-0.966709645055302

> <r_i_glide_ligand_efficiency_ln>
-1.85528451475274

> <r_i_glide_gscore>
-7.59004771291174

> <r_i_glide_lipo>
-3.84253592928798

> <r_i_glide_hbond>
0

> <r_i_glide_metal>
0

> <r_i_glide_rewards>
-1.95650917220344

> <r_i_glide_evdw>
-46.6195068359375

> <r_i_glide_ecoul>
1.25320887565613

> <r_i_glide_erotb>
0.351991399028133

> <r_i_glide_esite>
0

> <r_i_glide_emodel>
-64.2027324883198

> <r_i_glide_energy>
-45.3662979602814

> <r_i_glide_einternal>
3.75977873802185

> <i_i_glide_confnum>
3

> <i_i_glide_posenum>
46

> <r_i_glide_eff_state_penalty>
0

> <s_user_duplicate_titles>
CHEMBL4439_lig599,CHEMBL4439_lig599

> <i_f3d_flags>
0

> <s_m_subgroup_title>
dock_pv

> <s_m_subgroupid>
dock_pv

> <b_m_subgroup_collapsed>
1

$$$$
CHEMBL4439_lig791
                    3D
 Schrodinger Suite 2021-1.
 45 48  0  0  1  0            999 V2000
   14.7660   65.0772    4.5954 C   0  0  0  0  0  0
   14.8933   64.0802    3.6320 C   0  0  0  0  0  0
   13.7968   63.2930    3.2759 C   0  0  0  0  0  0
   12.5759   63.3833    3.8491 N   0  0  0  0  0  0
   15.8670   65.8677    4.9348 N   0  0  0  0  0  0
   16.3727   67.0685    4.4110 C   0  0  0  0  0  0
   15.9204   67.6570    3.2321 C   0  0  0  0  0  0
   16.6670   68.7085    2.6877 C   0  0  0  0  0  0
   17.7773   69.2208    3.2868 N   0  0  0  0  0  0
   18.1612   68.7044    4.4884 C   0  0  0  0  0  0
   17.4483   67.6570    5.0778 C   0  0  0  0  0  0
   19.4007   69.2340    5.1472 C   0  0  0  0  0  0
   19.4671   69.2925    6.5509 C   0  0  0  0  0  0
   20.6305   69.6820    7.2105 C   0  0  0  0  0  0
   21.7509   70.0572    6.4774 C   0  0  0  0  0  0
   21.7051   70.0326    5.0864 C   0  0  0  0  0  0
   20.5467   69.6186    4.4239 C   0  0  0  0  0  0
   20.5659   69.5771    3.0719 F   0  0  0  0  0  0
   13.5355   65.1039    5.2692 C   0  0  0  0  0  0
   12.4644   64.2746    4.8317 C   0  0  0  0  0  0
   11.3631   64.6272    5.6319 C   0  0  0  0  0  0
   11.7284   65.5028    6.5214 N   0  0  0  0  0  0
   13.0602   65.7476    6.4127 N   0  0  0  0  0  0
   13.6923   66.4867    7.4597 C   0  0  0  0  0  0
   15.0122   66.6682    7.3667 N   0  0  0  0  0  0
   15.8652   67.2929    8.3808 C   0  0  0  0  0  0
   20.6668   69.7013    8.5614 F   0  0  0  0  0  0
   13.0670   66.8570    8.4320 O   0  0  0  0  0  0
   15.7176   68.8201    8.4369 C   0  0  0  0  0  0
   15.8530   63.9267    3.1723 H   0  0  0  0  0  0
   13.8668   62.5633    2.4914 H   0  0  0  0  0  0
   16.5769   65.3507    5.4343 H   0  0  0  0  0  0
   15.0425   67.2762    2.7343 H   0  0  0  0  0  0
   16.3741   69.1625    1.7514 H   0  0  0  0  0  0
   17.7831   67.2570    6.0225 H   0  0  0  0  0  0
   18.6146   69.0193    7.1543 H   0  0  0  0  0  0
   22.6557   70.3623    6.9842 H   0  0  0  0  0  0
   22.5824   70.3124    4.5205 H   0  0  0  0  0  0
   10.3537   64.2472    5.5887 H   0  0  0  0  0  0
   15.4526   66.3691    6.5006 H   0  0  0  0  0  0
   16.9025   67.0335    8.1685 H   0  0  0  0  0  0
   15.6499   66.8657    9.3628 H   0  0  0  0  0  0
   16.4428   69.2567    9.1246 H   0  0  0  0  0  0
   14.7271   69.1122    8.7889 H   0  0  0  0  0  0
   15.8787   69.2620    7.4545 H   0  0  0  0  0  0
  1 19  2  0  0  0
  1  2  1  0  0  0
  1  5  1  0  0  0
  2  3  2  0  0  0
  2 30  1  0  0  0
  3  4  1  0  0  0
  3 31  1  0  0  0
  4 20  2  0  0  0
  5  6  1  0  0  0
  5 32  1  0  0  0
  6  7  2  0  0  0
  6 11  1  0  0  0
  7  8  1  0  0  0
  7 33  1  0  0  0
  8  9  2  0  0  0
  8 34  1  0  0  0
  9 10  1  0  0  0
 10 11  2  0  0  0
 10 12  1  0  0  0
 11 35  1  0  0  0
 12 13  2  0  0  0
 12 17  1  0  0  0
 13 14  1  0  0  0
 13 36  1  0  0  0
 14 15  2  0  0  0
 14 27  1  0  0  0
 15 16  1  0  0  0
 15 37  1  0  0  0
 16 17  2  0  0  0
 16 38  1  0  0  0
 17 18  1  0  0  0
 19 20  1  0  0  0
 19 23  1  0  0  0
 20 21  1  0  0  0
 21 22  2  0  0  0
 21 39  1  0  0  0
 22 23  1  0  0  0
 23 24  1  0  0  0
 24 25  1  0  0  0
 24 28  2  0  0  0
 25 26  1  0  0  0
 25 40  1  0  0  0
 26 29  1  0  0  0
 26 41  1  0  0  0
 26 42  1  0  0  0
 29 43  1  0  0  0
 29 44  1  0  0  0
 29 45  1  0  0  0
M  END
> <s_m_entry_id>
34639

> <s_m_entry_name>
dock_pv.382

> <s_m_Source_Path>
/home/csk/Desktop/cluster/DUD-E-result/tgfr1

> <s_m_Source_File>
dock_pv.maegz

> <i_m_Source_File_Index>
382

> <chembl_id>
CHEMBL4075081

> <chembl_pref_name>
None

> <i_lp_mmshare_version>
53161

> <r_lp_tautomer_probability>
0.999999106000799

> <s_lp_Force_Field>
OPLS_2005

> <r_lp_Energy>
26.630171

> <b_lp_Chiralities_Consistent>
1

> <s_lp_Variant>
CHEMBL4439_lig791-1

> <s_i_glide_gridfile>
glide-grid_3hmm

> <i_i_glide_lignum>
1105

> <i_i_glide_rotatable_bonds>
6

> <r_i_docking_score>
-7.57880686309099

> <r_i_glide_ligand_efficiency>
-0.261338167692793

> <r_i_glide_ligand_efficiency_sa>
-0.802913648895261

> <r_i_glide_ligand_efficiency_ln>
-1.7353545896877

> <r_i_glide_gscore>
-7.57880686309099

> <r_i_glide_lipo>
-4.01899051824912

> <r_i_glide_hbond>
-0.00220201000391369

> <r_i_glide_metal>
0

> <r_i_glide_rewards>
-1.81079290599997

> <r_i_glide_evdw>
-42.0768051147461

> <r_i_glide_ecoul>
-1.80852484703064

> <r_i_glide_erotb>
0.628297553953911

> <r_i_glide_esite>
0

> <r_i_glide_emodel>
-38.8095425749967

> <r_i_glide_energy>
-43.8853299617767

> <r_i_glide_einternal>
14.017017364502

> <i_i_glide_confnum>
94

> <i_i_glide_posenum>
247

> <r_i_glide_eff_state_penalty>
0

> <s_user_duplicate_titles>
CHEMBL4439_lig791

> <i_f3d_flags>
0

> <s_m_subgroup_title>
dock_pv

> <s_m_subgroupid>
dock_pv

> <b_m_subgroup_collapsed>
1

$$$$
CHEMBL4439_lig883 
                    3D
 Schrodinger Suite 2021-1.
 41 45  0  0  1  0            999 V2000
   16.2595   66.9970    8.0421 N   0  0  0  0  0  0
   15.8950   66.9220    6.7818 C   0  0  0  0  0  0
   16.7909   67.6131    5.9334 C   0  0  0  0  0  0
   16.6896   67.7610    4.4903 C   0  0  0  0  0  0
   17.8234   68.0564    3.8536 N   0  0  0  0  0  0
   15.6287   67.6575    3.8825 O   0  0  0  0  0  0
   14.6551   66.1770    6.4235 C   0  0  0  0  0  0
   14.6905   65.2287    5.3977 C   0  0  0  0  0  0
   12.2669   65.8269    6.7463 C   0  0  0  0  0  0
   13.4624   66.4557    7.0970 C   0  0  0  0  0  0
   12.2963   64.8980    5.7006 C   0  0  0  0  0  0
   13.5051   64.5888    5.0268 C   0  0  0  0  0  0
   13.4040   63.6566    4.0455 N   0  0  0  0  0  0
   12.1720   63.2571    3.9233 C   0  0  0  0  0  0
   10.9897   63.9647    4.9930 S   0  0  0  0  0  0
   17.9510   68.0693    9.3856 C   0  0  0  0  0  0
   19.4678   68.3774    9.4152 C   0  0  1  0  0  0
   20.3544   67.3216    8.7319 C   0  0  0  0  0  0
   17.3763   67.7332    8.0785 N   0  0  0  0  0  0
   17.6883   68.2211    6.8212 C   0  0  0  0  0  0
   18.6875   69.1254    6.5208 N   0  0  0  0  0  0
   19.9648   69.2235    7.2145 C   0  0  2  0  0  0
   20.6673   67.8705    7.3215 C   0  0  0  0  0  0
   19.8200   69.6571    8.6648 C   0  0  0  0  0  0
   19.7598   68.4960   10.4600 H   0  0  0  0  0  0
   20.6000   69.9407    6.6911 H   0  0  0  0  0  0
   17.7848   68.2221    2.8596 H   0  0  0  0  0  0
   18.7133   67.9472    4.3133 H   0  0  0  0  0  0
   15.6071   65.0149    4.8713 H   0  0  0  0  0  0
   11.3368   66.0579    7.2409 H   0  0  0  0  0  0
   13.4666   67.1897    7.8906 H   0  0  0  0  0  0
   11.8691   62.5432    3.1765 H   0  0  0  0  0  0
   17.3895   68.9172    9.7801 H   0  0  0  0  0  0
   17.7536   67.2356   10.0623 H   0  0  0  0  0  0
   19.8665   66.3486    8.6870 H   0  0  0  0  0  0
   21.2766   67.1799    9.2968 H   0  0  0  0  0  0
   18.7711   69.3078    5.5319 H   0  0  0  0  0  0
   21.7366   68.0562    7.2064 H   0  0  0  0  0  0
   20.3755   67.1671    6.5398 H   0  0  0  0  0  0
   19.0881   70.4559    8.7975 H   0  0  0  0  0  0
   20.7725   70.0473    9.0274 H   0  0  0  0  0  0
  1 19  1  0  0  0
  1  2  2  0  0  0
  2  3  1  0  0  0
  2  7  1  0  0  0
  3 20  2  0  0  0
  3  4  1  0  0  0
  4  5  1  0  0  0
  4  6  2  0  0  0
  5 27  1  0  0  0
  5 28  1  0  0  0
  7  8  2  0  0  0
  7 10  1  0  0  0
  8 12  1  0  0  0
  8 29  1  0  0  0
  9 11  1  0  0  0
  9 10  2  0  0  0
  9 30  1  0  0  0
 10 31  1  0  0  0
 11 12  2  0  0  0
 11 15  1  0  0  0
 12 13  1  0  0  0
 13 14  2  0  0  0
 14 15  1  0  0  0
 14 32  1  0  0  0
 16 17  1  0  0  0
 16 19  1  0  0  0
 16 33  1  0  0  0
 16 34  1  0  0  0
 17 18  1  0  0  0
 17 24  1  0  0  0
 17 25  1  0  0  0
 18 23  1  0  0  0
 18 35  1  0  0  0
 18 36  1  0  0  0
 19 20  1  0  0  0
 20 21  1  0  0  0
 21 22  1  0  0  0
 21 37  1  0  0  0
 22 23  1  0  0  0
 22 24  1  0  0  0
 22 26  1  0  0  0
 23 38  1  0  0  0
 23 39  1  0  0  0
 24 40  1  0  0  0
 24 41  1  0  0  0
M  END
> <s_m_entry_id>
34640

> <s_m_entry_name>
dock_pv.383

> <s_m_Source_Path>
/home/csk/Desktop/cluster/DUD-E-result/tgfr1

> <s_m_Source_File>
dock_pv.maegz

> <i_m_Source_File_Index>
383

> <chembl_id>
CHEMBL4551566

> <chembl_pref_name>
None

> <i_lp_mmshare_version>
53161

> <r_lp_tautomer_probability>
1

> <s_lp_Force_Field>
OPLS_2005

> <r_lp_Energy>
41.77529

> <b_lp_Chiralities_Consistent>
1

> <s_lp_Variant>
CHEMBL4439_lig883 -1

> <s_i_glide_gridfile>
glide-grid_3hmm

> <i_i_glide_lignum>
1218

> <i_i_glide_rotatable_bonds>
2

> <r_i_docking_score>
-7.57259459415949

> <r_i_glide_ligand_efficiency>
-0.315524774756645

> <r_i_glide_ligand_efficiency_sa>
-0.910130940664078

> <r_i_glide_ligand_efficiency_ln>
-1.81246937010595

> <r_i_glide_gscore>
-7.57259459415949

> <r_i_glide_lipo>
-3.16257057557992

> <r_i_glide_hbond>
0

> <r_i_glide_metal>
0

> <r_i_glide_rewards>
-2.08195828742919

> <r_i_glide_evdw>
-47.2525978088379

> <r_i_glide_ecoul>
-0.864705979824066

> <r_i_glide_erotb>
0.164270056265137

> <r_i_glide_esite>
0

> <r_i_glide_emodel>
-69.3064941986161

> <r_i_glide_energy>
-48.117303788662

> <r_i_glide_einternal>
0.404441088438034

> <i_i_glide_confnum>
3

> <i_i_glide_posenum>
198

> <r_i_glide_eff_state_penalty>
0

> <s_user_duplicate_titles>
CHEMBL4439_lig883 

> <i_f3d_flags>
0

> <s_m_subgroup_title>
dock_pv

> <s_m_subgroupid>
dock_pv

> <b_m_subgroup_collapsed>
1

$$$$
CHEMBL4439_lig72
                    3D
 Schrodinger Suite 2021-1.
 37 40  0  0  1  0            999 V2000
   17.1114   67.6531    7.5655 C   0  0  0  0  0  0
   15.9082   66.9289    7.8362 C   0  0  0  0  0  0
   15.5747   66.8817    9.1195 N   0  0  0  0  0  0
   16.3604   67.5695    9.8883 C   0  0  0  0  0  0
   17.6044   68.4079    9.0762 S   0  0  0  0  0  0
   18.0070   67.9217    6.3638 C   0  0  0  0  0  0
   14.9912   66.1752    6.9163 C   0  0  0  0  0  0
   13.6538   66.3125    7.1583 N   0  0  0  0  0  0
   17.6050   68.1166    4.9943 C   0  0  0  0  0  0
   19.9339   68.4933    4.3338 N   0  0  0  0  0  0
   18.6177   68.4031    4.0168 C   0  0  0  0  0  0
   16.2678   67.6570   11.2407 N   0  0  0  0  0  0
   15.4670   65.3803    5.8740 C   0  0  0  0  0  0
   12.7765   65.6572    6.3570 C   0  0  0  0  0  0
   20.2950   68.2667    5.6107 C   0  0  0  0  0  0
   19.3898   67.9750    6.6198 C   0  0  0  0  0  0
   13.1834   64.8606    5.2837 C   0  0  0  0  0  0
   14.5532   64.7439    5.0309 C   0  0  0  0  0  0
   16.2669   68.0540    4.5372 C   0  0  0  0  0  0
   18.2658   68.5984    2.6602 C   0  0  0  0  0  0
   12.1604   64.1484    4.4196 C   0  0  0  0  0  0
   15.9565   68.1610    3.1850 C   0  0  0  0  0  0
   16.9444   68.4611    2.2583 C   0  0  0  0  0  0
   15.5041   67.2543   11.7761 H   0  0  0  0  0  0
   16.9406   68.1927   11.7676 H   0  0  0  0  0  0
   16.5288   65.2932    5.7159 H   0  0  0  0  0  0
   11.7279   65.7815    6.5916 H   0  0  0  0  0  0
   21.3546   68.3216    5.8202 H   0  0  0  0  0  0
   19.7888   67.7950    7.6065 H   0  0  0  0  0  0
   14.9115   64.1438    4.2066 H   0  0  0  0  0  0
   15.4621   67.9350    5.2390 H   0  0  0  0  0  0
   19.0329   68.8367    1.9363 H   0  0  0  0  0  0
   11.4314   64.8643    4.0396 H   0  0  0  0  0  0
   11.6181   63.4047    5.0036 H   0  0  0  0  0  0
   12.6199   63.6574    3.5601 H   0  0  0  0  0  0
   14.9280   68.0808    2.8624 H   0  0  0  0  0  0
   16.6791   68.5986    1.2212 H   0  0  0  0  0  0
  1  2  2  0  0  0
  1  5  1  0  0  0
  1  6  1  0  0  0
  2  3  1  0  0  0
  2  7  1  0  0  0
  3  4  2  0  0  0
  4  5  1  0  0  0
  4 12  1  0  0  0
  6  9  1  0  0  0
  6 16  2  0  0  0
  7  8  1  0  0  0
  7 13  2  0  0  0
  8 14  2  0  0  0
  9 11  1  0  0  0
  9 19  2  0  0  0
 10 15  2  0  0  0
 10 11  1  0  0  0
 11 20  2  0  0  0
 12 24  1  0  0  0
 12 25  1  0  0  0
 13 18  1  0  0  0
 13 26  1  0  0  0
 14 17  1  0  0  0
 14 27  1  0  0  0
 15 16  1  0  0  0
 15 28  1  0  0  0
 16 29  1  0  0  0
 17 18  2  0  0  0
 17 21  1  0  0  0
 18 30  1  0  0  0
 19 22  1  0  0  0
 19 31  1  0  0  0
 20 23  1  0  0  0
 20 32  1  0  0  0
 21 33  1  0  0  0
 21 34  1  0  0  0
 21 35  1  0  0  0
 22 23  2  0  0  0
 22 36  1  0  0  0
 23 37  1  0  0  0
M  END
> <s_m_entry_id>
34642

> <s_m_entry_name>
dock_pv.385

> <s_m_Source_Path>
/home/csk/Desktop/cluster/DUD-E-result/tgfr1

> <s_m_Source_File>
dock_pv.maegz

> <i_m_Source_File_Index>
385

> <chembl_id>
CHEMBL359611

> <chembl_pref_name>
None

> <i_lp_mmshare_version>
53161

> <r_lp_tautomer_probability>
1

> <s_lp_Force_Field>
OPLS_2005

> <r_lp_Energy>
18.542705

> <b_lp_Chiralities_Consistent>
1

> <s_lp_Variant>
CHEMBL4439_lig72-1

> <s_i_glide_gridfile>
glide-grid_3hmm

> <i_i_glide_lignum>
108

> <i_i_glide_rotatable_bonds>
2

> <r_i_docking_score>
-7.56349282610573

> <r_i_glide_ligand_efficiency>
-0.32884751417851

> <r_i_glide_ligand_efficiency_sa>
-0.935198586001097

> <r_i_glide_ligand_efficiency_ln>
-1.82892114731356

> <r_i_glide_gscore>
-7.56349282610573

> <r_i_glide_lipo>
-3.79192885815781

> <r_i_glide_hbond>
-0.156742499874006

> <r_i_glide_metal>
0

> <r_i_glide_rewards>
-1.4994312169727

> <r_i_glide_evdw>
-39.3100700378418

> <r_i_glide_ecoul>
-3.45140242576599

> <r_i_glide_erotb>
0.367823614655784

> <r_i_glide_esite>
0

> <r_i_glide_emodel>
-59.2868628676929

> <r_i_glide_energy>
-42.7614724636078

> <r_i_glide_einternal>
4.69765329360962

> <i_i_glide_confnum>
8

> <i_i_glide_posenum>
205

> <r_i_glide_eff_state_penalty>
0

> <s_user_duplicate_titles>
CHEMBL4439_lig72

> <i_f3d_flags>
0

> <s_m_subgroup_title>
dock_pv

> <s_m_subgroupid>
dock_pv

> <b_m_subgroup_collapsed>
1

$$$$
CHEMBL4439_lig141
                    3D
 Schrodinger Suite 2021-1.
 54 58  0  0  1  0            999 V2000
   15.6221   67.6844    3.7273 C   0  0  0  0  0  0
   16.3190   67.8743    4.9326 C   0  0  0  0  0  0
   17.5884   68.4569    4.8762 C   0  0  0  0  0  0
   16.1373   68.1046    2.5127 C   0  0  0  0  0  0
   17.4482   68.5943    2.4430 C   0  0  0  0  0  0
   18.1821   68.7980    3.6471 C   0  0  0  0  0  0
   19.4320   69.3428    3.6233 N   0  0  0  0  0  0
   19.9444   69.6565    2.4064 C   0  0  0  0  0  0
   19.2518   69.3597    1.2337 C   0  0  0  0  0  0
   17.9904   68.8741    1.2318 N   0  0  0  0  0  0
   17.1901   67.5074    8.4285 C   0  0  0  0  0  0
   17.1726   67.4991    9.8364 C   0  0  0  0  0  0
   18.3695   67.6559   10.5389 C   0  0  0  0  0  0
   19.5623   67.8271    9.8357 C   0  0  0  0  0  0
   19.5113   67.8300    8.4419 C   0  0  0  0  0  0
   18.3556   67.6568    7.7551 N   0  0  0  0  0  0
   15.9345   67.3406    7.5992 C   0  0  0  0  0  0
   14.8587   66.9153    8.2506 N   0  0  0  0  0  0
   13.8836   66.8332    7.3938 C   0  0  0  0  0  0
   14.2743   67.2569    6.1733 N   0  0  0  0  0  0
   15.6227   67.5138    6.2169 C   0  0  0  0  0  0
   12.5378   66.2483    7.7450 C   0  0  0  0  0  0
   11.4672   66.0568    6.7666 N   0  0  0  0  0  0
   11.5726   65.0385    5.8145 C   0  0  0  0  0  0
   12.8251   64.5335    5.5431 C   0  0  0  0  0  0
   13.0589   63.8428    4.3861 C   0  0  0  0  0  0
   11.9843   63.2996    3.6742 C   0  0  0  0  0  0
   10.6895   63.6569    4.0329 C   0  0  0  0  0  0
   10.4880   64.5808    5.0581 C   0  0  0  0  0  0
   20.7461   68.0548    7.5913 C   0  0  0  0  0  0
   14.4289   63.8753    3.8248 C   0  0  0  0  0  0
   14.6489   63.2570    2.8320 O   0  0  0  0  0  0
   15.3807   64.6224    4.3825 N   0  0  0  0  0  0
   14.6273   67.2676    3.7062 H   0  0  0  0  0  0
   18.1375   68.7347    5.7495 H   0  0  0  0  0  0
   15.5363   68.0568    1.6184 H   0  0  0  0  0  0
   20.9408   70.0731    2.3780 H   0  0  0  0  0  0
   19.6771   69.6263    0.2785 H   0  0  0  0  0  0
   16.2504   67.3826   10.3865 H   0  0  0  0  0  0
   18.3728   67.6540   11.6189 H   0  0  0  0  0  0
   20.4952   67.9625   10.3628 H   0  0  0  0  0  0
   13.6873   67.2791    5.3515 H   0  0  0  0  0  0
   12.2400   66.8569    8.5441 H   0  0  0  0  0  0
   12.6670   65.2571    8.1091 H   0  0  0  0  0  0
   10.5331   66.3829    6.9985 H   0  0  0  0  0  0
   13.6765   64.7980    6.1345 H   0  0  0  0  0  0
   12.1451   62.7100    2.7825 H   0  0  0  0  0  0
    9.8670   63.2837    3.4462 H   0  0  0  0  0  0
    9.4872   64.9331    5.2315 H   0  0  0  0  0  0
   21.6559   68.0573    8.1921 H   0  0  0  0  0  0
   20.8367   67.2728    6.8351 H   0  0  0  0  0  0
   20.6805   69.0140    7.0768 H   0  0  0  0  0  0
   16.2874   64.6457    3.9436 H   0  0  0  0  0  0
   15.2074   65.1745    5.2062 H   0  0  0  0  0  0
  1  2  2  0  0  0
  1  4  1  0  0  0
  1 34  1  0  0  0
  2  3  1  0  0  0
  2 21  1  0  0  0
  3  6  2  0  0  0
  3 35  1  0  0  0
  4  5  2  0  0  0
  4 36  1  0  0  0
  5 10  1  0  0  0
  5  6  1  0  0  0
  6  7  1  0  0  0
  7  8  2  0  0  0
  8  9  1  0  0  0
  8 37  1  0  0  0
  9 10  2  0  0  0
  9 38  1  0  0  0
 11 16  1  0  0  0
 11 12  2  0  0  0
 11 17  1  0  0  0
 12 13  1  0  0  0
 12 39  1  0  0  0
 13 14  2  0  0  0
 13 40  1  0  0  0
 14 15  1  0  0  0
 14 41  1  0  0  0
 15 30  1  0  0  0
 15 16  2  0  0  0
 17 21  2  0  0  0
 17 18  1  0  0  0
 18 19  2  0  0  0
 19 20  1  0  0  0
 19 22  1  0  0  0
 20 21  1  0  0  0
 20 42  1  0  0  0
 22 23  1  0  0  0
 22 43  1  0  0  0
 22 44  1  0  0  0
 23 24  1  0  0  0
 23 45  1  0  0  0
 24 25  2  0  0  0
 24 29  1  0  0  0
 25 26  1  0  0  0
 25 46  1  0  0  0
 26 27  2  0  0  0
 26 31  1  0  0  0
 27 28  1  0  0  0
 27 47  1  0  0  0
 28 29  2  0  0  0
 28 48  1  0  0  0
 29 49  1  0  0  0
 30 50  1  0  0  0
 30 51  1  0  0  0
 30 52  1  0  0  0
 31 32  2  0  0  0
 31 33  1  0  0  0
 33 53  1  0  0  0
 33 54  1  0  0  0
M  END
> <s_m_entry_id>
34643

> <s_m_entry_name>
dock_pv.386

> <s_m_Source_Path>
/home/csk/Desktop/cluster/DUD-E-result/tgfr1

> <s_m_Source_File>
dock_pv.maegz

> <i_m_Source_File_Index>
386

> <chembl_id>
CHEMBL229599

> <chembl_pref_name>
None

> <i_lp_mmshare_version>
53161

> <r_lp_tautomer_probability>
0.499999999999999

> <s_lp_Force_Field>
OPLS_2005

> <r_lp_Energy>
29.536699

> <b_lp_Chiralities_Consistent>
1

> <s_lp_Variant>
CHEMBL4439_lig141-2

> <s_i_glide_gridfile>
glide-grid_3hmm

> <i_i_glide_lignum>
218

> <i_i_glide_rotatable_bonds>
6

> <r_i_docking_score>
-7.56072986114565

> <r_i_glide_ligand_efficiency>
-0.229113026095323

> <r_i_glide_ligand_efficiency_sa>
-0.734887895793464

> <r_i_glide_ligand_efficiency_ln>
-1.68146717375469

> <r_i_glide_gscore>
-7.56072986114565

> <r_i_glide_lipo>
-4.45572730549838

> <r_i_glide_hbond>
-0.388850637877568

> <r_i_glide_metal>
0

> <r_i_glide_rewards>
-1.6062362664711

> <r_i_glide_evdw>
-26.9137744903564

> <r_i_glide_ecoul>
-1.93031048774719

> <r_i_glide_erotb>
0.525319646381302

> <r_i_glide_esite>
0

> <r_i_glide_emodel>
-35.5220653662769

> <r_i_glide_energy>
-28.8440849781036

> <r_i_glide_einternal>
5.1358118057251

> <i_i_glide_confnum>
12

> <i_i_glide_posenum>
94

> <r_i_glide_eff_state_penalty>
0

> <s_user_duplicate_titles>
CHEMBL4439_lig141,382339

> <i_f3d_flags>
0

> <s_m_subgroup_title>
dock_pv

> <s_m_subgroupid>
dock_pv

> <b_m_subgroup_collapsed>
1

$$$$
CHEMBL4439_lig802
                    3D
 Schrodinger Suite 2021-1.
 53 57  0  0  1  0            999 V2000
   19.8732   67.8134    9.1263 C   0  0  0  0  0  0
   20.8165   67.7328   10.1518 C   0  0  0  0  0  0
   22.0771   68.3050    9.9912 C   0  0  0  0  0  0
   22.4828   68.9618    8.8750 N   0  0  0  0  0  0
   18.6129   67.2126    9.3061 N   0  0  0  0  0  0
   17.4152   67.5729    8.6763 C   0  0  0  0  0  0
   17.0139   68.9076    8.6854 C   0  0  0  0  0  0
   15.8368   69.2571    8.0353 C   0  0  0  0  0  0
   15.0671   68.3600    7.3788 N   0  0  0  0  0  0
   15.4499   67.0584    7.3750 C   0  0  0  0  0  0
   16.6044   66.6253    8.0416 C   0  0  0  0  0  0
   14.5887   66.1609    6.5642 C   0  0  0  0  0  0
   15.1307   65.4453    5.4916 C   0  0  0  0  0  0
   14.3182   64.6585    4.6748 C   0  0  0  0  0  0
   12.9512   64.5664    4.9243 C   0  0  0  0  0  0
   12.3991   65.2559    6.0032 C   0  0  0  0  0  0
   13.2142   66.0419    6.8180 C   0  0  0  0  0  0
   12.6673   66.6543    7.8844 F   0  0  0  0  0  0
   20.2725   68.5014    7.9546 C   0  0  0  0  0  0
   21.5892   69.0505    7.8883 C   0  0  0  0  0  0
   21.6657   69.6568    6.6119 C   0  0  0  0  0  0
   20.4483   69.4101    6.0161 N   0  0  0  0  0  0
   19.5805   68.7391    6.7970 N   0  0  0  0  0  0
   15.0054   63.7923    3.3546 Cl  0  0  0  0  0  0
   20.0124   69.9225    4.7143 C   0  0  0  0  0  0
   19.1684   68.9515    3.8325 C   0  0  0  0  0  0
   17.7156   68.7032    4.3204 C   0  0  0  0  0  0
   16.8833   67.8522    3.3489 C   0  0  0  0  0  0
   16.8616   68.4841    2.0319 N   0  0  1  0  0  0
   18.1995   68.6377    1.4568 C   0  0  0  0  0  0
   19.0765   69.4938    2.3878 C   0  0  0  0  0  0
   20.5673   67.2568   11.0877 H   0  0  0  0  0  0
   22.8024   68.2519   10.7894 H   0  0  0  0  0  0
   18.5037   66.7081   10.1733 H   0  0  0  0  0  0
   17.6079   69.6571    9.1865 H   0  0  0  0  0  0
   15.4935   70.2810    8.0309 H   0  0  0  0  0  0
   16.8761   65.5835    8.0330 H   0  0  0  0  0  0
   16.1854   65.5272    5.2753 H   0  0  0  0  0  0
   12.3208   63.9685    4.2821 H   0  0  0  0  0  0
   11.3422   65.1779    6.2139 H   0  0  0  0  0  0
   22.4426   70.2104    6.1001 H   0  0  0  0  0  0
   20.9209   70.1843    4.1685 H   0  0  0  0  0  0
   19.4682   70.8544    4.8882 H   0  0  0  0  0  0
   19.6642   67.9811    3.7788 H   0  0  0  0  0  0
   17.2044   69.6559    4.4320 H   0  0  0  0  0  0
   17.6787   68.2588    5.3111 H   0  0  0  0  0  0
   15.8615   67.7381    3.7152 H   0  0  0  0  0  0
   17.3128   66.8529    3.2522 H   0  0  0  0  0  0
   16.2551   67.9681    1.4102 H   0  0  0  0  0  0
   18.1208   69.1053    0.4757 H   0  0  0  0  0  0
   18.6540   67.6578    1.3092 H   0  0  0  0  0  0
   20.0724   69.6177    1.9604 H   0  0  0  0  0  0
   18.6625   70.4994    2.3857 H   0  0  0  0  0  0
  1 19  1  0  0  0
  1  2  2  0  0  0
  1  5  1  0  0  0
  2  3  1  0  0  0
  2 32  1  0  0  0
  3  4  2  0  0  0
  3 33  1  0  0  0
  4 20  1  0  0  0
  5  6  1  0  0  0
  5 34  1  0  0  0
  6  7  2  0  0  0
  6 11  1  0  0  0
  7  8  1  0  0  0
  7 35  1  0  0  0
  8  9  2  0  0  0
  8 36  1  0  0  0
  9 10  1  0  0  0
 10 11  2  0  0  0
 10 12  1  0  0  0
 11 37  1  0  0  0
 12 13  2  0  0  0
 12 17  1  0  0  0
 13 14  1  0  0  0
 13 38  1  0  0  0
 14 15  2  0  0  0
 14 24  1  0  0  0
 15 16  1  0  0  0
 15 39  1  0  0  0
 16 17  2  0  0  0
 16 40  1  0  0  0
 17 18  1  0  0  0
 19 20  1  0  0  0
 19 23  2  0  0  0
 20 21  2  0  0  0
 21 22  1  0  0  0
 21 41  1  0  0  0
 22 23  1  0  0  0
 22 25  1  0  0  0
 25 26  1  0  0  0
 25 42  1  0  0  0
 25 43  1  0  0  0
 26 27  1  0  0  0
 26 31  1  0  0  0
 26 44  1  0  0  0
 27 28  1  0  0  0
 27 45  1  0  0  0
 27 46  1  0  0  0
 28 29  1  0  0  0
 28 47  1  0  0  0
 28 48  1  0  0  0
 29 30  1  0  0  0
 29 49  1  0  0  0
 30 31  1  0  0  0
 30 50  1  0  0  0
 30 51  1  0  0  0
 31 52  1  0  0  0
 31 53  1  0  0  0
M  END
> <s_m_entry_id>
34644

> <s_m_entry_name>
dock_pv.387

> <s_m_Source_Path>
/home/csk/Desktop/cluster/DUD-E-result/tgfr1

> <s_m_Source_File>
dock_pv.maegz

> <i_m_Source_File_Index>
387

> <chembl_id>
CHEMBL4096361

> <chembl_pref_name>
None

> <i_lp_mmshare_version>
53161

> <r_lp_tautomer_probability>
0.999999106000799

> <s_lp_Force_Field>
OPLS_2005

> <r_lp_Energy>
47.82037

> <b_lp_Chiralities_Consistent>
1

> <s_lp_Variant>
CHEMBL4439_lig802-1

> <s_i_glide_gridfile>
glide-grid_3hmm

> <i_i_glide_lignum>
1118

> <i_i_glide_rotatable_bonds>
5

> <r_i_docking_score>
-7.55865951677465

> <r_i_glide_ligand_efficiency>
-0.243827726347569

> <r_i_glide_ligand_efficiency_sa>
-0.765955701188077

> <r_i_glide_ligand_efficiency_ln>
-1.70470936612735

> <r_i_glide_gscore>
-7.55865951677465

> <r_i_glide_lipo>
-4.30187026220945

> <r_i_glide_hbond>
0

> <r_i_glide_metal>
0

> <r_i_glide_rewards>
-1.02502302469182

> <r_i_glide_evdw>
-49.8676300048828

> <r_i_glide_ecoul>
-1.73724746704102

> <r_i_glide_erotb>
0.522202390426908

> <r_i_glide_esite>
0

> <r_i_glide_emodel>
-66.413729218898

> <r_i_glide_energy>
-51.6048774719238

> <r_i_glide_einternal>
12.5610733032227

> <i_i_glide_confnum>
125

> <i_i_glide_posenum>
43

> <r_i_glide_eff_state_penalty>
0

> <s_user_duplicate_titles>
CHEMBL4439_lig802

> <i_f3d_flags>
0

> <s_m_subgroup_title>
dock_pv

> <s_m_subgroupid>
dock_pv

> <b_m_subgroup_collapsed>
1

$$$$
CHEMBL4439_lig3
                    3D
 Schrodinger Suite 2021-1.
 33 36  0  0  1  0            999 V2000
   13.3661   63.4545    3.6335 C   0  0  0  0  0  0
   12.4426   63.8864    4.5877 C   0  0  0  0  0  0
   12.8202   64.8565    5.5189 C   0  0  0  0  0  0
   14.1293   65.3618    5.4826 C   0  0  0  0  0  0
   15.0345   64.9349    4.5628 N   0  0  0  0  0  0
   14.6422   64.0177    3.6455 C   0  0  0  0  0  0
   14.6114   66.3986    6.4589 C   0  0  0  0  0  0
   14.0424   66.4657    7.6485 N   0  0  0  0  0  0
   14.6670   67.4499    8.2929 N   0  0  0  0  0  0
   15.6251   68.0511    7.5398 C   0  0  0  0  0  0
   15.6418   67.3768    6.3297 C   0  0  0  0  0  0
   16.5303   67.7146    5.1743 C   0  0  0  0  0  0
   15.9424   67.7685    3.9084 C   0  0  0  0  0  0
   16.6888   68.1884    2.8195 C   0  0  0  0  0  0
   17.9919   68.5397    2.8904 N   0  0  0  0  0  0
   18.6037   68.4827    4.1055 C   0  0  0  0  0  0
   19.9643   68.8630    4.1752 C   0  0  0  0  0  0
   20.6384   68.8386    5.3922 C   0  0  0  0  0  0
   19.9861   68.4346    6.5499 C   0  0  0  0  0  0
   18.6473   68.0569    6.5139 C   0  0  0  0  0  0
   17.9145   68.0753    5.2933 C   0  0  0  0  0  0
   13.0898   62.7182    2.8919 H   0  0  0  0  0  0
   11.4415   63.4843    4.5982 H   0  0  0  0  0  0
   12.1062   65.2053    6.2535 H   0  0  0  0  0  0
   15.3831   63.7082    2.9244 H   0  0  0  0  0  0
   14.4107   67.7240    9.2303 H   0  0  0  0  0  0
   16.1925   68.8899    7.9194 H   0  0  0  0  0  0
   14.8943   67.5365    3.7737 H   0  0  0  0  0  0
   16.2244   68.2738    1.8468 H   0  0  0  0  0  0
   20.4771   69.1780    3.2783 H   0  0  0  0  0  0
   21.6791   69.1240    5.4372 H   0  0  0  0  0  0
   20.5257   68.4145    7.4877 H   0  0  0  0  0  0
   18.1782   67.7263    7.4270 H   0  0  0  0  0  0
  1  2  2  0  0  0
  1  6  1  0  0  0
  1 22  1  0  0  0
  2  3  1  0  0  0
  2 23  1  0  0  0
  3  4  2  0  0  0
  3 24  1  0  0  0
  4  5  1  0  0  0
  4  7  1  0  0  0
  5  6  2  0  0  0
  6 25  1  0  0  0
  7  8  2  0  0  0
  7 11  1  0  0  0
  8  9  1  0  0  0
  9 10  1  0  0  0
  9 26  1  0  0  0
 10 11  2  0  0  0
 10 27  1  0  0  0
 11 12  1  0  0  0
 12 13  2  0  0  0
 12 21  1  0  0  0
 13 14  1  0  0  0
 13 28  1  0  0  0
 14 15  2  0  0  0
 14 29  1  0  0  0
 15 16  1  0  0  0
 16 17  2  0  0  0
 16 21  1  0  0  0
 17 18  1  0  0  0
 17 30  1  0  0  0
 18 19  2  0  0  0
 18 31  1  0  0  0
 19 20  1  0  0  0
 19 32  1  0  0  0
 20 21  2  0  0  0
 20 33  1  0  0  0
M  END
> <s_m_entry_id>
34645

> <s_m_entry_name>
dock_pv.388

> <s_m_Source_Path>
/home/csk/Desktop/cluster/DUD-E-result/tgfr1

> <s_m_Source_File>
dock_pv.maegz

> <i_m_Source_File_Index>
388

> <chembl_id>
CHEMBL261454

> <chembl_pref_name>
None

> <i_lp_mmshare_version>
53161

> <r_lp_tautomer_probability>
0.5

> <s_lp_Force_Field>
OPLS_2005

> <r_lp_Energy>
20.703256

> <b_lp_Chiralities_Consistent>
1

> <s_lp_Variant>
CHEMBL4439_lig3-1

> <s_i_glide_gridfile>
glide-grid_3hmm

> <i_i_glide_lignum>
3

> <i_i_glide_rotatable_bonds>
2

> <r_i_docking_score>
-7.55623139628916

> <r_i_glide_ligand_efficiency>
-0.359820542680436

> <r_i_glide_ligand_efficiency_sa>
-0.992717593352181

> <r_i_glide_ligand_efficiency_ln>
-1.86826294392927

> <r_i_glide_gscore>
-7.55623139628916

> <r_i_glide_lipo>
-4.04209891260884

> <r_i_glide_hbond>
-0.0594278250436132

> <r_i_glide_metal>
0

> <r_i_glide_rewards>
-1.8108061969697

> <r_i_glide_evdw>
-40.7472724914551

> <r_i_glide_ecoul>
-0.599103808403015

> <r_i_glide_erotb>
0.483330734166189

> <r_i_glide_esite>
0

> <r_i_glide_emodel>
-60.1728701697298

> <r_i_glide_energy>
-41.3463762998581

> <r_i_glide_einternal>
1.34940755367279

> <i_i_glide_confnum>
1

> <i_i_glide_posenum>
67

> <r_i_glide_eff_state_penalty>
0

> <s_user_duplicate_titles>
CHEMBL4439_lig3,CHEMBL4439_lig3,428708

> <i_f3d_flags>
0

> <s_m_subgroup_title>
dock_pv

> <s_m_subgroupid>
dock_pv

> <b_m_subgroup_collapsed>
1

$$$$
CHEMBL4439_lig66
                    3D
 Schrodinger Suite 2021-1.
 43 46  0  0  1  0            999 V2000
   23.6222   70.8034    2.3229 C   0  0  0  0  0  0
   22.2095   70.2964    1.2323 S   0  0  1  0  0  0
   22.6742   69.0814    0.4321 O   0  0  0  0  0  0
   21.0192   69.6571    2.4724 C   0  0  0  0  0  0
   19.6714   69.6570    2.1076 C   0  0  0  0  0  0
   18.7070   69.1983    2.9964 C   0  0  0  0  0  0
   19.0845   68.7572    4.2670 C   0  0  0  0  0  0
   20.4329   68.8010    4.6442 C   0  0  0  0  0  0
   21.4005   69.2557    3.7536 C   0  0  0  0  0  0
   18.0590   68.2280    5.2099 C   0  0  0  0  0  0
   16.9272   67.6578    4.8700 N   0  0  0  0  0  0
   16.3132   67.3095    5.9986 C   0  0  0  0  0  0
   15.0127   66.5615    5.9329 C   0  0  0  0  0  0
   14.7756   65.6537    4.8912 C   0  0  0  0  0  0
   13.5778   64.9468    4.8272 C   0  0  0  0  0  0
   12.6031   65.1552    5.7966 C   0  0  0  0  0  0
   11.4379   64.4736    5.7323 F   0  0  0  0  0  0
   12.8218   66.0569    6.8341 C   0  0  0  0  0  0
   14.0244   66.7584    6.9030 C   0  0  0  0  0  0
   17.0875   67.6728    7.1188 C   0  0  0  0  0  0
   18.1937   68.2590    6.5658 N   0  0  0  0  0  0
   16.9638   67.5155    8.5961 C   0  0  0  0  0  0
   17.5550   68.4567    9.4499 C   0  0  0  0  0  0
   17.4537   68.2827   10.8293 C   0  0  0  0  0  0
   16.7725   67.2566   11.3889 N   0  0  0  0  0  0
   16.2066   66.3496   10.5547 C   0  0  0  0  0  0
   16.2980   66.4263    9.1646 C   0  0  0  0  0  0
   23.2932   71.4680    3.1194 H   0  0  0  0  0  0
   24.3596   71.3344    1.7209 H   0  0  0  0  0  0
   24.1112   69.9310    2.7537 H   0  0  0  0  0  0
   19.3669   69.9864    1.1292 H   0  0  0  0  0  0
   17.6683   69.1777    2.6945 H   0  0  0  0  0  0
   20.7497   68.4531    5.6186 H   0  0  0  0  0  0
   22.4335   69.2549    4.0677 H   0  0  0  0  0  0
   15.5218   65.4875    4.1277 H   0  0  0  0  0  0
   13.3958   64.2520    4.0188 H   0  0  0  0  0  0
   12.0508   66.2109    7.5753 H   0  0  0  0  0  0
   14.1795   67.4729    7.6988 H   0  0  0  0  0  0
   18.9806   68.6357    7.0744 H   0  0  0  0  0  0
   18.0893   69.3127    9.0646 H   0  0  0  0  0  0
   17.8997   68.9920   11.5110 H   0  0  0  0  0  0
   15.6770   65.5414   11.0364 H   0  0  0  0  0  0
   15.8671   65.6577    8.5424 H   0  0  0  0  0  0
  1  2  1  0  0  0
  1 28  1  0  0  0
  1 29  1  0  0  0
  1 30  1  0  0  0
  2  3  2  0  0  0
  2  4  1  0  0  0
  4  5  2  0  0  0
  4  9  1  0  0  0
  5  6  1  0  0  0
  5 31  1  0  0  0
  6  7  2  0  0  0
  6 32  1  0  0  0
  7  8  1  0  0  0
  7 10  1  0  0  0
  8  9  2  0  0  0
  8 33  1  0  0  0
  9 34  1  0  0  0
 10 11  2  0  0  0
 10 21  1  0  0  0
 11 12  1  0  0  0
 12 13  1  0  0  0
 12 20  2  0  0  0
 13 14  2  0  0  0
 13 19  1  0  0  0
 14 15  1  0  0  0
 14 35  1  0  0  0
 15 16  2  0  0  0
 15 36  1  0  0  0
 16 17  1  0  0  0
 16 18  1  0  0  0
 18 19  2  0  0  0
 18 37  1  0  0  0
 19 38  1  0  0  0
 20 21  1  0  0  0
 20 22  1  0  0  0
 21 39  1  0  0  0
 22 23  1  0  0  0
 22 27  2  0  0  0
 23 24  2  0  0  0
 23 40  1  0  0  0
 24 25  1  0  0  0
 24 41  1  0  0  0
 25 26  2  0  0  0
 26 27  1  0  0  0
 26 42  1  0  0  0
 27 43  1  0  0  0
M  END
> <s_m_entry_id>
34646

> <s_m_entry_name>
dock_pv.389

> <s_m_Source_Path>
/home/csk/Desktop/cluster/DUD-E-result/tgfr1

> <s_m_Source_File>
dock_pv.maegz

> <i_m_Source_File_Index>
389

> <chembl_id>
CHEMBL10

> <chembl_pref_name>
SB-203580

> <i_lp_mmshare_version>
53161

> <r_lp_tautomer_probability>
0.499999999999999

> <s_lp_Force_Field>
OPLS_2005

> <r_lp_Energy>
15.445773

> <b_lp_Chiralities_Consistent>
1

> <s_lp_Variant>
CHEMBL4439_lig66-1

> <s_i_glide_gridfile>
glide-grid_3hmm

> <i_i_glide_lignum>
99

> <i_i_glide_rotatable_bonds>
4

> <r_i_docking_score>
-7.553348812812

> <r_i_glide_ligand_efficiency>
-0.279753659733778

> <r_i_glide_ligand_efficiency_sa>
-0.839260978279311

> <r_i_glide_ligand_efficiency_ln>
-1.75829507693517

> <r_i_glide_gscore>
-7.553348812812

> <r_i_glide_lipo>
-2.77297429540032

> <r_i_glide_hbond>
-0.32

> <r_i_glide_metal>
0

> <r_i_glide_rewards>
-1.75438966445122

> <r_i_glide_evdw>
-45.0010871887207

> <r_i_glide_ecoul>
-5.75871896743774

> <r_i_glide_erotb>
0.407877351591229

> <r_i_glide_esite>
0

> <r_i_glide_emodel>
-69.6815283996019

> <r_i_glide_energy>
-50.7598061561584

> <r_i_glide_einternal>
5.67825269699097

> <i_i_glide_confnum>
4

> <i_i_glide_posenum>
89

> <r_i_glide_eff_state_penalty>
0

> <s_user_duplicate_titles>
CHEMBL4439_lig66

> <i_f3d_flags>
0

> <s_m_subgroup_title>
dock_pv

> <s_m_subgroupid>
dock_pv

> <b_m_subgroup_collapsed>
1

$$$$
CHEMBL4439_lig330
                    3D
 Schrodinger Suite 2021-1.
 50 54  0  0  1  0            999 V2000
   10.9591   64.0392    5.2645 C   0  0  0  0  0  0
   12.3319   64.5060    5.3108 C   0  0  0  0  0  0
   12.7590   65.3601    6.3348 C   0  0  0  0  0  0
   14.1031   65.7445    6.4250 C   0  0  0  0  0  0
   15.0056   65.2561    5.4661 C   0  0  0  0  0  0
   14.5696   64.4545    4.4170 C   0  0  0  0  0  0
   13.2378   64.0593    4.3483 C   0  0  0  0  0  0
    9.8692   63.6573    5.2314 N   0  0  0  0  0  0
   14.5493   66.6455    7.5875 C   0  0  0  0  0  0
   15.9353   67.2631    7.4884 C   0  0  0  0  0  0
   16.4701   67.7340    6.3315 N   0  0  0  0  0  0
   17.7784   68.0657    6.5683 C   0  0  0  0  0  0
   17.8844   67.9464    7.9764 C   0  0  0  0  0  0
   16.7598   67.4400    8.4871 N   0  0  0  0  0  0
   20.1157   68.0572   11.0742 C   0  0  0  0  0  0
   19.1060   67.7140   10.1794 C   0  0  0  0  0  0
   19.0143   68.3033    8.9101 C   0  0  0  0  0  0
   19.9698   69.2593    8.5490 C   0  0  0  0  0  0
   18.6743   68.4698    5.4336 C   0  0  0  0  0  0
   18.0304   68.8577    4.2950 N   0  0  0  0  0  0
   18.7683   69.2429    3.2258 C   0  0  0  0  0  0
   20.1629   69.2572    3.2472 C   0  0  0  0  0  0
   20.8165   68.8502    4.4060 C   0  0  0  0  0  0
   20.0707   68.4147    5.5004 C   0  0  0  0  0  0
   21.0493   69.5744    9.4050 C   0  0  0  0  0  0
   21.1127   68.9866   10.7014 C   0  0  0  0  0  0
   22.1075   69.2859   11.5854 N   0  0  0  0  0  0
   23.0741   70.1537   11.1909 C   0  0  0  0  0  0
   23.1036   70.7519    9.9348 C   0  0  0  0  0  0
   22.0878   70.4597    9.0280 C   0  0  0  0  0  0
   17.9909   69.6741    1.9978 C   0  0  0  0  0  0
   12.0505   65.7022    7.0806 H   0  0  0  0  0  0
   16.0624   65.4664    5.5168 H   0  0  0  0  0  0
   15.2752   64.1023    3.6780 H   0  0  0  0  0  0
   12.9220   63.4121    3.5395 H   0  0  0  0  0  0
   13.8111   67.4389    7.7033 H   0  0  0  0  0  0
   14.4641   66.0661    8.5036 H   0  0  0  0  0  0
   16.0258   67.7190    5.4241 H   0  0  0  0  0  0
   20.1647   67.5857   12.0439 H   0  0  0  0  0  0
   18.3772   66.9804   10.4887 H   0  0  0  0  0  0
   19.9028   69.7818    7.6098 H   0  0  0  0  0  0
   20.7333   69.5846    2.3875 H   0  0  0  0  0  0
   21.8952   68.8480    4.4475 H   0  0  0  0  0  0
   20.5787   68.0373    6.3741 H   0  0  0  0  0  0
   23.8540   70.3569   11.9091 H   0  0  0  0  0  0
   23.9033   71.4268    9.6575 H   0  0  0  0  0  0
   22.0863   70.9063    8.0448 H   0  0  0  0  0  0
   18.6231   69.6567    1.1087 H   0  0  0  0  0  0
   17.1431   69.0135    1.8156 H   0  0  0  0  0  0
   17.6140   70.6878    2.1269 H   0  0  0  0  0  0
  1  8  3  0  0  0
  1  2  1  0  0  0
  2  7  2  0  0  0
  2  3  1  0  0  0
  3  4  2  0  0  0
  3 32  1  0  0  0
  4  9  1  0  0  0
  4  5  1  0  0  0
  5  6  2  0  0  0
  5 33  1  0  0  0
  6  7  1  0  0  0
  6 34  1  0  0  0
  7 35  1  0  0  0
  9 10  1  0  0  0
  9 36  1  0  0  0
  9 37  1  0  0  0
 10 11  1  0  0  0
 10 14  2  0  0  0
 11 12  1  0  0  0
 11 38  1  0  0  0
 12 13  2  0  0  0
 12 19  1  0  0  0
 13 14  1  0  0  0
 13 17  1  0  0  0
 15 16  2  0  0  0
 15 26  1  0  0  0
 15 39  1  0  0  0
 16 17  1  0  0  0
 16 40  1  0  0  0
 17 18  2  0  0  0
 18 25  1  0  0  0
 18 41  1  0  0  0
 19 20  1  0  0  0
 19 24  2  0  0  0
 20 21  2  0  0  0
 21 22  1  0  0  0
 21 31  1  0  0  0
 22 23  2  0  0  0
 22 42  1  0  0  0
 23 24  1  0  0  0
 23 43  1  0  0  0
 24 44  1  0  0  0
 25 26  1  0  0  0
 25 30  2  0  0  0
 26 27  2  0  0  0
 27 28  1  0  0  0
 28 29  2  0  0  0
 28 45  1  0  0  0
 29 30  1  0  0  0
 29 46  1  0  0  0
 30 47  1  0  0  0
 31 48  1  0  0  0
 31 49  1  0  0  0
 31 50  1  0  0  0
M  END
> <s_m_entry_id>
34647

> <s_m_entry_name>
dock_pv.390

> <s_m_Source_Path>
/home/csk/Desktop/cluster/DUD-E-result/tgfr1

> <s_m_Source_File>
dock_pv.maegz

> <i_m_Source_File_Index>
390

> <chembl_id>
CHEMBL1165374

> <chembl_pref_name>
None

> <i_lp_mmshare_version>
53161

> <r_lp_tautomer_probability>
0.499999999999999

> <s_lp_Force_Field>
OPLS_2005

> <r_lp_Energy>
19.433375

> <b_lp_Chiralities_Consistent>
1

> <s_lp_Variant>
CHEMBL4439_lig330-1

> <s_i_glide_gridfile>
glide-grid_3hmm

> <i_i_glide_lignum>
466

> <i_i_glide_rotatable_bonds>
4

> <r_i_docking_score>
-7.54450649260302

> <r_i_glide_ligand_efficiency>
-0.243371177180743

> <r_i_glide_ligand_efficiency_sa>
-0.764521506470183

> <r_i_glide_ligand_efficiency_ln>
-1.70151742543855

> <r_i_glide_gscore>
-7.54450649260302

> <r_i_glide_lipo>
-3.27165818272507

> <r_i_glide_hbond>
0

> <r_i_glide_metal>
0

> <r_i_glide_rewards>
-1.86915700823316

> <r_i_glide_evdw>
-55.3441352844238

> <r_i_glide_ecoul>
-0.821836709976196

> <r_i_glide_erotb>
0.486790969072829

> <r_i_glide_esite>
0

> <r_i_glide_emodel>
-80.9976123309501

> <r_i_glide_energy>
-56.1659719944

> <r_i_glide_einternal>
2.90663933753967

> <i_i_glide_confnum>
11

> <i_i_glide_posenum>
32

> <r_i_glide_eff_state_penalty>
0

> <s_user_duplicate_titles>
CHEMBL4439_lig330,645883

> <i_f3d_flags>
0

> <s_m_subgroup_title>
dock_pv

> <s_m_subgroupid>
dock_pv

> <b_m_subgroup_collapsed>
1

$$$$
CHEMBL4439_lig583
                    3D
 Schrodinger Suite 2021-1.
 46 49  0  0  1  0            999 V2000
   16.1621   67.6569    3.8845 S   0  0  0  0  0  0
   17.1161   67.8298    5.3271 C   0  0  0  0  0  0
   18.2882   68.3858    5.1175 N   0  0  0  0  0  0
   18.5130   68.6669    3.8490 C   0  0  0  0  0  0
   17.4654   68.3702    2.9841 C   0  0  0  0  0  0
   19.8670   69.2540    3.5285 C   0  0  0  0  0  0
   16.6737   67.4114    6.6654 C   0  0  0  0  0  0
   15.6035   66.6811    7.2041 C   0  0  0  0  0  0
   15.6844   66.6107    8.5286 N   0  0  0  0  0  0
   16.7753   67.2417    8.8903 C   0  0  0  0  0  0
   17.4042   67.7436    7.7789 N   0  0  0  0  0  0
   14.4585   66.0132    6.5254 C   0  0  0  0  0  0
   13.1650   66.2822    6.9804 C   0  0  0  0  0  0
   12.0508   65.6554    6.4313 C   0  0  0  0  0  0
   14.6718   65.0988    5.4876 C   0  0  0  0  0  0
   13.5564   64.4595    4.9254 C   0  0  0  0  0  0
   12.2430   64.7348    5.3940 C   0  0  0  0  0  0
   11.2498   64.0411    4.7781 N   0  0  0  0  0  0
   11.7349   63.2571    3.8585 C   0  0  0  0  0  0
   13.4660   63.2573    3.6399 S   0  0  0  0  0  0
   17.2626   67.3743   10.2434 C   0  0  0  0  0  0
   18.4118   68.0569   10.3860 N   0  0  0  0  0  0
   19.1068   68.2419   11.6550 C   0  0  0  0  0  0
   20.4423   68.9956   11.5035 C   0  0  0  0  0  0
   21.5824   68.2291   10.7968 C   0  0  0  0  0  0
   21.3974   68.0271    9.2848 C   0  0  0  0  0  0
   16.6663   66.8574   11.1882 O   0  0  0  0  0  0
   17.4035   68.5105    1.9154 H   0  0  0  0  0  0
   19.9192   69.6448    2.5115 H   0  0  0  0  0  0
   20.1280   70.0672    4.2028 H   0  0  0  0  0  0
   20.6558   68.5077    3.6316 H   0  0  0  0  0  0
   18.2668   68.2680    7.7705 H   0  0  0  0  0  0
   13.0200   66.9838    7.7895 H   0  0  0  0  0  0
   11.0651   65.8685    6.8085 H   0  0  0  0  0  0
   15.6711   64.8800    5.1414 H   0  0  0  0  0  0
   11.1092   62.6378    3.2326 H   0  0  0  0  0  0
   18.7342   68.6423    9.6322 H   0  0  0  0  0  0
   19.3066   67.2574   12.0834 H   0  0  0  0  0  0
   18.4603   68.7660   12.3624 H   0  0  0  0  0  0
   20.7893   69.2544   12.5053 H   0  0  0  0  0  0
   20.2693   69.9510   11.0051 H   0  0  0  0  0  0
   21.7361   67.2623   11.2792 H   0  0  0  0  0  0
   22.5094   68.7832   10.9505 H   0  0  0  0  0  0
   22.3196   67.6633    8.8337 H   0  0  0  0  0  0
   21.1399   68.9622    8.7870 H   0  0  0  0  0  0
   20.6206   67.2964    9.0641 H   0  0  0  0  0  0
  1  2  1  0  0  0
  1  5  1  0  0  0
  2  3  2  0  0  0
  2  7  1  0  0  0
  3  4  1  0  0  0
  4  5  2  0  0  0
  4  6  1  0  0  0
  5 28  1  0  0  0
  6 29  1  0  0  0
  6 30  1  0  0  0
  6 31  1  0  0  0
  7  8  2  0  0  0
  7 11  1  0  0  0
  8 12  1  0  0  0
  8  9  1  0  0  0
  9 10  2  0  0  0
 10 11  1  0  0  0
 10 21  1  0  0  0
 11 32  1  0  0  0
 12 13  2  0  0  0
 12 15  1  0  0  0
 13 14  1  0  0  0
 13 33  1  0  0  0
 14 17  2  0  0  0
 14 34  1  0  0  0
 15 16  2  0  0  0
 15 35  1  0  0  0
 16 17  1  0  0  0
 16 20  1  0  0  0
 17 18  1  0  0  0
 18 19  2  0  0  0
 19 20  1  0  0  0
 19 36  1  0  0  0
 21 22  1  0  0  0
 21 27  2  0  0  0
 22 23  1  0  0  0
 22 37  1  0  0  0
 23 24  1  0  0  0
 23 38  1  0  0  0
 23 39  1  0  0  0
 24 25  1  0  0  0
 24 40  1  0  0  0
 24 41  1  0  0  0
 25 26  1  0  0  0
 25 42  1  0  0  0
 25 43  1  0  0  0
 26 44  1  0  0  0
 26 45  1  0  0  0
 26 46  1  0  0  0
M  END
> <s_m_entry_id>
34648

> <s_m_entry_name>
dock_pv.391

> <s_m_Source_Path>
/home/csk/Desktop/cluster/DUD-E-result/tgfr1

> <s_m_Source_File>
dock_pv.maegz

> <i_m_Source_File_Index>
391

> <chembl_id>
CHEMBL2208007

> <chembl_pref_name>
None

> <i_lp_mmshare_version>
53161

> <r_lp_tautomer_probability>
0.499999999999999

> <s_lp_Force_Field>
OPLS_2005

> <r_lp_Energy>
14.389827

> <b_lp_Chiralities_Consistent>
1

> <s_lp_Variant>
CHEMBL4439_lig583-2

> <s_i_glide_gridfile>
glide-grid_3hmm

> <i_i_glide_lignum>
780

> <i_i_glide_rotatable_bonds>
7

> <r_i_docking_score>
-7.54298737773576

> <r_i_glide_ligand_efficiency>
-0.279369902879102

> <r_i_glide_ligand_efficiency_sa>
-0.838109707716549

> <r_i_glide_ligand_efficiency_ln>
-1.75588310567102

> <r_i_glide_gscore>
-7.54298737773576

> <r_i_glide_lipo>
-3.71629729365173

> <r_i_glide_hbond>
0

> <r_i_glide_metal>
0

> <r_i_glide_rewards>
-1.61611062501302

> <r_i_glide_evdw>
-54.4472389221191

> <r_i_glide_ecoul>
-1.54328489303589

> <r_i_glide_erotb>
0.743275220990324

> <r_i_glide_esite>
0

> <r_i_glide_emodel>
-76.3533407903607

> <r_i_glide_energy>
-55.990523815155

> <r_i_glide_einternal>
9.07528686523438

> <i_i_glide_confnum>
39

> <i_i_glide_posenum>
191

> <r_i_glide_eff_state_penalty>
0

> <s_user_duplicate_titles>
CHEMBL4439_lig583,CHEMBL4439_lig583

> <i_f3d_flags>
0

> <s_m_subgroup_title>
dock_pv

> <s_m_subgroupid>
dock_pv

> <b_m_subgroup_collapsed>
1

$$$$
CHEMBL4439_lig598
                    3D
 Schrodinger Suite 2021-1.
 39 42  0  0  1  0            999 V2000
   16.2435   66.7304    8.9299 S   0  0  0  0  0  0
   17.3192   67.5427    7.8311 C   0  0  0  0  0  0
   18.3896   68.0283    8.4296 N   0  0  0  0  0  0
   18.4109   67.8135    9.7333 C   0  0  0  0  0  0
   17.3009   67.1504   10.2413 C   0  0  0  0  0  0
   19.6282   68.2989   10.4857 C   0  0  0  0  0  0
   17.1065   67.6367    6.3587 C   0  0  0  0  0  0
   16.0842   67.1118    5.5328 C   0  0  0  0  0  0
   16.4737   67.4700    4.2706 N   0  0  0  0  0  0
   17.6477   68.1527    4.3679 C   0  0  0  0  0  0
   18.0162   68.2691    5.6168 N   0  0  0  0  0  0
   14.8280   66.3302    5.7286 C   0  0  0  0  0  0
   13.8839   66.7234    6.6837 C   0  0  0  0  0  0
   12.6659   66.0578    6.8316 C   0  0  0  0  0  0
   14.5739   65.2363    4.8873 C   0  0  0  0  0  0
   13.3330   64.5948    4.9887 C   0  0  0  0  0  0
   12.3697   65.0165    5.9442 C   0  0  0  0  0  0
   11.1890   64.3505    5.9018 N   0  0  0  0  0  0
   11.1942   63.4619    4.9542 C   0  0  0  0  0  0
   12.6725   63.2580    4.0513 S   0  0  0  0  0  0
   18.4456   68.6379    3.1706 C   0  0  0  0  0  0
   17.7595   69.7372    2.3348 C   0  0  0  0  0  0
   16.5542   69.2537    1.5132 C   0  0  0  0  0  0
   17.0829   66.8766   11.2616 H   0  0  0  0  0  0
   19.4982   68.2167   11.5667 H   0  0  0  0  0  0
   20.5129   67.7125   10.2328 H   0  0  0  0  0  0
   19.8660   69.3420   10.2711 H   0  0  0  0  0  0
   15.9843   67.2608    3.4144 H   0  0  0  0  0  0
   14.0867   67.5840    7.3066 H   0  0  0  0  0  0
   11.9367   66.3710    7.5650 H   0  0  0  0  0  0
   15.2961   64.9192    4.1493 H   0  0  0  0  0  0
   10.3285   62.8574    4.7336 H   0  0  0  0  0  0
   18.6670   67.7929    2.5211 H   0  0  0  0  0  0
   19.4190   69.0099    3.5011 H   0  0  0  0  0  0
   18.4925   70.1500    1.6390 H   0  0  0  0  0  0
   17.4686   70.5690    2.9743 H   0  0  0  0  0  0
   16.1361   70.0606    0.9093 H   0  0  0  0  0  0
   15.7486   68.8687    2.1365 H   0  0  0  0  0  0
   16.8568   68.4577    0.8323 H   0  0  0  0  0  0
  1  2  1  0  0  0
  1  5  1  0  0  0
  2  3  2  0  0  0
  2  7  1  0  0  0
  3  4  1  0  0  0
  4  5  2  0  0  0
  4  6  1  0  0  0
  5 24  1  0  0  0
  6 25  1  0  0  0
  6 26  1  0  0  0
  6 27  1  0  0  0
  7  8  2  0  0  0
  7 11  1  0  0  0
  8  9  1  0  0  0
  8 12  1  0  0  0
  9 10  1  0  0  0
  9 28  1  0  0  0
 10 11  2  0  0  0
 10 21  1  0  0  0
 12 13  2  0  0  0
 12 15  1  0  0  0
 13 14  1  0  0  0
 13 29  1  0  0  0
 14 17  2  0  0  0
 14 30  1  0  0  0
 15 16  2  0  0  0
 15 31  1  0  0  0
 16 17  1  0  0  0
 16 20  1  0  0  0
 17 18  1  0  0  0
 18 19  2  0  0  0
 19 20  1  0  0  0
 19 32  1  0  0  0
 21 22  1  0  0  0
 21 33  1  0  0  0
 21 34  1  0  0  0
 22 23  1  0  0  0
 22 35  1  0  0  0
 22 36  1  0  0  0
 23 37  1  0  0  0
 23 38  1  0  0  0
 23 39  1  0  0  0
M  END
> <s_m_entry_id>
34649

> <s_m_entry_name>
dock_pv.392

> <s_m_Source_Path>
/home/csk/Desktop/cluster/DUD-E-result/tgfr1

> <s_m_Source_File>
dock_pv.maegz

> <i_m_Source_File_Index>
392

> <chembl_id>
CHEMBL2207991

> <chembl_pref_name>
None

> <i_lp_mmshare_version>
53161

> <r_lp_tautomer_probability>
0.499999999999999

> <s_lp_Force_Field>
OPLS_2005

> <r_lp_Energy>
7.844719

> <b_lp_Chiralities_Consistent>
1

> <s_lp_Variant>
CHEMBL4439_lig598-1

> <s_i_glide_gridfile>
glide-grid_3hmm

> <i_i_glide_lignum>
809

> <i_i_glide_rotatable_bonds>
4

> <r_i_docking_score>
-7.53462608218144

> <r_i_glide_ligand_efficiency>
-0.327592438355715

> <r_i_glide_ligand_efficiency_sa>
-0.93162931731517

> <r_i_glide_ligand_efficiency_ln>
-1.8219409068835

> <r_i_glide_gscore>
-7.53462608218144

> <r_i_glide_lipo>
-4.0073779317353

> <r_i_glide_hbond>
0

> <r_i_glide_metal>
0

> <r_i_glide_rewards>
-1.80559135191811

> <r_i_glide_evdw>
-47.4812965393066

> <r_i_glide_ecoul>
1.08195900917053

> <r_i_glide_erotb>
0.490114177061724

> <r_i_glide_esite>
0

> <r_i_glide_emodel>
-65.8382303751425

> <r_i_glide_energy>
-46.3993375301361

> <r_i_glide_einternal>
3.80982255935669

> <i_i_glide_confnum>
8

> <i_i_glide_posenum>
160

> <r_i_glide_eff_state_penalty>
0

> <s_user_duplicate_titles>
CHEMBL4439_lig598

> <i_f3d_flags>
0

> <s_m_subgroup_title>
dock_pv

> <s_m_subgroupid>
dock_pv

> <b_m_subgroup_collapsed>
1

$$$$
CHEMBL4439_lig515
                    3D
 Schrodinger Suite 2021-1.
 33 36  0  0  1  0            999 V2000
   16.6678   68.0160   10.3532 N   0  0  0  0  0  0
   16.3670   67.6965    9.0630 C   0  0  0  0  0  0
   17.1309   68.1104    8.0152 N   0  0  0  0  0  0
   16.5630   67.6233    6.8627 C   0  0  0  0  0  0
   15.4501   66.8974    7.3404 C   0  0  0  0  0  0
   15.3620   66.9641    8.6664 N   0  0  0  0  0  0
   14.4327   66.0971    6.5930 C   0  0  0  0  0  0
   14.8325   65.2364    5.5619 C   0  0  0  0  0  0
   12.1076   65.4079    6.2563 C   0  0  0  0  0  0
   13.0668   66.1723    6.9340 C   0  0  0  0  0  0
   12.5465   64.5823    5.2304 C   0  0  0  0  0  0
   13.8627   64.5110    4.8891 C   0  0  0  0  0  0
   14.0234   63.6533    3.8547 O   0  0  0  0  0  0
   12.7418   63.1818    3.5370 C   0  0  0  0  0  0
   11.8259   63.7495    4.4372 O   0  0  0  0  0  0
   17.1664   67.9227    5.5487 C   0  0  0  0  0  0
   18.3619   68.4568    5.4272 N   0  0  0  0  0  0
   18.7166   68.6656    4.1736 C   0  0  0  0  0  0
   17.7681   68.3051    3.2227 C   0  0  0  0  0  0
   16.3698   67.6572    4.0238 S   0  0  0  0  0  0
   20.0897   69.2564    3.9501 C   0  0  0  0  0  0
   16.1093   67.6516   11.1132 H   0  0  0  0  0  0
   17.9602   68.6794    8.0793 H   0  0  0  0  0  0
   17.2068   68.8452   10.5700 H   0  0  0  0  0  0
   15.8669   65.1451    5.2930 H   0  0  0  0  0  0
   11.0671   65.4738    6.5201 H   0  0  0  0  0  0
   12.7461   66.8284    7.7281 H   0  0  0  0  0  0
   12.7271   62.0970    3.6336 H   0  0  0  0  0  0
   12.4922   63.4887    2.5202 H   0  0  0  0  0  0
   17.8237   68.3798    2.1464 H   0  0  0  0  0  0
   20.2622   69.4964    2.9008 H   0  0  0  0  0  0
   20.8791   68.5657    4.2492 H   0  0  0  0  0  0
   20.2385   70.1747    4.5167 H   0  0  0  0  0  0
  1  2  1  0  0  0
  1 22  1  0  0  0
  1 24  1  0  0  0
  2  6  2  0  0  0
  2  3  1  0  0  0
  3 23  1  0  0  0
  3  4  1  0  0  0
  4  5  2  0  0  0
  4 16  1  0  0  0
  5  7  1  0  0  0
  5  6  1  0  0  0
  7 10  1  0  0  0
  7  8  2  0  0  0
  8 12  1  0  0  0
  8 25  1  0  0  0
  9 11  1  0  0  0
  9 10  2  0  0  0
  9 26  1  0  0  0
 10 27  1  0  0  0
 11 12  2  0  0  0
 11 15  1  0  0  0
 12 13  1  0  0  0
 13 14  1  0  0  0
 14 15  1  0  0  0
 14 28  1  0  0  0
 14 29  1  0  0  0
 16 17  2  0  0  0
 16 20  1  0  0  0
 17 18  1  0  0  0
 18 19  2  0  0  0
 18 21  1  0  0  0
 19 20  1  0  0  0
 19 30  1  0  0  0
 21 31  1  0  0  0
 21 32  1  0  0  0
 21 33  1  0  0  0
M  END
> <s_m_entry_id>
34650

> <s_m_entry_name>
dock_pv.393

> <s_m_Source_Path>
/home/csk/Desktop/cluster/DUD-E-result/tgfr1

> <s_m_Source_File>
dock_pv.maegz

> <i_m_Source_File_Index>
393

> <chembl_id>
CHEMBL1957670

> <chembl_pref_name>
None

> <i_lp_mmshare_version>
53161

> <r_lp_tautomer_probability>
0.499999058373973

> <s_lp_Force_Field>
OPLS_2005

> <r_lp_Energy>
21.580983

> <b_lp_Chiralities_Consistent>
1

> <s_lp_Variant>
CHEMBL4439_lig515-2

> <s_i_glide_gridfile>
glide-grid_3hmm

> <i_i_glide_lignum>
685

> <i_i_glide_rotatable_bonds>
2

> <r_i_docking_score>
-7.52938368919234

> <r_i_glide_ligand_efficiency>
-0.358542080437731

> <r_i_glide_ligand_efficiency_sa>
-0.989190412965769

> <r_i_glide_ligand_efficiency_ln>
-1.86162490260048

> <r_i_glide_gscore>
-7.52938368919234

> <r_i_glide_lipo>
-2.91266778350421

> <r_i_glide_hbond>
0

> <r_i_glide_metal>
0

> <r_i_glide_rewards>
-2.51522478345856

> <r_i_glide_evdw>
-44.0441589355469

> <r_i_glide_ecoul>
-2.04543828964233

> <r_i_glide_erotb>
0.407532567994117

> <r_i_glide_esite>
0

> <r_i_glide_emodel>
-66.7934424064395

> <r_i_glide_energy>
-46.0895972251892

> <r_i_glide_einternal>
0.601490080356598

> <i_i_glide_confnum>
4

> <i_i_glide_posenum>
392

> <r_i_glide_eff_state_penalty>
0

> <s_user_duplicate_titles>
CHEMBL4439_lig515,CHEMBL4439_lig515

> <i_f3d_flags>
0

> <s_m_subgroup_title>
dock_pv

> <s_m_subgroupid>
dock_pv

> <b_m_subgroup_collapsed>
1

$$$$
CHEMBL4439_lig870
                    3D
 Schrodinger Suite 2021-1.
 40 43  0  0  1  0            999 V2000
   14.9736   65.6570    7.5077 N   0  0  0  0  0  0
   16.0299   66.2545    8.0161 N   0  0  0  0  0  0
   16.6670   67.0467    7.1201 C   0  0  0  0  0  0
   16.0045   66.8803    5.9063 C   0  0  0  0  0  0
   14.9636   65.9643    6.2307 C   0  0  0  0  0  0
   17.8213   67.7208    7.8181 C   0  0  0  0  0  0
   17.5858   67.3515    9.3061 C   0  0  0  0  0  0
   16.7214   66.0808    9.2678 C   0  0  0  0  0  0
   15.7424   68.3528    2.4320 C   0  0  0  0  0  0
   15.4012   67.6570    3.5925 C   0  0  0  0  0  0
   16.3552   67.5261    4.6059 C   0  0  0  0  0  0
   17.6349   68.0576    4.3856 C   0  0  0  0  0  0
   17.9082   68.7018    3.1778 C   0  0  0  0  0  0
   16.9805   68.8570    2.2024 N   0  0  0  0  0  0
   13.9838   65.2342    5.3741 C   0  0  0  0  0  0
   14.4081   64.4774    4.2767 C   0  0  0  0  0  0
   13.4802   63.6570    3.6320 C   0  0  0  0  0  0
   12.1577   63.6259    4.0787 C   0  0  0  0  0  0
   11.8030   64.4271    5.1650 C   0  0  0  0  0  0
   12.6943   65.2163    5.8167 N   0  0  0  0  0  0
   18.9233   67.1204   10.0320 C   0  0  0  0  0  0
   16.7898   68.4494   10.0320 C   0  0  0  0  0  0
   18.7698   67.3343    7.4418 H   0  0  0  0  0  0
   17.8439   68.8007    7.6634 H   0  0  0  0  0  0
   16.0297   65.9871   10.1064 H   0  0  0  0  0  0
   17.3265   65.1734    9.2320 H   0  0  0  0  0  0
   15.0197   68.4904    1.6403 H   0  0  0  0  0  0
   14.3975   67.2807    3.7112 H   0  0  0  0  0  0
   18.4098   67.9800    5.1323 H   0  0  0  0  0  0
   18.8865   69.1160    2.9807 H   0  0  0  0  0  0
   15.4406   64.4903    3.9593 H   0  0  0  0  0  0
   13.7810   63.0546    2.7869 H   0  0  0  0  0  0
   11.4255   63.0059    3.5824 H   0  0  0  0  0  0
   10.7886   64.4402    5.5372 H   0  0  0  0  0  0
   18.7695   66.8571   11.0791 H   0  0  0  0  0  0
   19.4938   66.3118    9.5739 H   0  0  0  0  0  0
   19.5507   68.0125   10.0086 H   0  0  0  0  0  0
   16.3685   68.0929   10.9736 H   0  0  0  0  0  0
   17.4590   69.2570   10.2858 H   0  0  0  0  0  0
   15.9718   68.8504    9.4313 H   0  0  0  0  0  0
  1  2  1  0  0  0
  1  5  2  0  0  0
  2  3  1  0  0  0
  2  8  1  0  0  0
  3  4  2  0  0  0
  3  6  1  0  0  0
  4  5  1  0  0  0
  4 11  1  0  0  0
  5 15  1  0  0  0
  6  7  1  0  0  0
  6 23  1  0  0  0
  6 24  1  0  0  0
  7  8  1  0  0  0
  7 21  1  0  0  0
  7 22  1  0  0  0
  8 25  1  0  0  0
  8 26  1  0  0  0
  9 10  1  0  0  0
  9 14  2  0  0  0
  9 27  1  0  0  0
 10 11  2  0  0  0
 10 28  1  0  0  0
 11 12  1  0  0  0
 12 13  2  0  0  0
 12 29  1  0  0  0
 13 14  1  0  0  0
 13 30  1  0  0  0
 15 16  1  0  0  0
 15 20  2  0  0  0
 16 17  2  0  0  0
 16 31  1  0  0  0
 17 18  1  0  0  0
 17 32  1  0  0  0
 18 19  2  0  0  0
 18 33  1  0  0  0
 19 20  1  0  0  0
 19 34  1  0  0  0
 21 35  1  0  0  0
 21 36  1  0  0  0
 21 37  1  0  0  0
 22 38  1  0  0  0
 22 39  1  0  0  0
 22 40  1  0  0  0
M  END
> <s_m_entry_id>
34651

> <s_m_entry_name>
dock_pv.394

> <s_m_Source_Path>
/home/csk/Desktop/cluster/DUD-E-result/tgfr1

> <s_m_Source_File>
dock_pv.maegz

> <i_m_Source_File_Index>
394

> <chembl_id>
CHEMBL4285692

> <chembl_pref_name>
None

> <i_lp_mmshare_version>
53161

> <r_lp_tautomer_probability>
1

> <s_lp_Force_Field>
OPLS_2005

> <r_lp_Energy>
33.71901

> <b_lp_Chiralities_Consistent>
1

> <s_lp_Variant>
CHEMBL4439_lig870-1

> <s_i_glide_gridfile>
glide-grid_3hmm

> <i_i_glide_lignum>
1205

> <i_i_glide_rotatable_bonds>
2

> <r_i_docking_score>
-7.52894055968361

> <r_i_glide_ligand_efficiency>
-0.342224570894709

> <r_i_glide_ligand_efficiency_sa>
-0.958926706575611

> <r_i_glide_ligand_efficiency_ln>
-1.84034769756621

> <r_i_glide_gscore>
-7.52894055968361

> <r_i_glide_lipo>
-3.73131403646659

> <r_i_glide_hbond>
-0.133355983389864

> <r_i_glide_metal>
0

> <r_i_glide_rewards>
-1.76347626654076

> <r_i_glide_evdw>
-41.883674621582

> <r_i_glide_ecoul>
-1.59275484085083

> <r_i_glide_erotb>
0.432302683920328

> <r_i_glide_esite>
0

> <r_i_glide_emodel>
-57.7968937912423

> <r_i_glide_energy>
-43.4764294624329

> <r_i_glide_einternal>
2.91356706619263

> <i_i_glide_confnum>
10

> <i_i_glide_posenum>
125

> <r_i_glide_eff_state_penalty>
0

> <s_user_duplicate_titles>
CHEMBL4439_lig870

> <i_f3d_flags>
0

> <s_m_subgroup_title>
dock_pv

> <s_m_subgroupid>
dock_pv

> <b_m_subgroup_collapsed>
1

$$$$
CHEMBL4439_lig182
                    3D
 Schrodinger Suite 2021-1.
 44 46  0  0  1  0            999 V2000
   13.7075   65.6844    5.7749 C   0  0  0  0  0  0
   14.9577   65.9500    5.1791 C   0  0  0  0  0  0
   15.3886   65.1314    4.1284 C   0  0  0  0  0  0
   14.5884   64.1117    3.6321 C   0  0  0  0  0  0
   13.3231   63.9054    4.1657 C   0  0  0  0  0  0
   12.8877   64.6820    5.2329 C   0  0  0  0  0  0
   15.7579   66.9679    5.6658 O   0  0  0  0  0  0
   16.6701   67.6577    4.8935 C   0  0  0  0  0  0
   18.5686   69.1137    3.3866 N   0  0  0  0  0  0
   17.3871   68.7221    2.8546 C   0  0  0  0  0  0
   16.4212   68.0137    3.5629 C   0  0  0  0  0  0
   18.8234   68.8049    4.6883 C   0  0  0  0  0  0
   17.8934   68.0801    5.4908 C   0  0  0  0  0  0
   18.2253   67.8088    6.8417 C   0  0  0  0  0  0
   19.4477   68.2291    7.3863 C   0  0  0  0  0  0
   20.3593   68.9389    6.5912 C   0  0  0  0  0  0
   20.0481   69.2233    5.2536 C   0  0  0  0  0  0
   19.8216   67.9787    8.6968 O   0  0  0  0  0  0
   18.9262   67.3067    9.5752 C   0  0  0  0  0  0
   21.5430   69.3269    7.1956 O   0  0  0  0  0  0
   22.5162   70.0565    6.4549 C   0  0  0  0  0  0
   13.1657   66.4568    6.9343 C   0  0  0  0  0  0
   11.9725   66.4573    7.2336 O   0  0  0  0  0  0
   12.4191   62.8574    3.5704 C   0  0  0  0  0  0
   14.1392   67.1196    7.9005 C   0  0  0  0  0  0
   16.3494   65.2912    3.6664 H   0  0  0  0  0  0
   14.9407   63.4979    2.8216 H   0  0  0  0  0  0
   11.9031   64.4928    5.6405 H   0  0  0  0  0  0
   17.2140   69.0048    1.8271 H   0  0  0  0  0  0
   15.4892   67.7444    3.0865 H   0  0  0  0  0  0
   17.5105   67.2620    7.4374 H   0  0  0  0  0  0
   20.7368   69.7652    4.6223 H   0  0  0  0  0  0
   19.3826   67.2298   10.5613 H   0  0  0  0  0  0
   17.9894   67.8547    9.6880 H   0  0  0  0  0  0
   18.7127   66.2923    9.2343 H   0  0  0  0  0  0
   23.3964   70.2075    7.0802 H   0  0  0  0  0  0
   22.8393   69.5277    5.5576 H   0  0  0  0  0  0
   22.1399   71.0382    6.1702 H   0  0  0  0  0  0
   12.5662   62.7842    2.4916 H   0  0  0  0  0  0
   11.3653   63.0819    3.7338 H   0  0  0  0  0  0
   12.6678   61.9079    4.0320 H   0  0  0  0  0  0
   14.9775   66.4566    8.1188 H   0  0  0  0  0  0
   14.5318   68.0449    7.4775 H   0  0  0  0  0  0
   13.6291   67.3467    8.8318 H   0  0  0  0  0  0
  1  6  1  0  0  0
  1  2  2  0  0  0
  1 22  1  0  0  0
  2  7  1  0  0  0
  2  3  1  0  0  0
  3  4  2  0  0  0
  3 26  1  0  0  0
  4  5  1  0  0  0
  4 27  1  0  0  0
  5  6  2  0  0  0
  5 24  1  0  0  0
  6 28  1  0  0  0
  7  8  1  0  0  0
  8 13  1  0  0  0
  8 11  2  0  0  0
  9 12  1  0  0  0
  9 10  2  0  0  0
 10 11  1  0  0  0
 10 29  1  0  0  0
 11 30  1  0  0  0
 12 13  1  0  0  0
 12 17  2  0  0  0
 13 14  2  0  0  0
 14 15  1  0  0  0
 14 31  1  0  0  0
 15 16  2  0  0  0
 15 18  1  0  0  0
 16 17  1  0  0  0
 16 20  1  0  0  0
 17 32  1  0  0  0
 18 19  1  0  0  0
 19 33  1  0  0  0
 19 34  1  0  0  0
 19 35  1  0  0  0
 20 21  1  0  0  0
 21 36  1  0  0  0
 21 37  1  0  0  0
 21 38  1  0  0  0
 22 23  2  0  0  0
 22 25  1  0  0  0
 24 39  1  0  0  0
 24 40  1  0  0  0
 24 41  1  0  0  0
 25 42  1  0  0  0
 25 43  1  0  0  0
 25 44  1  0  0  0
M  END
> <s_m_entry_id>
34652

> <s_m_entry_name>
dock_pv.395

> <s_m_Source_Path>
/home/csk/Desktop/cluster/DUD-E-result/tgfr1

> <s_m_Source_File>
dock_pv.maegz

> <i_m_Source_File_Index>
395

> <chembl_id>
CHEMBL484907

> <chembl_pref_name>
None

> <i_lp_mmshare_version>
53161

> <r_lp_tautomer_probability>
0.99995

> <s_lp_Force_Field>
OPLS_2005

> <r_lp_Energy>
30.762947

> <b_lp_Chiralities_Consistent>
1

> <s_lp_Variant>
CHEMBL4439_lig182-1

> <s_i_glide_gridfile>
glide-grid_3hmm

> <i_i_glide_lignum>
274

> <i_i_glide_rotatable_bonds>
5

> <r_i_docking_score>
-7.52495073517292

> <r_i_glide_ligand_efficiency>
-0.300998029406917

> <r_i_glide_ligand_efficiency_sa>
-0.880123576208607

> <r_i_glide_ligand_efficiency_ln>
-1.78363882881241

> <r_i_glide_gscore>
-7.52495073517292

> <r_i_glide_lipo>
-3.84592883620683

> <r_i_glide_hbond>
-0.217443132875183

> <r_i_glide_metal>
0

> <r_i_glide_rewards>
-1.57446324120147

> <r_i_glide_evdw>
-43.0813484191895

> <r_i_glide_ecoul>
-0.434186458587646

> <r_i_glide_erotb>
0.332079864858184

> <r_i_glide_esite>
0

> <r_i_glide_emodel>
-60.6680638032188

> <r_i_glide_energy>
-43.5155348777771

> <r_i_glide_einternal>
4.44562530517578

> <i_i_glide_confnum>
2

> <i_i_glide_posenum>
42

> <r_i_glide_eff_state_penalty>
0

> <s_user_duplicate_titles>
CHEMBL4439_lig182

> <i_f3d_flags>
0

> <s_m_subgroup_title>
dock_pv

> <s_m_subgroupid>
dock_pv

> <b_m_subgroup_collapsed>
1

$$$$
CHEMBL4439_lig644
                    3D
 Schrodinger Suite 2021-1.
 54 58  0  0  1  0            999 V2000
   19.1213   68.9236    4.7475 C   0  0  0  0  0  0
   17.8661   68.4191    5.1056 C   0  0  0  0  0  0
   16.9324   68.1976    4.0693 C   0  0  0  0  0  0
   17.2108   68.4583    2.7286 C   0  0  0  0  0  0
   19.3865   69.1838    3.4351 N   0  0  0  0  0  0
   18.4761   68.9525    2.4055 C   0  0  0  0  0  0
   19.0664   69.2570    1.2331 N   0  0  0  0  0  0
   20.2639   69.6570    1.6320 C   0  0  0  0  0  0
   20.5389   69.6570    2.9217 N   0  0  0  0  0  0
   17.4686   68.0516    6.5188 C   0  0  0  0  0  0
   18.0521   67.9374    7.8193 C   0  0  0  0  0  0
   17.1863   67.3821    8.6662 N   0  0  0  0  0  0
   16.0952   67.1382    8.0023 C   0  0  0  0  0  0
   16.1904   67.6038    6.7371 N   0  0  0  0  0  0
   19.4195   68.2515    8.3820 C   0  0  0  0  0  0
   19.8855   67.6819    9.5819 C   0  0  0  0  0  0
   21.1642   68.0016   10.0435 C   0  0  0  0  0  0
   21.9660   68.8653    9.2985 C   0  0  0  0  0  0
   21.4432   69.3973    8.1188 C   0  0  0  0  0  0
   20.1876   69.1226    7.6838 N   0  0  0  0  0  0
   22.2706   70.2905    7.2190 C   0  0  0  0  0  0
   14.9501   66.3008    8.5135 C   0  0  0  0  0  0
   13.6645   66.4600    7.8246 N   0  0  0  0  0  0
   13.3267   65.7417    6.6619 C   0  0  0  0  0  0
   11.9674   65.5834    6.3611 C   0  0  0  0  0  0
   11.5658   64.8346    5.2481 C   0  0  0  0  0  0
   12.5271   64.2544    4.4320 C   0  0  0  0  0  0
   13.8787   64.4416    4.6892 C   0  0  0  0  0  0
   14.2825   65.1595    5.8165 C   0  0  0  0  0  0
   10.1048   64.6631    4.8852 C   0  0  0  0  0  0
   14.8786   63.8453    3.7284 C   0  0  0  0  0  0
   19.9464   69.1135    5.3993 H   0  0  0  0  0  0
   15.9500   67.8010    4.2772 H   0  0  0  0  0  0
   16.4766   68.2732    1.9600 H   0  0  0  0  0  0
   20.9945   70.0018    0.9129 H   0  0  0  0  0  0
   15.4699   67.5041    6.0378 H   0  0  0  0  0  0
   19.2785   66.9935   10.1516 H   0  0  0  0  0  0
   21.5329   67.5666   10.9616 H   0  0  0  0  0  0
   22.9677   69.1062    9.6232 H   0  0  0  0  0  0
   23.2674   70.4580    7.6304 H   0  0  0  0  0  0
   22.3950   69.8313    6.2374 H   0  0  0  0  0  0
   21.7906   71.2573    7.0846 H   0  0  0  0  0  0
   14.7915   66.5301    9.5671 H   0  0  0  0  0  0
   15.2593   65.2572    8.4621 H   0  0  0  0  0  0
   12.8816   66.7244    8.4065 H   0  0  0  0  0  0
   11.2133   66.0281    6.9955 H   0  0  0  0  0  0
   12.2254   63.6940    3.5581 H   0  0  0  0  0  0
   15.3375   65.2514    6.0199 H   0  0  0  0  0  0
    9.6156   65.6355    4.8322 H   0  0  0  0  0  0
    9.5970   64.0569    5.6328 H   0  0  0  0  0  0
    9.9730   64.1766    3.9199 H   0  0  0  0  0  0
   15.8670   63.7361    4.1652 H   0  0  0  0  0  0
   14.5457   62.8572    3.4219 H   0  0  0  0  0  0
   14.9244   64.4546    2.8320 H   0  0  0  0  0  0
  1  5  1  0  0  0
  1  2  2  0  0  0
  1 32  1  0  0  0
  2  3  1  0  0  0
  2 10  1  0  0  0
  3  4  2  0  0  0
  3 33  1  0  0  0
  4  6  1  0  0  0
  4 34  1  0  0  0
  5  6  1  0  0  0
  5  9  1  0  0  0
  6  7  2  0  0  0
  7  8  1  0  0  0
  8  9  2  0  0  0
  8 35  1  0  0  0
 10 11  2  0  0  0
 10 14  1  0  0  0
 11 15  1  0  0  0
 11 12  1  0  0  0
 12 13  2  0  0  0
 13 14  1  0  0  0
 13 22  1  0  0  0
 14 36  1  0  0  0
 15 16  2  0  0  0
 15 20  1  0  0  0
 16 17  1  0  0  0
 16 37  1  0  0  0
 17 18  2  0  0  0
 17 38  1  0  0  0
 18 19  1  0  0  0
 18 39  1  0  0  0
 19 20  2  0  0  0
 19 21  1  0  0  0
 21 40  1  0  0  0
 21 41  1  0  0  0
 21 42  1  0  0  0
 22 23  1  0  0  0
 22 43  1  0  0  0
 22 44  1  0  0  0
 23 24  1  0  0  0
 23 45  1  0  0  0
 24 25  2  0  0  0
 24 29  1  0  0  0
 25 26  1  0  0  0
 25 46  1  0  0  0
 26 27  2  0  0  0
 26 30  1  0  0  0
 27 28  1  0  0  0
 27 47  1  0  0  0
 28 29  2  0  0  0
 28 31  1  0  0  0
 29 48  1  0  0  0
 30 49  1  0  0  0
 30 50  1  0  0  0
 30 51  1  0  0  0
 31 52  1  0  0  0
 31 53  1  0  0  0
 31 54  1  0  0  0
M  END
> <s_m_entry_id>
34653

> <s_m_entry_name>
dock_pv.396

> <s_m_Source_Path>
/home/csk/Desktop/cluster/DUD-E-result/tgfr1

> <s_m_Source_File>
dock_pv.maegz

> <i_m_Source_File_Index>
396

> <chembl_id>
CHEMBL3260625

> <chembl_pref_name>
None

> <i_lp_mmshare_version>
53161

> <r_lp_tautomer_probability>
0.499999999999999

> <s_lp_Force_Field>
OPLS_2005

> <r_lp_Energy>
17.132293

> <b_lp_Chiralities_Consistent>
1

> <s_lp_Variant>
CHEMBL4439_lig644-2

> <s_i_glide_gridfile>
glide-grid_3hmm

> <i_i_glide_lignum>
877

> <i_i_glide_rotatable_bonds>
5

> <r_i_docking_score>
-7.5249182818232

> <r_i_glide_ligand_efficiency>
-0.242739299413652

> <r_i_glide_ligand_efficiency_sa>
-0.76253653788024

> <r_i_glide_ligand_efficiency_ln>
-1.69709968360113

> <r_i_glide_gscore>
-7.5249182818232

> <r_i_glide_lipo>
-3.70978335236201

> <r_i_glide_hbond>
0

> <r_i_glide_metal>
0

> <r_i_glide_rewards>
-1.96327455803828

> <r_i_glide_evdw>
-47.9332733154297

> <r_i_glide_ecoul>
-0.282447457313538

> <r_i_glide_erotb>
0.5871704129456

> <r_i_glide_esite>
0

> <r_i_glide_emodel>
-64.4388160193282

> <r_i_glide_energy>
-48.2157207727432

> <r_i_glide_einternal>
5.87020492553711

> <i_i_glide_confnum>
15

> <i_i_glide_posenum>
107

> <r_i_glide_eff_state_penalty>
0

> <s_user_duplicate_titles>
CHEMBL4439_lig644

> <i_f3d_flags>
0

> <s_m_subgroup_title>
dock_pv

> <s_m_subgroupid>
dock_pv

> <b_m_subgroup_collapsed>
1

$$$$
CHEMBL4439_lig90
                    3D
 Schrodinger Suite 2021-1.
 59 64  0  0  1  0            999 V2000
   14.9067   66.5035    5.9175 C   0  0  0  0  0  0
   14.4764   66.6164    7.2727 C   0  0  0  0  0  0
   13.2882   66.0839    7.4765 N   0  0  0  0  0  0
   13.9822   65.5890    5.4112 C   0  0  0  0  0  0
   12.9978   65.4611    6.3468 N   0  0  0  0  0  0
   11.8722   64.6342    5.9607 C   0  0  0  0  0  0
   12.1180   64.5187    4.4595 C   0  0  0  0  0  0
   13.6268   64.7248    4.2330 C   0  0  0  0  0  0
   15.2001   67.2012    8.4294 C   0  0  0  0  0  0
   15.6816   68.5092    8.4351 C   0  0  0  0  0  0
   16.5903   68.8573    9.4304 C   0  0  0  0  0  0
   16.8829   67.9766   10.4671 C   0  0  0  0  0  0
   16.2673   66.7302   10.4504 C   0  0  0  0  0  0
   15.4671   66.3237    9.4357 N   0  0  0  0  0  0
   16.0776   67.1424    5.2029 C   0  0  0  0  0  0
   17.1680   67.6557    5.9200 C   0  0  0  0  0  0
   17.0592   67.9286    3.0997 C   0  0  0  0  0  0
   16.0384   67.2914    3.8111 C   0  0  0  0  0  0
   19.1995   69.1939    3.3607 N   0  0  0  0  0  0
   18.1188   68.4921    3.8196 C   0  0  0  0  0  0
   18.1360   68.3904    5.2303 C   0  0  0  0  0  0
   19.2109   69.1739    5.6208 N   0  0  0  0  0  0
   19.8206   69.5688    4.4494 C   0  0  0  0  0  0
   19.5051   69.7182    6.9492 C   0  0  0  0  0  0
   19.7398   68.6745    8.0640 C   0  0  0  0  0  0
   21.1527   68.0574    8.1077 C   0  0  0  0  0  0
   22.1231   68.7162    8.9905 N   0  0  0  0  0  0
   21.8727   68.6032   10.4214 C   0  0  0  0  0  0
   22.8534   69.5801   11.0816 C   0  0  0  0  0  0
   23.2386   70.5565    9.9636 C   0  0  0  0  0  0
   22.3697   70.1367    8.7797 C   0  0  0  0  0  0
   11.8671   63.6651    6.4560 H   0  0  0  0  0  0
   10.9294   65.1350    6.1831 H   0  0  0  0  0  0
   11.7456   63.5886    4.0282 H   0  0  0  0  0  0
   11.5499   65.3357    4.0231 H   0  0  0  0  0  0
   13.8669   65.1711    3.2701 H   0  0  0  0  0  0
   14.1633   63.7759    4.2668 H   0  0  0  0  0  0
   15.4633   69.1877    7.6229 H   0  0  0  0  0  0
   17.0667   69.8210    9.3957 H   0  0  0  0  0  0
   17.5538   68.2610   11.2645 H   0  0  0  0  0  0
   16.4122   66.0386   11.2628 H   0  0  0  0  0  0
   17.2659   67.4885    6.9699 H   0  0  0  0  0  0
   17.0100   68.0259    2.0268 H   0  0  0  0  0  0
   15.1904   66.9217    3.2564 H   0  0  0  0  0  0
   20.6946   70.2035    4.4854 H   0  0  0  0  0  0
   18.6666   70.3615    7.2198 H   0  0  0  0  0  0
   20.3636   70.3828    6.8590 H   0  0  0  0  0  0
   19.0029   67.8777    8.0520 H   0  0  0  0  0  0
   19.5591   69.2159    8.9923 H   0  0  0  0  0  0
   21.5814   68.0581    7.1041 H   0  0  0  0  0  0
   21.0658   67.0110    8.4026 H   0  0  0  0  0  0
   22.0379   67.5690   10.7272 H   0  0  0  0  0  0
   20.8367   68.8085   10.6925 H   0  0  0  0  0  0
   23.7308   69.0561   11.4612 H   0  0  0  0  0  0
   22.3843   70.0976   11.9186 H   0  0  0  0  0  0
   23.0527   71.5957   10.2384 H   0  0  0  0  0  0
   24.2957   70.4813    9.7055 H   0  0  0  0  0  0
   21.4521   70.7216    8.7211 H   0  0  0  0  0  0
   22.8655   70.2746    7.8168 H   0  0  0  0  0  0
  1 15  1  0  0  0
  1  4  2  0  0  0
  1  2  1  0  0  0
  2  3  2  0  0  0
  2  9  1  0  0  0
  3  5  1  0  0  0
  4  8  1  0  0  0
  4  5  1  0  0  0
  5  6  1  0  0  0
  6  7  1  0  0  0
  6 32  1  0  0  0
  6 33  1  0  0  0
  7  8  1  0  0  0
  7 34  1  0  0  0
  7 35  1  0  0  0
  8 36  1  0  0  0
  8 37  1  0  0  0
  9 10  2  0  0  0
  9 14  1  0  0  0
 10 11  1  0  0  0
 10 38  1  0  0  0
 11 12  2  0  0  0
 11 39  1  0  0  0
 12 13  1  0  0  0
 12 40  1  0  0  0
 13 14  2  0  0  0
 13 41  1  0  0  0
 15 16  2  0  0  0
 15 18  1  0  0  0
 16 21  1  0  0  0
 16 42  1  0  0  0
 17 20  1  0  0  0
 17 18  2  0  0  0
 17 43  1  0  0  0
 18 44  1  0  0  0
 19 20  1  0  0  0
 19 23  2  0  0  0
 20 21  2  0  0  0
 21 22  1  0  0  0
 22 23  1  0  0  0
 22 24  1  0  0  0
 23 45  1  0  0  0
 24 25  1  0  0  0
 24 46  1  0  0  0
 24 47  1  0  0  0
 25 26  1  0  0  0
 25 48  1  0  0  0
 25 49  1  0  0  0
 26 27  1  0  0  0
 26 50  1  0  0  0
 26 51  1  0  0  0
 27 28  1  0  0  0
 27 31  1  0  0  0
 28 29  1  0  0  0
 28 52  1  0  0  0
 28 53  1  0  0  0
 29 30  1  0  0  0
 29 54  1  0  0  0
 29 55  1  0  0  0
 30 31  1  0  0  0
 30 56  1  0  0  0
 30 57  1  0  0  0
 31 58  1  0  0  0
 31 59  1  0  0  0
M  END
> <s_m_entry_id>
34654

> <s_m_entry_name>
dock_pv.397

> <s_m_Source_Path>
/home/csk/Desktop/cluster/DUD-E-result/tgfr1

> <s_m_Source_File>
dock_pv.maegz

> <i_m_Source_File_Index>
397

> <chembl_id>
CHEMBL378167

> <chembl_pref_name>
None

> <i_lp_mmshare_version>
53161

> <r_lp_tautomer_probability>
1

> <s_lp_Force_Field>
OPLS_2005

> <r_lp_Energy>
63.400055

> <b_lp_Chiralities_Consistent>
1

> <s_lp_Variant>
CHEMBL4439_lig90-1

> <s_i_glide_gridfile>
glide-grid_3hmm

> <i_i_glide_lignum>
129

> <i_i_glide_rotatable_bonds>
6

> <r_i_docking_score>
-7.52448977999371

> <r_i_glide_ligand_efficiency>
-0.242725476773991

> <r_i_glide_ligand_efficiency_sa>
-0.762493115707493

> <r_i_glide_ligand_efficiency_ln>
-1.69700304330658

> <r_i_glide_gscore>
-7.52448977999371

> <r_i_glide_lipo>
-4.01651127973045

> <r_i_glide_hbond>
-0.145963080917141

> <r_i_glide_metal>
0

> <r_i_glide_rewards>
-1.2973264894816

> <r_i_glide_evdw>
-46.8563232421875

> <r_i_glide_ecoul>
-2.0083315372467

> <r_i_glide_erotb>
0.579376962831859

> <r_i_glide_esite>
0

> <r_i_glide_emodel>
-55.9477585046932

> <r_i_glide_energy>
-48.8646547794342

> <r_i_glide_einternal>
10.6445484161377

> <i_i_glide_confnum>
90

> <i_i_glide_posenum>
8

> <r_i_glide_eff_state_penalty>
0

> <s_user_duplicate_titles>
CHEMBL4439_lig90,341615

> <i_f3d_flags>
0

> <s_m_subgroup_title>
dock_pv

> <s_m_subgroupid>
dock_pv

> <b_m_subgroup_collapsed>
1

$$$$
CHEMBL4439_lig131
                    3D
 Schrodinger Suite 2021-1.
 40 43  0  0  1  0            999 V2000
   16.0898   66.7076    4.2852 C   0  0  0  0  0  0
   15.5146   65.7952    5.1709 C   0  0  0  0  0  0
   15.8666   65.7549    6.4829 N   0  0  0  0  0  0
   16.6670   66.7347    6.9561 C   0  0  0  0  0  0
   17.2450   67.6969    6.1333 C   0  0  0  0  0  0
   17.0137   67.6570    4.7512 C   0  0  0  0  0  0
   17.6779   68.5274    3.7195 C   0  0  0  0  0  0
   18.9514   69.1870    3.6377 C   0  0  0  0  0  0
   19.1442   69.6570    2.4226 N   0  0  0  0  0  0
   18.0125   69.4906    1.7669 N   0  0  0  0  0  0
   17.0831   68.8246    2.4941 C   0  0  0  0  0  0
   20.0627   69.4559    4.6223 C   0  0  0  0  0  0
   21.3926   69.6570    4.2128 C   0  0  0  0  0  0
   22.3439   70.0570    5.1538 C   0  0  0  0  0  0
   21.9707   70.1969    6.4892 C   0  0  0  0  0  0
   20.6422   69.9656    6.8321 C   0  0  0  0  0  0
   19.6996   69.6318    5.9171 N   0  0  0  0  0  0
   14.3769   64.9274    4.7669 C   0  0  0  0  0  0
   13.1271   65.0013    5.4225 C   0  0  0  0  0  0
   12.0816   64.1582    5.0201 C   0  0  0  0  0  0
   12.2560   63.2748    3.9583 C   0  0  0  0  0  0
   13.4670   63.2456    3.2758 C   0  0  0  0  0  0
   14.5225   64.0570    3.6832 C   0  0  0  0  0  0
   12.8747   66.0570    6.5043 C   0  0  0  0  0  0
   13.4075   65.6570    7.6320 F   0  0  0  0  0  0
   13.4670   67.2156    6.2064 F   0  0  0  0  0  0
   11.5854   66.2532    6.7633 F   0  0  0  0  0  0
   15.7872   66.6904    3.2510 H   0  0  0  0  0  0
   16.8610   66.7291    8.0185 H   0  0  0  0  0  0
   17.8490   68.4407    6.6061 H   0  0  0  0  0  0
   17.8960   69.8370    0.8318 H   0  0  0  0  0  0
   16.1164   68.5912    2.0703 H   0  0  0  0  0  0
   21.6819   69.5417    3.1785 H   0  0  0  0  0  0
   23.3682   70.2357    4.8582 H   0  0  0  0  0  0
   22.7021   70.4822    7.2324 H   0  0  0  0  0  0
   20.3107   70.0570    7.8562 H   0  0  0  0  0  0
   11.1194   64.2016    5.5110 H   0  0  0  0  0  0
   11.4433   62.6422    3.6346 H   0  0  0  0  0  0
   13.5875   62.5823    2.4320 H   0  0  0  0  0  0
   15.4643   64.0004    3.1582 H   0  0  0  0  0  0
  1  2  2  0  0  0
  1  6  1  0  0  0
  1 28  1  0  0  0
  2  3  1  0  0  0
  2 18  1  0  0  0
  3  4  2  0  0  0
  4  5  1  0  0  0
  4 29  1  0  0  0
  5  6  2  0  0  0
  5 30  1  0  0  0
  6  7  1  0  0  0
  7  8  1  0  0  0
  7 11  2  0  0  0
  8 12  1  0  0  0
  8  9  2  0  0  0
  9 10  1  0  0  0
 10 11  1  0  0  0
 10 31  1  0  0  0
 11 32  1  0  0  0
 12 17  1  0  0  0
 12 13  2  0  0  0
 13 14  1  0  0  0
 13 33  1  0  0  0
 14 15  2  0  0  0
 14 34  1  0  0  0
 15 16  1  0  0  0
 15 35  1  0  0  0
 16 17  2  0  0  0
 16 36  1  0  0  0
 18 19  2  0  0  0
 18 23  1  0  0  0
 19 20  1  0  0  0
 19 24  1  0  0  0
 20 21  2  0  0  0
 20 37  1  0  0  0
 21 22  1  0  0  0
 21 38  1  0  0  0
 22 23  2  0  0  0
 22 39  1  0  0  0
 23 40  1  0  0  0
 24 25  1  0  0  0
 24 26  1  0  0  0
 24 27  1  0  0  0
M  END
> <s_m_entry_id>
34657

> <s_m_entry_name>
dock_pv.400

> <s_m_Source_Path>
/home/csk/Desktop/cluster/DUD-E-result/tgfr1

> <s_m_Source_File>
dock_pv.maegz

> <i_m_Source_File_Index>
400

> <chembl_id>
CHEMBL426852

> <chembl_pref_name>
None

> <i_lp_mmshare_version>
53161

> <r_lp_tautomer_probability>
0.5

> <s_lp_Force_Field>
OPLS_2005

> <r_lp_Energy>
24.600782

> <b_lp_Chiralities_Consistent>
1

> <s_lp_Variant>
CHEMBL4439_lig131-1

> <s_i_glide_gridfile>
glide-grid_3hmm

> <i_i_glide_lignum>
198

> <i_i_glide_rotatable_bonds>
4

> <r_i_docking_score>
-7.51259185250156

> <r_i_glide_ligand_efficiency>
-0.278244142685243

> <r_i_glide_ligand_efficiency_sa>
-0.834732427138682

> <r_i_glide_ligand_efficiency_ln>
-1.7488075285059

> <r_i_glide_gscore>
-7.51259185250156

> <r_i_glide_lipo>
-4.19975973264707

> <r_i_glide_hbond>
0

> <r_i_glide_metal>
0

> <r_i_glide_rewards>
-1.58461004735292

> <r_i_glide_evdw>
-40.4811477661133

> <r_i_glide_ecoul>
-0.470327109098434

> <r_i_glide_erotb>
0.430231259253623

> <r_i_glide_esite>
-0.0638468770847562

> <r_i_glide_emodel>
-56.5392604589355

> <r_i_glide_energy>
-40.9514748752117

> <r_i_glide_einternal>
1.66411650180817

> <i_i_glide_confnum>
38

> <i_i_glide_posenum>
205

> <r_i_glide_eff_state_penalty>
0

> <s_user_duplicate_titles>
CHEMBL4439_lig131

> <i_f3d_flags>
0

> <s_m_subgroup_title>
dock_pv

> <s_m_subgroupid>
dock_pv

> <b_m_subgroup_collapsed>
1

$$$$
CHEMBL4439_lig885 
                    3D
 Schrodinger Suite 2021-1.
 42 46  0  0  1  0            999 V2000
   16.5457   67.0476    7.8139 N   0  0  0  0  0  0
   16.1990   67.0461    6.5469 C   0  0  0  0  0  0
   17.1288   67.7733    5.7622 C   0  0  0  0  0  0
   17.0652   68.0191    4.3335 C   0  0  0  0  0  0
   18.2373   68.2121    3.7283 N   0  0  0  0  0  0
   16.0094   68.0568    3.7103 O   0  0  0  0  0  0
   14.9612   66.2972    6.1562 C   0  0  0  0  0  0
   14.9863   65.4156    5.0715 C   0  0  0  0  0  0
   12.6193   65.7515    6.6071 C   0  0  0  0  0  0
   13.7887   66.4521    6.9081 C   0  0  0  0  0  0
   12.6564   64.8565    5.5310 C   0  0  0  0  0  0
   13.8392   64.6789    4.7659 C   0  0  0  0  0  0
   13.7593   63.7606    3.7678 N   0  0  0  0  0  0
   12.5624   63.2566    3.7063 C   0  0  0  0  0  0
   11.3973   63.8150    4.8820 S   0  0  0  0  0  0
   18.1940   67.9982    9.2715 C   0  0  0  0  0  0
   19.6645   68.4515    9.3730 C   0  0  1  0  0  0
   20.6669   67.5454    8.6346 C   0  0  0  0  0  0
   17.6693   67.7629    7.9204 N   0  0  0  0  0  0
   18.0277   68.3139    6.6993 C   0  0  0  0  0  0
   19.0346   69.2368    6.4624 N   0  0  0  0  0  0
   20.2103   69.5151    7.2858 C   0  0  2  0  0  0
   21.1765   68.3334    7.4035 C   0  0  1  0  0  0
   19.8676   69.8158    8.7370 C   0  0  0  0  0  0
   19.9243   68.5134   10.4314 H   0  0  0  0  0  0
   20.7220   70.3800    6.8601 H   0  0  0  0  0  0
   22.4771   68.8559    7.6344 O   0  0  0  0  0  0
   18.2445   68.4198    2.7416 H   0  0  0  0  0  0
   19.1001   68.0213    4.2118 H   0  0  0  0  0  0
   15.8665   65.2991    4.4675 H   0  0  0  0  0  0
   11.7169   65.8910    7.1868 H   0  0  0  0  0  0
   13.7861   67.1403    7.7419 H   0  0  0  0  0  0
   12.2795   62.5474    2.9470 H   0  0  0  0  0  0
   17.5443   68.7344    9.7478 H   0  0  0  0  0  0
   18.0708   67.0757    9.8428 H   0  0  0  0  0  0
   20.1716   66.6303    8.3067 H   0  0  0  0  0  0
   21.4854   67.2430    9.2890 H   0  0  0  0  0  0
   19.1787   69.4375    5.4830 H   0  0  0  0  0  0
   21.1669   67.7062    6.5087 H   0  0  0  0  0  0
   18.9967   70.4578    8.8305 H   0  0  0  0  0  0
   20.6984   70.3355    9.2194 H   0  0  0  0  0  0
   22.8699   69.1062    6.7918 H   0  0  0  0  0  0
  1 19  1  0  0  0
  1  2  2  0  0  0
  2  3  1  0  0  0
  2  7  1  0  0  0
  3 20  2  0  0  0
  3  4  1  0  0  0
  4  5  1  0  0  0
  4  6  2  0  0  0
  5 28  1  0  0  0
  5 29  1  0  0  0
  7  8  2  0  0  0
  7 10  1  0  0  0
  8 12  1  0  0  0
  8 30  1  0  0  0
  9 11  1  0  0  0
  9 10  2  0  0  0
  9 31  1  0  0  0
 10 32  1  0  0  0
 11 12  2  0  0  0
 11 15  1  0  0  0
 12 13  1  0  0  0
 13 14  2  0  0  0
 14 15  1  0  0  0
 14 33  1  0  0  0
 16 17  1  0  0  0
 16 19  1  0  0  0
 16 34  1  0  0  0
 16 35  1  0  0  0
 17 18  1  0  0  0
 17 24  1  0  0  0
 17 25  1  0  0  0
 18 23  1  0  0  0
 18 36  1  0  0  0
 18 37  1  0  0  0
 19 20  1  0  0  0
 20 21  1  0  0  0
 21 22  1  0  0  0
 21 38  1  0  0  0
 22 23  1  0  0  0
 22 24  1  0  0  0
 22 26  1  0  0  0
 23 27  1  0  0  0
 23 39  1  0  0  0
 24 40  1  0  0  0
 24 41  1  0  0  0
 27 42  1  0  0  0
M  END
> <s_m_entry_id>
34658

> <s_m_entry_name>
dock_pv.401

> <s_m_Source_Path>
/home/csk/Desktop/cluster/DUD-E-result/tgfr1

> <s_m_Source_File>
dock_pv.maegz

> <i_m_Source_File_Index>
401

> <chembl_id>
CHEMBL4527824

> <chembl_pref_name>
None

> <i_lp_mmshare_version>
53161

> <r_lp_tautomer_probability>
1

> <s_lp_Force_Field>
OPLS_2005

> <r_lp_Energy>
42.929922

> <b_lp_Chiralities_Consistent>
1

> <s_lp_Variant>
CHEMBL4439_lig885 -1

> <s_i_glide_gridfile>
glide-grid_3hmm

> <i_i_glide_lignum>
1220

> <i_i_glide_rotatable_bonds>
3

> <r_i_docking_score>
-7.50516984335724

> <r_i_glide_ligand_efficiency>
-0.30020679373429

> <r_i_glide_ligand_efficiency_sa>
-0.87780998906922

> <r_i_glide_ligand_efficiency_ln>
-1.7789501646666

> <r_i_glide_gscore>
-7.50516984335724

> <r_i_glide_lipo>
-3.08723843323482

> <r_i_glide_hbond>
0

> <r_i_glide_metal>
0

> <r_i_glide_rewards>
-1.97805913324518

> <r_i_glide_evdw>
-45.9912986755371

> <r_i_glide_ecoul>
-1.94447565078735

> <r_i_glide_erotb>
0.151364004517723

> <r_i_glide_esite>
0

> <r_i_glide_emodel>
-63.8884669714389

> <r_i_glide_energy>
-47.9357743263245

> <r_i_glide_einternal>
1.8786495923996

> <i_i_glide_confnum>
1

> <i_i_glide_posenum>
289

> <r_i_glide_eff_state_penalty>
0

> <s_user_duplicate_titles>
CHEMBL4439_lig885 

> <i_f3d_flags>
0

> <s_m_subgroup_title>
dock_pv

> <s_m_subgroupid>
dock_pv

> <b_m_subgroup_collapsed>
1

$$$$
CHEMBL4439_lig840
                    3D
 Schrodinger Suite 2021-1.
 43 46  0  0  1  0            999 V2000
   19.0673   69.2559    4.0551 C   0  0  0  0  0  0
   18.5819   69.2407    2.7462 C   0  0  0  0  0  0
   17.3898   68.5796    2.4551 C   0  0  0  0  0  0
   16.6376   67.9304    3.3816 N   0  0  0  0  0  0
   18.2779   68.5994    5.0074 C   0  0  0  0  0  0
   17.0731   67.9418    4.6503 C   0  0  0  0  0  0
   16.5039   67.3576    5.8442 C   0  0  0  0  0  0
   17.3471   67.7359    6.9159 C   0  0  0  0  0  0
   18.4018   68.4422    6.3652 N   0  0  0  0  0  0
   15.2450   66.5494    5.8321 C   0  0  0  0  0  0
   15.2326   65.5303    4.9304 N   0  0  0  0  0  0
   14.1089   64.7770    4.8148 C   0  0  0  0  0  0
   12.9682   65.0035    5.5888 C   0  0  0  0  0  0
   12.9857   66.0567    6.5048 C   0  0  0  0  0  0
   14.1289   66.8531    6.6173 C   0  0  0  0  0  0
   17.3089   67.5185    8.4157 C   0  0  0  0  0  0
   16.3076   66.7640    9.0419 C   0  0  0  0  0  0
   16.2669   66.6850   10.4329 C   0  0  0  0  0  0
   17.1981   67.2570   11.2291 N   0  0  0  0  0  0
   18.2352   67.9058   10.6376 C   0  0  0  0  0  0
   18.2987   68.0772    9.2489 C   0  0  0  0  0  0
   19.3379   68.3570   11.3829 N   0  0  0  0  0  0
   19.5183   68.3455   12.7198 C   0  0  0  0  0  0
   20.9165   68.7315   13.1820 C   0  0  0  0  0  0
   18.6669   68.0572   13.5633 O   0  0  0  0  0  0
   14.1555   63.6712    3.7754 C   0  0  0  0  0  0
   19.9892   69.7576    4.3119 H   0  0  0  0  0  0
   19.1309   69.7395    1.9593 H   0  0  0  0  0  0
   17.0070   68.5625    1.4449 H   0  0  0  0  0  0
   19.1503   68.8034    6.9367 H   0  0  0  0  0  0
   12.0848   64.3922    5.4729 H   0  0  0  0  0  0
   12.1113   66.2635    7.1054 H   0  0  0  0  0  0
   14.1561   67.6817    7.3074 H   0  0  0  0  0  0
   15.5620   66.2384    8.4809 H   0  0  0  0  0  0
   15.4793   66.1476   10.9413 H   0  0  0  0  0  0
   19.1257   68.6300    8.8305 H   0  0  0  0  0  0
   20.0993   68.7162   10.8306 H   0  0  0  0  0  0
   21.6218   67.9421   12.9198 H   0  0  0  0  0  0
   20.9430   68.8574   14.2640 H   0  0  0  0  0  0
   21.2424   69.6573   12.7086 H   0  0  0  0  0  0
   13.4786   62.8559    4.0332 H   0  0  0  0  0  0
   13.8674   64.0564    2.7978 H   0  0  0  0  0  0
   15.1598   63.2574    3.6838 H   0  0  0  0  0  0
  1  5  1  0  0  0
  1  2  2  0  0  0
  1 27  1  0  0  0
  2  3  1  0  0  0
  2 28  1  0  0  0
  3  4  2  0  0  0
  3 29  1  0  0  0
  4  6  1  0  0  0
  5  6  2  0  0  0
  5  9  1  0  0  0
  6  7  1  0  0  0
  7  8  2  0  0  0
  7 10  1  0  0  0
  8  9  1  0  0  0
  8 16  1  0  0  0
  9 30  1  0  0  0
 10 11  2  0  0  0
 10 15  1  0  0  0
 11 12  1  0  0  0
 12 13  2  0  0  0
 12 26  1  0  0  0
 13 14  1  0  0  0
 13 31  1  0  0  0
 14 15  2  0  0  0
 14 32  1  0  0  0
 15 33  1  0  0  0
 16 17  2  0  0  0
 16 21  1  0  0  0
 17 18  1  0  0  0
 17 34  1  0  0  0
 18 19  2  0  0  0
 18 35  1  0  0  0
 19 20  1  0  0  0
 20 21  2  0  0  0
 20 22  1  0  0  0
 21 36  1  0  0  0
 22 23  1  0  0  0
 22 37  1  0  0  0
 23 24  1  0  0  0
 23 25  2  0  0  0
 24 38  1  0  0  0
 24 39  1  0  0  0
 24 40  1  0  0  0
 26 41  1  0  0  0
 26 42  1  0  0  0
 26 43  1  0  0  0
M  END
> <s_m_entry_id>
34660

> <s_m_entry_name>
dock_pv.403

> <s_m_Source_Path>
/home/csk/Desktop/cluster/DUD-E-result/tgfr1

> <s_m_Source_File>
dock_pv.maegz

> <i_m_Source_File_Index>
403

> <chembl_id>
CHEMBL4292047

> <chembl_pref_name>
None

> <i_lp_mmshare_version>
53161

> <r_lp_tautomer_probability>
0.999991217065141

> <s_lp_Force_Field>
OPLS_2005

> <r_lp_Energy>
13.418781

> <b_lp_Chiralities_Consistent>
1

> <s_lp_Variant>
CHEMBL4439_lig840-1

> <s_i_glide_gridfile>
glide-grid_3hmm

> <i_i_glide_lignum>
1158

> <i_i_glide_rotatable_bonds>
4

> <r_i_docking_score>
-7.50209758202743

> <r_i_glide_ligand_efficiency>
-0.288542214693363

> <r_i_glide_ligand_efficiency_sa>
-0.854805175670296

> <r_i_glide_ligand_efficiency_ln>
-1.76184300074917

> <r_i_glide_gscore>
-7.50209758202743

> <r_i_glide_lipo>
-3.98059488316437

> <r_i_glide_hbond>
-0.0123374956024443

> <r_i_glide_metal>
0

> <r_i_glide_rewards>
-1.25682639426346

> <r_i_glide_evdw>
-48.641357421875

> <r_i_glide_ecoul>
-1.7191356420517

> <r_i_glide_erotb>
0.482760829142613

> <r_i_glide_esite>
-0.0451614207382665

> <r_i_glide_emodel>
-73.1224715308269

> <r_i_glide_energy>
-50.3604930639267

> <r_i_glide_einternal>
1.88352036476135

> <i_i_glide_confnum>
7

> <i_i_glide_posenum>
111

> <r_i_glide_eff_state_penalty>
0

> <s_user_duplicate_titles>
CHEMBL4439_lig840

> <i_f3d_flags>
0

> <s_m_subgroup_title>
dock_pv

> <s_m_subgroupid>
dock_pv

> <b_m_subgroup_collapsed>
1

$$$$
CHEMBL4439_lig79
                    3D
 Schrodinger Suite 2021-1.
 32 35  0  0  1  0            999 V2000
   13.2614   63.2570    3.4683 C   0  0  0  0  0  0
   11.9882   63.3028    4.0313 C   0  0  0  0  0  0
   11.6645   64.0821    5.0938 N   0  0  0  0  0  0
   14.2699   64.0527    4.0098 C   0  0  0  0  0  0
   13.9797   64.8645    5.1269 C   0  0  0  0  0  0
   12.6444   64.8573    5.6363 C   0  0  0  0  0  0
   12.3591   65.6820    6.7498 C   0  0  0  0  0  0
   13.3808   66.4570    7.2993 C   0  0  0  0  0  0
   14.6619   66.4028    6.7445 C   0  0  0  0  0  0
   14.9691   65.6160    5.6833 N   0  0  0  0  0  0
   15.7834   67.2068    7.3152 C   0  0  0  0  0  0
   16.8762   67.8472    6.6989 C   0  0  0  0  0  0
   17.5795   68.3651    7.7616 N   0  0  0  0  0  0
   17.0342   68.1608    8.9575 N   0  0  0  0  0  0
   15.9557   67.4770    8.6845 C   0  0  0  0  0  0
   17.3226   68.0568    5.2769 C   0  0  0  0  0  0
   18.6168   68.4574    5.1243 N   0  0  0  0  0  0
   19.0689   68.7445    3.8766 C   0  0  0  0  0  0
   18.2655   68.6500    2.7407 C   0  0  0  0  0  0
   16.9417   68.2424    2.8996 C   0  0  0  0  0  0
   16.4605   67.9476    4.1780 C   0  0  0  0  0  0
   13.4556   62.6302    2.6078 H   0  0  0  0  0  0
   11.1885   62.7148    3.6062 H   0  0  0  0  0  0
   15.2670   64.0429    3.5939 H   0  0  0  0  0  0
   11.3592   65.6939    7.1631 H   0  0  0  0  0  0
   13.1750   67.0976    8.1453 H   0  0  0  0  0  0
   18.4403   68.8842    7.6567 H   0  0  0  0  0  0
   15.3087   67.1480    9.4811 H   0  0  0  0  0  0
   20.1011   69.0529    3.8024 H   0  0  0  0  0  0
   18.6599   68.8888    1.7627 H   0  0  0  0  0  0
   16.2857   68.1678    2.0427 H   0  0  0  0  0  0
   15.4227   67.6810    4.3008 H   0  0  0  0  0  0
  1  2  2  0  0  0
  1  4  1  0  0  0
  1 22  1  0  0  0
  2  3  1  0  0  0
  2 23  1  0  0  0
  3  6  2  0  0  0
  4  5  2  0  0  0
  4 24  1  0  0  0
  5 10  1  0  0  0
  5  6  1  0  0  0
  6  7  1  0  0  0
  7  8  2  0  0  0
  7 25  1  0  0  0
  8  9  1  0  0  0
  8 26  1  0  0  0
  9 10  2  0  0  0
  9 11  1  0  0  0
 11 12  2  0  0  0
 11 15  1  0  0  0
 12 13  1  0  0  0
 12 16  1  0  0  0
 13 14  1  0  0  0
 13 27  1  0  0  0
 14 15  2  0  0  0
 15 28  1  0  0  0
 16 17  2  0  0  0
 16 21  1  0  0  0
 17 18  1  0  0  0
 18 19  2  0  0  0
 18 29  1  0  0  0
 19 20  1  0  0  0
 19 30  1  0  0  0
 20 21  2  0  0  0
 20 31  1  0  0  0
 21 32  1  0  0  0
M  END
> <s_m_entry_id>
34661

> <s_m_entry_name>
dock_pv.404

> <s_m_Source_Path>
/home/csk/Desktop/cluster/DUD-E-result/tgfr1

> <s_m_Source_File>
dock_pv.maegz

> <i_m_Source_File_Index>
404

> <chembl_id>
CHEMBL183354

> <chembl_pref_name>
None

> <i_lp_mmshare_version>
53161

> <r_lp_tautomer_probability>
0.5

> <s_lp_Force_Field>
OPLS_2005

> <r_lp_Energy>
19.428814

> <b_lp_Chiralities_Consistent>
1

> <s_lp_Variant>
CHEMBL4439_lig79-2

> <s_i_glide_gridfile>
glide-grid_3hmm

> <i_i_glide_lignum>
116

> <i_i_glide_rotatable_bonds>
2

> <r_i_docking_score>
-7.49900597225358

> <r_i_glide_ligand_efficiency>
-0.357095522488266

> <r_i_glide_ligand_efficiency_sa>
-0.985199469270504

> <r_i_glide_ligand_efficiency_ln>
-1.85411407347133

> <r_i_glide_gscore>
-7.49900597225358

> <r_i_glide_lipo>
-3.94563027710673

> <r_i_glide_hbond>
0

> <r_i_glide_metal>
0

> <r_i_glide_rewards>
-1.87741437393408

> <r_i_glide_evdw>
-43.839916229248

> <r_i_glide_ecoul>
0.238172560930252

> <r_i_glide_erotb>
0.480308606110087

> <r_i_glide_esite>
0

> <r_i_glide_emodel>
-62.5137017882233

> <r_i_glide_energy>
-43.6017436683178

> <r_i_glide_einternal>
2.25926733016968

> <i_i_glide_confnum>
5

> <i_i_glide_posenum>
342

> <r_i_glide_eff_state_penalty>
0

> <s_user_duplicate_titles>
CHEMBL4439_lig79,CHEMBL4439_lig79,306901

> <i_f3d_flags>
0

> <s_m_subgroup_title>
dock_pv

> <s_m_subgroupid>
dock_pv

> <b_m_subgroup_collapsed>
1

$$$$
CHEMBL4439_lig712
                    3D
 Schrodinger Suite 2021-1.
 48 52  0  0  1  0            999 V2000
   17.3803   68.0826    9.9854 C   0  0  0  0  0  0
   18.3147   68.0457    8.9418 C   0  0  0  0  0  0
   19.6752   67.9544    9.2711 C   0  0  0  0  0  0
   20.1246   67.9719   10.5971 C   0  0  0  0  0  0
   17.8236   68.0172   11.2735 N   0  0  0  0  0  0
   19.1707   67.9700   11.6274 C   0  0  0  0  0  0
   19.2536   67.8855   12.9793 N   0  0  0  0  0  0
   17.9789   67.8083   13.3153 C   0  0  0  0  0  0
   17.0672   67.9322   12.3769 N   0  0  0  0  0  0
   17.8061   68.0284    7.5272 C   0  0  0  0  0  0
   18.2866   68.3919    6.2404 C   0  0  0  0  0  0
   17.3987   68.0707    5.2996 N   0  0  0  0  0  0
   16.3655   67.5637    5.9135 C   0  0  0  0  0  0
   16.5541   67.5407    7.2583 N   0  0  0  0  0  0
   19.5854   69.0299    5.8125 C   0  0  0  0  0  0
   20.0003   69.0858    4.4719 C   0  0  0  0  0  0
   21.2574   69.6145    4.1712 C   0  0  0  0  0  0
   22.0806   70.0572    5.2075 C   0  0  0  0  0  0
   21.6019   69.9808    6.5144 C   0  0  0  0  0  0
   20.3614   69.5227    6.8088 N   0  0  0  0  0  0
   22.4663   70.3331    7.7078 C   0  0  0  0  0  0
   15.1420   66.9740    5.2633 C   0  0  0  0  0  0
   15.0747   65.5538    5.5781 N   0  0  0  0  0  0
   14.0491   64.8592    4.9363 C   0  0  0  0  0  0
   12.7184   64.8690    5.3958 C   0  0  0  0  0  0
   11.7665   64.0649    4.7497 C   0  0  0  0  0  0
   12.1450   63.2570    3.6779 C   0  0  0  0  0  0
   13.4617   63.2565    3.2323 C   0  0  0  0  0  0
   14.4100   64.0567    3.8571 C   0  0  0  0  0  0
   12.2642   65.8273    6.7725 Cl  0  0  0  0  0  0
   10.1108   64.0437    5.2318 Cl  0  0  0  0  0  0
   16.3093   68.1305    9.8548 H   0  0  0  0  0  0
   20.4131   67.8277    8.4949 H   0  0  0  0  0  0
   21.1752   67.8995   10.8311 H   0  0  0  0  0  0
   17.6803   67.6566   14.3416 H   0  0  0  0  0  0
   15.9057   67.1648    7.9329 H   0  0  0  0  0  0
   19.3789   68.7033    3.6771 H   0  0  0  0  0  0
   21.6048   69.6522    3.1488 H   0  0  0  0  0  0
   23.0754   70.4289    5.0003 H   0  0  0  0  0  0
   23.5110   70.4568    7.4207 H   0  0  0  0  0  0
   22.1263   71.2522    8.1808 H   0  0  0  0  0  0
   22.4312   69.5425    8.4544 H   0  0  0  0  0  0
   15.1901   67.1031    4.1787 H   0  0  0  0  0  0
   14.2431   67.4996    5.5924 H   0  0  0  0  0  0
   15.9864   65.1457    5.4349 H   0  0  0  0  0  0
   11.4120   62.6407    3.1818 H   0  0  0  0  0  0
   13.7448   62.6291    2.4033 H   0  0  0  0  0  0
   15.4321   64.0315    3.5055 H   0  0  0  0  0  0
  1  5  1  0  0  0
  1  2  2  0  0  0
  1 32  1  0  0  0
  2  3  1  0  0  0
  2 10  1  0  0  0
  3  4  2  0  0  0
  3 33  1  0  0  0
  4  6  1  0  0  0
  4 34  1  0  0  0
  5  6  1  0  0  0
  5  9  1  0  0  0
  6  7  2  0  0  0
  7  8  1  0  0  0
  8  9  2  0  0  0
  8 35  1  0  0  0
 10 11  2  0  0  0
 10 14  1  0  0  0
 11 15  1  0  0  0
 11 12  1  0  0  0
 12 13  2  0  0  0
 13 14  1  0  0  0
 13 22  1  0  0  0
 14 36  1  0  0  0
 15 16  2  0  0  0
 15 20  1  0  0  0
 16 17  1  0  0  0
 16 37  1  0  0  0
 17 18  2  0  0  0
 17 38  1  0  0  0
 18 19  1  0  0  0
 18 39  1  0  0  0
 19 20  2  0  0  0
 19 21  1  0  0  0
 21 40  1  0  0  0
 21 41  1  0  0  0
 21 42  1  0  0  0
 22 23  1  0  0  0
 22 43  1  0  0  0
 22 44  1  0  0  0
 23 24  1  0  0  0
 23 45  1  0  0  0
 24 25  2  0  0  0
 24 29  1  0  0  0
 25 26  1  0  0  0
 25 30  1  0  0  0
 26 27  2  0  0  0
 26 31  1  0  0  0
 27 28  1  0  0  0
 27 46  1  0  0  0
 28 29  2  0  0  0
 28 47  1  0  0  0
 29 48  1  0  0  0
M  END
> <s_m_entry_id>
34662

> <s_m_entry_name>
dock_pv.405

> <s_m_Source_Path>
/home/csk/Desktop/cluster/DUD-E-result/tgfr1

> <s_m_Source_File>
dock_pv.maegz

> <i_m_Source_File_Index>
405

> <chembl_id>
CHEMBL3260615

> <chembl_pref_name>
None

> <i_lp_mmshare_version>
53161

> <r_lp_tautomer_probability>
0.499999999999999

> <s_lp_Force_Field>
OPLS_2005

> <r_lp_Energy>
22.482482

> <b_lp_Chiralities_Consistent>
1

> <s_lp_Variant>
CHEMBL4439_lig712-2

> <s_i_glide_gridfile>
glide-grid_3hmm

> <i_i_glide_lignum>
1013

> <i_i_glide_rotatable_bonds>
5

> <r_i_docking_score>
-7.49162896668088

> <r_i_glide_ligand_efficiency>
-0.241665450538093

> <r_i_glide_ligand_efficiency_sa>
-0.759163169802828

> <r_i_glide_ligand_efficiency_ln>
-1.68959192284155

> <r_i_glide_gscore>
-7.49162896668088

> <r_i_glide_lipo>
-3.65666165167094

> <r_i_glide_hbond>
0

> <r_i_glide_metal>
0

> <r_i_glide_rewards>
-1.38649132328622

> <r_i_glide_evdw>
-58.8695831298828

> <r_i_glide_ecoul>
0.206132546067238

> <r_i_glide_erotb>
0.494304833326002

> <r_i_glide_esite>
-0.0302215504656577

> <r_i_glide_emodel>
-78.7989233341986

> <r_i_glide_energy>
-58.6634505838156

> <r_i_glide_einternal>
12.3105983734131

> <i_i_glide_confnum>
22

> <i_i_glide_posenum>
48

> <r_i_glide_eff_state_penalty>
0

> <s_user_duplicate_titles>
CHEMBL4439_lig712,CHEMBL4439_lig712

> <i_f3d_flags>
0

> <s_m_subgroup_title>
dock_pv

> <s_m_subgroupid>
dock_pv

> <b_m_subgroup_collapsed>
1

$$$$
CHEMBL4439_lig387
                    3D
 Schrodinger Suite 2021-1.
 43 46  0  0  1  0            999 V2000
   17.7944   68.0544    6.5428 C   0  0  0  0  0  0
   17.7665   68.5611    7.8014 N   0  0  0  0  0  0
   16.6786   68.2933    8.5470 C   0  0  0  0  0  0
   15.6146   67.5485    8.1650 N   0  0  0  0  0  0
   15.6443   67.0295    6.9023 C   0  0  0  0  0  0
   16.7344   67.2767    6.0556 C   0  0  0  0  0  0
   14.4602   66.2218    6.4600 C   0  0  0  0  0  0
   14.5742   65.3133    5.3899 C   0  0  0  0  0  0
   12.0835   65.6835    6.6946 C   0  0  0  0  0  0
   13.2216   66.3739    7.1006 C   0  0  0  0  0  0
   12.1874   64.7767    5.6338 C   0  0  0  0  0  0
   13.4366   64.6056    4.9997 C   0  0  0  0  0  0
   13.2245   63.6607    4.0157 N   0  0  0  0  0  0
   11.9440   63.2559    3.9809 N   0  0  0  0  0  0
   11.3213   63.8760    4.9443 C   0  0  0  0  0  0
   10.0076   63.6572    5.2317 N   0  0  0  0  0  0
   16.6671   68.8455    9.8138 N   0  0  0  0  0  0
   18.9455   68.3528    5.8227 N   0  0  0  0  0  0
   19.0793   68.5104    4.3545 C   0  0  2  0  0  0
   20.1417   69.6008    4.0758 C   0  0  0  0  0  0
   21.3816   69.3397    4.7103 O   0  0  0  0  0  0
   21.2502   69.2406    6.1175 C   0  0  0  0  0  0
   20.2679   68.0993    6.4319 C   0  0  0  0  0  0
   17.8053   68.8600    3.5487 C   0  0  0  0  0  0
   16.7550   66.8564    5.0680 H   0  0  0  0  0  0
   15.5036   65.1493    4.8728 H   0  0  0  0  0  0
   11.1415   65.8482    7.1922 H   0  0  0  0  0  0
   13.1253   67.0542    7.9332 H   0  0  0  0  0  0
   13.8839   63.3136    3.3344 H   0  0  0  0  0  0
    9.4340   64.3990    5.6060 H   0  0  0  0  0  0
    9.5045   62.9395    4.7330 H   0  0  0  0  0  0
   15.8842   68.6627   10.4212 H   0  0  0  0  0  0
   17.4073   69.4913   10.0691 H   0  0  0  0  0  0
   19.4129   67.5572    3.9431 H   0  0  0  0  0  0
   20.3416   69.6803    3.0060 H   0  0  0  0  0  0
   19.7591   70.5586    4.4325 H   0  0  0  0  0  0
   22.2289   69.0203    6.5466 H   0  0  0  0  0  0
   20.9213   70.1871    6.5527 H   0  0  0  0  0  0
   20.6604   67.1478    6.0707 H   0  0  0  0  0  0
   20.1998   68.0059    7.5163 H   0  0  0  0  0  0
   18.0548   69.1994    2.5423 H   0  0  0  0  0  0
   17.2371   69.6588    4.0225 H   0  0  0  0  0  0
   17.1454   68.0094    3.4035 H   0  0  0  0  0  0
  1  6  1  0  0  0
  1  2  2  0  0  0
  1 18  1  0  0  0
  2  3  1  0  0  0
  3  4  2  0  0  0
  3 17  1  0  0  0
  4  5  1  0  0  0
  5  6  2  0  0  0
  5  7  1  0  0  0
  6 25  1  0  0  0
  7  8  2  0  0  0
  7 10  1  0  0  0
  8 12  1  0  0  0
  8 26  1  0  0  0
  9 11  1  0  0  0
  9 10  2  0  0  0
  9 27  1  0  0  0
 10 28  1  0  0  0
 11 15  1  0  0  0
 11 12  2  0  0  0
 12 13  1  0  0  0
 13 14  1  0  0  0
 13 29  1  0  0  0
 14 15  2  0  0  0
 15 16  1  0  0  0
 16 30  1  0  0  0
 16 31  1  0  0  0
 17 32  1  0  0  0
 17 33  1  0  0  0
 18 19  1  0  0  0
 18 23  1  0  0  0
 19 20  1  0  0  0
 19 24  1  0  0  0
 19 34  1  0  0  0
 20 21  1  0  0  0
 20 35  1  0  0  0
 20 36  1  0  0  0
 21 22  1  0  0  0
 22 23  1  0  0  0
 22 37  1  0  0  0
 22 38  1  0  0  0
 23 39  1  0  0  0
 23 40  1  0  0  0
 24 41  1  0  0  0
 24 42  1  0  0  0
 24 43  1  0  0  0
M  END
> <s_m_entry_id>
34663

> <s_m_entry_name>
dock_pv.406

> <s_m_Source_Path>
/home/csk/Desktop/cluster/DUD-E-result/tgfr1

> <s_m_Source_File>
dock_pv.maegz

> <i_m_Source_File_Index>
406

> <chembl_id>
CHEMBL1765727

> <chembl_pref_name>
None

> <i_lp_mmshare_version>
53161

> <r_lp_tautomer_probability>
0.999999648617923

> <s_lp_Force_Field>
OPLS_2005

> <r_lp_Energy>
17.107609

> <b_lp_Chiralities_Consistent>
1

> <s_lp_Variant>
CHEMBL4439_lig387-1

> <s_i_glide_gridfile>
glide-grid_3hmm

> <i_i_glide_lignum>
525

> <i_i_glide_rotatable_bonds>
2

> <r_i_docking_score>
-7.48740288912574

> <r_i_glide_ligand_efficiency>
-0.311975120380239

> <r_i_glide_ligand_efficiency_sa>
-0.899891965676702

> <r_i_glide_ligand_efficiency_ln>
-1.79207908589875

> <r_i_glide_gscore>
-7.48740288912574

> <r_i_glide_lipo>
-3.06895528492086

> <r_i_glide_hbond>
-0.32

> <r_i_glide_metal>
0

> <r_i_glide_rewards>
-1.92173455834945

> <r_i_glide_evdw>
-46.198902130127

> <r_i_glide_ecoul>
-1.47207057476044

> <r_i_glide_erotb>
0.354042646864986

> <r_i_glide_esite>
0

> <r_i_glide_emodel>
-67.5230271788597

> <r_i_glide_energy>
-47.6709727048874

> <r_i_glide_einternal>
2.64786863327026

> <i_i_glide_confnum>
9

> <i_i_glide_posenum>
7

> <r_i_glide_eff_state_penalty>
0

> <s_user_duplicate_titles>
CHEMBL4439_lig387

> <i_f3d_flags>
0

> <s_m_subgroup_title>
dock_pv

> <s_m_subgroupid>
dock_pv

> <b_m_subgroup_collapsed>
1

$$$$
CHEMBL4439_lig84
                    3D
 Schrodinger Suite 2021-1.
 36 39  0  0  1  0            999 V2000
   16.2068   67.3159    6.0441 C   0  0  0  0  0  0
   15.2819   66.3129    6.4310 C   0  0  0  0  0  0
   15.1628   66.1458    7.7433 N   0  0  0  0  0  0
   15.9092   66.9525    8.4398 C   0  0  0  0  0  0
   16.8295   68.0572    7.5086 S   0  0  0  0  0  0
   16.0013   66.9718    9.8003 N   0  0  0  0  0  0
   16.6363   67.8413    4.6908 C   0  0  0  0  0  0
   17.1996   68.8592    2.0847 N   0  0  0  0  0  0
   15.9725   68.4173    2.4319 C   0  0  0  0  0  0
   15.6704   67.8808    3.6777 C   0  0  0  0  0  0
   18.1743   68.8156    3.0301 C   0  0  0  0  0  0
   17.9479   68.3338    4.3604 C   0  0  0  0  0  0
   18.9561   68.3455    5.2830 N   0  0  0  0  0  0
   20.1758   68.8138    4.9303 C   0  0  0  0  0  0
   20.4769   69.2572    3.6477 C   0  0  0  0  0  0
   19.4670   69.2680    2.6885 C   0  0  0  0  0  0
   14.4702   65.4143    5.5431 C   0  0  0  0  0  0
   14.9971   64.8522    4.3752 C   0  0  0  0  0  0
   14.2135   63.9641    3.6363 C   0  0  0  0  0  0
   12.9233   63.6574    4.0722 C   0  0  0  0  0  0
   12.4497   64.2773    5.2300 C   0  0  0  0  0  0
   13.2005   65.1411    5.9607 N   0  0  0  0  0  0
   21.2024   68.8567    6.0434 C   0  0  0  0  0  0
   15.4476   66.3730   10.3933 H   0  0  0  0  0  0
   16.5876   67.6474   10.2701 H   0  0  0  0  0  0
   15.2149   68.4701    1.6619 H   0  0  0  0  0  0
   14.6614   67.5489    3.8671 H   0  0  0  0  0  0
   21.4681   69.6138    3.4052 H   0  0  0  0  0  0
   19.6592   69.6354    1.6890 H   0  0  0  0  0  0
   15.9934   65.0948    4.0422 H   0  0  0  0  0  0
   14.6005   63.5146    2.7354 H   0  0  0  0  0  0
   12.3007   62.9764    3.5101 H   0  0  0  0  0  0
   11.4498   64.0853    5.5918 H   0  0  0  0  0  0
   22.1564   69.2576    5.6985 H   0  0  0  0  0  0
   21.3807   67.8543    6.4324 H   0  0  0  0  0  0
   20.8509   69.4839    6.8629 H   0  0  0  0  0  0
  1  5  1  0  0  0
  1  2  2  0  0  0
  1  7  1  0  0  0
  2  3  1  0  0  0
  2 17  1  0  0  0
  3  4  2  0  0  0
  4  6  1  0  0  0
  4  5  1  0  0  0
  6 24  1  0  0  0
  6 25  1  0  0  0
  7 12  2  0  0  0
  7 10  1  0  0  0
  8 11  2  0  0  0
  8  9  1  0  0  0
  9 10  2  0  0  0
  9 26  1  0  0  0
 10 27  1  0  0  0
 11 12  1  0  0  0
 11 16  1  0  0  0
 12 13  1  0  0  0
 13 14  2  0  0  0
 14 15  1  0  0  0
 14 23  1  0  0  0
 15 16  2  0  0  0
 15 28  1  0  0  0
 16 29  1  0  0  0
 17 18  2  0  0  0
 17 22  1  0  0  0
 18 19  1  0  0  0
 18 30  1  0  0  0
 19 20  2  0  0  0
 19 31  1  0  0  0
 20 21  1  0  0  0
 20 32  1  0  0  0
 21 22  2  0  0  0
 21 33  1  0  0  0
 23 34  1  0  0  0
 23 35  1  0  0  0
 23 36  1  0  0  0
M  END
> <s_m_entry_id>
34665

> <s_m_entry_name>
dock_pv.408

> <s_m_Source_Path>
/home/csk/Desktop/cluster/DUD-E-result/tgfr1

> <s_m_Source_File>
dock_pv.maegz

> <i_m_Source_File_Index>
408

> <chembl_id>
CHEMBL425177

> <chembl_pref_name>
None

> <i_lp_mmshare_version>
53161

> <r_lp_tautomer_probability>
1

> <s_lp_Force_Field>
OPLS_2005

> <r_lp_Energy>
19.776852

> <b_lp_Chiralities_Consistent>
1

> <s_lp_Variant>
CHEMBL4439_lig84-1

> <s_i_glide_gridfile>
glide-grid_3hmm

> <i_i_glide_lignum>
121

> <i_i_glide_rotatable_bonds>
2

> <r_i_docking_score>
-7.4812154522023

> <r_i_glide_ligand_efficiency>
-0.325270237052274

> <r_i_glide_ligand_efficiency_sa>
-0.925025285714649

> <r_i_glide_ligand_efficiency_ln>
-1.80902573225373

> <r_i_glide_gscore>
-7.4812154522023

> <r_i_glide_lipo>
-3.73862586524012

> <r_i_glide_hbond>
-0.059591468438123

> <r_i_glide_metal>
0

> <r_i_glide_rewards>
-1.55297117875185

> <r_i_glide_evdw>
-42.2786178588867

> <r_i_glide_ecoul>
-2.54611897468567

> <r_i_glide_erotb>
0.365821799374981

> <r_i_glide_esite>
0

> <r_i_glide_emodel>
-63.5565527765432

> <r_i_glide_energy>
-44.8247368335724

> <r_i_glide_einternal>
4.89439105987549

> <i_i_glide_confnum>
12

> <i_i_glide_posenum>
101

> <r_i_glide_eff_state_penalty>
0

> <s_user_duplicate_titles>
CHEMBL4439_lig84,312500

> <i_f3d_flags>
0

> <s_m_subgroup_title>
dock_pv

> <s_m_subgroupid>
dock_pv

> <b_m_subgroup_collapsed>
1

$$$$
CHEMBL4439_lig70
                    3D
 Schrodinger Suite 2021-1.
 39 42  0  0  1  0            999 V2000
   16.6473   67.3653    6.4959 C   0  0  0  0  0  0
   15.5713   66.6619    7.1130 C   0  0  0  0  0  0
   17.5680   67.7600    7.3670 N   0  0  0  0  0  0
   17.3644   67.3763    8.5916 C   0  0  0  0  0  0
   15.9390   66.4579    8.8192 S   0  0  0  0  0  0
   14.2512   66.1025    6.6499 C   0  0  0  0  0  0
   16.8543   67.7470    5.0341 C   0  0  0  0  0  0
   14.0370   65.2044    5.5559 C   0  0  0  0  0  0
   11.6433   65.1575    6.0322 N   0  0  0  0  0  0
   18.1053   68.1516    4.4927 C   0  0  0  0  0  0
   12.7082   64.7274    5.3088 C   0  0  0  0  0  0
   18.1841   67.6548    9.6450 N   0  0  0  0  0  0
   11.8671   66.0561    7.0153 C   0  0  0  0  0  0
   13.1269   66.5092    7.3688 C   0  0  0  0  0  0
   15.7488   67.7073    4.1726 C   0  0  0  0  0  0
   19.2215   68.1621    5.3149 O   0  0  0  0  0  0
   15.0668   64.7772    4.6927 C   0  0  0  0  0  0
   18.1859   68.5233    3.1385 C   0  0  0  0  0  0
   12.4753   63.7834    4.2811 C   0  0  0  0  0  0
   20.4983   68.5386    4.8086 C   0  0  0  0  0  0
   15.8497   68.0578    2.8320 C   0  0  0  0  0  0
   14.7932   63.9210    3.6326 C   0  0  0  0  0  0
   17.0667   68.4830    2.3175 C   0  0  0  0  0  0
   13.5200   63.3914    3.4515 C   0  0  0  0  0  0
   19.0132   68.2191    9.5239 H   0  0  0  0  0  0
   17.9661   67.3637   10.5872 H   0  0  0  0  0  0
   11.0032   66.3683    7.5793 H   0  0  0  0  0  0
   13.2205   67.2051    8.1905 H   0  0  0  0  0  0
   14.7659   67.4661    4.5374 H   0  0  0  0  0  0
   16.0598   65.1617    4.8456 H   0  0  0  0  0  0
   19.1151   68.8477    2.6976 H   0  0  0  0  0  0
   11.4755   63.4100    4.1115 H   0  0  0  0  0  0
   21.2272   68.5015    5.6180 H   0  0  0  0  0  0
   20.8384   67.8530    4.0324 H   0  0  0  0  0  0
   20.4950   69.5573    4.4180 H   0  0  0  0  0  0
   14.9742   68.0360    2.1985 H   0  0  0  0  0  0
   15.5918   63.6528    2.9589 H   0  0  0  0  0  0
   17.1441   68.7743    1.2803 H   0  0  0  0  0  0
   13.3339   62.7081    2.6349 H   0  0  0  0  0  0
  1  2  2  0  0  0
  1  3  1  0  0  0
  1  7  1  0  0  0
  2  5  1  0  0  0
  2  6  1  0  0  0
  3  4  2  0  0  0
  4 12  1  0  0  0
  4  5  1  0  0  0
  6  8  1  0  0  0
  6 14  2  0  0  0
  7 10  1  0  0  0
  7 15  2  0  0  0
  8 11  1  0  0  0
  8 17  2  0  0  0
  9 13  2  0  0  0
  9 11  1  0  0  0
 10 16  1  0  0  0
 10 18  2  0  0  0
 11 19  2  0  0  0
 12 25  1  0  0  0
 12 26  1  0  0  0
 13 14  1  0  0  0
 13 27  1  0  0  0
 14 28  1  0  0  0
 15 21  1  0  0  0
 15 29  1  0  0  0
 16 20  1  0  0  0
 17 22  1  0  0  0
 17 30  1  0  0  0
 18 23  1  0  0  0
 18 31  1  0  0  0
 19 24  1  0  0  0
 19 32  1  0  0  0
 20 33  1  0  0  0
 20 34  1  0  0  0
 20 35  1  0  0  0
 21 23  2  0  0  0
 21 36  1  0  0  0
 22 24  2  0  0  0
 22 37  1  0  0  0
 23 38  1  0  0  0
 24 39  1  0  0  0
M  END
> <s_m_entry_id>
34666

> <s_m_entry_name>
dock_pv.409

> <s_m_Source_Path>
/home/csk/Desktop/cluster/DUD-E-result/tgfr1

> <s_m_Source_File>
dock_pv.maegz

> <i_m_Source_File_Index>
409

> <chembl_id>
CHEMBL185237

> <chembl_pref_name>
None

> <i_lp_mmshare_version>
53161

> <r_lp_tautomer_probability>
1

> <s_lp_Force_Field>
OPLS_2005

> <r_lp_Energy>
26.571847

> <b_lp_Chiralities_Consistent>
1

> <s_lp_Variant>
CHEMBL4439_lig70-1

> <s_i_glide_gridfile>
glide-grid_3hmm

> <i_i_glide_lignum>
106

> <i_i_glide_rotatable_bonds>
3

> <r_i_docking_score>
-7.48078839895699

> <r_i_glide_ligand_efficiency>
-0.311699516623208

> <r_i_glide_ligand_efficiency_sa>
-0.899096986877237

> <r_i_glide_ligand_efficiency_ln>
-1.7904959348822

> <r_i_glide_gscore>
-7.48078839895699

> <r_i_glide_lipo>
-4.10918676271326

> <r_i_glide_hbond>
0

> <r_i_glide_metal>
0

> <r_i_glide_rewards>
-1.51506209519617

> <r_i_glide_evdw>
-42.8764190673828

> <r_i_glide_ecoul>
-0.345434248447418

> <r_i_glide_erotb>
0.339096549588697

> <r_i_glide_esite>
0

> <r_i_glide_emodel>
-59.3231515301112

> <r_i_glide_energy>
-43.2218533158302

> <r_i_glide_einternal>
4.42003488540649

> <i_i_glide_confnum>
1

> <i_i_glide_posenum>
71

> <r_i_glide_eff_state_penalty>
0

> <s_user_duplicate_titles>
CHEMBL4439_lig70

> <i_f3d_flags>
0

> <s_m_subgroup_title>
dock_pv

> <s_m_subgroupid>
dock_pv

> <b_m_subgroup_collapsed>
1

$$$$
CHEMBL4439_lig20
                    3D
 Schrodinger Suite 2021-1.
 52 55  0  0  1  0            999 V2000
   17.9855   69.9192    8.4319 O   0  0  0  0  0  0
   17.4917   68.8110    9.0562 C   0  0  0  0  0  0
   16.7495   68.8575   10.0323 O   0  0  0  0  0  0
   17.9656   67.4725    8.4272 C   0  0  1  0  0  0
   19.5417   67.4049    8.5033 C   0  0  0  0  0  0
   20.3752   68.3630    7.6376 C   0  0  0  0  0  0
   21.4034   69.1418    8.1761 C   0  0  0  0  0  0
   22.1177   69.9862    7.3215 C   0  0  0  0  0  0
   21.7715   70.0573    5.9689 C   0  0  0  0  0  0
   20.7227   69.2623    5.4963 C   0  0  0  0  0  0
   20.2809   69.4415    4.1718 N   0  0  0  0  0  0
   19.1400   68.9625    3.5525 C   0  0  0  0  0  0
   18.3029   68.0584    3.9992 N   0  0  0  0  0  0
   17.2621   67.8936    3.2078 C   0  0  0  0  0  0
   17.2350   68.6775    2.0624 C   0  0  0  0  0  0
   18.6670   69.6546    2.0323 S   0  0  0  0  0  0
   20.0751   68.3960    6.3150 N   0  0  0  0  0  0
   17.2767   66.3427    9.2992 C   0  0  0  0  0  0
   15.7669   66.1100    9.0114 C   0  0  0  0  0  0
   15.4749   66.0128    7.5017 C   0  0  2  0  0  0
   15.8624   67.3286    6.8362 C   0  0  0  0  0  0
   17.3684   67.5445    6.9823 C   0  0  0  0  0  0
   14.0977   65.7684    7.2316 O   0  0  0  0  0  0
   13.7198   65.1811    6.0326 C   0  0  0  0  0  0
   14.6111   64.8253    5.0042 C   0  0  0  0  0  0
   14.1758   64.0565    3.9268 C   0  0  0  0  0  0
   12.8443   63.6570    3.8483 C   0  0  0  0  0  0
   11.9302   64.0883    4.8083 C   0  0  0  0  0  0
   10.2673   63.6588    4.6474 Cl  0  0  0  0  0  0
   12.3652   64.8595    5.8888 C   0  0  0  0  0  0
   11.4814   65.2785    6.8242 F   0  0  0  0  0  0
   17.8683   70.6642    9.0324 H   0  0  0  0  0  0
   19.8649   67.4736    9.5440 H   0  0  0  0  0  0
   19.8682   66.4176    8.1952 H   0  0  0  0  0  0
   21.6473   69.0955    9.2269 H   0  0  0  0  0  0
   22.9260   70.5964    7.7019 H   0  0  0  0  0  0
   22.3052   70.7340    5.3172 H   0  0  0  0  0  0
   20.8920   70.0535    3.6550 H   0  0  0  0  0  0
   16.5019   67.1797    3.4883 H   0  0  0  0  0  0
   16.4888   68.7270    1.2822 H   0  0  0  0  0  0
   17.4393   66.4999   10.3683 H   0  0  0  0  0  0
   17.7678   65.3873    9.1419 H   0  0  0  0  0  0
   15.1932   66.9316    9.4386 H   0  0  0  0  0  0
   15.4731   65.2101    9.5374 H   0  0  0  0  0  0
   16.0921   65.1975    7.1220 H   0  0  0  0  0  0
   15.5958   67.3396    5.7800 H   0  0  0  0  0  0
   15.3321   68.1597    7.3029 H   0  0  0  0  0  0
   17.8454   66.7427    6.4317 H   0  0  0  0  0  0
   17.6147   68.4665    6.4575 H   0  0  0  0  0  0
   15.6567   65.0845    5.0396 H   0  0  0  0  0  0
   14.8719   63.7556    3.1578 H   0  0  0  0  0  0
   12.5115   63.0611    3.0098 H   0  0  0  0  0  0
  1  2  1  0  0  0
  1 32  1  0  0  0
  2  3  2  0  0  0
  2  4  1  0  0  0
  4  5  1  0  0  0
  4 18  1  0  0  0
  4 22  1  0  0  0
  5  6  1  0  0  0
  5 33  1  0  0  0
  5 34  1  0  0  0
  6  7  2  0  0  0
  6 17  1  0  0  0
  7  8  1  0  0  0
  7 35  1  0  0  0
  8  9  2  0  0  0
  8 36  1  0  0  0
  9 10  1  0  0  0
  9 37  1  0  0  0
 10 11  1  0  0  0
 10 17  2  0  0  0
 11 12  1  0  0  0
 11 38  1  0  0  0
 12 13  2  0  0  0
 12 16  1  0  0  0
 13 14  1  0  0  0
 14 15  2  0  0  0
 14 39  1  0  0  0
 15 16  1  0  0  0
 15 40  1  0  0  0
 18 19  1  0  0  0
 18 41  1  0  0  0
 18 42  1  0  0  0
 19 20  1  0  0  0
 19 43  1  0  0  0
 19 44  1  0  0  0
 20 21  1  0  0  0
 20 23  1  0  0  0
 20 45  1  0  0  0
 21 22  1  0  0  0
 21 46  1  0  0  0
 21 47  1  0  0  0
 22 48  1  0  0  0
 22 49  1  0  0  0
 23 24  1  0  0  0
 24 25  2  0  0  0
 24 30  1  0  0  0
 25 26  1  0  0  0
 25 50  1  0  0  0
 26 27  2  0  0  0
 26 51  1  0  0  0
 27 28  1  0  0  0
 27 52  1  0  0  0
 28 29  1  0  0  0
 28 30  2  0  0  0
 30 31  1  0  0  0
M  END
> <s_m_entry_id>
34667

> <s_m_entry_name>
dock_pv.410

> <s_m_Source_Path>
/home/csk/Desktop/cluster/DUD-E-result/tgfr1

> <s_m_Source_File>
dock_pv.maegz

> <i_m_Source_File_Index>
410

> <chembl_id>
CHEMBL3182444

> <chembl_pref_name>
MK-5108

> <i_lp_mmshare_version>
53161

> <r_lp_tautomer_probability>
0.999999772200052

> <s_lp_Force_Field>
OPLS_2005

> <r_lp_Energy>
25.995275

> <b_lp_Chiralities_Consistent>
1

> <s_lp_Variant>
CHEMBL4439_lig20-1

> <s_i_glide_gridfile>
glide-grid_3hmm

> <i_i_glide_lignum>
25

> <i_i_glide_rotatable_bonds>
8

> <r_i_docking_score>
-7.47205954652965

> <r_i_glide_ligand_efficiency>
-0.241034178920311

> <r_i_glide_ligand_efficiency_sa>
-0.757180105358595

> <r_i_glide_ligand_efficiency_ln>
-1.68517841886674

> <r_i_glide_gscore>
-7.47205954652965

> <r_i_glide_lipo>
-3.85107453018236

> <r_i_glide_hbond>
-0.0820813452633075

> <r_i_glide_metal>
0

> <r_i_glide_rewards>
-0.974682249120448

> <r_i_glide_evdw>
-49.2267951965332

> <r_i_glide_ecoul>
-5.0904278755188

> <r_i_glide_erotb>
0.660682519190947

> <r_i_glide_esite>
0

> <r_i_glide_emodel>
-72.5368729394752

> <r_i_glide_energy>
-54.317223072052

> <r_i_glide_einternal>
11.5207328796387

> <i_i_glide_confnum>
19

> <i_i_glide_posenum>
142

> <r_i_glide_eff_state_penalty>
0

> <s_user_duplicate_titles>
CHEMBL4439_lig20

> <i_f3d_flags>
0

> <s_m_subgroup_title>
dock_pv

> <s_m_subgroupid>
dock_pv

> <b_m_subgroup_collapsed>
1

$$$$
CHEMBL4439_lig510
                    3D
 Schrodinger Suite 2021-1.
 53 56  0  0  1  0            999 V2000
   17.7804   68.2444    2.9383 C   0  0  0  0  0  0
   16.9984   67.7569    4.1498 C   0  0  0  0  0  0
   15.8861   66.9741    4.0521 N   0  0  0  0  0  0
   15.4829   66.6407    5.3239 C   0  0  0  0  0  0
   16.4556   67.2628    6.1511 C   0  0  0  0  0  0
   17.2988   67.9705    5.4046 N   0  0  0  0  0  0
   16.6917   67.2212    7.6464 C   0  0  0  0  0  0
   17.7393   67.9760    8.2239 C   0  0  0  0  0  0
   16.1228   66.3598    9.8806 C   0  0  0  0  0  0
   15.9250   66.3930    8.4925 C   0  0  0  0  0  0
   17.1579   67.1219   10.3967 C   0  0  0  0  0  0
   17.9581   67.8746    9.5914 C   0  0  0  0  0  0
   18.9239   68.4571   10.3446 O   0  0  0  0  0  0
   18.7719   67.9507   11.6410 C   0  0  0  0  0  0
   17.5579   67.2578   11.6878 O   0  0  0  0  0  0
   14.2984   65.7779    5.4702 C   0  0  0  0  0  0
   14.0276   64.8087    4.6237 N   0  0  0  0  0  0
   12.8489   64.2504    4.8309 C   0  0  0  0  0  0
   12.1176   64.7844    5.8867 C   0  0  0  0  0  0
   13.0317   66.0572    6.6267 S   0  0  0  0  0  0
   12.4521   63.1379    3.8875 C   0  0  0  0  0  0
   18.8947   69.2776    3.2361 C   0  0  0  0  0  0
   20.0649   68.7730    4.1380 C   0  0  0  0  0  0
   20.3862   69.6326    5.3734 C   0  0  0  0  0  0
   21.5839   69.4278    5.9401 N   0  0  0  0  0  0
   19.5828   70.4567    5.8078 O   0  0  0  0  0  0
   22.1208   70.1840    7.0720 C   0  0  0  0  0  0
   21.5293   69.7915    8.4400 C   0  0  0  0  0  0
   21.7603   68.3204    8.8194 C   0  0  0  0  0  0
   17.0931   68.6843    2.2141 H   0  0  0  0  0  0
   18.2269   67.3903    2.4253 H   0  0  0  0  0  0
   15.4404   66.6722    3.1971 H   0  0  0  0  0  0
   18.3818   68.6036    7.6223 H   0  0  0  0  0  0
   15.5079   65.7457   10.5218 H   0  0  0  0  0  0
   15.1822   65.7458    8.0763 H   0  0  0  0  0  0
   18.7647   68.7749   12.3539 H   0  0  0  0  0  0
   19.5895   67.2591   11.8500 H   0  0  0  0  0  0
   11.1334   64.5137    6.2447 H   0  0  0  0  0  0
   11.4079   62.8557    4.0285 H   0  0  0  0  0  0
   12.5531   63.4283    2.8393 H   0  0  0  0  0  0
   13.0581   62.2447    4.0338 H   0  0  0  0  0  0
   18.4152   70.1684    3.6398 H   0  0  0  0  0  0
   19.3167   69.6178    2.2893 H   0  0  0  0  0  0
   20.9687   68.6708    3.5368 H   0  0  0  0  0  0
   19.8605   67.7648    4.4981 H   0  0  0  0  0  0
   22.1852   68.6970    5.5735 H   0  0  0  0  0  0
   22.0183   71.2563    6.9022 H   0  0  0  0  0  0
   23.1948   69.9872    7.0847 H   0  0  0  0  0  0
   20.4596   70.0147    8.4617 H   0  0  0  0  0  0
   21.9758   70.4271    9.2069 H   0  0  0  0  0  0
   21.4397   68.1226    9.8420 H   0  0  0  0  0  0
   22.8144   68.0563    8.7461 H   0  0  0  0  0  0
   21.1931   67.6590    8.1641 H   0  0  0  0  0  0
  1 22  1  0  0  0
  1 30  1  0  0  0
  1 31  1  0  0  0
  1  2  1  0  0  0
  2  3  1  0  0  0
  2  6  2  0  0  0
  3  4  1  0  0  0
  3 32  1  0  0  0
  4  5  2  0  0  0
  4 16  1  0  0  0
  5  7  1  0  0  0
  5  6  1  0  0  0
  7  8  2  0  0  0
  7 10  1  0  0  0
  8 12  1  0  0  0
  8 33  1  0  0  0
  9 11  1  0  0  0
  9 10  2  0  0  0
  9 34  1  0  0  0
 10 35  1  0  0  0
 11 15  1  0  0  0
 11 12  2  0  0  0
 12 13  1  0  0  0
 13 14  1  0  0  0
 14 15  1  0  0  0
 14 36  1  0  0  0
 14 37  1  0  0  0
 16 17  2  0  0  0
 16 20  1  0  0  0
 17 18  1  0  0  0
 18 19  2  0  0  0
 18 21  1  0  0  0
 19 20  1  0  0  0
 19 38  1  0  0  0
 21 39  1  0  0  0
 21 40  1  0  0  0
 21 41  1  0  0  0
 22 23  1  0  0  0
 22 42  1  0  0  0
 22 43  1  0  0  0
 23 24  1  0  0  0
 23 44  1  0  0  0
 23 45  1  0  0  0
 24 25  1  0  0  0
 24 26  2  0  0  0
 25 27  1  0  0  0
 25 46  1  0  0  0
 27 28  1  0  0  0
 27 47  1  0  0  0
 27 48  1  0  0  0
 28 29  1  0  0  0
 28 49  1  0  0  0
 28 50  1  0  0  0
 29 51  1  0  0  0
 29 52  1  0  0  0
 29 53  1  0  0  0
M  END
> <s_m_entry_id>
34668

> <s_m_entry_name>
dock_pv.411

> <s_m_Source_Path>
/home/csk/Desktop/cluster/DUD-E-result/tgfr1

> <s_m_Source_File>
dock_pv.maegz

> <i_m_Source_File_Index>
411

> <chembl_id>
CHEMBL1957666

> <chembl_pref_name>
None

> <i_lp_mmshare_version>
53161

> <r_lp_tautomer_probability>
0.499999999999999

> <s_lp_Force_Field>
OPLS_2005

> <r_lp_Energy>
21.580118

> <b_lp_Chiralities_Consistent>
1

> <s_lp_Variant>
CHEMBL4439_lig510-2

> <s_i_glide_gridfile>
glide-grid_3hmm

> <i_i_glide_lignum>
675

> <i_i_glide_rotatable_bonds>
9

> <r_i_docking_score>
-7.46760990977328

> <r_i_glide_ligand_efficiency>
-0.257503789992182

> <r_i_glide_ligand_efficiency_sa>
-0.791133225782862

> <r_i_glide_ligand_efficiency_ln>
-1.70989330708939

> <r_i_glide_gscore>
-7.46760990977328

> <r_i_glide_lipo>
-3.21963810388627

> <r_i_glide_hbond>
-0.32

> <r_i_glide_metal>
0

> <r_i_glide_rewards>
-1.77950959361572

> <r_i_glide_evdw>
-52.85595703125

> <r_i_glide_ecoul>
-2.88509249687195

> <r_i_glide_erotb>
0.92709951382201

> <r_i_glide_esite>
0

> <r_i_glide_emodel>
-79.0246297685727

> <r_i_glide_energy>
-55.7410495281219

> <r_i_glide_einternal>
4.60625457763672

> <i_i_glide_confnum>
8

> <i_i_glide_posenum>
25

> <r_i_glide_eff_state_penalty>
0

> <s_user_duplicate_titles>
CHEMBL4439_lig510

> <i_f3d_flags>
0

> <s_m_subgroup_title>
dock_pv

> <s_m_subgroupid>
dock_pv

> <b_m_subgroup_collapsed>
1

$$$$
CHEMBL4439_lig682
                    3D
 Schrodinger Suite 2021-1.
 54 58  0  0  1  0            999 V2000
   19.5384   68.9842    4.8933 C   0  0  0  0  0  0
   18.3448   68.4570    5.4047 C   0  0  0  0  0  0
   17.3111   68.1787    4.4821 C   0  0  0  0  0  0
   17.4271   68.4212    3.1124 C   0  0  0  0  0  0
   19.6525   69.2017    3.5482 N   0  0  0  0  0  0
   18.6323   68.9423    2.6342 C   0  0  0  0  0  0
   19.0670   69.2570    1.3941 N   0  0  0  0  0  0
   20.3048   69.6570    1.6362 C   0  0  0  0  0  0
   20.7355   69.6570    2.8859 N   0  0  0  0  0  0
   18.0950   68.1495    6.8690 C   0  0  0  0  0  0
   18.8152   67.9611    8.0910 C   0  0  0  0  0  0
   18.0048   67.4819    9.0361 N   0  0  0  0  0  0
   16.8162   67.3906    8.5194 C   0  0  0  0  0  0
   16.8064   67.9000    7.2648 N   0  0  0  0  0  0
   20.2602   68.1442    8.4934 C   0  0  0  0  0  0
   20.7699   67.6570    9.7111 C   0  0  0  0  0  0
   22.1049   67.8916   10.0447 C   0  0  0  0  0  0
   22.9141   68.6070    9.1640 C   0  0  0  0  0  0
   22.3470   69.0650    7.9743 C   0  0  0  0  0  0
   21.0490   68.8462    7.6464 N   0  0  0  0  0  0
   23.1557   69.8331    6.9525 C   0  0  0  0  0  0
   15.6329   66.7110    9.1787 C   0  0  0  0  0  0
   14.3705   66.7548    8.4302 N   0  0  0  0  0  0
   14.1263   66.0608    7.2280 C   0  0  0  0  0  0
   12.7977   65.9414    6.8078 C   0  0  0  0  0  0
   12.4796   65.2570    5.6288 C   0  0  0  0  0  0
   13.5015   64.7382    4.8329 C   0  0  0  0  0  0
   14.8263   64.8570    5.2377 C   0  0  0  0  0  0
   15.1348   65.4773    6.4462 C   0  0  0  0  0  0
   11.0339   65.0669    5.2054 C   0  0  0  0  0  0
   10.4775   63.6996    5.6319 C   0  0  0  0  0  0
   20.4112   69.2463    5.4548 H   0  0  0  0  0  0
   16.3744   67.7533    4.8103 H   0  0  0  0  0  0
   16.6168   68.1990    2.4340 H   0  0  0  0  0  0
   20.9408   70.0011    0.8317 H   0  0  0  0  0  0
   15.9938   67.9119    6.6666 H   0  0  0  0  0  0
   20.1447   67.1098   10.4011 H   0  0  0  0  0  0
   22.5042   67.5241   10.9785 H   0  0  0  0  0  0
   23.9511   68.7998    9.3975 H   0  0  0  0  0  0
   24.1598   70.0570    7.3142 H   0  0  0  0  0  0
   23.2502   69.2577    6.0323 H   0  0  0  0  0  0
   22.6669   70.7776    6.7136 H   0  0  0  0  0  0
   15.4670   67.2015   10.1382 H   0  0  0  0  0  0
   15.8668   65.6676    9.3945 H   0  0  0  0  0  0
   13.5598   67.0868    8.9364 H   0  0  0  0  0  0
   11.9984   66.3522    7.4079 H   0  0  0  0  0  0
   13.2675   64.2311    3.9069 H   0  0  0  0  0  0
   15.6092   64.4346    4.6265 H   0  0  0  0  0  0
   16.1688   65.4938    6.7510 H   0  0  0  0  0  0
   10.9641   65.1795    4.1222 H   0  0  0  0  0  0
   10.4246   65.8706    5.6170 H   0  0  0  0  0  0
    9.4489   63.5735    5.2940 H   0  0  0  0  0  0
   10.4857   63.5920    6.7175 H   0  0  0  0  0  0
   11.0671   62.8835    5.2129 H   0  0  0  0  0  0
  1  5  1  0  0  0
  1  2  2  0  0  0
  1 32  1  0  0  0
  2  3  1  0  0  0
  2 10  1  0  0  0
  3  4  2  0  0  0
  3 33  1  0  0  0
  4  6  1  0  0  0
  4 34  1  0  0  0
  5  6  1  0  0  0
  5  9  1  0  0  0
  6  7  2  0  0  0
  7  8  1  0  0  0
  8  9  2  0  0  0
  8 35  1  0  0  0
 10 11  2  0  0  0
 10 14  1  0  0  0
 11 15  1  0  0  0
 11 12  1  0  0  0
 12 13  2  0  0  0
 13 14  1  0  0  0
 13 22  1  0  0  0
 14 36  1  0  0  0
 15 16  2  0  0  0
 15 20  1  0  0  0
 16 17  1  0  0  0
 16 37  1  0  0  0
 17 18  2  0  0  0
 17 38  1  0  0  0
 18 19  1  0  0  0
 18 39  1  0  0  0
 19 20  2  0  0  0
 19 21  1  0  0  0
 21 40  1  0  0  0
 21 41  1  0  0  0
 21 42  1  0  0  0
 22 23  1  0  0  0
 22 43  1  0  0  0
 22 44  1  0  0  0
 23 24  1  0  0  0
 23 45  1  0  0  0
 24 25  2  0  0  0
 24 29  1  0  0  0
 25 26  1  0  0  0
 25 46  1  0  0  0
 26 27  2  0  0  0
 26 30  1  0  0  0
 27 28  1  0  0  0
 27 47  1  0  0  0
 28 29  2  0  0  0
 28 48  1  0  0  0
 29 49  1  0  0  0
 30 31  1  0  0  0
 30 50  1  0  0  0
 30 51  1  0  0  0
 31 52  1  0  0  0
 31 53  1  0  0  0
 31 54  1  0  0  0
M  END
> <s_m_entry_id>
34669

> <s_m_entry_name>
dock_pv.412

> <s_m_Source_Path>
/home/csk/Desktop/cluster/DUD-E-result/tgfr1

> <s_m_Source_File>
dock_pv.maegz

> <i_m_Source_File_Index>
412

> <chembl_id>
CHEMBL3260585

> <chembl_pref_name>
None

> <i_lp_mmshare_version>
53161

> <r_lp_tautomer_probability>
0.499999999999999

> <s_lp_Force_Field>
OPLS_2005

> <r_lp_Energy>
19.348225

> <b_lp_Chiralities_Consistent>
1

> <s_lp_Variant>
CHEMBL4439_lig682-2

> <s_i_glide_gridfile>
glide-grid_3hmm

> <i_i_glide_lignum>
953

> <i_i_glide_rotatable_bonds>
6

> <r_i_docking_score>
-7.46176134413123

> <r_i_glide_ligand_efficiency>
-0.240701978842943

> <r_i_glide_ligand_efficiency_sa>
-0.756136538464022

> <r_i_glide_ligand_efficiency_ln>
-1.6828558586239

> <r_i_glide_gscore>
-7.46176134413123

> <r_i_glide_lipo>
-3.19575068108605

> <r_i_glide_hbond>
0

> <r_i_glide_metal>
0

> <r_i_glide_rewards>
-1.96563188550465

> <r_i_glide_evdw>
-47.6461715698242

> <r_i_glide_ecoul>
-3.16150379180908

> <r_i_glide_erotb>
0.5871704129456

> <r_i_glide_esite>
-0.0310150432235604

> <r_i_glide_emodel>
-73.681775745411

> <r_i_glide_energy>
-50.8076753616333

> <r_i_glide_einternal>
2.90731191635132

> <i_i_glide_confnum>
14

> <i_i_glide_posenum>
123

> <r_i_glide_eff_state_penalty>
0

> <s_user_duplicate_titles>
CHEMBL4439_lig682

> <i_f3d_flags>
0

> <s_m_subgroup_title>
dock_pv

> <s_m_subgroupid>
dock_pv

> <b_m_subgroup_collapsed>
1

$$$$
CHEMBL4439_lig594
                    3D
 Schrodinger Suite 2021-1.
 48 51  0  0  1  0            999 V2000
   16.1354   67.6568    3.8128 S   0  0  0  0  0  0
   17.0566   67.8721    5.2714 C   0  0  0  0  0  0
   18.2415   68.4043    5.0712 N   0  0  0  0  0  0
   18.4993   68.6351    3.7982 C   0  0  0  0  0  0
   17.4726   68.3106    2.9179 C   0  0  0  0  0  0
   19.8606   69.2117    3.4837 C   0  0  0  0  0  0
   16.5429   67.5601    6.6149 C   0  0  0  0  0  0
   15.4586   66.8399    7.1548 C   0  0  0  0  0  0
   15.4453   66.9080    8.4819 N   0  0  0  0  0  0
   16.4474   67.6691    8.8216 C   0  0  0  0  0  0
   17.1648   68.0645    7.7306 N   0  0  0  0  0  0
   14.3624   66.0831    6.4852 C   0  0  0  0  0  0
   13.0561   66.3121    6.9271 C   0  0  0  0  0  0
   11.9658   65.6482    6.3792 C   0  0  0  0  0  0
   14.6139   65.1539    5.4697 C   0  0  0  0  0  0
   13.5200   64.4766    4.9045 C   0  0  0  0  0  0
   12.1935   64.7290    5.3511 C   0  0  0  0  0  0
   11.2194   64.0246    4.7218 N   0  0  0  0  0  0
   11.7311   63.2569    3.8053 C   0  0  0  0  0  0
   13.4665   63.2604    3.6323 S   0  0  0  0  0  0
   16.7704   68.0853   10.2355 C   0  0  0  0  0  0
   17.3207   66.9293   11.0829 C   0  0  0  0  0  0
   17.7451   67.3371   12.5129 C   0  0  0  0  0  0
   18.8287   68.4344   12.6005 C   0  0  0  0  0  0
   20.1631   68.0778   11.9154 C   0  0  0  0  0  0
   21.1393   69.2576   11.8403 C   0  0  0  0  0  0
   17.4409   68.4108    1.8438 H   0  0  0  0  0  0
   19.9337   69.5477    2.4483 H   0  0  0  0  0  0
   20.1031   70.0636    4.1191 H   0  0  0  0  0  0
   20.6505   68.4714    3.6339 H   0  0  0  0  0  0
   17.9810   68.6595    7.7392 H   0  0  0  0  0  0
   12.8759   67.0247    7.7186 H   0  0  0  0  0  0
   10.9688   65.8504    6.7343 H   0  0  0  0  0  0
   15.6216   64.9619    5.1323 H   0  0  0  0  0  0
   11.1219   62.6283    3.1732 H   0  0  0  0  0  0
   15.8673   68.4569   10.7170 H   0  0  0  0  0  0
   17.4698   68.9201   10.2229 H   0  0  0  0  0  0
   18.1575   66.4591   10.5628 H   0  0  0  0  0  0
   16.5474   66.1619   11.1562 H   0  0  0  0  0  0
   18.0992   66.4570   13.0489 H   0  0  0  0  0  0
   16.8593   67.6703   13.0568 H   0  0  0  0  0  0
   19.0259   68.6567   13.6493 H   0  0  0  0  0  0
   18.4327   69.3574   12.1832 H   0  0  0  0  0  0
   19.9878   67.7189   10.9016 H   0  0  0  0  0  0
   20.6386   67.2576   12.4523 H   0  0  0  0  0  0
   22.0826   68.9519   11.3868 H   0  0  0  0  0  0
   21.3622   69.6563   12.8287 H   0  0  0  0  0  0
   20.7302   70.0656   11.2317 H   0  0  0  0  0  0
  1  2  1  0  0  0
  1  5  1  0  0  0
  2  3  2  0  0  0
  2  7  1  0  0  0
  3  4  1  0  0  0
  4  5  2  0  0  0
  4  6  1  0  0  0
  5 27  1  0  0  0
  6 28  1  0  0  0
  6 29  1  0  0  0
  6 30  1  0  0  0
  7  8  2  0  0  0
  7 11  1  0  0  0
  8 12  1  0  0  0
  8  9  1  0  0  0
  9 10  2  0  0  0
 10 11  1  0  0  0
 10 21  1  0  0  0
 11 31  1  0  0  0
 12 13  2  0  0  0
 12 15  1  0  0  0
 13 14  1  0  0  0
 13 32  1  0  0  0
 14 17  2  0  0  0
 14 33  1  0  0  0
 15 16  2  0  0  0
 15 34  1  0  0  0
 16 17  1  0  0  0
 16 20  1  0  0  0
 17 18  1  0  0  0
 18 19  2  0  0  0
 19 20  1  0  0  0
 19 35  1  0  0  0
 21 22  1  0  0  0
 21 36  1  0  0  0
 21 37  1  0  0  0
 22 23  1  0  0  0
 22 38  1  0  0  0
 22 39  1  0  0  0
 23 24  1  0  0  0
 23 40  1  0  0  0
 23 41  1  0  0  0
 24 25  1  0  0  0
 24 42  1  0  0  0
 24 43  1  0  0  0
 25 26  1  0  0  0
 25 44  1  0  0  0
 25 45  1  0  0  0
 26 46  1  0  0  0
 26 47  1  0  0  0
 26 48  1  0  0  0
M  END
> <s_m_entry_id>
34670

> <s_m_entry_name>
dock_pv.413

> <s_m_Source_Path>
/home/csk/Desktop/cluster/DUD-E-result/tgfr1

> <s_m_Source_File>
dock_pv.maegz

> <i_m_Source_File_Index>
413

> <chembl_id>
CHEMBL2207995

> <chembl_pref_name>
None

> <i_lp_mmshare_version>
53161

> <r_lp_tautomer_probability>
0.499999999999999

> <s_lp_Force_Field>
OPLS_2005

> <r_lp_Energy>
7.926952

> <b_lp_Chiralities_Consistent>
1

> <s_lp_Variant>
CHEMBL4439_lig594-2

> <s_i_glide_gridfile>
glide-grid_3hmm

> <i_i_glide_lignum>
802

> <i_i_glide_rotatable_bonds>
7

> <r_i_docking_score>
-7.45533590587716

> <r_i_glide_ligand_efficiency>
-0.286743688687583

> <r_i_glide_ligand_efficiency_sa>
-0.849477049455032

> <r_i_glide_ligand_efficiency_ln>
-1.75086117454286

> <r_i_glide_gscore>
-7.45533590587716

> <r_i_glide_lipo>
-4.0932368869017

> <r_i_glide_hbond>
0

> <r_i_glide_metal>
0

> <r_i_glide_rewards>
-1.53035562093878

> <r_i_glide_evdw>
-51.0565567016602

> <r_i_glide_ecoul>
-0.501623153686523

> <r_i_glide_erotb>
0.796327910099303

> <r_i_glide_esite>
0

> <r_i_glide_emodel>
-72.1125455178059

> <r_i_glide_energy>
-51.5581798553467

> <r_i_glide_einternal>
3.01898622512817

> <i_i_glide_confnum>
6

> <i_i_glide_posenum>
148

> <r_i_glide_eff_state_penalty>
0

> <s_user_duplicate_titles>
CHEMBL4439_lig594,CHEMBL4439_lig594

> <i_f3d_flags>
0

> <s_m_subgroup_title>
dock_pv

> <s_m_subgroupid>
dock_pv

> <b_m_subgroup_collapsed>
1

$$$$
CHEMBL4439_lig589
                    3D
 Schrodinger Suite 2021-1.
 45 49  0  0  1  0            999 V2000
   16.5991   67.3103    9.5125 S   0  0  0  0  0  0
   17.1286   67.6377    7.8786 C   0  0  0  0  0  0
   18.2634   68.2862    7.8315 N   0  0  0  0  0  0
   18.8053   68.4939    9.0155 C   0  0  0  0  0  0
   18.0510   68.0565   10.0970 C   0  0  0  0  0  0
   20.1554   69.1730    9.0283 C   0  0  0  0  0  0
   16.3962   67.1563    6.6793 C   0  0  0  0  0  0
   16.5799   67.4017    5.2921 C   0  0  0  0  0  0
   15.5997   66.6414    4.7071 N   0  0  0  0  0  0
   14.9426   65.9741    5.6887 C   0  0  0  0  0  0
   15.4017   66.2944    6.8668 N   0  0  0  0  0  0
   17.5350   68.1575    4.4158 C   0  0  0  0  0  0
   17.0999   68.5966    3.1548 C   0  0  0  0  0  0
   17.9762   69.1379    2.2151 C   0  0  0  0  0  0
   18.8733   68.3309    4.7853 C   0  0  0  0  0  0
   19.7543   68.9022    3.8672 C   0  0  0  0  0  0
   19.3248   69.2570    2.5653 C   0  0  0  0  0  0
   20.3190   69.6570    1.7282 N   0  0  0  0  0  0
   21.4681   69.6897    2.3421 C   0  0  0  0  0  0
   21.4667   69.2570    4.0312 S   0  0  0  0  0  0
   13.8484   64.9681    5.4360 C   0  0  0  0  0  0
   12.5217   65.1908    6.2028 C   0  0  0  0  0  0
   11.4795   64.0764    6.0152 C   0  0  0  0  0  0
   11.3498   63.6572    4.5657 C   0  0  0  0  0  0
   12.6553   63.2075    3.8996 C   0  0  0  0  0  0
   13.8613   64.1546    4.1158 C   0  0  0  0  0  0
   10.2671   63.6570    4.0026 O   0  0  0  0  0  0
   18.2711   68.1295   11.1515 H   0  0  0  0  0  0
   20.4474   69.4736   10.0353 H   0  0  0  0  0  0
   20.1658   70.0754    8.4164 H   0  0  0  0  0  0
   20.9407   68.5185    8.6481 H   0  0  0  0  0  0
   15.4364   66.5426    3.7162 H   0  0  0  0  0  0
   16.0642   68.4789    2.8691 H   0  0  0  0  0  0
   17.6333   69.4267    1.2347 H   0  0  0  0  0  0
   19.2653   67.9526    5.7107 H   0  0  0  0  0  0
   22.3819   70.0071    1.8596 H   0  0  0  0  0  0
   14.1299   64.1040    6.0346 H   0  0  0  0  0  0
   12.7056   65.2560    7.2751 H   0  0  0  0  0  0
   12.0738   66.1294    5.8876 H   0  0  0  0  0  0
   11.7534   63.1752    6.5571 H   0  0  0  0  0  0
   10.5060   64.3903    6.3836 H   0  0  0  0  0  0
   12.8897   62.2254    4.3081 H   0  0  0  0  0  0
   12.4686   63.0716    2.8333 H   0  0  0  0  0  0
   13.8672   64.8554    3.2826 H   0  0  0  0  0  0
   14.7732   63.5598    4.0315 H   0  0  0  0  0  0
  1  2  1  0  0  0
  1  5  1  0  0  0
  2  3  2  0  0  0
  2  7  1  0  0  0
  3  4  1  0  0  0
  4  5  2  0  0  0
  4  6  1  0  0  0
  5 28  1  0  0  0
  6 29  1  0  0  0
  6 30  1  0  0  0
  6 31  1  0  0  0
  7  8  2  0  0  0
  7 11  1  0  0  0
  8  9  1  0  0  0
  8 12  1  0  0  0
  9 10  1  0  0  0
  9 32  1  0  0  0
 10 11  2  0  0  0
 10 21  1  0  0  0
 12 13  2  0  0  0
 12 15  1  0  0  0
 13 14  1  0  0  0
 13 33  1  0  0  0
 14 17  2  0  0  0
 14 34  1  0  0  0
 15 16  2  0  0  0
 15 35  1  0  0  0
 16 17  1  0  0  0
 16 20  1  0  0  0
 17 18  1  0  0  0
 18 19  2  0  0  0
 19 20  1  0  0  0
 19 36  1  0  0  0
 21 22  1  0  0  0
 21 26  1  0  0  0
 21 37  1  0  0  0
 22 23  1  0  0  0
 22 38  1  0  0  0
 22 39  1  0  0  0
 23 24  1  0  0  0
 23 40  1  0  0  0
 23 41  1  0  0  0
 24 25  1  0  0  0
 24 27  2  0  0  0
 25 26  1  0  0  0
 25 42  1  0  0  0
 25 43  1  0  0  0
 26 44  1  0  0  0
 26 45  1  0  0  0
M  END
> <s_m_entry_id>
34671

> <s_m_entry_name>
dock_pv.414

> <s_m_Source_Path>
/home/csk/Desktop/cluster/DUD-E-result/tgfr1

> <s_m_Source_File>
dock_pv.maegz

> <i_m_Source_File_Index>
414

> <chembl_id>
CHEMBL2208000

> <chembl_pref_name>
None

> <i_lp_mmshare_version>
53161

> <r_lp_tautomer_probability>
0.499999989999999

> <s_lp_Force_Field>
OPLS_2005

> <r_lp_Energy>
9.83035

> <b_lp_Chiralities_Consistent>
1

> <s_lp_Variant>
CHEMBL4439_lig589-1

> <s_i_glide_gridfile>
glide-grid_3hmm

> <i_i_glide_lignum>
791

> <i_i_glide_rotatable_bonds>
3

> <r_i_docking_score>
-7.45354938834898

> <r_i_glide_ligand_efficiency>
-0.276057384753666

> <r_i_glide_ligand_efficiency_sa>
-0.828172153351158

> <r_i_glide_ligand_efficiency_ln>
-1.73506341624227

> <r_i_glide_gscore>
-7.45354938834898

> <r_i_glide_lipo>
-3.6323889732582

> <r_i_glide_hbond>
0

> <r_i_glide_metal>
0

> <r_i_glide_rewards>
-1.76768675146231

> <r_i_glide_evdw>
-50.0806770324707

> <r_i_glide_ecoul>
0.492120832204819

> <r_i_glide_erotb>
0.376742063164342

> <r_i_glide_esite>
0

> <r_i_glide_emodel>
-70.0006814085486

> <r_i_glide_energy>
-49.5885562002659

> <r_i_glide_einternal>
1.54867970943451

> <i_i_glide_confnum>
8

> <i_i_glide_posenum>
2

> <r_i_glide_eff_state_penalty>
0

> <s_user_duplicate_titles>
CHEMBL4439_lig589

> <i_f3d_flags>
0

> <s_m_subgroup_title>
dock_pv

> <s_m_subgroupid>
dock_pv

> <b_m_subgroup_collapsed>
1

$$$$
CHEMBL4439_lig504
                    3D
 Schrodinger Suite 2021-1.
 40 43  0  0  1  0            999 V2000
   17.3393   68.1287   11.1989 C   0  0  0  0  0  0
   17.0990   67.8495    9.7260 C   0  0  0  0  0  0
   15.9693   67.2633    9.2286 N   0  0  0  0  0  0
   16.1189   67.1485    7.8669 C   0  0  0  0  0  0
   17.3691   67.7601    7.6301 C   0  0  0  0  0  0
   17.9387   68.1414    8.7689 N   0  0  0  0  0  0
   18.0788   68.0578    6.3430 C   0  0  0  0  0  0
   17.3434   68.3971    5.1939 C   0  0  0  0  0  0
   20.1709   68.4587    5.1223 C   0  0  0  0  0  0
   19.4918   68.0794    6.2884 C   0  0  0  0  0  0
   19.4006   68.8010    4.0188 C   0  0  0  0  0  0
   18.0366   68.7579    4.0470 C   0  0  0  0  0  0
   17.5438   69.1717    2.8501 O   0  0  0  0  0  0
   18.6543   69.2064    1.9980 C   0  0  0  0  0  0
   19.8007   69.2570    2.8048 O   0  0  0  0  0  0
   15.0860   66.5152    7.0247 C   0  0  0  0  0  0
   13.8121   66.4601    7.3458 N   0  0  0  0  0  0
   13.0871   65.7871    6.4647 C   0  0  0  0  0  0
   13.7919   65.2594    5.3922 C   0  0  0  0  0  0
   15.4666   65.6562    5.5626 S   0  0  0  0  0  0
   11.6068   65.6590    6.7260 C   0  0  0  0  0  0
   18.6300   67.4612   11.7358 C   0  0  0  0  0  0
   18.6513   67.2304   13.2533 C   0  0  0  0  0  0
   19.7193   66.4746   13.6322 O   0  0  0  0  0  0
   17.8031   67.6571   14.0314 O   0  0  0  0  0  0
   17.4667   69.2051   11.3270 H   0  0  0  0  0  0
   16.4655   67.8739   11.8032 H   0  0  0  0  0  0
   15.1756   66.9562    9.7717 H   0  0  0  0  0  0
   16.2649   68.4256    5.2145 H   0  0  0  0  0  0
   21.2509   68.4921    5.0964 H   0  0  0  0  0  0
   20.0723   67.8259    7.1629 H   0  0  0  0  0  0
   18.6135   70.0578    1.3215 H   0  0  0  0  0  0
   18.6667   68.2958    1.3953 H   0  0  0  0  0  0
   13.4249   64.6872    4.5515 H   0  0  0  0  0  0
   11.0205   66.0570    5.9004 H   0  0  0  0  0  0
   11.2776   66.1734    7.6278 H   0  0  0  0  0  0
   11.3176   64.6149    6.8310 H   0  0  0  0  0  0
   18.6668   66.4573   11.3131 H   0  0  0  0  0  0
   19.5271   67.9652   11.3739 H   0  0  0  0  0  0
   20.2021   66.1032   12.8802 H   0  0  0  0  0  0
  1 22  1  0  0  0
  1 26  1  0  0  0
  1 27  1  0  0  0
  1  2  1  0  0  0
  2  3  1  0  0  0
  2  6  2  0  0  0
  3  4  1  0  0  0
  3 28  1  0  0  0
  4  5  2  0  0  0
  4 16  1  0  0  0
  5  7  1  0  0  0
  5  6  1  0  0  0
  7  8  2  0  0  0
  7 10  1  0  0  0
  8 12  1  0  0  0
  8 29  1  0  0  0
  9 11  1  0  0  0
  9 10  2  0  0  0
  9 30  1  0  0  0
 10 31  1  0  0  0
 11 15  1  0  0  0
 11 12  2  0  0  0
 12 13  1  0  0  0
 13 14  1  0  0  0
 14 15  1  0  0  0
 14 32  1  0  0  0
 14 33  1  0  0  0
 16 17  2  0  0  0
 16 20  1  0  0  0
 17 18  1  0  0  0
 18 19  2  0  0  0
 18 21  1  0  0  0
 19 20  1  0  0  0
 19 34  1  0  0  0
 21 35  1  0  0  0
 21 36  1  0  0  0
 21 37  1  0  0  0
 22 23  1  0  0  0
 22 38  1  0  0  0
 22 39  1  0  0  0
 23 24  1  0  0  0
 23 25  2  0  0  0
 24 40  1  0  0  0
M  END
> <s_m_entry_id>
34673

> <s_m_entry_name>
dock_pv.416

> <s_m_Source_Path>
/home/csk/Desktop/cluster/DUD-E-result/tgfr1

> <s_m_Source_File>
dock_pv.maegz

> <i_m_Source_File_Index>
416

> <chembl_id>
CHEMBL1957660

> <chembl_pref_name>
None

> <i_lp_mmshare_version>
53161

> <r_lp_tautomer_probability>
0.499999999999999

> <s_lp_Force_Field>
OPLS_2005

> <r_lp_Energy>
22.445271

> <b_lp_Chiralities_Consistent>
1

> <s_lp_Variant>
CHEMBL4439_lig504-2

> <s_i_glide_gridfile>
glide-grid_3hmm

> <i_i_glide_lignum>
663

> <i_i_glide_rotatable_bonds>
6

> <r_i_docking_score>
-7.44614520330172

> <r_i_glide_ligand_efficiency>
-0.297845808132069

> <r_i_glide_ligand_efficiency_sa>
-0.870906425296068

> <r_i_glide_ligand_efficiency_ln>
-1.76495955614772

> <r_i_glide_gscore>
-7.44614520330172

> <r_i_glide_lipo>
-2.7923392004186

> <r_i_glide_hbond>
-0.153331399356724

> <r_i_glide_metal>
0

> <r_i_glide_rewards>
-1.77825322326956

> <r_i_glide_evdw>
-40.7668724060059

> <r_i_glide_ecoul>
-9.29988288879395

> <r_i_glide_erotb>
0.749408301796564

> <r_i_glide_esite>
-0.038303628434019

> <r_i_glide_emodel>
-72.9269146119835

> <r_i_glide_energy>
-50.0667552947998

> <r_i_glide_einternal>
1.58536815643311

> <i_i_glide_confnum>
4

> <i_i_glide_posenum>
78

> <r_i_glide_eff_state_penalty>
0

> <s_user_duplicate_titles>
CHEMBL4439_lig504,CHEMBL4439_lig504

> <i_f3d_flags>
0

> <s_m_subgroup_title>
dock_pv

> <s_m_subgroupid>
dock_pv

> <b_m_subgroup_collapsed>
1

$$$$
CHEMBL4439_lig579
                    3D
 Schrodinger Suite 2021-1.
 44 47  0  0  1  0            999 V2000
   15.8671   66.4569    9.5424 S   0  0  0  0  0  0
   17.0508   67.3349    8.6359 C   0  0  0  0  0  0
   17.9871   67.8714    9.3936 N   0  0  0  0  0  0
   17.8114   67.6507   10.6835 C   0  0  0  0  0  0
   16.6670   66.9338   11.0033 C   0  0  0  0  0  0
   18.8686   68.1842   11.6233 C   0  0  0  0  0  0
   17.0339   67.4613    7.1586 C   0  0  0  0  0  0
   16.1151   67.0349    6.1720 C   0  0  0  0  0  0
   16.6670   67.4808    4.9957 N   0  0  0  0  0  0
   17.8661   68.0570    5.2916 C   0  0  0  0  0  0
   18.0689   68.0561    6.5828 N   0  0  0  0  0  0
   14.8180   66.3000    6.1476 C   0  0  0  0  0  0
   13.7590   66.6912    6.9691 C   0  0  0  0  0  0
   12.4986   66.0976    6.8714 C   0  0  0  0  0  0
   14.6531   65.2567    5.2265 C   0  0  0  0  0  0
   13.3867   64.6723    5.1041 C   0  0  0  0  0  0
   12.2985   65.1099    5.9020 C   0  0  0  0  0  0
   11.1072   64.5166    5.6317 N   0  0  0  0  0  0
   11.2278   63.6569    4.6646 C   0  0  0  0  0  0
   12.8323   63.3926    4.0321 S   0  0  0  0  0  0
   18.8333   68.5888    4.2368 C   0  0  0  0  0  0
   20.1871   68.6309    4.7104 O   0  0  0  0  0  0
   20.5777   69.5535    5.6162 C   0  0  0  0  0  0
   21.8670   69.2955    6.0363 N   0  0  0  0  0  0
   19.8575   70.4571    6.0319 O   0  0  0  0  0  0
   22.5037   70.0571    7.1087 C   0  0  0  0  0  0
   22.1011   69.5674    8.5080 C   0  0  0  0  0  0
   16.2886   66.6495   11.9751 H   0  0  0  0  0  0
   18.6050   68.0106   12.6662 H   0  0  0  0  0  0
   19.8314   67.6978   11.4574 H   0  0  0  0  0  0
   19.0297   69.2560   11.5107 H   0  0  0  0  0  0
   16.2753   67.3582    4.0735 H   0  0  0  0  0  0
   13.9008   67.5036    7.6682 H   0  0  0  0  0  0
   11.6757   66.4220    7.4907 H   0  0  0  0  0  0
   15.4668   64.9347    4.5929 H   0  0  0  0  0  0
   10.3860   63.1098    4.2680 H   0  0  0  0  0  0
   18.5312   69.5786    3.8897 H   0  0  0  0  0  0
   18.8228   67.9506    3.3529 H   0  0  0  0  0  0
   22.3665   68.5090    5.6321 H   0  0  0  0  0  0
   22.2677   71.1190    7.0098 H   0  0  0  0  0  0
   23.5854   69.9805    6.9875 H   0  0  0  0  0  0
   22.6043   70.1552    9.2767 H   0  0  0  0  0  0
   22.3778   68.5235    8.6578 H   0  0  0  0  0  0
   21.0272   69.6687    8.6740 H   0  0  0  0  0  0
  1  2  1  0  0  0
  1  5  1  0  0  0
  2  3  2  0  0  0
  2  7  1  0  0  0
  3  4  1  0  0  0
  4  5  2  0  0  0
  4  6  1  0  0  0
  5 28  1  0  0  0
  6 29  1  0  0  0
  6 30  1  0  0  0
  6 31  1  0  0  0
  7  8  2  0  0  0
  7 11  1  0  0  0
  8  9  1  0  0  0
  8 12  1  0  0  0
  9 10  1  0  0  0
  9 32  1  0  0  0
 10 11  2  0  0  0
 10 21  1  0  0  0
 12 13  2  0  0  0
 12 15  1  0  0  0
 13 14  1  0  0  0
 13 33  1  0  0  0
 14 17  2  0  0  0
 14 34  1  0  0  0
 15 16  2  0  0  0
 15 35  1  0  0  0
 16 17  1  0  0  0
 16 20  1  0  0  0
 17 18  1  0  0  0
 18 19  2  0  0  0
 19 20  1  0  0  0
 19 36  1  0  0  0
 21 22  1  0  0  0
 21 37  1  0  0  0
 21 38  1  0  0  0
 22 23  1  0  0  0
 23 24  1  0  0  0
 23 25  2  0  0  0
 24 26  1  0  0  0
 24 39  1  0  0  0
 26 27  1  0  0  0
 26 40  1  0  0  0
 26 41  1  0  0  0
 27 42  1  0  0  0
 27 43  1  0  0  0
 27 44  1  0  0  0
M  END
> <s_m_entry_id>
34674

> <s_m_entry_name>
dock_pv.417

> <s_m_Source_Path>
/home/csk/Desktop/cluster/DUD-E-result/tgfr1

> <s_m_Source_File>
dock_pv.maegz

> <i_m_Source_File_Index>
417

> <chembl_id>
CHEMBL2208011

> <chembl_pref_name>
None

> <i_lp_mmshare_version>
53161

> <r_lp_tautomer_probability>
0.499999999999999

> <s_lp_Force_Field>
OPLS_2005

> <r_lp_Energy>
7.055375

> <b_lp_Chiralities_Consistent>
1

> <s_lp_Variant>
CHEMBL4439_lig579-1

> <s_i_glide_gridfile>
glide-grid_3hmm

> <i_i_glide_lignum>
771

> <i_i_glide_rotatable_bonds>
7

> <r_i_docking_score>
-7.43829097467689

> <r_i_glide_ligand_efficiency>
-0.275492258321366

> <r_i_glide_ligand_efficiency_sa>
-0.826476774056121

> <r_i_glide_ligand_efficiency_ln>
-1.73151150909402

> <r_i_glide_gscore>
-7.43829097467689

> <r_i_glide_lipo>
-3.04975882190227

> <r_i_glide_hbond>
-0.33765987512328

> <r_i_glide_metal>
0

> <r_i_glide_rewards>
-1.52536992326676

> <r_i_glide_evdw>
-51.1544609069824

> <r_i_glide_ecoul>
-4.69641876220703

> <r_i_glide_erotb>
0.736683505295602

> <r_i_glide_esite>
0

> <r_i_glide_emodel>
-78.5845227151972

> <r_i_glide_energy>
-55.8508796691895

> <r_i_glide_einternal>
5.44570732116699

> <i_i_glide_confnum>
21

> <i_i_glide_posenum>
236

> <r_i_glide_eff_state_penalty>
0

> <s_user_duplicate_titles>
CHEMBL4439_lig579,CHEMBL4439_lig579

> <i_f3d_flags>
0

> <s_m_subgroup_title>
dock_pv

> <s_m_subgroupid>
dock_pv

> <b_m_subgroup_collapsed>
1

$$$$
CHEMBL4439_lig456
                    3D
 Schrodinger Suite 2021-1.
 50 54  0  0  1  0            999 V2000
   20.4343   68.8569    4.4317 C   0  0  0  0  0  0
   19.0391   68.7491    4.3438 C   0  0  0  0  0  0
   18.4142   69.1329    3.1441 C   0  0  0  0  0  0
   19.1370   69.5580    2.0317 C   0  0  0  0  0  0
   21.1253   69.3540    3.3603 N   0  0  0  0  0  0
   20.5304   69.6570    2.1385 C   0  0  0  0  0  0
   21.4920   70.0568    1.2763 N   0  0  0  0  0  0
   22.5691   70.0525    2.0379 C   0  0  0  0  0  0
   22.4360   69.6570    3.2912 N   0  0  0  0  0  0
   18.1621   68.2078    5.4373 C   0  0  0  0  0  0
   18.3081   68.0552    6.8514 C   0  0  0  0  0  0
   17.2272   67.5121    7.3795 N   0  0  0  0  0  0
   16.3824   67.2392    6.3742 N   0  0  0  0  0  0
   16.9106   67.6570    5.1833 C   0  0  0  0  0  0
   19.4356   68.3763    7.7918 C   0  0  0  0  0  0
   19.6257   67.6643    8.9888 C   0  0  0  0  0  0
   20.7212   67.9695    9.7976 C   0  0  0  0  0  0
   21.6183   68.9558    9.3898 C   0  0  0  0  0  0
   21.3681   69.6213    8.1889 C   0  0  0  0  0  0
   20.2797   69.3706    7.4181 N   0  0  0  0  0  0
   15.1529   66.5992    6.5918 C   0  0  0  0  0  0
   14.8682   65.7716    5.5326 N   0  0  0  0  0  0
   14.2671   66.8570    7.9911 S   0  0  0  0  0  0
   22.3521   70.6267    7.6374 C   0  0  0  0  0  0
   23.8971   70.5175    1.5030 C   0  0  0  0  0  0
   13.7535   64.9974    5.1506 C   0  0  0  0  0  0
   12.4554   65.1467    5.6629 C   0  0  0  0  0  0
   11.4173   64.3617    5.1707 C   0  0  0  0  0  0
   11.6705   63.4307    4.1678 C   0  0  0  0  0  0
   12.9553   63.2584    3.6605 C   0  0  0  0  0  0
   13.9906   64.0570    4.1412 C   0  0  0  0  0  0
   21.0364   68.5625    5.2753 H   0  0  0  0  0  0
   17.3395   69.0925    3.0468 H   0  0  0  0  0  0
   18.6432   69.8339    1.1146 H   0  0  0  0  0  0
   16.3627   67.5273    4.2613 H   0  0  0  0  0  0
   18.9481   66.8777    9.2865 H   0  0  0  0  0  0
   20.8842   67.4278   10.7182 H   0  0  0  0  0  0
   22.4945   69.1834    9.9791 H   0  0  0  0  0  0
   15.6152   65.7003    4.8577 H   0  0  0  0  0  0
   22.7465   71.2604    8.4312 H   0  0  0  0  0  0
   23.1924   70.1070    7.1757 H   0  0  0  0  0  0
   21.8994   71.2596    6.8747 H   0  0  0  0  0  0
   23.8110   71.1405    0.6125 H   0  0  0  0  0  0
   24.3872   71.1532    2.2403 H   0  0  0  0  0  0
   24.5771   69.6857    1.3315 H   0  0  0  0  0  0
   12.2059   65.8854    6.4054 H   0  0  0  0  0  0
   10.4140   64.4927    5.5497 H   0  0  0  0  0  0
   10.8528   62.8570    3.7616 H   0  0  0  0  0  0
   13.1389   62.5408    2.8735 H   0  0  0  0  0  0
   14.9781   63.9333    3.7193 H   0  0  0  0  0  0
  1  2  2  0  0  0
  1  5  1  0  0  0
  1 32  1  0  0  0
  2 10  1  0  0  0
  2  3  1  0  0  0
  3  4  2  0  0  0
  3 33  1  0  0  0
  4  6  1  0  0  0
  4 34  1  0  0  0
  5  9  1  0  0  0
  5  6  1  0  0  0
  6  7  2  0  0  0
  7  8  1  0  0  0
  8  9  2  0  0  0
  8 25  1  0  0  0
 10 11  1  0  0  0
 10 14  2  0  0  0
 11 15  1  0  0  0
 11 12  2  0  0  0
 12 13  1  0  0  0
 13 21  1  0  0  0
 13 14  1  0  0  0
 14 35  1  0  0  0
 15 16  2  0  0  0
 15 20  1  0  0  0
 16 17  1  0  0  0
 16 36  1  0  0  0
 17 18  2  0  0  0
 17 37  1  0  0  0
 18 19  1  0  0  0
 18 38  1  0  0  0
 19 20  2  0  0  0
 19 24  1  0  0  0
 21 22  1  0  0  0
 21 23  2  0  0  0
 22 26  1  0  0  0
 22 39  1  0  0  0
 24 40  1  0  0  0
 24 41  1  0  0  0
 24 42  1  0  0  0
 25 43  1  0  0  0
 25 44  1  0  0  0
 25 45  1  0  0  0
 26 27  2  0  0  0
 26 31  1  0  0  0
 27 28  1  0  0  0
 27 46  1  0  0  0
 28 29  2  0  0  0
 28 47  1  0  0  0
 29 30  1  0  0  0
 29 48  1  0  0  0
 30 31  2  0  0  0
 30 49  1  0  0  0
 31 50  1  0  0  0
M  END
> <s_m_entry_id>
34675

> <s_m_entry_name>
dock_pv.418

> <s_m_Source_Path>
/home/csk/Desktop/cluster/DUD-E-result/tgfr1

> <s_m_Source_File>
dock_pv.maegz

> <i_m_Source_File_Index>
418

> <chembl_id>
CHEMBL1835711

> <chembl_pref_name>
None

> <i_lp_mmshare_version>
53161

> <r_lp_tautomer_probability>
1

> <s_lp_Force_Field>
OPLS_2005

> <r_lp_Energy>
30.747327

> <b_lp_Chiralities_Consistent>
1

> <s_lp_Variant>
CHEMBL4439_lig456-1

> <s_i_glide_gridfile>
glide-grid_3hmm

> <i_i_glide_lignum>
602

> <i_i_glide_rotatable_bonds>
5

> <r_i_docking_score>
-7.43770583061215

> <r_i_glide_ligand_efficiency>
-0.239925994535876

> <r_i_glide_ligand_efficiency_sa>
-0.753698876378032

> <r_i_glide_ligand_efficiency_ln>
-1.67743060311239

> <r_i_glide_gscore>
-7.43770583061215

> <r_i_glide_lipo>
-3.42563786418135

> <r_i_glide_hbond>
0

> <r_i_glide_metal>
0

> <r_i_glide_rewards>
-1.75311654798827

> <r_i_glide_evdw>
-54.7944488525391

> <r_i_glide_ecoul>
-0.447057992219925

> <r_i_glide_erotb>
0.54782972301741

> <r_i_glide_esite>
0

> <r_i_glide_emodel>
-69.3578055617889

> <r_i_glide_energy>
-55.241506844759

> <r_i_glide_einternal>
10.1462535858154

> <i_i_glide_confnum>
13

> <i_i_glide_posenum>
61

> <r_i_glide_eff_state_penalty>
0

> <s_user_duplicate_titles>
CHEMBL4439_lig456

> <i_f3d_flags>
0

> <s_m_subgroup_title>
dock_pv

> <s_m_subgroupid>
dock_pv

> <b_m_subgroup_collapsed>
1

$$$$
CHEMBL4439_lig505
                    3D
 Schrodinger Suite 2021-1.
 43 46  0  0  1  0            999 V2000
   16.3244   67.2163   10.7753 C   0  0  0  0  0  0
   16.2103   67.0876    9.2644 C   0  0  0  0  0  0
   15.2448   66.4573    8.6479 N   0  0  0  0  0  0
   15.4703   66.5827    7.3432 C   0  0  0  0  0  0
   16.6364   67.3381    7.1055 C   0  0  0  0  0  0
   17.0765   67.6427    8.3673 N   0  0  0  0  0  0
   17.3604   67.8196    5.8900 C   0  0  0  0  0  0
   16.6662   68.0566    4.6919 C   0  0  0  0  0  0
   19.4484   68.5481    4.8290 C   0  0  0  0  0  0
   18.7512   68.0654    5.9451 C   0  0  0  0  0  0
   18.7206   68.7733    3.6677 C   0  0  0  0  0  0
   17.3813   68.5292    3.5986 C   0  0  0  0  0  0
   16.9217   68.8533    2.3630 O   0  0  0  0  0  0
   18.0423   69.2569    1.6215 C   0  0  0  0  0  0
   19.1526   69.2623    2.4784 O   0  0  0  0  0  0
   14.5434   65.9461    6.3924 C   0  0  0  0  0  0
   13.2449   65.8938    6.5830 N   0  0  0  0  0  0
   12.6150   65.2155    5.6396 C   0  0  0  0  0  0
   13.4216   64.6963    4.6370 C   0  0  0  0  0  0
   15.0675   65.1174    4.9577 S   0  0  0  0  0  0
   11.1188   65.0971    5.7678 C   0  0  0  0  0  0
   17.5973   67.9405   11.2595 C   0  0  0  0  0  0
   17.5653   68.3400   12.7492 C   0  0  0  0  0  0
   17.8030   67.1770   13.7074 C   0  0  0  0  0  0
   16.6670   66.4777   13.9805 O   0  0  0  0  0  0
   18.8974   66.9528   14.2149 O   0  0  0  0  0  0
   16.2644   66.2320   11.2406 H   0  0  0  0  0  0
   15.4672   67.7716   11.1502 H   0  0  0  0  0  0
   17.8901   68.1964    8.5930 H   0  0  0  0  0  0
   15.5999   67.9079    4.6254 H   0  0  0  0  0  0
   20.5111   68.7365    4.8777 H   0  0  0  0  0  0
   19.3038   67.8803    6.8540 H   0  0  0  0  0  0
   17.8794   70.2632    1.2327 H   0  0  0  0  0  0
   18.2204   68.5334    0.8264 H   0  0  0  0  0  0
   13.1385   64.1331    3.7586 H   0  0  0  0  0  0
   10.6531   64.7631    4.8402 H   0  0  0  0  0  0
   10.8389   64.3803    6.5407 H   0  0  0  0  0  0
   10.6669   66.0537    6.0243 H   0  0  0  0  0  0
   17.7171   68.8566   10.6826 H   0  0  0  0  0  0
   18.4828   67.3388   11.0407 H   0  0  0  0  0  0
   16.6449   68.8566   13.0126 H   0  0  0  0  0  0
   18.3705   69.0561   12.9195 H   0  0  0  0  0  0
   15.8365   66.8489   13.6316 H   0  0  0  0  0  0
  1  2  1  0  0  0
  1 22  1  0  0  0
  1 27  1  0  0  0
  1 28  1  0  0  0
  2  3  2  0  0  0
  2  6  1  0  0  0
  3  4  1  0  0  0
  4  5  2  0  0  0
  4 16  1  0  0  0
  5  7  1  0  0  0
  5  6  1  0  0  0
  6 29  1  0  0  0
  7  8  2  0  0  0
  7 10  1  0  0  0
  8 12  1  0  0  0
  8 30  1  0  0  0
  9 11  1  0  0  0
  9 10  2  0  0  0
  9 31  1  0  0  0
 10 32  1  0  0  0
 11 15  1  0  0  0
 11 12  2  0  0  0
 12 13  1  0  0  0
 13 14  1  0  0  0
 14 15  1  0  0  0
 14 33  1  0  0  0
 14 34  1  0  0  0
 16 17  2  0  0  0
 16 20  1  0  0  0
 17 18  1  0  0  0
 18 19  2  0  0  0
 18 21  1  0  0  0
 19 20  1  0  0  0
 19 35  1  0  0  0
 21 36  1  0  0  0
 21 37  1  0  0  0
 21 38  1  0  0  0
 22 23  1  0  0  0
 22 39  1  0  0  0
 22 40  1  0  0  0
 23 24  1  0  0  0
 23 41  1  0  0  0
 23 42  1  0  0  0
 24 25  1  0  0  0
 24 26  2  0  0  0
 25 43  1  0  0  0
M  END
> <s_m_entry_id>
34677

> <s_m_entry_name>
dock_pv.420

> <s_m_Source_Path>
/home/csk/Desktop/cluster/DUD-E-result/tgfr1

> <s_m_Source_File>
dock_pv.maegz

> <i_m_Source_File_Index>
420

> <chembl_id>
CHEMBL1957661

> <chembl_pref_name>
None

> <i_lp_mmshare_version>
53161

> <r_lp_tautomer_probability>
0.499999999999999

> <s_lp_Force_Field>
OPLS_2005

> <r_lp_Energy>
22.773409

> <b_lp_Chiralities_Consistent>
1

> <s_lp_Variant>
CHEMBL4439_lig505-1

> <s_i_glide_gridfile>
glide-grid_3hmm

> <i_i_glide_lignum>
664

> <i_i_glide_rotatable_bonds>
7

> <r_i_docking_score>
-7.43544259543725

> <r_i_glide_ligand_efficiency>
-0.285978561362971

> <r_i_glide_ligand_efficiency_sa>
-0.847210362766501

> <r_i_glide_ligand_efficiency_ln>
-1.74618929586132

> <r_i_glide_gscore>
-7.43544259543725

> <r_i_glide_lipo>
-3.18879923123927

> <r_i_glide_hbond>
-0.102601808782383

> <r_i_glide_metal>
0

> <r_i_glide_rewards>
-1.79146939998358

> <r_i_glide_evdw>
-47.5611991882324

> <r_i_glide_ecoul>
-5.4272837638855

> <r_i_glide_erotb>
0.839580368562431

> <r_i_glide_esite>
0

> <r_i_glide_emodel>
-75.2847140823959

> <r_i_glide_energy>
-52.9884829521179

> <r_i_glide_einternal>
6.90931081771851

> <i_i_glide_confnum>
41

> <i_i_glide_posenum>
160

> <r_i_glide_eff_state_penalty>
0

> <s_user_duplicate_titles>
CHEMBL4439_lig505,CHEMBL4439_lig505

> <i_f3d_flags>
0

> <s_m_subgroup_title>
dock_pv

> <s_m_subgroupid>
dock_pv

> <b_m_subgroup_collapsed>
1

$$$$
CHEMBL4439_lig842
                    3D
 Schrodinger Suite 2021-1.
 44 47  0  0  1  0            999 V2000
   12.7463   63.9074    4.0321 C   0  0  0  0  0  0
   11.6849   63.6504    4.8953 C   0  0  0  0  0  0
   11.5806   64.3499    6.0920 C   0  0  0  0  0  0
   12.4962   65.2579    6.5235 N   0  0  0  0  0  0
   13.6297   64.9149    4.4324 C   0  0  0  0  0  0
   13.5112   65.5365    5.6981 C   0  0  0  0  0  0
   14.6529   66.3909    5.8615 C   0  0  0  0  0  0
   15.2262   66.5304    4.5967 C   0  0  0  0  0  0
   14.6660   65.5576    3.7975 N   0  0  0  0  0  0
   15.1008   67.0227    7.1167 C   0  0  0  0  0  0
   15.3937   66.1368    8.1005 N   0  0  0  0  0  0
   15.9812   66.6056    9.2261 C   0  0  0  0  0  0
   16.2938   67.9594    9.4119 C   0  0  0  0  0  0
   15.9402   68.8550    8.3992 C   0  0  0  0  0  0
   15.3321   68.3902    7.2383 C   0  0  0  0  0  0
   16.2947   67.4551    4.0945 C   0  0  0  0  0  0
   16.1918   68.0569    2.8326 C   0  0  0  0  0  0
   17.2069   68.9139    2.4068 C   0  0  0  0  0  0
   18.2842   69.2183    3.1718 N   0  0  0  0  0  0
   18.3769   68.6534    4.4094 C   0  0  0  0  0  0
   17.3987   67.7785    4.8921 C   0  0  0  0  0  0
   19.4268   68.9679    5.2889 N   0  0  0  0  0  0
   20.6523   69.4454    4.9842 C   0  0  0  0  0  0
   21.5630   69.7345    6.1729 C   0  0  0  0  0  0
   21.0669   69.6554    3.8433 O   0  0  0  0  0  0
   16.9429   68.4692   10.5114 O   0  0  0  0  0  0
   17.5823   67.6013   11.4314 C   0  0  0  0  0  0
   16.7032   66.8568   12.1036 F   0  0  0  0  0  0
   18.5132   66.8573   10.8338 F   0  0  0  0  0  0
   12.8261   63.4202    3.0708 H   0  0  0  0  0  0
   10.9374   62.9193    4.6279 H   0  0  0  0  0  0
   10.7628   64.1475    6.7683 H   0  0  0  0  0  0
   14.9637   65.4099    2.8442 H   0  0  0  0  0  0
   16.2273   65.8592    9.9644 H   0  0  0  0  0  0
   16.1741   69.9042    8.4811 H   0  0  0  0  0  0
   15.0919   69.0652    6.4321 H   0  0  0  0  0  0
   15.3410   67.8695    2.1919 H   0  0  0  0  0  0
   17.1566   69.3896    1.4398 H   0  0  0  0  0  0
   17.5043   67.3380    5.8735 H   0  0  0  0  0  0
   19.2715   68.7094    6.2513 H   0  0  0  0  0  0
   22.1710   68.8580    6.3992 H   0  0  0  0  0  0
   20.9929   69.9955    7.0655 H   0  0  0  0  0  0
   22.2351   70.5642    5.9449 H   0  0  0  0  0  0
   18.1029   68.2080   12.1726 H   0  0  0  0  0  0
  1  5  1  0  0  0
  1  2  2  0  0  0
  1 30  1  0  0  0
  2  3  1  0  0  0
  2 31  1  0  0  0
  3  4  2  0  0  0
  3 32  1  0  0  0
  4  6  1  0  0  0
  5  6  2  0  0  0
  5  9  1  0  0  0
  6  7  1  0  0  0
  7  8  2  0  0  0
  7 10  1  0  0  0
  8  9  1  0  0  0
  8 16  1  0  0  0
  9 33  1  0  0  0
 10 11  2  0  0  0
 10 15  1  0  0  0
 11 12  1  0  0  0
 12 13  2  0  0  0
 12 34  1  0  0  0
 13 14  1  0  0  0
 13 26  1  0  0  0
 14 15  2  0  0  0
 14 35  1  0  0  0
 15 36  1  0  0  0
 16 17  2  0  0  0
 16 21  1  0  0  0
 17 18  1  0  0  0
 17 37  1  0  0  0
 18 19  2  0  0  0
 18 38  1  0  0  0
 19 20  1  0  0  0
 20 21  2  0  0  0
 20 22  1  0  0  0
 21 39  1  0  0  0
 22 23  1  0  0  0
 22 40  1  0  0  0
 23 24  1  0  0  0
 23 25  2  0  0  0
 24 41  1  0  0  0
 24 42  1  0  0  0
 24 43  1  0  0  0
 26 27  1  0  0  0
 27 28  1  0  0  0
 27 29  1  0  0  0
 27 44  1  0  0  0
M  END
> <s_m_entry_id>
34679

> <s_m_entry_name>
dock_pv.422

> <s_m_Source_Path>
/home/csk/Desktop/cluster/DUD-E-result/tgfr1

> <s_m_Source_File>
dock_pv.maegz

> <i_m_Source_File_Index>
422

> <chembl_id>
CHEMBL4277338

> <chembl_pref_name>
None

> <i_lp_mmshare_version>
53161

> <r_lp_tautomer_probability>
0.999991217065141

> <s_lp_Force_Field>
OPLS_2005

> <r_lp_Energy>
12.35751

> <b_lp_Chiralities_Consistent>
1

> <s_lp_Variant>
CHEMBL4439_lig842-1

> <s_i_glide_gridfile>
glide-grid_3hmm

> <i_i_glide_lignum>
1160

> <i_i_glide_rotatable_bonds>
6

> <r_i_docking_score>
-7.43094077116276

> <r_i_glide_ligand_efficiency>
-0.256239336936647

> <r_i_glide_ligand_efficiency_sa>
-0.787248425389412

> <r_i_glide_ligand_efficiency_ln>
-1.70149700419671

> <r_i_glide_gscore>
-7.43094077116276

> <r_i_glide_lipo>
-3.9857890685178

> <r_i_glide_hbond>
-0.0861828053804276

> <r_i_glide_metal>
0

> <r_i_glide_rewards>
-1.29332851850927

> <r_i_glide_evdw>
-48.7604637145996

> <r_i_glide_ecoul>
-0.688606441020966

> <r_i_glide_erotb>
0.500389347505254

> <r_i_glide_esite>
-0.0247155743773885

> <r_i_glide_emodel>
-66.6772386313612

> <r_i_glide_energy>
-49.4490701556206

> <r_i_glide_einternal>
4.45371007919312

> <i_i_glide_confnum>
42

> <i_i_glide_posenum>
29

> <r_i_glide_eff_state_penalty>
0

> <s_user_duplicate_titles>
CHEMBL4439_lig842

> <i_f3d_flags>
0

> <s_m_subgroup_title>
dock_pv

> <s_m_subgroupid>
dock_pv

> <b_m_subgroup_collapsed>
1

$$$$
CHEMBL4439_lig839
                    3D
 Schrodinger Suite 2021-1.
 43 46  0  0  1  0            999 V2000
   11.9451   64.7543    6.0503 C   0  0  0  0  0  0
   11.9640   63.9689    4.8976 C   0  0  0  0  0  0
   13.0546   64.0324    4.0320 C   0  0  0  0  0  0
   14.1088   64.8747    4.1932 N   0  0  0  0  0  0
   13.0857   65.5385    6.2702 C   0  0  0  0  0  0
   14.1273   65.6226    5.3026 C   0  0  0  0  0  0
   15.0712   66.6184    5.7479 C   0  0  0  0  0  0
   14.7564   66.8174    7.0990 C   0  0  0  0  0  0
   13.5014   66.3026    7.3337 N   0  0  0  0  0  0
   16.1461   67.2650    4.9131 C   0  0  0  0  0  0
   17.2980   67.6571    5.5234 N   0  0  0  0  0  0
   18.2367   68.3346    4.8032 C   0  0  0  0  0  0
   18.0569   68.6339    3.4481 C   0  0  0  0  0  0
   16.8760   68.2291    2.8281 C   0  0  0  0  0  0
   15.9103   67.5402    3.5635 C   0  0  0  0  0  0
   15.5227   67.4922    8.1771 C   0  0  0  0  0  0
   16.0779   68.7423    7.9276 C   0  0  0  0  0  0
   16.9884   69.2570    8.8360 C   0  0  0  0  0  0
   17.2409   68.6727   10.0294 N   0  0  0  0  0  0
   16.5973   67.5213   10.3427 C   0  0  0  0  0  0
   15.7796   66.8718    9.4103 C   0  0  0  0  0  0
   16.6670   66.9781   11.6360 N   0  0  0  0  0  0
   17.3036   67.4550   12.7305 C   0  0  0  0  0  0
   17.0680   66.6753   14.0194 C   0  0  0  0  0  0
   18.0167   68.4562   12.7751 O   0  0  0  0  0  0
   19.5007   68.7409    5.5629 C   0  0  0  0  0  0
   20.0460   67.6800    6.1598 F   0  0  0  0  0  0
   20.4149   69.2770    4.7524 F   0  0  0  0  0  0
   19.1944   69.6453    6.4928 F   0  0  0  0  0  0
   11.1315   64.6990    6.7611 H   0  0  0  0  0  0
   11.1391   63.3067    4.6774 H   0  0  0  0  0  0
   13.0678   63.4353    3.1306 H   0  0  0  0  0  0
   13.0137   66.4557    8.2041 H   0  0  0  0  0  0
   18.8066   69.1713    2.8850 H   0  0  0  0  0  0
   16.7029   68.4571    1.7866 H   0  0  0  0  0  0
   14.9822   67.2529    3.0913 H   0  0  0  0  0  0
   15.8665   69.2563    7.0043 H   0  0  0  0  0  0
   17.4995   70.1884    8.6434 H   0  0  0  0  0  0
   15.3345   65.9220    9.6520 H   0  0  0  0  0  0
   16.0673   66.1844   11.7911 H   0  0  0  0  0  0
   16.2680   65.9444   13.8973 H   0  0  0  0  0  0
   16.7654   67.3492   14.8188 H   0  0  0  0  0  0
   17.9772   66.1539   14.3199 H   0  0  0  0  0  0
  1  5  1  0  0  0
  1  2  2  0  0  0
  1 30  1  0  0  0
  2  3  1  0  0  0
  2 31  1  0  0  0
  3  4  2  0  0  0
  3 32  1  0  0  0
  4  6  1  0  0  0
  5  6  2  0  0  0
  5  9  1  0  0  0
  6  7  1  0  0  0
  7  8  2  0  0  0
  7 10  1  0  0  0
  8  9  1  0  0  0
  8 16  1  0  0  0
  9 33  1  0  0  0
 10 11  2  0  0  0
 10 15  1  0  0  0
 11 12  1  0  0  0
 12 13  2  0  0  0
 12 26  1  0  0  0
 13 14  1  0  0  0
 13 34  1  0  0  0
 14 15  2  0  0  0
 14 35  1  0  0  0
 15 36  1  0  0  0
 16 17  2  0  0  0
 16 21  1  0  0  0
 17 18  1  0  0  0
 17 37  1  0  0  0
 18 19  2  0  0  0
 18 38  1  0  0  0
 19 20  1  0  0  0
 20 21  2  0  0  0
 20 22  1  0  0  0
 21 39  1  0  0  0
 22 23  1  0  0  0
 22 40  1  0  0  0
 23 24  1  0  0  0
 23 25  2  0  0  0
 24 41  1  0  0  0
 24 42  1  0  0  0
 24 43  1  0  0  0
 26 27  1  0  0  0
 26 28  1  0  0  0
 26 29  1  0  0  0
M  END
> <s_m_entry_id>
34680

> <s_m_entry_name>
dock_pv.423

> <s_m_Source_Path>
/home/csk/Desktop/cluster/DUD-E-result/tgfr1

> <s_m_Source_File>
dock_pv.maegz

> <i_m_Source_File_Index>
423

> <chembl_id>
CHEMBL4276907

> <chembl_pref_name>
None

> <i_lp_mmshare_version>
53161

> <r_lp_tautomer_probability>
0.999991217065141

> <s_lp_Force_Field>
OPLS_2005

> <r_lp_Energy>
14.792638

> <b_lp_Chiralities_Consistent>
1

> <s_lp_Variant>
CHEMBL4439_lig839-1

> <s_i_glide_gridfile>
glide-grid_3hmm

> <i_i_glide_lignum>
1157

> <i_i_glide_rotatable_bonds>
5

> <r_i_docking_score>
-7.43042801157347

> <r_i_glide_ligand_efficiency>
-0.256221655571499

> <r_i_glide_ligand_efficiency_sa>
-0.787194102633828

> <r_i_glide_ligand_efficiency_ln>
-1.70137959525322

> <r_i_glide_gscore>
-7.43042801157347

> <r_i_glide_lipo>
-4.04063413804784

> <r_i_glide_hbond>
0

> <r_i_glide_metal>
0

> <r_i_glide_rewards>
-1.71325705308114

> <r_i_glide_evdw>
-47.8780136108398

> <r_i_glide_ecoul>
2.46209263801575

> <r_i_glide_erotb>
0.371916607744916

> <r_i_glide_esite>
-0.0238666433497731

> <r_i_glide_emodel>
-66.0842380388265

> <r_i_glide_energy>
-45.4159209728241

> <r_i_glide_einternal>
0.672144293785095

> <i_i_glide_confnum>
11

> <i_i_glide_posenum>
86

> <r_i_glide_eff_state_penalty>
0

> <s_user_duplicate_titles>
CHEMBL4439_lig839

> <i_f3d_flags>
0

> <s_m_subgroup_title>
dock_pv

> <s_m_subgroupid>
dock_pv

> <b_m_subgroup_collapsed>
1

$$$$
CHEMBL4439_lig713
                    3D
 Schrodinger Suite 2021-1.
 54 58  0  0  1  0            999 V2000
   19.3258   67.6848   10.5312 C   0  0  0  0  0  0
   18.0378   67.6971    9.9891 C   0  0  0  0  0  0
   16.9420   67.6590   10.8640 C   0  0  0  0  0  0
   17.1108   67.6299   12.2539 C   0  0  0  0  0  0
   19.4768   67.7243   11.8855 N   0  0  0  0  0  0
   18.4103   67.6687   12.7739 C   0  0  0  0  0  0
   18.9036   67.6577   14.0326 N   0  0  0  0  0  0
   20.2053   67.7305   13.8220 C   0  0  0  0  0  0
   20.6324   67.8090   12.5795 N   0  0  0  0  0  0
   17.8389   67.7492    8.5042 C   0  0  0  0  0  0
   18.6442   68.3475    7.5085 C   0  0  0  0  0  0
   17.9930   68.0347    6.3463 N   0  0  0  0  0  0
   16.9133   67.2646    6.6673 C   0  0  0  0  0  0
   16.7965   67.1290    7.9654 N   0  0  0  0  0  0
   19.9351   69.1001    7.5072 C   0  0  0  0  0  0
   20.7949   69.0962    6.4002 C   0  0  0  0  0  0
   22.0375   69.7202    6.5112 C   0  0  0  0  0  0
   22.3999   70.3215    7.7173 C   0  0  0  0  0  0
   21.4902   70.2973    8.7735 C   0  0  0  0  0  0
   20.2688   69.7204    8.6667 N   0  0  0  0  0  0
   21.8176   70.9176   10.1170 C   0  0  0  0  0  0
   16.0994   66.5469    5.6128 C   0  0  0  0  0  0
   14.7784   66.1296    6.0684 N   0  0  0  0  0  0
   13.9876   65.2015    5.3595 C   0  0  0  0  0  0
   12.6433   65.0068    5.7409 C   0  0  0  0  0  0
   11.8401   64.0857    5.0348 C   0  0  0  0  0  0
   12.3994   63.3280    4.0053 C   0  0  0  0  0  0
   13.7245   63.5182    3.6316 C   0  0  0  0  0  0
   14.5089   64.4574    4.2900 C   0  0  0  0  0  0
   12.0787   65.7992    6.9204 C   0  0  0  0  0  0
   10.3572   63.9179    5.3226 C   0  0  0  0  0  0
   20.2351   67.6534    9.9525 H   0  0  0  0  0  0
   15.9368   67.6602   10.4683 H   0  0  0  0  0  0
   16.2670   67.5965   12.9233 H   0  0  0  0  0  0
   20.9058   67.7290   14.6450 H   0  0  0  0  0  0
   18.3015   68.2675    5.4145 H   0  0  0  0  0  0
   20.5388   68.5845    5.4852 H   0  0  0  0  0  0
   22.7318   69.7158    5.6836 H   0  0  0  0  0  0
   23.3645   70.7968    7.8266 H   0  0  0  0  0  0
   22.7868   71.4200   10.1013 H   0  0  0  0  0  0
   21.0672   71.6560   10.3907 H   0  0  0  0  0  0
   21.8388   70.1499   10.8902 H   0  0  0  0  0  0
   16.6663   65.6597    5.3377 H   0  0  0  0  0  0
   15.9777   67.1588    4.7148 H   0  0  0  0  0  0
   14.2990   66.7599    6.6929 H   0  0  0  0  0  0
   11.7976   62.6155    3.4590 H   0  0  0  0  0  0
   14.1366   62.9447    2.8142 H   0  0  0  0  0  0
   15.5264   64.5780    3.9538 H   0  0  0  0  0  0
   12.0901   66.8575    6.6974 H   0  0  0  0  0  0
   12.6961   65.6585    7.8048 H   0  0  0  0  0  0
   11.0672   65.5322    7.2064 H   0  0  0  0  0  0
    9.8668   63.2544    4.6128 H   0  0  0  0  0  0
   10.1974   63.5396    6.3320 H   0  0  0  0  0  0
    9.8675   64.8877    5.2314 H   0  0  0  0  0  0
  1  5  1  0  0  0
  1  2  2  0  0  0
  1 32  1  0  0  0
  2  3  1  0  0  0
  2 10  1  0  0  0
  3  4  2  0  0  0
  3 33  1  0  0  0
  4  6  1  0  0  0
  4 34  1  0  0  0
  5  6  1  0  0  0
  5  9  1  0  0  0
  6  7  2  0  0  0
  7  8  1  0  0  0
  8  9  2  0  0  0
  8 35  1  0  0  0
 10 11  2  0  0  0
 10 14  1  0  0  0
 11 12  1  0  0  0
 11 15  1  0  0  0
 12 13  1  0  0  0
 12 36  1  0  0  0
 13 14  2  0  0  0
 13 22  1  0  0  0
 15 16  2  0  0  0
 15 20  1  0  0  0
 16 17  1  0  0  0
 16 37  1  0  0  0
 17 18  2  0  0  0
 17 38  1  0  0  0
 18 19  1  0  0  0
 18 39  1  0  0  0
 19 20  2  0  0  0
 19 21  1  0  0  0
 21 40  1  0  0  0
 21 41  1  0  0  0
 21 42  1  0  0  0
 22 23  1  0  0  0
 22 43  1  0  0  0
 22 44  1  0  0  0
 23 24  1  0  0  0
 23 45  1  0  0  0
 24 25  2  0  0  0
 24 29  1  0  0  0
 25 26  1  0  0  0
 25 30  1  0  0  0
 26 27  2  0  0  0
 26 31  1  0  0  0
 27 28  1  0  0  0
 27 46  1  0  0  0
 28 29  2  0  0  0
 28 47  1  0  0  0
 29 48  1  0  0  0
 30 49  1  0  0  0
 30 50  1  0  0  0
 30 51  1  0  0  0
 31 52  1  0  0  0
 31 53  1  0  0  0
 31 54  1  0  0  0
M  END
> <s_m_entry_id>
34681

> <s_m_entry_name>
dock_pv.424

> <s_m_Source_Path>
/home/csk/Desktop/cluster/DUD-E-result/tgfr1

> <s_m_Source_File>
dock_pv.maegz

> <i_m_Source_File_Index>
424

> <chembl_id>
CHEMBL3260616

> <chembl_pref_name>
None

> <i_lp_mmshare_version>
53161

> <r_lp_tautomer_probability>
0.499999999999999

> <s_lp_Force_Field>
OPLS_2005

> <r_lp_Energy>
19.188844

> <b_lp_Chiralities_Consistent>
1

> <s_lp_Variant>
CHEMBL4439_lig713-1

> <s_i_glide_gridfile>
glide-grid_3hmm

> <i_i_glide_lignum>
1014

> <i_i_glide_rotatable_bonds>
5

> <r_i_docking_score>
-7.41941966177288

> <r_i_glide_ligand_efficiency>
-0.239336118121706

> <r_i_glide_ligand_efficiency_sa>
-0.751845850025378

> <r_i_glide_ligand_efficiency_ln>
-1.67330651163536

> <r_i_glide_gscore>
-7.41941966177288

> <r_i_glide_lipo>
-3.51335690658752

> <r_i_glide_hbond>
-0.0684686944530469

> <r_i_glide_metal>
0

> <r_i_glide_rewards>
-1.30261153130832

> <r_i_glide_evdw>
-52.6045455932617

> <r_i_glide_ecoul>
-2.8095178604126

> <r_i_glide_erotb>
0.5871704129456

> <r_i_glide_esite>
-0.0704979836446158

> <r_i_glide_emodel>
-81.24464996175

> <r_i_glide_energy>
-55.4140634536743

> <r_i_glide_einternal>
2.74323415756226

> <i_i_glide_confnum>
58

> <i_i_glide_posenum>
327

> <r_i_glide_eff_state_penalty>
0

> <s_user_duplicate_titles>
CHEMBL4439_lig713

> <i_f3d_flags>
0

> <s_m_subgroup_title>
dock_pv

> <s_m_subgroupid>
dock_pv

> <b_m_subgroup_collapsed>
1

$$$$
CHEMBL4439_lig598
                    3D
 Schrodinger Suite 2021-1.
 39 42  0  0  1  0            999 V2000
   16.0716   67.5913    4.0343 S   0  0  0  0  0  0
   17.1007   67.7848    5.4231 C   0  0  0  0  0  0
   18.2597   68.3338    5.1387 N   0  0  0  0  0  0
   18.4213   68.5833    3.8547 C   0  0  0  0  0  0
   17.3324   68.2688    3.0502 C   0  0  0  0  0  0
   19.7581   69.1617    3.4544 C   0  0  0  0  0  0
   16.7397   67.3948    6.7992 C   0  0  0  0  0  0
   15.6829   66.7100    7.4271 C   0  0  0  0  0  0
   15.8565   66.6489    8.7460 N   0  0  0  0  0  0
   16.9872   67.2637    8.9985 C   0  0  0  0  0  0
   17.5605   67.7199    7.8480 N   0  0  0  0  0  0
   14.4611   66.0954    6.8298 C   0  0  0  0  0  0
   13.2118   66.4571    7.3427 C   0  0  0  0  0  0
   12.0274   65.9316    6.8320 C   0  0  0  0  0  0
   14.5603   65.1630    5.7909 C   0  0  0  0  0  0
   13.3739   64.6169    5.2778 C   0  0  0  0  0  0
   12.1066   65.0043    5.7879 C   0  0  0  0  0  0
   11.0344   64.4143    5.2001 N   0  0  0  0  0  0
   11.4161   63.5940    4.2672 C   0  0  0  0  0  0
   13.1310   63.4110    4.0259 S   0  0  0  0  0  0
   17.6454   67.4460   10.3543 C   0  0  0  0  0  0
   16.6833   67.3232   11.5523 C   0  0  0  0  0  0
   17.3768   67.5750   12.8978 C   0  0  0  0  0  0
   17.2203   68.3850    1.9824 H   0  0  0  0  0  0
   19.7919   69.4272    2.3949 H   0  0  0  0  0  0
   19.9961   70.0571    4.0268 H   0  0  0  0  0  0
   20.5750   68.4565    3.6320 H   0  0  0  0  0  0
   18.4339   68.2217    7.7816 H   0  0  0  0  0  0
   13.1605   67.1789    8.1477 H   0  0  0  0  0  0
   11.0670   66.2185    7.2324 H   0  0  0  0  0  0
   15.5244   64.8681    5.4030 H   0  0  0  0  0  0
   10.7183   63.0362    3.6579 H   0  0  0  0  0  0
   18.4591   66.7257   10.4690 H   0  0  0  0  0  0
   18.1192   68.4296   10.3995 H   0  0  0  0  0  0
   15.8668   68.0359   11.4377 H   0  0  0  0  0  0
   16.2283   66.3333   11.5675 H   0  0  0  0  0  0
   16.6681   67.4790   13.7215 H   0  0  0  0  0  0
   18.1825   66.8599   13.0669 H   0  0  0  0  0  0
   17.8021   68.5801   12.9403 H   0  0  0  0  0  0
  1  2  1  0  0  0
  1  5  1  0  0  0
  2  3  2  0  0  0
  2  7  1  0  0  0
  3  4  1  0  0  0
  4  5  2  0  0  0
  4  6  1  0  0  0
  5 24  1  0  0  0
  6 25  1  0  0  0
  6 26  1  0  0  0
  6 27  1  0  0  0
  7  8  2  0  0  0
  7 11  1  0  0  0
  8 12  1  0  0  0
  8  9  1  0  0  0
  9 10  2  0  0  0
 10 11  1  0  0  0
 10 21  1  0  0  0
 11 28  1  0  0  0
 12 13  2  0  0  0
 12 15  1  0  0  0
 13 14  1  0  0  0
 13 29  1  0  0  0
 14 17  2  0  0  0
 14 30  1  0  0  0
 15 16  2  0  0  0
 15 31  1  0  0  0
 16 17  1  0  0  0
 16 20  1  0  0  0
 17 18  1  0  0  0
 18 19  2  0  0  0
 19 20  1  0  0  0
 19 32  1  0  0  0
 21 22  1  0  0  0
 21 33  1  0  0  0
 21 34  1  0  0  0
 22 23  1  0  0  0
 22 35  1  0  0  0
 22 36  1  0  0  0
 23 37  1  0  0  0
 23 38  1  0  0  0
 23 39  1  0  0  0
M  END
> <s_m_entry_id>
34683

> <s_m_entry_name>
dock_pv.426

> <s_m_Source_Path>
/home/csk/Desktop/cluster/DUD-E-result/tgfr1

> <s_m_Source_File>
dock_pv.maegz

> <i_m_Source_File_Index>
426

> <chembl_id>
CHEMBL2207991

> <chembl_pref_name>
None

> <i_lp_mmshare_version>
53161

> <r_lp_tautomer_probability>
0.499999999999999

> <s_lp_Force_Field>
OPLS_2005

> <r_lp_Energy>
8.684932

> <b_lp_Chiralities_Consistent>
1

> <s_lp_Variant>
CHEMBL4439_lig598-2

> <s_i_glide_gridfile>
glide-grid_3hmm

> <i_i_glide_lignum>
810

> <i_i_glide_rotatable_bonds>
4

> <r_i_docking_score>
-7.41109185412976

> <r_i_glide_ligand_efficiency>
-0.322221384962163

> <r_i_glide_ligand_efficiency_sa>
-0.916354755938195

> <r_i_glide_ligand_efficiency_ln>
-1.79206921039416

> <r_i_glide_gscore>
-7.41109185412976

> <r_i_glide_lipo>
-3.65381249714091

> <r_i_glide_hbond>
0

> <r_i_glide_metal>
0

> <r_i_glide_rewards>
-1.77995865391314

> <r_i_glide_evdw>
-47.9624252319336

> <r_i_glide_ecoul>
-0.462090790271759

> <r_i_glide_erotb>
0.490114177061724

> <r_i_glide_esite>
0

> <r_i_glide_emodel>
-68.3872045022308

> <r_i_glide_energy>
-48.4245160222054

> <r_i_glide_einternal>
2.26255178451538

> <i_i_glide_confnum>
3

> <i_i_glide_posenum>
28

> <r_i_glide_eff_state_penalty>
0

> <s_user_duplicate_titles>
CHEMBL4439_lig598

> <i_f3d_flags>
0

> <s_m_subgroup_title>
dock_pv

> <s_m_subgroupid>
dock_pv

> <b_m_subgroup_collapsed>
1

$$$$
CHEMBL4439_lig55
                    3D
 Schrodinger Suite 2021-1.
 31 34  0  0  1  0            999 V2000
   15.8677   67.6250    6.0990 C   0  0  0  0  0  0
   14.8966   66.6079    6.3463 C   0  0  0  0  0  0
   14.4333   66.6700    7.5814 N   0  0  0  0  0  0
   16.6477   67.9839    4.8616 C   0  0  0  0  0  0
   17.9132   68.8661    2.4767 N   0  0  0  0  0  0
   16.6252   68.4570    2.4905 C   0  0  0  0  0  0
   15.9720   68.0143    3.6352 C   0  0  0  0  0  0
   15.9269   68.3159    7.3041 C   0  0  0  0  0  0
   15.0632   67.6941    8.1507 N   0  0  0  0  0  0
   14.3859   65.5669    5.4354 C   0  0  0  0  0  0
   15.0336   64.9799    4.3513 C   0  0  0  0  0  0
   14.2744   64.0026    3.6955 C   0  0  0  0  0  0
   13.0399   63.7989    4.2877 C   0  0  0  0  0  0
   12.7929   64.8584    5.6316 S   0  0  0  0  0  0
   18.6122   68.8316    3.6445 C   0  0  0  0  0  0
   18.0280   68.3881    4.8756 C   0  0  0  0  0  0
   18.8549   68.3662    6.0349 C   0  0  0  0  0  0
   20.1838   68.7798    5.9747 C   0  0  0  0  0  0
   20.7297   69.2281    4.7788 C   0  0  0  0  0  0
   19.9618   69.2570    3.6196 C   0  0  0  0  0  0
   16.0965   68.5048    1.5499 H   0  0  0  0  0  0
   14.9290   67.7388    3.5782 H   0  0  0  0  0  0
   16.4909   69.1785    7.6281 H   0  0  0  0  0  0
   14.8851   67.9744    9.1048 H   0  0  0  0  0  0
   16.0270   65.2575    4.0360 H   0  0  0  0  0  0
   14.6186   63.4542    2.8311 H   0  0  0  0  0  0
   12.2679   63.1064    3.9842 H   0  0  0  0  0  0
   18.4712   68.0033    6.9741 H   0  0  0  0  0  0
   20.8000   68.7454    6.8616 H   0  0  0  0  0  0
   21.7646   69.5412    4.7514 H   0  0  0  0  0  0
   20.3974   69.5959    2.6893 H   0  0  0  0  0  0
  1  2  1  0  0  0
  1  4  1  0  0  0
  1  8  2  0  0  0
  2  3  2  0  0  0
  2 10  1  0  0  0
  3  9  1  0  0  0
  4 16  2  0  0  0
  4  7  1  0  0  0
  5 15  2  0  0  0
  5  6  1  0  0  0
  6  7  2  0  0  0
  6 21  1  0  0  0
  7 22  1  0  0  0
  8  9  1  0  0  0
  8 23  1  0  0  0
  9 24  1  0  0  0
 10 11  2  0  0  0
 10 14  1  0  0  0
 11 12  1  0  0  0
 11 25  1  0  0  0
 12 13  2  0  0  0
 12 26  1  0  0  0
 13 14  1  0  0  0
 13 27  1  0  0  0
 15 16  1  0  0  0
 15 20  1  0  0  0
 16 17  1  0  0  0
 17 18  2  0  0  0
 17 28  1  0  0  0
 18 19  1  0  0  0
 18 29  1  0  0  0
 19 20  2  0  0  0
 19 30  1  0  0  0
 20 31  1  0  0  0
M  END
> <s_m_entry_id>
34684

> <s_m_entry_name>
dock_pv.427

> <s_m_Source_Path>
/home/csk/Desktop/cluster/DUD-E-result/tgfr1

> <s_m_Source_File>
dock_pv.maegz

> <i_m_Source_File_Index>
427

> <chembl_id>
CHEMBL130025

> <chembl_pref_name>
None

> <i_lp_mmshare_version>
53161

> <r_lp_tautomer_probability>
0.5

> <s_lp_Force_Field>
OPLS_2005

> <r_lp_Energy>
14.78836

> <b_lp_Chiralities_Consistent>
1

> <s_lp_Variant>
CHEMBL4439_lig55-1

> <s_i_glide_gridfile>
glide-grid_3hmm

> <i_i_glide_lignum>
81

> <i_i_glide_rotatable_bonds>
2

> <r_i_docking_score>
-7.39497007387408

> <r_i_glide_ligand_efficiency>
-0.369748503693704

> <r_i_glide_ligand_efficiency_sa>
-1.00365185113357

> <r_i_glide_ligand_efficiency_ln>
-1.85071710705398

> <r_i_glide_gscore>
-7.39497007387408

> <r_i_glide_lipo>
-3.95002150948595

> <r_i_glide_hbond>
0

> <r_i_glide_metal>
0

> <r_i_glide_rewards>
-1.80977139393939

> <r_i_glide_evdw>
-39.7738723754883

> <r_i_glide_ecoul>
-0.764605224132538

> <r_i_glide_erotb>
0.468207231945561

> <r_i_glide_esite>
0

> <r_i_glide_emodel>
-58.4942838776406

> <r_i_glide_energy>
-40.5384775996208

> <r_i_glide_einternal>
0.616768300533295

> <i_i_glide_confnum>
5

> <i_i_glide_posenum>
161

> <r_i_glide_eff_state_penalty>
0

> <s_user_duplicate_titles>
CHEMBL4439_lig55,CHEMBL4439_lig55,211925

> <i_f3d_flags>
0

> <s_m_subgroup_title>
dock_pv

> <s_m_subgroupid>
dock_pv

> <b_m_subgroup_collapsed>
1

$$$$
CHEMBL4439_lig573
                    3D
 Schrodinger Suite 2021-1.
 42 46  0  0  1  0            999 V2000
   15.2692   67.6570    3.5624 S   0  0  0  0  0  0
   16.6728   67.7874    4.5741 C   0  0  0  0  0  0
   17.6907   68.3720    3.9769 N   0  0  0  0  0  0
   17.4206   68.7450    2.7376 C   0  0  0  0  0  0
   16.1370   68.4570    2.3007 C   0  0  0  0  0  0
   18.5167   69.4405    1.9711 C   0  0  0  0  0  0
   16.6958   67.3520    5.9900 C   0  0  0  0  0  0
   15.7636   66.6030    6.7279 C   0  0  0  0  0  0
   16.2662   66.5970    8.0024 N   0  0  0  0  0  0
   17.4586   67.2573    7.9701 C   0  0  0  0  0  0
   17.7157   67.6975    6.7623 N   0  0  0  0  0  0
   14.5016   65.9205    6.3615 C   0  0  0  0  0  0
   13.3023   66.2437    7.0007 C   0  0  0  0  0  0
   12.0959   65.6580    6.6144 C   0  0  0  0  0  0
   14.5390   64.9775    5.3329 C   0  0  0  0  0  0
   13.3319   64.4091    4.9204 C   0  0  0  0  0  0
   12.1049   64.7507    5.5480 C   0  0  0  0  0  0
   11.0052   64.1458    5.0297 N   0  0  0  0  0  0
   11.3327   63.3774    4.0320 C   0  0  0  0  0  0
   13.0281   63.2570    3.6353 S   0  0  0  0  0  0
   18.3451   67.4102    9.2018 C   0  0  0  0  0  0
   19.6656   68.0015    8.9538 N   0  0  0  0  0  0
   20.8565   67.5597    9.6370 C   0  0  0  0  0  0
   21.9210   68.5088    9.1356 C   0  0  0  0  0  0
   21.1693   69.5793    8.6070 O   0  0  0  0  0  0
   19.8636   69.2821    8.4341 C   0  0  0  0  0  0
   19.0749   70.0567    7.8947 O   0  0  0  0  0  0
   15.6745   68.6659    1.3461 H   0  0  0  0  0  0
   18.2929   69.5109    0.9068 H   0  0  0  0  0  0
   18.6670   70.4569    2.3294 H   0  0  0  0  0  0
   19.4671   68.9201    2.0596 H   0  0  0  0  0  0
   15.8526   66.1593    8.8102 H   0  0  0  0  0  0
   13.3002   66.9775    7.7945 H   0  0  0  0  0  0
   11.1686   65.9182    7.1050 H   0  0  0  0  0  0
   15.4667   64.7310    4.8358 H   0  0  0  0  0  0
   10.5965   62.8573    3.4378 H   0  0  0  0  0  0
   18.5065   66.4294    9.6513 H   0  0  0  0  0  0
   17.8442   68.0098    9.9632 H   0  0  0  0  0  0
   21.0660   66.5189    9.3911 H   0  0  0  0  0  0
   20.7464   67.5980   10.7219 H   0  0  0  0  0  0
   22.5686   68.8371    9.9493 H   0  0  0  0  0  0
   22.5236   68.0572    8.3468 H   0  0  0  0  0  0
  1  2  1  0  0  0
  1  5  1  0  0  0
  2  3  2  0  0  0
  2  7  1  0  0  0
  3  4  1  0  0  0
  4  5  2  0  0  0
  4  6  1  0  0  0
  5 28  1  0  0  0
  6 29  1  0  0  0
  6 30  1  0  0  0
  6 31  1  0  0  0
  7  8  2  0  0  0
  7 11  1  0  0  0
  8  9  1  0  0  0
  8 12  1  0  0  0
  9 10  1  0  0  0
  9 32  1  0  0  0
 10 11  2  0  0  0
 10 21  1  0  0  0
 12 13  2  0  0  0
 12 15  1  0  0  0
 13 14  1  0  0  0
 13 33  1  0  0  0
 14 17  2  0  0  0
 14 34  1  0  0  0
 15 16  2  0  0  0
 15 35  1  0  0  0
 16 17  1  0  0  0
 16 20  1  0  0  0
 17 18  1  0  0  0
 18 19  2  0  0  0
 19 20  1  0  0  0
 19 36  1  0  0  0
 21 22  1  0  0  0
 21 37  1  0  0  0
 21 38  1  0  0  0
 22 23  1  0  0  0
 22 26  1  0  0  0
 23 24  1  0  0  0
 23 39  1  0  0  0
 23 40  1  0  0  0
 24 25  1  0  0  0
 24 41  1  0  0  0
 24 42  1  0  0  0
 25 26  1  0  0  0
 26 27  2  0  0  0
M  END
> <s_m_entry_id>
34685

> <s_m_entry_name>
dock_pv.428

> <s_m_Source_Path>
/home/csk/Desktop/cluster/DUD-E-result/tgfr1

> <s_m_Source_File>
dock_pv.maegz

> <i_m_Source_File_Index>
428

> <chembl_id>
CHEMBL2208017

> <chembl_pref_name>
None

> <i_lp_mmshare_version>
53161

> <r_lp_tautomer_probability>
0.499999999999999

> <s_lp_Force_Field>
OPLS_2005

> <r_lp_Energy>
12.536418

> <b_lp_Chiralities_Consistent>
1

> <s_lp_Variant>
CHEMBL4439_lig573-1

> <s_i_glide_gridfile>
glide-grid_3hmm

> <i_i_glide_lignum>
759

> <i_i_glide_rotatable_bonds>
4

> <r_i_docking_score>
-7.39494414495269

> <r_i_glide_ligand_efficiency>
-0.273886820183433

> <r_i_glide_ligand_efficiency_sa>
-0.821660459647612

> <r_i_glide_ligand_efficiency_ln>
-1.72142108176257

> <r_i_glide_gscore>
-7.39494414495269

> <r_i_glide_lipo>
-3.83754923970371

> <r_i_glide_hbond>
0

> <r_i_glide_metal>
0

> <r_i_glide_rewards>
-1.74928246868044

> <r_i_glide_evdw>
-49.3352508544922

> <r_i_glide_ecoul>
1.08691143989563

> <r_i_glide_erotb>
0.495613390171727

> <r_i_glide_esite>
0

> <r_i_glide_emodel>
-66.368969904388

> <r_i_glide_energy>
-48.2483394145966

> <r_i_glide_einternal>
5.68587875366211

> <i_i_glide_confnum>
9

> <i_i_glide_posenum>
79

> <r_i_glide_eff_state_penalty>
0

> <s_user_duplicate_titles>
CHEMBL4439_lig573,CHEMBL4439_lig573

> <i_f3d_flags>
0

> <s_m_subgroup_title>
dock_pv

> <s_m_subgroupid>
dock_pv

> <b_m_subgroup_collapsed>
1

$$$$
CHEMBL4439_lig53
                    3D
 Schrodinger Suite 2021-1.
 40 44  0  0  1  0            999 V2000
   16.3125   67.3291    6.8250 C   0  0  0  0  0  0
   15.1309   66.5698    6.6340 C   0  0  0  0  0  0
   14.4169   66.7975    7.7754 N   0  0  0  0  0  0
   14.5707   65.6355    5.6028 C   0  0  0  0  0  0
   13.2189   65.2514    5.5926 C   0  0  0  0  0  0
   12.7986   64.2721    4.6896 C   0  0  0  0  0  0
   13.7228   63.7044    3.8121 C   0  0  0  0  0  0
   15.0404   64.1577    3.8614 C   0  0  0  0  0  0
   15.4669   65.1054    4.7347 N   0  0  0  0  0  0
   17.4607   67.6591    5.8928 C   0  0  0  0  0  0
   19.7407   68.4706    4.3894 N   0  0  0  0  0  0
   19.8456   68.0573    5.6686 C   0  0  0  0  0  0
   18.7564   67.6571    6.4322 C   0  0  0  0  0  0
   16.2312   67.7464    8.1848 C   0  0  0  0  0  0
   15.0678   67.4646    8.7070 N   0  0  0  0  0  0
   18.5120   68.4622    3.8090 C   0  0  0  0  0  0
   17.3307   68.0475    4.5098 C   0  0  0  0  0  0
   16.1056   68.0569    3.7877 C   0  0  0  0  0  0
   16.0544   68.4569    2.4547 C   0  0  0  0  0  0
   17.2029   68.8814    1.8030 C   0  0  0  0  0  0
   18.4245   68.8920    2.4628 C   0  0  0  0  0  0
   17.2497   68.4488    9.0747 C   0  0  0  0  0  0
   17.1868   68.3464   10.5883 C   0  0  0  0  0  0
   18.2715   67.6230    9.8327 C   0  0  0  0  0  0
   12.5006   65.6794    6.2756 H   0  0  0  0  0  0
   11.7651   63.9585    4.6664 H   0  0  0  0  0  0
   13.4217   62.9496    3.0997 H   0  0  0  0  0  0
   15.7900   63.7469    3.2020 H   0  0  0  0  0  0
   20.8447   68.0498    6.0819 H   0  0  0  0  0  0
   18.9418   67.3247    7.4371 H   0  0  0  0  0  0
   13.4799   66.4585    7.9300 H   0  0  0  0  0  0
   15.1865   67.7791    4.2744 H   0  0  0  0  0  0
   15.1096   68.4589    1.9287 H   0  0  0  0  0  0
   17.1430   69.2084    0.7785 H   0  0  0  0  0  0
   19.3155   69.2254    1.9485 H   0  0  0  0  0  0
   17.5896   69.4063    8.6772 H   0  0  0  0  0  0
   17.4670   69.2151   11.1851 H   0  0  0  0  0  0
   16.3882   67.7685   11.0559 H   0  0  0  0  0  0
   18.2302   66.5354    9.7575 H   0  0  0  0  0  0
   19.2952   67.9938    9.8933 H   0  0  0  0  0  0
  1  2  2  0  0  0
  1 14  1  0  0  0
  1 10  1  0  0  0
  2  3  1  0  0  0
  2  4  1  0  0  0
  3 15  1  0  0  0
  3 31  1  0  0  0
  4  9  1  0  0  0
  4  5  2  0  0  0
  5  6  1  0  0  0
  5 25  1  0  0  0
  6  7  2  0  0  0
  6 26  1  0  0  0
  7  8  1  0  0  0
  7 27  1  0  0  0
  8  9  2  0  0  0
  8 28  1  0  0  0
 10 13  1  0  0  0
 10 17  2  0  0  0
 11 16  2  0  0  0
 11 12  1  0  0  0
 12 13  2  0  0  0
 12 29  1  0  0  0
 13 30  1  0  0  0
 14 22  1  0  0  0
 14 15  2  0  0  0
 16 17  1  0  0  0
 16 21  1  0  0  0
 17 18  1  0  0  0
 18 19  2  0  0  0
 18 32  1  0  0  0
 19 20  1  0  0  0
 19 33  1  0  0  0
 20 21  2  0  0  0
 20 34  1  0  0  0
 21 35  1  0  0  0
 22 23  1  0  0  0
 22 24  1  0  0  0
 22 36  1  0  0  0
 23 24  1  0  0  0
 23 37  1  0  0  0
 23 38  1  0  0  0
 24 39  1  0  0  0
 24 40  1  0  0  0
M  END
> <s_m_entry_id>
34688

> <s_m_entry_name>
dock_pv.431

> <s_m_Source_Path>
/home/csk/Desktop/cluster/DUD-E-result/tgfr1

> <s_m_Source_File>
dock_pv.maegz

> <i_m_Source_File_Index>
431

> <chembl_id>
CHEMBL338196

> <chembl_pref_name>
None

> <i_lp_mmshare_version>
53161

> <r_lp_tautomer_probability>
0.5

> <s_lp_Force_Field>
OPLS_2005

> <r_lp_Energy>
19.931416

> <b_lp_Chiralities_Consistent>
1

> <s_lp_Variant>
CHEMBL4439_lig53-2

> <s_i_glide_gridfile>
glide-grid_3hmm

> <i_i_glide_lignum>
78

> <i_i_glide_rotatable_bonds>
3

> <r_i_docking_score>
-7.38637866426749

> <r_i_glide_ligand_efficiency>
-0.307765777677812

> <r_i_glide_ligand_efficiency_sa>
-0.887750120281861

> <r_i_glide_ligand_efficiency_ln>
-1.76789935319056

> <r_i_glide_gscore>
-7.38637866426749

> <r_i_glide_lipo>
-4.38753556596361

> <r_i_glide_hbond>
0

> <r_i_glide_metal>
0

> <r_i_glide_rewards>
-1.59964900333641

> <r_i_glide_evdw>
-40.4140014648438

> <r_i_glide_ecoul>
0.339334040880203

> <r_i_glide_erotb>
0.570605872142673

> <r_i_glide_esite>
0

> <r_i_glide_emodel>
-52.8392747796649

> <r_i_glide_energy>
-40.0746674239635

> <r_i_glide_einternal>
2.51206183433533

> <i_i_glide_confnum>
12

> <i_i_glide_posenum>
212

> <r_i_glide_eff_state_penalty>
0

> <s_user_duplicate_titles>
CHEMBL4439_lig53,CHEMBL4439_lig53,211929

> <i_f3d_flags>
0

> <s_m_subgroup_title>
dock_pv

> <s_m_subgroupid>
dock_pv

> <b_m_subgroup_collapsed>
1

$$$$
CHEMBL4439_lig799
                    3D
 Schrodinger Suite 2021-1.
 48 51  0  0  1  0            999 V2000
   17.9726   67.8378    8.8577 C   0  0  0  0  0  0
   16.7872   67.4862    9.5167 C   0  0  0  0  0  0
   16.7741   67.3986   10.9093 C   0  0  0  0  0  0
   17.8372   67.6634   11.7119 N   0  0  0  0  0  0
   18.1143   67.9648    7.4667 N   0  0  0  0  0  0
   17.3349   67.6575    6.3389 C   0  0  0  0  0  0
   17.6879   68.2244    5.0984 C   0  0  0  0  0  0
   16.9182   67.9015    3.9778 C   0  0  0  0  0  0
   15.8628   67.0555    4.0262 N   0  0  0  0  0  0
   15.5414   66.4839    5.2152 C   0  0  0  0  0  0
   16.2645   66.7550    6.3815 C   0  0  0  0  0  0
   14.3740   65.5590    5.1888 C   0  0  0  0  0  0
   14.2664   64.5789    4.1886 C   0  0  0  0  0  0
   13.1400   63.7646    4.0990 C   0  0  0  0  0  0
   12.1032   63.9064    5.0182 C   0  0  0  0  0  0
   12.2046   64.8569    6.0323 C   0  0  0  0  0  0
   13.3370   65.6637    6.1306 C   0  0  0  0  0  0
   13.4050   66.5616    7.1415 F   0  0  0  0  0  0
   19.0810   68.1373    9.6724 C   0  0  0  0  0  0
   18.9549   68.0464   11.0913 C   0  0  0  0  0  0
   20.2170   68.4586   11.5880 C   0  0  0  0  0  0
   20.9608   68.7780   10.4731 N   0  0  0  0  0  0
   20.3331   68.5470    9.3038 N   0  0  0  0  0  0
   13.0473   62.8573    3.1055 F   0  0  0  0  0  0
   22.3296   69.2978   10.4593 C   0  0  0  0  0  0
   22.4953   70.5807    9.6022 C   0  0  2  0  0  0
   18.8692   69.1764    4.9370 C   0  0  0  0  0  0
   22.6380   70.3243    8.0912 C   0  0  0  0  0  0
   23.6681   71.2455   10.0321 O   0  0  0  0  0  0
   15.8680   67.3162    8.9885 H   0  0  0  0  0  0
   15.8673   67.1165   11.4181 H   0  0  0  0  0  0
   18.9946   68.3939    7.2247 H   0  0  0  0  0  0
   17.1430   68.3194    3.0055 H   0  0  0  0  0  0
   16.0093   66.2254    7.2807 H   0  0  0  0  0  0
   15.0502   64.4555    3.4561 H   0  0  0  0  0  0
   11.2249   63.2832    4.9407 H   0  0  0  0  0  0
   11.4070   64.9657    6.7493 H   0  0  0  0  0  0
   20.6300   68.5732   12.5774 H   0  0  0  0  0  0
   22.9918   68.5051   10.1103 H   0  0  0  0  0  0
   22.6127   69.5036   11.4929 H   0  0  0  0  0  0
   21.6576   71.2576    9.7867 H   0  0  0  0  0  0
   18.8812   69.6602    3.9577 H   0  0  0  0  0  0
   18.8289   69.9693    5.6855 H   0  0  0  0  0  0
   19.8105   68.6413    5.0766 H   0  0  0  0  0  0
   21.8041   69.7658    7.6706 H   0  0  0  0  0  0
   23.5496   69.7700    7.8595 H   0  0  0  0  0  0
   22.6669   71.2619    7.5431 H   0  0  0  0  0  0
   23.9410   71.8903    9.3620 H   0  0  0  0  0  0
  1 19  1  0  0  0
  1  2  2  0  0  0
  1  5  1  0  0  0
  2  3  1  0  0  0
  2 30  1  0  0  0
  3  4  2  0  0  0
  3 31  1  0  0  0
  4 20  1  0  0  0
  5  6  1  0  0  0
  5 32  1  0  0  0
  6  7  2  0  0  0
  6 11  1  0  0  0
  7  8  1  0  0  0
  7 27  1  0  0  0
  8  9  2  0  0  0
  8 33  1  0  0  0
  9 10  1  0  0  0
 10 11  2  0  0  0
 10 12  1  0  0  0
 11 34  1  0  0  0
 12 13  2  0  0  0
 12 17  1  0  0  0
 13 14  1  0  0  0
 13 35  1  0  0  0
 14 15  2  0  0  0
 14 24  1  0  0  0
 15 16  1  0  0  0
 15 36  1  0  0  0
 16 17  2  0  0  0
 16 37  1  0  0  0
 17 18  1  0  0  0
 19 20  1  0  0  0
 19 23  2  0  0  0
 20 21  2  0  0  0
 21 22  1  0  0  0
 21 38  1  0  0  0
 22 23  1  0  0  0
 22 25  1  0  0  0
 25 26  1  0  0  0
 25 39  1  0  0  0
 25 40  1  0  0  0
 26 28  1  0  0  0
 26 29  1  0  0  0
 26 41  1  0  0  0
 27 42  1  0  0  0
 27 43  1  0  0  0
 27 44  1  0  0  0
 28 45  1  0  0  0
 28 46  1  0  0  0
 28 47  1  0  0  0
 29 48  1  0  0  0
M  END
> <s_m_entry_id>
34690

> <s_m_entry_name>
dock_pv.433

> <s_m_Source_Path>
/home/csk/Desktop/cluster/DUD-E-result/tgfr1

> <s_m_Source_File>
dock_pv.maegz

> <i_m_Source_File_Index>
433

> <chembl_id>
CHEMBL4088735

> <chembl_pref_name>
None

> <i_lp_mmshare_version>
53161

> <r_lp_tautomer_probability>
0.999999106000799

> <s_lp_Force_Field>
OPLS_2005

> <r_lp_Energy>
32.907455

> <b_lp_Chiralities_Consistent>
1

> <s_lp_Variant>
CHEMBL4439_lig799-1

> <s_i_glide_gridfile>
glide-grid_3hmm

> <i_i_glide_lignum>
1114

> <i_i_glide_rotatable_bonds>
6

> <r_i_docking_score>
-7.37999280333268

> <r_i_glide_ligand_efficiency>
-0.254482510459747

> <r_i_glide_ligand_efficiency_sa>
-0.781850897850682

> <r_i_glide_ligand_efficiency_ln>
-1.68983121149261

> <r_i_glide_gscore>
-7.37999280333268

> <r_i_glide_lipo>
-3.43804412743873

> <r_i_glide_hbond>
-0.127420948085824

> <r_i_glide_metal>
0

> <r_i_glide_rewards>
-1.74145735614551

> <r_i_glide_evdw>
-50.7527236938477

> <r_i_glide_ecoul>
-1.07198929786682

> <r_i_glide_erotb>
0.625364207709802

> <r_i_glide_esite>
0

> <r_i_glide_emodel>
-73.959200164957

> <r_i_glide_energy>
-51.8247129917145

> <r_i_glide_einternal>
3.01974391937256

> <i_i_glide_confnum>
34

> <i_i_glide_posenum>
291

> <r_i_glide_eff_state_penalty>
0

> <s_user_duplicate_titles>
CHEMBL4439_lig799

> <i_f3d_flags>
0

> <s_m_subgroup_title>
dock_pv

> <s_m_subgroupid>
dock_pv

> <b_m_subgroup_collapsed>
1

$$$$
CHEMBL4439_lig54
                    3D
 Schrodinger Suite 2021-1.
 33 36  0  0  1  0            999 V2000
   14.5257   66.5343    6.3746 C   0  0  0  0  0  0
   15.5944   67.4767    6.2800 C   0  0  0  0  0  0
   15.6457   68.2621    7.3378 N   0  0  0  0  0  0
   16.5719   67.7532    5.1725 C   0  0  0  0  0  0
   16.0749   67.8060    3.8683 C   0  0  0  0  0  0
   16.9059   68.1938    2.8263 C   0  0  0  0  0  0
   18.2044   68.5296    2.9862 N   0  0  0  0  0  0
   14.0550   65.4483    5.4423 C   0  0  0  0  0  0
   13.0272   63.4153    3.8608 C   0  0  0  0  0  0
   14.3238   63.8742    3.6320 C   0  0  0  0  0  0
   14.8534   64.8843    4.4398 C   0  0  0  0  0  0
   13.9314   66.8562    7.5912 C   0  0  0  0  0  0
   14.6670   67.8635    8.1330 N   0  0  0  0  0  0
   12.2886   64.0135    4.8792 C   0  0  0  0  0  0
   12.7812   65.0093    5.6602 N   0  0  0  0  0  0
   17.9559   68.0859    5.3796 C   0  0  0  0  0  0
   18.7287   68.4810    4.2390 C   0  0  0  0  0  0
   20.0852   68.8510    4.4025 C   0  0  0  0  0  0
   20.6738   68.8190    5.6613 C   0  0  0  0  0  0
   19.9443   68.4199    6.7733 C   0  0  0  0  0  0
   18.6082   68.0553    6.6474 C   0  0  0  0  0  0
   15.0337   67.5978    3.6642 H   0  0  0  0  0  0
   16.5174   68.2698    1.8203 H   0  0  0  0  0  0
   12.6036   62.6331    3.2470 H   0  0  0  0  0  0
   14.9217   63.4395    2.8462 H   0  0  0  0  0  0
   15.8664   65.2141    4.2840 H   0  0  0  0  0  0
   13.0676   66.4586    8.1054 H   0  0  0  0  0  0
   14.4789   68.3167    9.0164 H   0  0  0  0  0  0
   11.2743   63.7011    5.0858 H   0  0  0  0  0  0
   20.6638   69.1498    3.5394 H   0  0  0  0  0  0
   21.7142   69.0887    5.7739 H   0  0  0  0  0  0
   20.4221   68.3900    7.7420 H   0  0  0  0  0  0
   18.0757   67.7363    7.5298 H   0  0  0  0  0  0
  1  8  1  0  0  0
  1 12  2  0  0  0
  1  2  1  0  0  0
  2  3  2  0  0  0
  2  4  1  0  0  0
  3 13  1  0  0  0
  4  5  2  0  0  0
  4 16  1  0  0  0
  5  6  1  0  0  0
  5 22  1  0  0  0
  6  7  2  0  0  0
  6 23  1  0  0  0
  7 17  1  0  0  0
  8 11  1  0  0  0
  8 15  2  0  0  0
  9 14  2  0  0  0
  9 10  1  0  0  0
  9 24  1  0  0  0
 10 11  2  0  0  0
 10 25  1  0  0  0
 11 26  1  0  0  0
 12 13  1  0  0  0
 12 27  1  0  0  0
 13 28  1  0  0  0
 14 15  1  0  0  0
 14 29  1  0  0  0
 16 17  1  0  0  0
 16 21  2  0  0  0
 17 18  2  0  0  0
 18 19  1  0  0  0
 18 30  1  0  0  0
 19 20  2  0  0  0
 19 31  1  0  0  0
 20 21  1  0  0  0
 20 32  1  0  0  0
 21 33  1  0  0  0
M  END
> <s_m_entry_id>
34691

> <s_m_entry_name>
dock_pv.434

> <s_m_Source_Path>
/home/csk/Desktop/cluster/DUD-E-result/tgfr1

> <s_m_Source_File>
dock_pv.maegz

> <i_m_Source_File_Index>
434

> <chembl_id>
CHEMBL338713

> <chembl_pref_name>
None

> <i_lp_mmshare_version>
53161

> <r_lp_tautomer_probability>
0.5

> <s_lp_Force_Field>
OPLS_2005

> <r_lp_Energy>
17.855372

> <b_lp_Chiralities_Consistent>
1

> <s_lp_Variant>
CHEMBL4439_lig54-1

> <s_i_glide_gridfile>
glide-grid_3hmm

> <i_i_glide_lignum>
79

> <i_i_glide_rotatable_bonds>
2

> <r_i_docking_score>
-7.37961624381686

> <r_i_glide_ligand_efficiency>
-0.351410297324612

> <r_i_glide_ligand_efficiency_sa>
-0.969514364134248

> <r_i_glide_ligand_efficiency_ln>
-1.82459520436502

> <r_i_glide_gscore>
-7.37961624381686

> <r_i_glide_lipo>
-4.08260900083634

> <r_i_glide_hbond>
0

> <r_i_glide_metal>
0

> <r_i_glide_rewards>
-1.81591525945625

> <r_i_glide_evdw>
-40.9543495178223

> <r_i_glide_ecoul>
0.555298388004303

> <r_i_glide_erotb>
0.483330734166189

> <r_i_glide_esite>
0

> <r_i_glide_emodel>
-57.7695577123684

> <r_i_glide_energy>
-40.399051129818

> <r_i_glide_einternal>
1.19653785228729

> <i_i_glide_confnum>
9

> <i_i_glide_posenum>
286

> <r_i_glide_eff_state_penalty>
0

> <s_user_duplicate_titles>
CHEMBL4439_lig54,CHEMBL4439_lig54,211976

> <i_f3d_flags>
0

> <s_m_subgroup_title>
dock_pv

> <s_m_subgroupid>
dock_pv

> <b_m_subgroup_collapsed>
1

$$$$
CHEMBL4439_lig576
                    3D
 Schrodinger Suite 2021-1.
 45 48  0  0  1  0            999 V2000
   18.8412   68.5861    4.2807 S   0  0  0  0  0  0
   17.3536   68.0576    5.0225 C   0  0  0  0  0  0
   16.3316   68.0532    4.1981 N   0  0  0  0  0  0
   16.6416   68.4559    2.9768 C   0  0  0  0  0  0
   17.9771   68.7950    2.7897 C   0  0  0  0  0  0
   15.5184   68.4955    1.9622 C   0  0  0  0  0  0
   17.2507   67.7120    6.4551 C   0  0  0  0  0  0
   16.2211   67.0304    7.1264 C   0  0  0  0  0  0
   16.6304   67.0223    8.4345 N   0  0  0  0  0  0
   17.8367   67.6573    8.4929 C   0  0  0  0  0  0
   18.2059   68.0751    7.3053 N   0  0  0  0  0  0
   14.9514   66.3851    6.6940 C   0  0  0  0  0  0
   13.7601   66.6609    7.3718 C   0  0  0  0  0  0
   12.5537   66.0569    7.0115 C   0  0  0  0  0  0
   14.9684   65.4878    5.6232 C   0  0  0  0  0  0
   13.7705   64.8583    5.2695 C   0  0  0  0  0  0
   12.5566   65.1430    5.9496 C   0  0  0  0  0  0
   11.4699   64.4554    5.5074 N   0  0  0  0  0  0
   11.7918   63.6602    4.5267 C   0  0  0  0  0  0
   13.4637   63.6564    4.0307 S   0  0  0  0  0  0
   18.6236   67.7844    9.7894 C   0  0  0  0  0  0
   19.6163   68.8571    9.7565 N   0  0  0  0  0  0
   20.8927   68.7253    9.3683 C   0  0  0  0  0  0
   21.4426   69.9134    9.0745 N   0  0  0  0  0  0
   21.4650   67.6438    9.2326 O   0  0  0  0  0  0
   22.6352   70.1015    8.2483 C   0  0  0  0  0  0
   22.3681   69.8831    6.7498 C   0  0  0  0  0  0
   18.4677   69.1489    1.8952 H   0  0  0  0  0  0
   15.9098   68.5070    0.9475 H   0  0  0  0  0  0
   14.8407   67.6498    2.0343 H   0  0  0  0  0  0
   14.8869   69.3760    2.0318 H   0  0  0  0  0  0
   16.1409   66.6072    9.2130 H   0  0  0  0  0  0
   13.7663   67.3629    8.1946 H   0  0  0  0  0  0
   11.6367   66.2659    7.5437 H   0  0  0  0  0  0
   15.8847   65.2708    5.0946 H   0  0  0  0  0  0
   11.0735   63.0364    4.0161 H   0  0  0  0  0  0
   19.0728   66.8333   10.0857 H   0  0  0  0  0  0
   17.9440   68.0395   10.6039 H   0  0  0  0  0  0
   19.2801   69.7756   10.0231 H   0  0  0  0  0  0
   20.9872   70.7507    9.4004 H   0  0  0  0  0  0
   23.4353   69.4379    8.5841 H   0  0  0  0  0  0
   23.0066   71.1146    8.4134 H   0  0  0  0  0  0
   23.2759   70.0559    6.1691 H   0  0  0  0  0  0
   21.6085   70.5673    6.3731 H   0  0  0  0  0  0
   22.0418   68.8612    6.5486 H   0  0  0  0  0  0
  1  2  1  0  0  0
  1  5  1  0  0  0
  2  3  2  0  0  0
  2  7  1  0  0  0
  3  4  1  0  0  0
  4  5  2  0  0  0
  4  6  1  0  0  0
  5 28  1  0  0  0
  6 29  1  0  0  0
  6 30  1  0  0  0
  6 31  1  0  0  0
  7  8  2  0  0  0
  7 11  1  0  0  0
  8  9  1  0  0  0
  8 12  1  0  0  0
  9 10  1  0  0  0
  9 32  1  0  0  0
 10 11  2  0  0  0
 10 21  1  0  0  0
 12 13  2  0  0  0
 12 15  1  0  0  0
 13 14  1  0  0  0
 13 33  1  0  0  0
 14 17  2  0  0  0
 14 34  1  0  0  0
 15 16  2  0  0  0
 15 35  1  0  0  0
 16 17  1  0  0  0
 16 20  1  0  0  0
 17 18  1  0  0  0
 18 19  2  0  0  0
 19 20  1  0  0  0
 19 36  1  0  0  0
 21 22  1  0  0  0
 21 37  1  0  0  0
 21 38  1  0  0  0
 22 23  1  0  0  0
 22 39  1  0  0  0
 23 24  1  0  0  0
 23 25  2  0  0  0
 24 26  1  0  0  0
 24 40  1  0  0  0
 26 27  1  0  0  0
 26 41  1  0  0  0
 26 42  1  0  0  0
 27 43  1  0  0  0
 27 44  1  0  0  0
 27 45  1  0  0  0
M  END
> <s_m_entry_id>
34692

> <s_m_entry_name>
dock_pv.435

> <s_m_Source_Path>
/home/csk/Desktop/cluster/DUD-E-result/tgfr1

> <s_m_Source_File>
dock_pv.maegz

> <i_m_Source_File_Index>
435

> <chembl_id>
CHEMBL2208014

> <chembl_pref_name>
None

> <i_lp_mmshare_version>
53161

> <r_lp_tautomer_probability>
0.499999999999999

> <s_lp_Force_Field>
OPLS_2005

> <r_lp_Energy>
13.825592

> <b_lp_Chiralities_Consistent>
1

> <s_lp_Variant>
CHEMBL4439_lig576-1

> <s_i_glide_gridfile>
glide-grid_3hmm

> <i_i_glide_lignum>
765

> <i_i_glide_rotatable_bonds>
7

> <r_i_docking_score>
-7.37619084697517

> <r_i_glide_ligand_efficiency>
-0.273192253591673

> <r_i_glide_ligand_efficiency_sa>
-0.819576759874622

> <r_i_glide_ligand_efficiency_ln>
-1.71705562316568

> <r_i_glide_gscore>
-7.37619084697517

> <r_i_glide_lipo>
-3.45340988137243

> <r_i_glide_hbond>
-0.334743501315289

> <r_i_glide_metal>
0

> <r_i_glide_rewards>
-1.16910269555213

> <r_i_glide_evdw>
-52.5177803039551

> <r_i_glide_ecoul>
-3.35881733894348

> <r_i_glide_erotb>
0.739962794715412

> <r_i_glide_esite>
-0.0291859474114534

> <r_i_glide_emodel>
-80.2826731981258

> <r_i_glide_energy>
-55.8765976428986

> <r_i_glide_einternal>
2.58778977394104

> <i_i_glide_confnum>
26

> <i_i_glide_posenum>
91

> <r_i_glide_eff_state_penalty>
0

> <s_user_duplicate_titles>
CHEMBL4439_lig576

> <i_f3d_flags>
0

> <s_m_subgroup_title>
dock_pv

> <s_m_subgroupid>
dock_pv

> <b_m_subgroup_collapsed>
1

$$$$
CHEMBL4439_lig832
                    3D
 Schrodinger Suite 2021-1.
 37 40  0  0  1  0            999 V2000
   14.8844   66.6085    6.6023 C   0  0  0  0  0  0
   17.3848   67.8172    6.8704 N   0  0  0  0  0  0
   16.6510   67.3636    7.9233 C   0  0  0  0  0  0
   15.4228   66.7853    7.8335 N   0  0  0  0  0  0
   16.7950   67.6571    5.6782 N   0  0  0  0  0  0
   15.5393   67.0627    5.4362 C   0  0  0  0  0  0
   15.3103   67.1335    4.0328 C   0  0  0  0  0  0
   16.4239   67.7422    3.4719 C   0  0  0  0  0  0
   17.3273   68.0570    4.4774 C   0  0  0  0  0  0
   17.2407   67.5139    9.3003 C   0  0  0  0  0  0
   18.5508   67.8945    9.3777 N   0  0  0  0  0  0
   19.1332   68.0570   10.5959 C   0  0  0  0  0  0
   18.4322   67.8410   11.7878 C   0  0  0  0  0  0
   17.0971   67.4464   11.7153 C   0  0  0  0  0  0
   16.4987   67.2731   10.4675 C   0  0  0  0  0  0
   13.6203   66.0091    6.5975 N   0  0  0  0  0  0
   13.0196   65.1236    5.6919 C   0  0  0  0  0  0
   11.6505   64.8819    5.8189 C   0  0  0  0  0  0
   11.0456   63.9537    4.9703 C   0  0  0  0  0  0
   11.7351   63.2572    4.0320 N   0  0  0  0  0  0
   13.0675   63.4875    3.9265 C   0  0  0  0  0  0
   13.7442   64.4061    4.7318 C   0  0  0  0  0  0
   20.5942   68.5073   10.5785 C   0  0  0  0  0  0
   21.0662   68.7119   11.8108 F   0  0  0  0  0  0
   20.7166   69.6475    9.8970 F   0  0  0  0  0  0
   21.3513   67.5792    9.9910 F   0  0  0  0  0  0
   14.4447   66.7926    3.4810 H   0  0  0  0  0  0
   16.5620   67.9464    2.4194 H   0  0  0  0  0  0
   18.2927   68.5378    4.4244 H   0  0  0  0  0  0
   18.9086   67.9713   12.7476 H   0  0  0  0  0  0
   16.5269   67.2706   12.6163 H   0  0  0  0  0  0
   15.4671   66.9621   10.4186 H   0  0  0  0  0  0
   13.1350   66.0847    7.4766 H   0  0  0  0  0  0
   11.0671   65.4014    6.5647 H   0  0  0  0  0  0
    9.9872   63.7483    5.0424 H   0  0  0  0  0  0
   13.5921   62.9202    3.1706 H   0  0  0  0  0  0
   14.8106   64.5285    4.6207 H   0  0  0  0  0  0
  1  6  1  0  0  0
  1  4  2  0  0  0
  1 16  1  0  0  0
  2  5  1  0  0  0
  2  3  2  0  0  0
  3  4  1  0  0  0
  3 10  1  0  0  0
  5  6  1  0  0  0
  5  9  1  0  0  0
  6  7  2  0  0  0
  7  8  1  0  0  0
  7 27  1  0  0  0
  8  9  2  0  0  0
  8 28  1  0  0  0
  9 29  1  0  0  0
 10 11  2  0  0  0
 10 15  1  0  0  0
 11 12  1  0  0  0
 12 13  2  0  0  0
 12 23  1  0  0  0
 13 14  1  0  0  0
 13 30  1  0  0  0
 14 15  2  0  0  0
 14 31  1  0  0  0
 15 32  1  0  0  0
 16 17  1  0  0  0
 16 33  1  0  0  0
 17 18  2  0  0  0
 17 22  1  0  0  0
 18 19  1  0  0  0
 18 34  1  0  0  0
 19 20  2  0  0  0
 19 35  1  0  0  0
 20 21  1  0  0  0
 21 22  2  0  0  0
 21 36  1  0  0  0
 22 37  1  0  0  0
 23 24  1  0  0  0
 23 25  1  0  0  0
 23 26  1  0  0  0
M  END
> <s_m_entry_id>
34695

> <s_m_entry_name>
dock_pv.438

> <s_m_Source_Path>
/home/csk/Desktop/cluster/DUD-E-result/tgfr1

> <s_m_Source_File>
dock_pv.maegz

> <i_m_Source_File_Index>
438

> <chembl_id>
CHEMBL4202469

> <chembl_pref_name>
None

> <i_lp_mmshare_version>
53161

> <r_lp_tautomer_probability>
0.999999106000799

> <s_lp_Force_Field>
OPLS_2005

> <r_lp_Energy>
34.908736

> <b_lp_Chiralities_Consistent>
1

> <s_lp_Variant>
CHEMBL4439_lig832-1

> <s_i_glide_gridfile>
glide-grid_3hmm

> <i_i_glide_lignum>
1150

> <i_i_glide_rotatable_bonds>
4

> <r_i_docking_score>
-7.3592816461272

> <r_i_glide_ligand_efficiency>
-0.283049294081816

> <r_i_glide_ligand_efficiency_sa>
-0.838532419972187

> <r_i_glide_ligand_efficiency_ln>
-1.72830314682031

> <r_i_glide_gscore>
-7.3592816461272

> <r_i_glide_lipo>
-3.59378044337472

> <r_i_glide_hbond>
0

> <r_i_glide_metal>
0

> <r_i_glide_rewards>
-1.73224954342723

> <r_i_glide_evdw>
-48.8032836914062

> <r_i_glide_ecoul>
-0.301086395978928

> <r_i_glide_erotb>
0.452075484641902

> <r_i_glide_esite>
0

> <r_i_glide_emodel>
-67.8067836501013

> <r_i_glide_energy>
-49.1043700873852

> <r_i_glide_einternal>
7.29444074630737

> <i_i_glide_confnum>
11

> <i_i_glide_posenum>
200

> <r_i_glide_eff_state_penalty>
0

> <s_user_duplicate_titles>
CHEMBL4439_lig832

> <i_f3d_flags>
0

> <s_m_subgroup_title>
dock_pv

> <s_m_subgroupid>
dock_pv

> <b_m_subgroup_collapsed>
1

$$$$
CHEMBL4439_lig555
                    3D
 Schrodinger Suite 2021-1.
 50 54  0  0  1  0            999 V2000
   21.2548   69.6271    5.4708 C   0  0  0  0  0  0
   21.8548   70.1317    6.6223 C   0  0  0  0  0  0
   21.1518   70.0562    7.8245 C   0  0  0  0  0  0
   19.9126   69.5108    7.9140 N   0  0  0  0  0  0
   19.3630   68.9370    6.8129 C   0  0  0  0  0  0
   20.0056   69.0110    5.5635 C   0  0  0  0  0  0
   18.0911   68.1427    7.0139 C   0  0  0  0  0  0
   19.1840   67.7169   10.1099 C   0  0  0  0  0  0
   17.8568   67.6963    9.6702 C   0  0  0  0  0  0
   16.8392   67.7620   10.6369 C   0  0  0  0  0  0
   17.1105   67.8562   12.0074 C   0  0  0  0  0  0
   19.4416   67.9011   11.4401 N   0  0  0  0  0  0
   18.4489   67.9495   12.4177 C   0  0  0  0  0  0
   19.0441   68.0798   13.6300 N   0  0  0  0  0  0
   20.3228   68.1298   13.2979 C   0  0  0  0  0  0
   20.6475   68.0572   12.0221 N   0  0  0  0  0  0
   17.5101   67.6180    8.2062 C   0  0  0  0  0  0
   17.4108   67.8484    5.9139 N   0  0  0  0  0  0
   16.4170   67.0328    6.1010 C   0  0  0  0  0  0
   16.1307   66.6321    7.7517 S   0  0  0  0  0  0
   21.7412   70.5730    9.1237 C   0  0  0  0  0  0
   15.6809   66.4900    5.0819 N   0  0  0  0  0  0
   15.4182   65.0639    4.9181 C   0  0  0  0  0  0
   13.9382   64.7256    4.9249 C   0  0  0  0  0  0
   13.4677   63.7267    4.0671 C   0  0  0  0  0  0
   12.1277   63.3577    4.1025 C   0  0  0  0  0  0
   11.2648   63.9789    5.0065 C   0  0  0  0  0  0
   11.7370   64.9527    5.8835 C   0  0  0  0  0  0
   13.0733   65.3235    5.8454 C   0  0  0  0  0  0
    9.8005   63.6169    5.0385 C   0  0  0  0  0  0
   21.7786   69.6618    4.5268 H   0  0  0  0  0  0
   22.8491   70.5512    6.5792 H   0  0  0  0  0  0
   19.5752   68.5590    4.6823 H   0  0  0  0  0  0
   20.0435   67.6266    9.4660 H   0  0  0  0  0  0
   15.8066   67.7460   10.3240 H   0  0  0  0  0  0
   16.3045   67.8868   12.7272 H   0  0  0  0  0  0
   21.0899   68.2305   14.0523 H   0  0  0  0  0  0
   22.6591   71.1375    8.9498 H   0  0  0  0  0  0
   21.0369   71.2308    9.6353 H   0  0  0  0  0  0
   21.9740   69.7414    9.7896 H   0  0  0  0  0  0
   15.5833   66.9953    4.2122 H   0  0  0  0  0  0
   15.8750   64.4916    5.7249 H   0  0  0  0  0  0
   15.8660   64.7334    3.9804 H   0  0  0  0  0  0
   14.1327   63.2423    3.3665 H   0  0  0  0  0  0
   11.7658   62.6014    3.4211 H   0  0  0  0  0  0
   11.0718   65.4276    6.5902 H   0  0  0  0  0  0
   13.4285   66.0802    6.5284 H   0  0  0  0  0  0
    9.5396   62.8591    4.2999 H   0  0  0  0  0  0
    9.5192   63.2569    6.0282 H   0  0  0  0  0  0
    9.2088   64.5093    4.8337 H   0  0  0  0  0  0
  1  6  1  0  0  0
  1  2  2  0  0  0
  1 31  1  0  0  0
  2  3  1  0  0  0
  2 32  1  0  0  0
  3 21  1  0  0  0
  3  4  2  0  0  0
  4  5  1  0  0  0
  5  6  2  0  0  0
  5  7  1  0  0  0
  6 33  1  0  0  0
  7 17  2  0  0  0
  7 18  1  0  0  0
  8 12  1  0  0  0
  8  9  2  0  0  0
  8 34  1  0  0  0
  9 17  1  0  0  0
  9 10  1  0  0  0
 10 11  2  0  0  0
 10 35  1  0  0  0
 11 13  1  0  0  0
 11 36  1  0  0  0
 12 16  1  0  0  0
 12 13  1  0  0  0
 13 14  2  0  0  0
 14 15  1  0  0  0
 15 16  2  0  0  0
 15 37  1  0  0  0
 17 20  1  0  0  0
 18 19  2  0  0  0
 19 20  1  0  0  0
 19 22  1  0  0  0
 21 38  1  0  0  0
 21 39  1  0  0  0
 21 40  1  0  0  0
 22 23  1  0  0  0
 22 41  1  0  0  0
 23 24  1  0  0  0
 23 42  1  0  0  0
 23 43  1  0  0  0
 24 25  2  0  0  0
 24 29  1  0  0  0
 25 26  1  0  0  0
 25 44  1  0  0  0
 26 27  2  0  0  0
 26 45  1  0  0  0
 27 28  1  0  0  0
 27 30  1  0  0  0
 28 29  2  0  0  0
 28 46  1  0  0  0
 29 47  1  0  0  0
 30 48  1  0  0  0
 30 49  1  0  0  0
 30 50  1  0  0  0
M  END
> <s_m_entry_id>
34696

> <s_m_entry_name>
dock_pv.439

> <s_m_Source_Path>
/home/csk/Desktop/cluster/DUD-E-result/tgfr1

> <s_m_Source_File>
dock_pv.maegz

> <i_m_Source_File_Index>
439

> <chembl_id>
CHEMBL2087974

> <chembl_pref_name>
None

> <i_lp_mmshare_version>
53161

> <r_lp_tautomer_probability>
1

> <s_lp_Force_Field>
OPLS_2005

> <r_lp_Energy>
11.770043

> <b_lp_Chiralities_Consistent>
1

> <s_lp_Variant>
CHEMBL4439_lig555-1

> <s_i_glide_gridfile>
glide-grid_3hmm

> <i_i_glide_lignum>
734

> <i_i_glide_rotatable_bonds>
5

> <r_i_docking_score>
-7.34472021562781

> <r_i_glide_ligand_efficiency>
-0.244824007187594

> <r_i_glide_ligand_efficiency_sa>
-0.760725112508714

> <r_i_glide_ligand_efficiency_ln>
-1.66880046012706

> <r_i_glide_gscore>
-7.34472021562781

> <r_i_glide_lipo>
-3.69212768364183

> <r_i_glide_hbond>
0

> <r_i_glide_metal>
0

> <r_i_glide_rewards>
-1.16288939589445

> <r_i_glide_evdw>
-55.0821723937988

> <r_i_glide_ecoul>
-1.78565728664398

> <r_i_glide_erotb>
0.5794249256263

> <r_i_glide_esite>
-0.0471708490313005

> <r_i_glide_emodel>
-76.7043773368594

> <r_i_glide_energy>
-56.8678296804428

> <r_i_glide_einternal>
11.910701751709

> <i_i_glide_confnum>
68

> <i_i_glide_posenum>
43

> <r_i_glide_eff_state_penalty>
0

> <s_user_duplicate_titles>
CHEMBL4439_lig555

> <i_f3d_flags>
0

> <s_m_subgroup_title>
dock_pv

> <s_m_subgroupid>
dock_pv

> <b_m_subgroup_collapsed>
1

$$$$
CHEMBL4439_lig838
                    3D
 Schrodinger Suite 2021-1.
 44 47  0  0  1  0            999 V2000
   12.9881   64.4891    4.4314 C   0  0  0  0  0  0
   11.9055   64.3342    5.2889 C   0  0  0  0  0  0
   11.8940   65.0247    6.4938 C   0  0  0  0  0  0
   12.9117   65.7987    6.9483 N   0  0  0  0  0  0
   13.9754   65.3880    4.8402 C   0  0  0  0  0  0
   13.9459   65.9848    6.1243 C   0  0  0  0  0  0
   15.1853   66.6918    6.3122 C   0  0  0  0  0  0
   15.7253   66.8239    5.0243 C   0  0  0  0  0  0
   15.0600   65.9335    4.2084 N   0  0  0  0  0  0
   15.6902   67.2033    7.6189 C   0  0  0  0  0  0
   15.7449   66.2692    8.6088 N   0  0  0  0  0  0
   16.2586   66.6323    9.8150 C   0  0  0  0  0  0
   16.7453   67.9207   10.0801 C   0  0  0  0  0  0
   16.6748   68.8568    9.0458 C   0  0  0  0  0  0
   16.1142   68.5148    7.8173 C   0  0  0  0  0  0
   16.8225   67.6659    4.4510 C   0  0  0  0  0  0
   16.7124   68.1039    3.1227 C   0  0  0  0  0  0
   17.7187   68.8959    2.5791 C   0  0  0  0  0  0
   18.8176   69.2575    3.2795 N   0  0  0  0  0  0
   18.9384   68.8336    4.5676 C   0  0  0  0  0  0
   17.9507   68.0572    5.1834 C   0  0  0  0  0  0
   20.0498   69.1897    5.3489 N   0  0  0  0  0  0
   21.2645   69.5808    4.9147 C   0  0  0  0  0  0
   22.2781   69.9136    6.0031 C   0  0  0  0  0  0
   21.6011   69.6568    3.7332 O   0  0  0  0  0  0
   17.2803   68.3513   11.2783 O   0  0  0  0  0  0
   17.2200   67.5084   12.4217 C   0  0  0  0  0  0
   17.3413   68.1220   13.3142 H   0  0  0  0  0  0
   16.2681   66.9875   12.5195 H   0  0  0  0  0  0
   18.0381   66.7907   12.4131 H   0  0  0  0  0  0
   13.0053   64.0263    3.4558 H   0  0  0  0  0  0
   11.0762   63.7022    5.0081 H   0  0  0  0  0  0
   11.0678   64.9232    7.1709 H   0  0  0  0  0  0
   15.3305   65.7893    3.2464 H   0  0  0  0  0  0
   16.2743   65.8539   10.5622 H   0  0  0  0  0  0
   17.0665   69.8487    9.2049 H   0  0  0  0  0  0
   16.0331   69.2452    7.0317 H   0  0  0  0  0  0
   15.8508   67.8561    2.5209 H   0  0  0  0  0  0
   17.6535   69.2641    1.5663 H   0  0  0  0  0  0
   18.0762   67.7220    6.2012 H   0  0  0  0  0  0
   19.9589   69.0228    6.3378 H   0  0  0  0  0  0
   22.0716   70.8918    6.4377 H   0  0  0  0  0  0
   23.2879   69.9348    5.5880 H   0  0  0  0  0  0
   22.2562   69.1628    6.7937 H   0  0  0  0  0  0
  1  5  1  0  0  0
  1  2  2  0  0  0
  1 31  1  0  0  0
  2  3  1  0  0  0
  2 32  1  0  0  0
  3  4  2  0  0  0
  3 33  1  0  0  0
  4  6  1  0  0  0
  5  6  2  0  0  0
  5  9  1  0  0  0
  6  7  1  0  0  0
  7  8  2  0  0  0
  7 10  1  0  0  0
  8  9  1  0  0  0
  8 16  1  0  0  0
  9 34  1  0  0  0
 10 11  2  0  0  0
 10 15  1  0  0  0
 11 12  1  0  0  0
 12 13  2  0  0  0
 12 35  1  0  0  0
 13 14  1  0  0  0
 13 26  1  0  0  0
 14 15  2  0  0  0
 14 36  1  0  0  0
 15 37  1  0  0  0
 16 17  2  0  0  0
 16 21  1  0  0  0
 17 18  1  0  0  0
 17 38  1  0  0  0
 18 19  2  0  0  0
 18 39  1  0  0  0
 19 20  1  0  0  0
 20 21  2  0  0  0
 20 22  1  0  0  0
 21 40  1  0  0  0
 22 23  1  0  0  0
 22 41  1  0  0  0
 23 24  1  0  0  0
 23 25  2  0  0  0
 24 42  1  0  0  0
 24 43  1  0  0  0
 24 44  1  0  0  0
 26 27  1  0  0  0
 27 28  1  0  0  0
 27 29  1  0  0  0
 27 30  1  0  0  0
M  ISO  3  28   2  29   2  30   2
M  END
> <s_m_entry_id>
34700

> <s_m_entry_name>
dock_pv.443

> <s_m_Source_Path>
/home/csk/Desktop/cluster/DUD-E-result/tgfr1

> <s_m_Source_File>
dock_pv.maegz

> <i_m_Source_File_Index>
443

> <chembl_id>
CHEMBL4280731

> <chembl_pref_name>
None

> <i_lp_mmshare_version>
53161

> <r_lp_tautomer_probability>
0.999991217065141

> <s_lp_Force_Field>
OPLS_2005

> <r_lp_Energy>
18.388689

> <b_lp_Chiralities_Consistent>
1

> <s_lp_Variant>
CHEMBL4439_lig838-1

> <s_i_glide_gridfile>
glide-grid_3hmm

> <i_i_glide_lignum>
1156

> <i_i_glide_rotatable_bonds>
5

> <r_i_docking_score>
-7.33925832435121

> <r_i_glide_ligand_efficiency>
-0.271824382383378

> <r_i_glide_ligand_efficiency_sa>
-0.815473146254245

> <r_i_glide_ligand_efficiency_ln>
-1.70845834077904

> <r_i_glide_gscore>
-7.33925832435121

> <r_i_glide_lipo>
-3.85822829189427

> <r_i_glide_hbond>
-0.0259640383887201

> <r_i_glide_metal>
0

> <r_i_glide_rewards>
-1.23635943420322

> <r_i_glide_evdw>
-47.5490837097168

> <r_i_glide_ecoul>
-1.90970599651337

> <r_i_glide_erotb>
0.44520352509784

> <r_i_glide_esite>
0

> <r_i_glide_emodel>
-67.6164244705185

> <r_i_glide_energy>
-49.4587897062302

> <r_i_glide_einternal>
4.81743097305298

> <i_i_glide_confnum>
15

> <i_i_glide_posenum>
36

> <r_i_glide_eff_state_penalty>
0

> <s_user_duplicate_titles>
CHEMBL4439_lig838,CHEMBL4439_lig841

> <i_f3d_flags>
0

> <s_m_subgroup_title>
dock_pv

> <s_m_subgroupid>
dock_pv

> <b_m_subgroup_collapsed>
1

$$$$
CHEMBL4439_lig550
                    3D
 Schrodinger Suite 2021-1.
 47 51  0  0  1  0            999 V2000
   19.5256   67.7875   10.6040 C   0  0  0  0  0  0
   20.4635   68.7419   10.2190 C   0  0  0  0  0  0
   20.2670   69.4144    9.0136 C   0  0  0  0  0  0
   19.1853   69.1961    8.2167 N   0  0  0  0  0  0
   18.3087   68.2109    8.5590 C   0  0  0  0  0  0
   18.4514   67.4998    9.7628 C   0  0  0  0  0  0
   17.1798   67.9088    7.5990 C   0  0  0  0  0  0
   19.4483   68.5058    5.3034 C   0  0  0  0  0  0
   18.0674   68.4570    5.0805 C   0  0  0  0  0  0
   17.6044   68.7975    3.7904 C   0  0  0  0  0  0
   18.4615   69.1790    2.7549 C   0  0  0  0  0  0
   20.2661   68.9753    4.3167 N   0  0  0  0  0  0
   19.8281   69.2802    3.0345 C   0  0  0  0  0  0
   20.8985   69.6570    2.2927 N   0  0  0  0  0  0
   21.8669   69.6550    3.1895 C   0  0  0  0  0  0
   21.5759   69.2570    4.4125 N   0  0  0  0  0  0
   17.1044   68.0570    6.1809 C   0  0  0  0  0  0
   16.0809   67.3954    8.1456 N   0  0  0  0  0  0
   15.1318   67.1210    7.2990 C   0  0  0  0  0  0
   15.4670   67.6570    5.7079 S   0  0  0  0  0  0
   21.2939   70.4194    8.5287 C   0  0  0  0  0  0
   13.9975   66.4166    7.6320 N   0  0  0  0  0  0
   12.9180   65.8306    6.8193 C   0  0  0  0  0  0
   13.2805   64.8740    5.6560 C   0  0  0  0  0  0
   14.5884   64.7212    5.1760 C   0  0  0  0  0  0
   14.8499   64.0570    3.9858 C   0  0  0  0  0  0
   13.8241   63.3824    3.3351 C   0  0  0  0  0  0
   12.5442   63.3825    3.8733 C   0  0  0  0  0  0
   12.2694   64.1327    5.0151 C   0  0  0  0  0  0
   10.6670   64.0570    5.6319 Cl  0  0  0  0  0  0
   19.6482   67.2570   11.5360 H   0  0  0  0  0  0
   21.3230   68.9506   10.8385 H   0  0  0  0  0  0
   17.7492   66.7298   10.0448 H   0  0  0  0  0  0
   19.9485   68.2139    6.2088 H   0  0  0  0  0  0
   16.5511   68.7781    3.5568 H   0  0  0  0  0  0
   18.0842   69.4313    1.7757 H   0  0  0  0  0  0
   22.8749   69.9456    2.9262 H   0  0  0  0  0  0
   21.3506   71.2570    9.2252 H   0  0  0  0  0  0
   22.2800   69.9560    8.4818 H   0  0  0  0  0  0
   21.0670   70.7983    7.5310 H   0  0  0  0  0  0
   13.7104   66.4860    8.5972 H   0  0  0  0  0  0
   12.3038   66.6424    6.4314 H   0  0  0  0  0  0
   12.2670   65.2904    7.5078 H   0  0  0  0  0  0
   15.4424   65.0995    5.7055 H   0  0  0  0  0  0
   15.8594   63.9995    3.6048 H   0  0  0  0  0  0
   14.0226   62.8329    2.4320 H   0  0  0  0  0  0
   11.7583   62.8275    3.3823 H   0  0  0  0  0  0
  1  6  1  0  0  0
  1  2  2  0  0  0
  1 31  1  0  0  0
  2  3  1  0  0  0
  2 32  1  0  0  0
  3 21  1  0  0  0
  3  4  2  0  0  0
  4  5  1  0  0  0
  5  6  2  0  0  0
  5  7  1  0  0  0
  6 33  1  0  0  0
  7 17  2  0  0  0
  7 18  1  0  0  0
  8 12  1  0  0  0
  8  9  2  0  0  0
  8 34  1  0  0  0
  9 17  1  0  0  0
  9 10  1  0  0  0
 10 11  2  0  0  0
 10 35  1  0  0  0
 11 13  1  0  0  0
 11 36  1  0  0  0
 12 16  1  0  0  0
 12 13  1  0  0  0
 13 14  2  0  0  0
 14 15  1  0  0  0
 15 16  2  0  0  0
 15 37  1  0  0  0
 17 20  1  0  0  0
 18 19  2  0  0  0
 19 20  1  0  0  0
 19 22  1  0  0  0
 21 38  1  0  0  0
 21 39  1  0  0  0
 21 40  1  0  0  0
 22 23  1  0  0  0
 22 41  1  0  0  0
 23 24  1  0  0  0
 23 42  1  0  0  0
 23 43  1  0  0  0
 24 25  2  0  0  0
 24 29  1  0  0  0
 25 26  1  0  0  0
 25 44  1  0  0  0
 26 27  2  0  0  0
 26 45  1  0  0  0
 27 28  1  0  0  0
 27 46  1  0  0  0
 28 29  2  0  0  0
 28 47  1  0  0  0
 29 30  1  0  0  0
M  END
> <s_m_entry_id>
34701

> <s_m_entry_name>
dock_pv.444

> <s_m_Source_Path>
/home/csk/Desktop/cluster/DUD-E-result/tgfr1

> <s_m_Source_File>
dock_pv.maegz

> <i_m_Source_File_Index>
444

> <chembl_id>
CHEMBL2087979

> <chembl_pref_name>
None

> <i_lp_mmshare_version>
53161

> <r_lp_tautomer_probability>
1

> <s_lp_Force_Field>
OPLS_2005

> <r_lp_Energy>
13.73834

> <b_lp_Chiralities_Consistent>
1

> <s_lp_Variant>
CHEMBL4439_lig550-1

> <s_i_glide_gridfile>
glide-grid_3hmm

> <i_i_glide_lignum>
729

> <i_i_glide_rotatable_bonds>
5

> <r_i_docking_score>
-7.3390244199467

> <r_i_glide_ligand_efficiency>
-0.244634147331557

> <r_i_glide_ligand_efficiency_sa>
-0.760135173793128

> <r_i_glide_ligand_efficiency_ln>
-1.66750631328765

> <r_i_glide_gscore>
-7.3390244199467

> <r_i_glide_lipo>
-4.48257941869131

> <r_i_glide_hbond>
0

> <r_i_glide_metal>
0

> <r_i_glide_rewards>
-1.2188125958149

> <r_i_glide_evdw>
-50.8338279724121

> <r_i_glide_ecoul>
2.48742651939392

> <r_i_glide_erotb>
0.530945015271024

> <r_i_glide_esite>
0

> <r_i_glide_emodel>
-69.7766139709475

> <r_i_glide_energy>
-48.3464014530182

> <r_i_glide_einternal>
4.6944408416748

> <i_i_glide_confnum>
139

> <i_i_glide_posenum>
156

> <r_i_glide_eff_state_penalty>
0

> <s_user_duplicate_titles>
CHEMBL4439_lig550

> <i_f3d_flags>
0

> <s_m_subgroup_title>
dock_pv

> <s_m_subgroupid>
dock_pv

> <b_m_subgroup_collapsed>
1

$$$$
CHEMBL4439_lig209
                    3D
 Schrodinger Suite 2021-1.
 48 51  0  0  1  0            999 V2000
   17.3951   67.8494    7.2455 C   0  0  0  0  0  0
   18.0812   68.2884    6.0844 C   0  0  0  0  0  0
   17.3328   68.1369    5.0006 N   0  0  0  0  0  0
   16.2012   67.6574    5.4157 C   0  0  0  0  0  0
   16.1757   67.3978    6.7635 N   0  0  0  0  0  0
   17.7792   67.8174    8.7021 C   0  0  0  0  0  0
   16.8610   68.1343    9.7140 C   0  0  0  0  0  0
   17.2237   68.0578   11.0548 C   0  0  0  0  0  0
   18.5369   67.7632   11.3965 C   0  0  0  0  0  0
   19.4678   67.4891   10.4053 C   0  0  0  0  0  0
   19.0840   67.4660    9.0677 C   0  0  0  0  0  0
   19.4303   68.9264    5.9123 C   0  0  0  0  0  0
   20.0738   68.9899    4.6652 C   0  0  0  0  0  0
   21.3047   69.6448    4.6104 C   0  0  0  0  0  0
   21.8805   70.1924    5.7074 N   0  0  0  0  0  0
   21.2102   70.0589    6.8743 C   0  0  0  0  0  0
   19.9891   69.4749    7.0237 N   0  0  0  0  0  0
   18.9035   67.7487   12.6973 F   0  0  0  0  0  0
   15.0564   66.8320    7.5259 C   0  0  0  0  0  0
   14.0212   66.0394    6.7384 C   0  0  0  0  0  0
   14.3960   65.1641    5.7146 C   0  0  0  0  0  0
   13.4308   64.5139    4.9337 C   0  0  0  0  0  0
   12.0766   64.7125    5.2360 C   0  0  0  0  0  0
   11.7095   65.5405    6.2884 C   0  0  0  0  0  0
   12.6724   66.1984    7.0403 C   0  0  0  0  0  0
   13.8669   63.6570    3.7770 C   0  0  0  0  0  0
   12.9553   62.8571    3.2306 N   0  0  0  0  0  0
   15.0230   63.6726    3.3730 O   0  0  0  0  0  0
   21.8687   70.5812    7.9691 O   0  0  0  0  0  0
   21.2919   70.4572    9.2672 C   0  0  0  0  0  0
   15.3458   67.4450    4.7912 H   0  0  0  0  0  0
   15.8588   68.4542    9.4818 H   0  0  0  0  0  0
   16.5031   68.2694   11.8290 H   0  0  0  0  0  0
   20.4856   67.2575   10.6762 H   0  0  0  0  0  0
   19.8106   67.2022    8.3140 H   0  0  0  0  0  0
   19.6395   68.5580    3.7753 H   0  0  0  0  0  0
   21.8548   69.7275    3.6832 H   0  0  0  0  0  0
   14.5519   67.6704    8.0035 H   0  0  0  0  0  0
   15.4625   66.1884    8.3067 H   0  0  0  0  0  0
   15.4461   65.0220    5.4977 H   0  0  0  0  0  0
   11.2906   64.2524    4.6550 H   0  0  0  0  0  0
   10.6671   65.6996    6.4973 H   0  0  0  0  0  0
   12.3588   66.8554    7.8379 H   0  0  0  0  0  0
   13.2198   62.2582    2.4638 H   0  0  0  0  0  0
   11.9974   62.8991    3.5354 H   0  0  0  0  0  0
   21.8799   71.0341    9.9761 H   0  0  0  0  0  0
   20.2695   70.8337    9.3077 H   0  0  0  0  0  0
   21.3031   69.4194    9.5937 H   0  0  0  0  0  0
  1  5  1  0  0  0
  1  6  1  0  0  0
  1  2  2  0  0  0
  2 12  1  0  0  0
  2  3  1  0  0  0
  3  4  2  0  0  0
  4  5  1  0  0  0
  4 31  1  0  0  0
  5 19  1  0  0  0
  6  7  2  0  0  0
  6 11  1  0  0  0
  7  8  1  0  0  0
  7 32  1  0  0  0
  8  9  2  0  0  0
  8 33  1  0  0  0
  9 10  1  0  0  0
  9 18  1  0  0  0
 10 11  2  0  0  0
 10 34  1  0  0  0
 11 35  1  0  0  0
 12 13  2  0  0  0
 12 17  1  0  0  0
 13 14  1  0  0  0
 13 36  1  0  0  0
 14 15  2  0  0  0
 14 37  1  0  0  0
 15 16  1  0  0  0
 16 17  2  0  0  0
 16 29  1  0  0  0
 19 20  1  0  0  0
 19 38  1  0  0  0
 19 39  1  0  0  0
 20 21  2  0  0  0
 20 25  1  0  0  0
 21 22  1  0  0  0
 21 40  1  0  0  0
 22 23  2  0  0  0
 22 26  1  0  0  0
 23 24  1  0  0  0
 23 41  1  0  0  0
 24 25  2  0  0  0
 24 42  1  0  0  0
 25 43  1  0  0  0
 26 27  1  0  0  0
 26 28  2  0  0  0
 27 44  1  0  0  0
 27 45  1  0  0  0
 29 30  1  0  0  0
 30 46  1  0  0  0
 30 47  1  0  0  0
 30 48  1  0  0  0
M  END
> <s_m_entry_id>
34706

> <s_m_entry_name>
dock_pv.449

> <s_m_Source_Path>
/home/csk/Desktop/cluster/DUD-E-result/tgfr1

> <s_m_Source_File>
dock_pv.maegz

> <i_m_Source_File_Index>
449

> <chembl_id>
CHEMBL481757

> <chembl_pref_name>
None

> <i_lp_mmshare_version>
53161

> <r_lp_tautomer_probability>
1

> <s_lp_Force_Field>
OPLS_2005

> <r_lp_Energy>
20.554906

> <b_lp_Chiralities_Consistent>
1

> <s_lp_Variant>
CHEMBL4439_lig209-1

> <s_i_glide_gridfile>
glide-grid_3hmm

> <i_i_glide_lignum>
310

> <i_i_glide_rotatable_bonds>
6

> <r_i_docking_score>
-7.32713059682721

> <r_i_glide_ligand_efficiency>
-0.244237686560907

> <r_i_glide_ligand_efficiency_sa>
-0.758903278000627

> <r_i_glide_ligand_efficiency_ln>
-1.66480390708131

> <r_i_glide_gscore>
-7.32713059682721

> <r_i_glide_lipo>
-2.97143969314303

> <r_i_glide_hbond>
-0.103376525605468

> <r_i_glide_metal>
0

> <r_i_glide_rewards>
-2.11298982732953

> <r_i_glide_evdw>
-50.1247749328613

> <r_i_glide_ecoul>
-0.507909953594208

> <r_i_glide_erotb>
0.48256905867792

> <r_i_glide_esite>
-0.0394683697449068

> <r_i_glide_emodel>
-71.1050188027127

> <r_i_glide_energy>
-50.6326848864555

> <r_i_glide_einternal>
4.6437463760376

> <i_i_glide_confnum>
17

> <i_i_glide_posenum>
44

> <r_i_glide_eff_state_penalty>
0

> <s_user_duplicate_titles>
CHEMBL4439_lig209

> <i_f3d_flags>
0

> <s_m_subgroup_title>
dock_pv

> <s_m_subgroupid>
dock_pv

> <b_m_subgroup_collapsed>
1

$$$$
CHEMBL4439_lig843
                    3D
 Schrodinger Suite 2021-1.
 43 46  0  0  1  0            999 V2000
   19.1414   69.2314    4.1290 C   0  0  0  0  0  0
   18.6669   69.2181    2.8162 C   0  0  0  0  0  0
   17.4654   68.5758    2.5177 C   0  0  0  0  0  0
   16.6925   67.9465    3.4413 N   0  0  0  0  0  0
   18.3300   68.5986    5.0785 C   0  0  0  0  0  0
   17.1155   67.9631    4.7141 C   0  0  0  0  0  0
   16.5169   67.4132    5.9075 C   0  0  0  0  0  0
   17.3643   67.7672    6.9838 C   0  0  0  0  0  0
   18.4390   68.4474    6.4382 N   0  0  0  0  0  0
   15.2436   66.6299    5.8918 C   0  0  0  0  0  0
   14.2667   67.0340    6.7440 N   0  0  0  0  0  0
   13.0980   66.3416    6.7573 C   0  0  0  0  0  0
   12.8458   65.2574    5.9120 C   0  0  0  0  0  0
   13.8488   64.8705    5.0173 C   0  0  0  0  0  0
   15.0617   65.5631    5.0035 C   0  0  0  0  0  0
   17.3120   67.5412    8.4826 C   0  0  0  0  0  0
   16.3181   66.7693    9.1011 C   0  0  0  0  0  0
   16.2678   66.6853   10.4915 C   0  0  0  0  0  0
   17.1941   67.2570   11.2944 N   0  0  0  0  0  0
   18.2259   67.9218   10.7094 C   0  0  0  0  0  0
   18.2901   68.1064    9.3231 C   0  0  0  0  0  0
   19.3288   68.3723   11.4539 N   0  0  0  0  0  0
   19.5159   68.3487   12.7888 C   0  0  0  0  0  0
   20.9157   68.7317   13.2487 C   0  0  0  0  0  0
   18.6675   68.0546   13.6322 O   0  0  0  0  0  0
   11.5039   64.5497    5.9422 C   0  0  0  0  0  0
   20.0711   69.7163    4.3904 H   0  0  0  0  0  0
   19.2317   69.6999    2.0298 H   0  0  0  0  0  0
   17.0940   68.5574    1.5032 H   0  0  0  0  0  0
   19.1924   68.7925    7.0137 H   0  0  0  0  0  0
   12.3452   66.6838    7.4520 H   0  0  0  0  0  0
   13.6906   64.0500    4.3315 H   0  0  0  0  0  0
   15.8424   65.2771    4.3141 H   0  0  0  0  0  0
   15.5857   66.2290    8.5368 H   0  0  0  0  0  0
   15.4878   66.1319   10.9937 H   0  0  0  0  0  0
   19.1114   68.6722    8.9114 H   0  0  0  0  0  0
   20.0859   68.7393   10.8996 H   0  0  0  0  0  0
   21.6188   67.9415   12.9847 H   0  0  0  0  0  0
   20.9448   68.8566   14.3308 H   0  0  0  0  0  0
   21.2426   69.6570   12.7748 H   0  0  0  0  0  0
   11.3499   63.9357    5.0551 H   0  0  0  0  0  0
   11.4149   63.9265    6.8313 H   0  0  0  0  0  0
   10.6972   65.2814    5.9680 H   0  0  0  0  0  0
  1  5  1  0  0  0
  1  2  2  0  0  0
  1 27  1  0  0  0
  2  3  1  0  0  0
  2 28  1  0  0  0
  3  4  2  0  0  0
  3 29  1  0  0  0
  4  6  1  0  0  0
  5  6  2  0  0  0
  5  9  1  0  0  0
  6  7  1  0  0  0
  7  8  2  0  0  0
  7 10  1  0  0  0
  8  9  1  0  0  0
  8 16  1  0  0  0
  9 30  1  0  0  0
 10 11  2  0  0  0
 10 15  1  0  0  0
 11 12  1  0  0  0
 12 13  2  0  0  0
 12 31  1  0  0  0
 13 14  1  0  0  0
 13 26  1  0  0  0
 14 15  2  0  0  0
 14 32  1  0  0  0
 15 33  1  0  0  0
 16 17  2  0  0  0
 16 21  1  0  0  0
 17 18  1  0  0  0
 17 34  1  0  0  0
 18 19  2  0  0  0
 18 35  1  0  0  0
 19 20  1  0  0  0
 20 21  2  0  0  0
 20 22  1  0  0  0
 21 36  1  0  0  0
 22 23  1  0  0  0
 22 37  1  0  0  0
 23 24  1  0  0  0
 23 25  2  0  0  0
 24 38  1  0  0  0
 24 39  1  0  0  0
 24 40  1  0  0  0
 26 41  1  0  0  0
 26 42  1  0  0  0
 26 43  1  0  0  0
M  END
> <s_m_entry_id>
34707

> <s_m_entry_name>
dock_pv.450

> <s_m_Source_Path>
/home/csk/Desktop/cluster/DUD-E-result/tgfr1

> <s_m_Source_File>
dock_pv.maegz

> <i_m_Source_File_Index>
450

> <chembl_id>
CHEMBL4285292

> <chembl_pref_name>
None

> <i_lp_mmshare_version>
53161

> <r_lp_tautomer_probability>
0.999991217065141

> <s_lp_Force_Field>
OPLS_2005

> <r_lp_Energy>
13.679949

> <b_lp_Chiralities_Consistent>
1

> <s_lp_Variant>
CHEMBL4439_lig843-1

> <s_i_glide_gridfile>
glide-grid_3hmm

> <i_i_glide_lignum>
1161

> <i_i_glide_rotatable_bonds>
4

> <r_i_docking_score>
-7.32568807795491

> <r_i_glide_ligand_efficiency>
-0.281757233767496

> <r_i_glide_ligand_efficiency_sa>
-0.834704696375029

> <r_i_glide_ligand_efficiency_ln>
-1.72041380756454

> <r_i_glide_gscore>
-7.32568807795491

> <r_i_glide_lipo>
-3.77629357243622

> <r_i_glide_hbond>
-0.0277811216099195

> <r_i_glide_metal>
0

> <r_i_glide_rewards>
-1.3151052012801

> <r_i_glide_evdw>
-47.7316932678223

> <r_i_glide_ecoul>
-1.7056337594986

> <r_i_glide_erotb>
0.482760829142613

> <r_i_glide_esite>
-0.046839284455377

> <r_i_glide_emodel>
-72.2615019116766

> <r_i_glide_energy>
-49.4373270273209

> <r_i_glide_einternal>
0.878759324550629

> <i_i_glide_confnum>
36

> <i_i_glide_posenum>
214

> <r_i_glide_eff_state_penalty>
0

> <s_user_duplicate_titles>
CHEMBL4439_lig843

> <i_f3d_flags>
0

> <s_m_subgroup_title>
dock_pv

> <s_m_subgroupid>
dock_pv

> <b_m_subgroup_collapsed>
1

$$$$
CHEMBL4439_lig314
                    3D
 Schrodinger Suite 2021-1.
 37 40  0  0  1  0            999 V2000
   17.2551   67.7303    6.8252 C   0  0  0  0  0  0
   16.4803   67.2975    5.8038 C   0  0  0  0  0  0
   17.1038   67.6565    4.6204 N   0  0  0  0  0  0
   18.2182   68.4076    4.9562 N   0  0  0  0  0  0
   18.3983   68.4566    6.2880 C   0  0  0  0  0  0
   19.3273   68.9975    6.8899 O   0  0  0  0  0  0
   19.1876   68.8826    3.9617 C   0  0  0  0  0  0
   16.3832   68.1773    3.4600 C   0  0  0  0  0  0
   15.1914   66.5554    5.8474 C   0  0  0  0  0  0
   14.2147   66.8676    6.7995 C   0  0  0  0  0  0
   12.9849   66.2170    6.8332 C   0  0  0  0  0  0
   14.9342   65.5347    4.9246 C   0  0  0  0  0  0
   13.6983   64.8512    4.9322 C   0  0  0  0  0  0
   12.6964   65.2231    5.8796 C   0  0  0  0  0  0
   11.4700   64.6300    5.8755 N   0  0  0  0  0  0
   11.2473   63.6790    4.9370 C   0  0  0  0  0  0
   12.2361   63.2850    4.0353 C   0  0  0  0  0  0
   13.4680   63.8529    4.0319 N   0  0  0  0  0  0
   17.0705   67.5544    8.2740 C   0  0  0  0  0  0
   16.4117   66.5232    8.9616 C   0  0  0  0  0  0
   16.4578   66.8229   10.3142 C   0  0  0  0  0  0
   17.1794   67.9508   10.5081 O   0  0  0  0  0  0
   17.5615   68.3754    9.2785 C   0  0  0  0  0  0
   20.1076   69.2636    4.4090 H   0  0  0  0  0  0
   19.4648   68.0683    3.2937 H   0  0  0  0  0  0
   18.7609   69.6863    3.3628 H   0  0  0  0  0  0
   15.3929   67.7353    3.3575 H   0  0  0  0  0  0
   16.2699   69.2559    3.5277 H   0  0  0  0  0  0
   16.9323   67.9588    2.5437 H   0  0  0  0  0  0
   14.3996   67.6587    7.5116 H   0  0  0  0  0  0
   12.2314   66.4714    7.5636 H   0  0  0  0  0  0
   15.6717   65.2589    4.1864 H   0  0  0  0  0  0
   10.2550   63.2573    4.9172 H   0  0  0  0  0  0
   12.0478   62.5368    3.2822 H   0  0  0  0  0  0
   15.9315   65.6706    8.5131 H   0  0  0  0  0  0
   16.0655   66.3535   11.2043 H   0  0  0  0  0  0
   18.1768   69.2571    9.2435 H   0  0  0  0  0  0
  1  2  2  0  0  0
  1 19  1  0  0  0
  1  5  1  0  0  0
  2  9  1  0  0  0
  2  3  1  0  0  0
  3  8  1  0  0  0
  3  4  1  0  0  0
  4  7  1  0  0  0
  4  5  1  0  0  0
  5  6  2  0  0  0
  7 24  1  0  0  0
  7 25  1  0  0  0
  7 26  1  0  0  0
  8 27  1  0  0  0
  8 28  1  0  0  0
  8 29  1  0  0  0
  9 12  1  0  0  0
  9 10  2  0  0  0
 10 11  1  0  0  0
 10 30  1  0  0  0
 11 14  2  0  0  0
 11 31  1  0  0  0
 12 13  2  0  0  0
 12 32  1  0  0  0
 13 14  1  0  0  0
 13 18  1  0  0  0
 14 15  1  0  0  0
 15 16  2  0  0  0
 16 17  1  0  0  0
 16 33  1  0  0  0
 17 18  2  0  0  0
 17 34  1  0  0  0
 19 20  1  0  0  0
 19 23  2  0  0  0
 20 21  2  0  0  0
 20 35  1  0  0  0
 21 22  1  0  0  0
 21 36  1  0  0  0
 22 23  1  0  0  0
 23 37  1  0  0  0
M  END
> <s_m_entry_id>
34708

> <s_m_entry_name>
dock_pv.451

> <s_m_Source_Path>
/home/csk/Desktop/cluster/DUD-E-result/tgfr1

> <s_m_Source_File>
dock_pv.maegz

> <i_m_Source_File_Index>
451

> <chembl_id>
CHEMBL609582

> <chembl_pref_name>
None

> <i_lp_mmshare_version>
53161

> <r_lp_tautomer_probability>
1

> <s_lp_Force_Field>
OPLS_2005

> <r_lp_Energy>
39.78715

> <b_lp_Chiralities_Consistent>
1

> <s_lp_Variant>
CHEMBL4439_lig314-1

> <s_i_glide_gridfile>
glide-grid_3hmm

> <i_i_glide_lignum>
446

> <i_i_glide_rotatable_bonds>
2

> <r_i_docking_score>
-7.32407332472635

> <r_i_glide_ligand_efficiency>
-0.318437970640276

> <r_i_glide_ligand_efficiency_sa>
-0.905595228888327

> <r_i_glide_ligand_efficiency_ln>
-1.77102734094401

> <r_i_glide_gscore>
-7.32407332472635

> <r_i_glide_lipo>
-3.55699200996963

> <r_i_glide_hbond>
0

> <r_i_glide_metal>
0

> <r_i_glide_rewards>
-2.07499147732623

> <r_i_glide_evdw>
-45.9997825622559

> <r_i_glide_ecoul>
1.42805302143097

> <r_i_glide_erotb>
0.393691337467661

> <r_i_glide_esite>
0

> <r_i_glide_emodel>
-63.7798763756376

> <r_i_glide_energy>
-44.5717295408249

> <r_i_glide_einternal>
0.651440620422363

> <i_i_glide_confnum>
9

> <i_i_glide_posenum>
162

> <r_i_glide_eff_state_penalty>
0

> <s_user_duplicate_titles>
CHEMBL4439_lig314,593956

> <i_f3d_flags>
0

> <s_m_subgroup_title>
dock_pv

> <s_m_subgroupid>
dock_pv

> <b_m_subgroup_collapsed>
1

$$$$
CHEMBL4439_lig847
                    3D
 Schrodinger Suite 2021-1.
 40 43  0  0  1  0            999 V2000
   12.9916   64.3773    4.3157 C   0  0  0  0  0  0
   11.9461   64.1749    5.2159 C   0  0  0  0  0  0
   11.9409   64.8580    6.4286 C   0  0  0  0  0  0
   12.9510   65.6618    6.8490 N   0  0  0  0  0  0
   13.9562   65.3171    4.6964 C   0  0  0  0  0  0
   13.9454   65.8963    5.9873 C   0  0  0  0  0  0
   15.1497   66.6660    6.1321 C   0  0  0  0  0  0
   15.6696   66.8167    4.8394 C   0  0  0  0  0  0
   14.9991   65.9178    4.0321 N   0  0  0  0  0  0
   15.6809   67.1972    7.4130 C   0  0  0  0  0  0
   15.9720   66.3152    8.4568 C   0  0  0  0  0  0
   16.5405   66.7008    9.6267 N   0  0  0  0  0  0
   16.8733   68.0097    9.7678 C   0  0  0  0  0  0
   16.6193   68.9515    8.7675 C   0  0  0  0  0  0
   15.9746   68.5437    7.6027 C   0  0  0  0  0  0
   16.7641   67.6824    4.2789 C   0  0  0  0  0  0
   16.6658   68.1517    2.9613 C   0  0  0  0  0  0
   17.6964   68.9275    2.4328 C   0  0  0  0  0  0
   18.8017   69.2587    3.1415 N   0  0  0  0  0  0
   18.8958   68.8394    4.4279 C   0  0  0  0  0  0
   17.8912   68.0570    5.0259 C   0  0  0  0  0  0
   20.0814   69.2382    5.0660 N   0  0  0  0  0  0
   20.3771   69.2574    6.3811 C   0  0  0  0  0  0
   21.7855   69.7206    6.7393 C   0  0  0  0  0  0
   19.6021   68.9584    7.2877 O   0  0  0  0  0  0
   17.4738   68.4064   10.9117 F   0  0  0  0  0  0
   12.9931   63.9130    3.3390 H   0  0  0  0  0  0
   11.1262   63.5189    4.9599 H   0  0  0  0  0  0
   11.1196   64.7305    7.1146 H   0  0  0  0  0  0
   15.2467   65.7858    3.0636 H   0  0  0  0  0  0
   15.8001   65.2583    8.3399 H   0  0  0  0  0  0
   16.9412   69.9769    8.8594 H   0  0  0  0  0  0
   15.7543   69.2567    6.8273 H   0  0  0  0  0  0
   15.8018   67.9270    2.3535 H   0  0  0  0  0  0
   17.6478   69.3018    1.4210 H   0  0  0  0  0  0
   18.0002   67.6888    6.0329 H   0  0  0  0  0  0
   20.7919   69.5850    4.4400 H   0  0  0  0  0  0
   22.3786   68.8729    7.0833 H   0  0  0  0  0  0
   21.7502   70.4587    7.5402 H   0  0  0  0  0  0
   22.3010   70.1696    5.8892 H   0  0  0  0  0  0
  1  5  1  0  0  0
  1  2  2  0  0  0
  1 27  1  0  0  0
  2  3  1  0  0  0
  2 28  1  0  0  0
  3  4  2  0  0  0
  3 29  1  0  0  0
  4  6  1  0  0  0
  5  6  2  0  0  0
  5  9  1  0  0  0
  6  7  1  0  0  0
  7  8  2  0  0  0
  7 10  1  0  0  0
  8  9  1  0  0  0
  8 16  1  0  0  0
  9 30  1  0  0  0
 10 11  2  0  0  0
 10 15  1  0  0  0
 11 12  1  0  0  0
 11 31  1  0  0  0
 12 13  2  0  0  0
 13 14  1  0  0  0
 13 26  1  0  0  0
 14 15  2  0  0  0
 14 32  1  0  0  0
 15 33  1  0  0  0
 16 17  2  0  0  0
 16 21  1  0  0  0
 17 18  1  0  0  0
 17 34  1  0  0  0
 18 19  2  0  0  0
 18 35  1  0  0  0
 19 20  1  0  0  0
 20 21  2  0  0  0
 20 22  1  0  0  0
 21 36  1  0  0  0
 22 23  1  0  0  0
 22 37  1  0  0  0
 23 24  1  0  0  0
 23 25  2  0  0  0
 24 38  1  0  0  0
 24 39  1  0  0  0
 24 40  1  0  0  0
M  END
> <s_m_entry_id>
34709

> <s_m_entry_name>
dock_pv.452

> <s_m_Source_Path>
/home/csk/Desktop/cluster/DUD-E-result/tgfr1

> <s_m_Source_File>
dock_pv.maegz

> <i_m_Source_File_Index>
452

> <chembl_id>
CHEMBL4289841

> <chembl_pref_name>
None

> <i_lp_mmshare_version>
53161

> <r_lp_tautomer_probability>
0.999991217065141

> <s_lp_Force_Field>
OPLS_2005

> <r_lp_Energy>
10.820485

> <b_lp_Chiralities_Consistent>
1

> <s_lp_Variant>
CHEMBL4439_lig847-1

> <s_i_glide_gridfile>
glide-grid_3hmm

> <i_i_glide_lignum>
1165

> <i_i_glide_rotatable_bonds>
4

> <r_i_docking_score>
-7.31838799560202

> <r_i_glide_ligand_efficiency>
-0.281476461369309

> <r_i_glide_ligand_efficiency_sa>
-0.833872909250183

> <r_i_glide_ligand_efficiency_ln>
-1.71869940717749

> <r_i_glide_gscore>
-7.31838799560202

> <r_i_glide_lipo>
-3.75170529550336

> <r_i_glide_hbond>
0

> <r_i_glide_metal>
0

> <r_i_glide_rewards>
-1.54028553867465

> <r_i_glide_evdw>
-46.3142852783203

> <r_i_glide_ecoul>
-1.22470414638519

> <r_i_glide_erotb>
0.473022724449781

> <r_i_glide_esite>
0

> <r_i_glide_emodel>
-64.7837217333306

> <r_i_glide_energy>
-47.5389894247055

> <r_i_glide_einternal>
5.53011512756348

> <i_i_glide_confnum>
42

> <i_i_glide_posenum>
345

> <r_i_glide_eff_state_penalty>
0

> <s_user_duplicate_titles>
CHEMBL4439_lig847

> <i_f3d_flags>
0

> <s_m_subgroup_title>
dock_pv

> <s_m_subgroupid>
dock_pv

> <b_m_subgroup_collapsed>
1

$$$$
CHEMBL4439_lig428
                    3D
 Schrodinger Suite 2021-1.
 39 42  0  0  1  0            999 V2000
   18.0268   68.3378    6.7124 C   0  0  0  0  0  0
   18.0245   68.6629    8.0320 N   0  0  0  0  0  0
   17.0120   68.1807    8.7771 C   0  0  0  0  0  0
   15.9769   67.4355    8.3229 N   0  0  0  0  0  0
   15.9632   67.1318    6.9929 C   0  0  0  0  0  0
   16.9978   67.5663    6.1511 C   0  0  0  0  0  0
   14.7880   66.3433    6.4926 C   0  0  0  0  0  0
   14.9277   65.4760    5.3940 C   0  0  0  0  0  0
   12.4198   65.7389    6.7090 C   0  0  0  0  0  0
   13.5416   66.4572    7.1252 C   0  0  0  0  0  0
   12.5587   64.8405    5.6396 C   0  0  0  0  0  0
   13.8154   64.7209    5.0041 C   0  0  0  0  0  0
   13.6395   63.7552    4.0311 N   0  0  0  0  0  0
   12.3865   63.2607    4.0253 N   0  0  0  0  0  0
   11.7267   63.9006    4.9549 C   0  0  0  0  0  0
   10.4129   63.6573    5.2302 N   0  0  0  0  0  0
   17.0651   68.4564   10.1328 N   0  0  0  0  0  0
   19.1109   68.8035    5.9523 N   0  0  0  0  0  0
   19.4217   68.4570    4.5625 C   0  0  0  0  0  0
   20.6826   69.2105    4.1376 C   0  0  0  0  0  0
   21.3081   69.6566    5.4457 C   0  0  0  0  0  0
   20.1232   69.7640    6.3943 C   0  0  0  0  0  0
   16.9956   67.3385    5.0963 H   0  0  0  0  0  0
   15.8673   65.3643    4.8826 H   0  0  0  0  0  0
   11.4764   65.8543    7.2240 H   0  0  0  0  0  0
   13.4441   67.1266    7.9682 H   0  0  0  0  0  0
   14.3179   63.4176    3.3641 H   0  0  0  0  0  0
    9.9072   64.1947    5.9216 H   0  0  0  0  0  0
    9.8827   62.9800    4.7044 H   0  0  0  0  0  0
   17.7265   69.1643   10.4329 H   0  0  0  0  0  0
   16.2860   68.1803   10.7089 H   0  0  0  0  0  0
   19.5737   67.3840    4.4457 H   0  0  0  0  0  0
   18.5914   68.7606    3.9234 H   0  0  0  0  0  0
   21.3693   68.5727    3.5814 H   0  0  0  0  0  0
   20.4285   70.0567    3.5049 H   0  0  0  0  0  0
   21.8518   70.5970    5.3509 H   0  0  0  0  0  0
   22.0151   68.9178    5.8253 H   0  0  0  0  0  0
   19.7158   70.7753    6.4332 H   0  0  0  0  0  0
   20.4577   69.4919    7.3976 H   0  0  0  0  0  0
  1  6  1  0  0  0
  1  2  2  0  0  0
  1 18  1  0  0  0
  2  3  1  0  0  0
  3  4  2  0  0  0
  3 17  1  0  0  0
  4  5  1  0  0  0
  5  7  1  0  0  0
  5  6  2  0  0  0
  6 23  1  0  0  0
  7  8  2  0  0  0
  7 10  1  0  0  0
  8 12  1  0  0  0
  8 24  1  0  0  0
  9 11  1  0  0  0
  9 10  2  0  0  0
  9 25  1  0  0  0
 10 26  1  0  0  0
 11 12  2  0  0  0
 11 15  1  0  0  0
 12 13  1  0  0  0
 13 14  1  0  0  0
 13 27  1  0  0  0
 14 15  2  0  0  0
 15 16  1  0  0  0
 16 28  1  0  0  0
 16 29  1  0  0  0
 17 30  1  0  0  0
 17 31  1  0  0  0
 18 19  1  0  0  0
 18 22  1  0  0  0
 19 20  1  0  0  0
 19 32  1  0  0  0
 19 33  1  0  0  0
 20 21  1  0  0  0
 20 34  1  0  0  0
 20 35  1  0  0  0
 21 22  1  0  0  0
 21 36  1  0  0  0
 21 37  1  0  0  0
 22 38  1  0  0  0
 22 39  1  0  0  0
M  END
> <s_m_entry_id>
34710

> <s_m_entry_name>
dock_pv.453

> <s_m_Source_Path>
/home/csk/Desktop/cluster/DUD-E-result/tgfr1

> <s_m_Source_File>
dock_pv.maegz

> <i_m_Source_File_Index>
453

> <chembl_id>
CHEMBL1765878

> <chembl_pref_name>
None

> <i_lp_mmshare_version>
53161

> <r_lp_tautomer_probability>
0.999999648617923

> <s_lp_Force_Field>
OPLS_2005

> <r_lp_Energy>
27.476796

> <b_lp_Chiralities_Consistent>
1

> <s_lp_Variant>
CHEMBL4439_lig428-1

> <s_i_glide_gridfile>
glide-grid_3hmm

> <i_i_glide_lignum>
568

> <i_i_glide_rotatable_bonds>
2

> <r_i_docking_score>
-7.31645249517754

> <r_i_glide_ligand_efficiency>
-0.33256602250807

> <r_i_glide_ligand_efficiency_sa>
-0.931863074147094

> <r_i_glide_ligand_efficiency_ln>
-1.78840786391046

> <r_i_glide_gscore>
-7.31645249517754

> <r_i_glide_lipo>
-2.79490356721236

> <r_i_glide_hbond>
-0.269093407992181

> <r_i_glide_metal>
0

> <r_i_glide_rewards>
-2.09075915790899

> <r_i_glide_evdw>
-46.4526062011719

> <r_i_glide_ecoul>
-1.72483623027802

> <r_i_glide_erotb>
0.419659382536284

> <r_i_glide_esite>
0

> <r_i_glide_emodel>
-69.3416217904996

> <r_i_glide_energy>
-48.1774424314499

> <r_i_glide_einternal>
1.10533237457275

> <i_i_glide_confnum>
8

> <i_i_glide_posenum>
54

> <r_i_glide_eff_state_penalty>
0

> <s_user_duplicate_titles>
CHEMBL4439_lig428

> <i_f3d_flags>
0

> <s_m_subgroup_title>
dock_pv

> <s_m_subgroupid>
dock_pv

> <b_m_subgroup_collapsed>
1

$$$$
CHEMBL4439_lig586
                    3D
 Schrodinger Suite 2021-1.
 49 52  0  0  1  0            999 V2000
   15.8230   66.4572    9.2122 S   0  0  0  0  0  0
   16.8052   67.3448    8.0952 C   0  0  0  0  0  0
   17.8044   67.9722    8.6774 N   0  0  0  0  0  0
   17.8379   67.8112    9.9870 C   0  0  0  0  0  0
   16.7987   67.0554   10.5127 C   0  0  0  0  0  0
   18.9909   68.4482   10.7288 C   0  0  0  0  0  0
   16.5959   67.3435    6.6293 C   0  0  0  0  0  0
   15.6130   66.7587    5.8144 C   0  0  0  0  0  0
   15.9973   67.0400    4.5324 N   0  0  0  0  0  0
   17.1638   67.7083    4.6086 C   0  0  0  0  0  0
   17.4835   67.9500    5.8570 N   0  0  0  0  0  0
   14.3779   65.9884    5.9934 C   0  0  0  0  0  0
   13.3769   66.4193    6.8616 C   0  0  0  0  0  0
   12.1156   65.8331    6.8320 C   0  0  0  0  0  0
   14.1818   64.9224    5.1103 C   0  0  0  0  0  0
   12.8995   64.4088    5.0085 C   0  0  0  0  0  0
   11.8668   64.8564    5.8628 C   0  0  0  0  0  0
   10.6664   64.2954    5.6260 N   0  0  0  0  0  0
   10.7045   63.5327    4.5783 C   0  0  0  0  0  0
   12.2616   63.2571    3.8601 S   0  0  0  0  0  0
   18.0122   67.9931    3.3863 C   0  0  0  0  0  0
   18.7575   69.2395    3.5500 N   0  0  0  0  0  0
   19.7948   69.3722    4.4251 C   0  0  0  0  0  0
   20.5344   68.1547    5.0046 C   0  0  0  0  0  0
   20.1663   70.4571    4.8320 O   0  0  0  0  0  0
   20.7979   68.2328    6.5310 C   0  0  0  0  0  0
   21.8983   69.2079    6.9859 C   0  0  0  0  0  0
   18.1453   70.3374    2.7935 C   0  0  0  0  0  0
   16.5899   66.8061   11.5433 H   0  0  0  0  0  0
   18.6694   68.8615   11.6793 H   0  0  0  0  0  0
   19.7672   67.7189   10.9471 H   0  0  0  0  0  0
   19.4673   69.2575   10.1719 H   0  0  0  0  0  0
   15.5267   66.7454    3.6892 H   0  0  0  0  0  0
   13.5542   67.2574    7.5206 H   0  0  0  0  0  0
   11.3233   66.1651    7.4862 H   0  0  0  0  0  0
   14.9557   64.5917    4.4309 H   0  0  0  0  0  0
    9.8311   63.0343    4.1893 H   0  0  0  0  0  0
   17.3901   68.0536    2.4908 H   0  0  0  0  0  0
   18.6683   67.1534    3.1842 H   0  0  0  0  0  0
   21.4647   68.0535    4.4585 H   0  0  0  0  0  0
   19.9809   67.2482    4.8192 H   0  0  0  0  0  0
   21.0666   67.2387    6.8712 H   0  0  0  0  0  0
   19.8798   68.4762    7.0603 H   0  0  0  0  0  0
   22.1236   69.0703    8.0434 H   0  0  0  0  0  0
   21.6107   70.2488    6.8589 H   0  0  0  0  0  0
   22.8242   69.0520    6.4334 H   0  0  0  0  0  0
   18.2668   71.3193    3.2319 H   0  0  0  0  0  0
   18.5412   70.3617    1.7787 H   0  0  0  0  0  0
   17.0671   70.1961    2.7170 H   0  0  0  0  0  0
  1  2  1  0  0  0
  1  5  1  0  0  0
  2  3  2  0  0  0
  2  7  1  0  0  0
  3  4  1  0  0  0
  4  5  2  0  0  0
  4  6  1  0  0  0
  5 29  1  0  0  0
  6 30  1  0  0  0
  6 31  1  0  0  0
  6 32  1  0  0  0
  7  8  2  0  0  0
  7 11  1  0  0  0
  8  9  1  0  0  0
  8 12  1  0  0  0
  9 10  1  0  0  0
  9 33  1  0  0  0
 10 11  2  0  0  0
 10 21  1  0  0  0
 12 13  2  0  0  0
 12 15  1  0  0  0
 13 14  1  0  0  0
 13 34  1  0  0  0
 14 17  2  0  0  0
 14 35  1  0  0  0
 15 16  2  0  0  0
 15 36  1  0  0  0
 16 17  1  0  0  0
 16 20  1  0  0  0
 17 18  1  0  0  0
 18 19  2  0  0  0
 19 20  1  0  0  0
 19 37  1  0  0  0
 21 22  1  0  0  0
 21 38  1  0  0  0
 21 39  1  0  0  0
 22 23  1  0  0  0
 22 28  1  0  0  0
 23 24  1  0  0  0
 23 25  2  0  0  0
 24 26  1  0  0  0
 24 40  1  0  0  0
 24 41  1  0  0  0
 26 27  1  0  0  0
 26 42  1  0  0  0
 26 43  1  0  0  0
 27 44  1  0  0  0
 27 45  1  0  0  0
 27 46  1  0  0  0
 28 47  1  0  0  0
 28 48  1  0  0  0
 28 49  1  0  0  0
M  END
> <s_m_entry_id>
34712

> <s_m_entry_name>
dock_pv.455

> <s_m_Source_Path>
/home/csk/Desktop/cluster/DUD-E-result/tgfr1

> <s_m_Source_File>
dock_pv.maegz

> <i_m_Source_File_Index>
455

> <chembl_id>
CHEMBL2208004

> <chembl_pref_name>
None

> <i_lp_mmshare_version>
53161

> <r_lp_tautomer_probability>
0.499999999999999

> <s_lp_Force_Field>
OPLS_2005

> <r_lp_Energy>
19.034405

> <b_lp_Chiralities_Consistent>
1

> <s_lp_Variant>
CHEMBL4439_lig586-1

> <s_i_glide_gridfile>
glide-grid_3hmm

> <i_i_glide_lignum>
785

> <i_i_glide_rotatable_bonds>
7

> <r_i_docking_score>
-7.31398514551311

> <r_i_glide_ligand_efficiency>
-0.261213755196897

> <r_i_glide_ligand_efficiency_sa>
-0.793198807452092

> <r_i_glide_ligand_efficiency_ln>
-1.68828251951968

> <r_i_glide_gscore>
-7.31398514551311

> <r_i_glide_lipo>
-3.66992361663559

> <r_i_glide_hbond>
0

> <r_i_glide_metal>
0

> <r_i_glide_rewards>
-1.68179905409196

> <r_i_glide_evdw>
-47.7520637512207

> <r_i_glide_ecoul>
-1.81943809986115

> <r_i_glide_erotb>
0.698256427754651

> <r_i_glide_esite>
0

> <r_i_glide_emodel>
-60.4386272863229

> <r_i_glide_energy>
-49.5715018510818

> <r_i_glide_einternal>
9.451904296875

> <i_i_glide_confnum>
25

> <i_i_glide_posenum>
11

> <r_i_glide_eff_state_penalty>
0

> <s_user_duplicate_titles>
CHEMBL4439_lig586

> <i_f3d_flags>
0

> <s_m_subgroup_title>
dock_pv

> <s_m_subgroupid>
dock_pv

> <b_m_subgroup_collapsed>
1

$$$$
CHEMBL4439_lig799
                    3D
 Schrodinger Suite 2021-1.
 48 51  0  0  1  0            999 V2000
   18.0413   67.8684    8.8010 C   0  0  0  0  0  0
   16.8240   67.6782    9.4656 C   0  0  0  0  0  0
   16.7991   67.6562   10.8601 C   0  0  0  0  0  0
   17.8829   67.8411   11.6571 N   0  0  0  0  0  0
   18.1823   67.9378    7.4069 N   0  0  0  0  0  0
   17.3593   67.6568    6.3050 C   0  0  0  0  0  0
   17.6989   68.2046    5.0532 C   0  0  0  0  0  0
   16.9006   67.8876    3.9533 C   0  0  0  0  0  0
   15.8365   67.0560    4.0302 N   0  0  0  0  0  0
   15.5261   66.4979    5.2283 C   0  0  0  0  0  0
   16.2649   66.7812    6.3836 C   0  0  0  0  0  0
   14.3641   65.5641    5.2074 C   0  0  0  0  0  0
   14.2641   64.5824    4.2083 C   0  0  0  0  0  0
   13.1389   63.7678    4.1053 C   0  0  0  0  0  0
   12.0946   63.9110    5.0149 C   0  0  0  0  0  0
   12.1898   64.8574    6.0335 C   0  0  0  0  0  0
   13.3218   65.6655    6.1432 C   0  0  0  0  0  0
   13.3828   66.5633    7.1541 F   0  0  0  0  0  0
   19.1812   68.0627    9.6064 C   0  0  0  0  0  0
   19.0392   68.0549   11.0274 C   0  0  0  0  0  0
   20.3378   68.3347   11.5168 C   0  0  0  0  0  0
   21.1261   68.4674   10.3960 N   0  0  0  0  0  0
   20.4790   68.2812    9.2280 N   0  0  0  0  0  0
   13.0562   62.8570    3.1134 F   0  0  0  0  0  0
   22.5592   68.7619   10.3702 C   0  0  0  0  0  0
   22.9170   70.1486    9.7738 C   0  0  1  0  0  0
   18.8958   69.1322    4.8602 C   0  0  0  0  0  0
   22.6655   70.3041    8.2696 C   0  0  0  0  0  0
   22.2209   71.1841   10.4320 O   0  0  0  0  0  0
   15.8945   67.5875    8.9290 H   0  0  0  0  0  0
   15.8668   67.5110   11.3785 H   0  0  0  0  0  0
   19.0918   68.2849    7.1408 H   0  0  0  0  0  0
   17.1127   68.2920    2.9741 H   0  0  0  0  0  0
   16.0174   66.2756    7.3015 H   0  0  0  0  0  0
   15.0551   64.4562    3.4861 H   0  0  0  0  0  0
   11.2145   63.2913    4.9297 H   0  0  0  0  0  0
   11.3869   64.9661    6.7462 H   0  0  0  0  0  0
   20.7586   68.4472   12.5030 H   0  0  0  0  0  0
   23.0581   67.9684    9.8129 H   0  0  0  0  0  0
   22.9391   68.6957   11.3902 H   0  0  0  0  0  0
   23.9811   70.3194    9.9478 H   0  0  0  0  0  0
   18.8582   69.6546    3.9040 H   0  0  0  0  0  0
   18.9209   69.8950    5.6381 H   0  0  0  0  0  0
   19.8269   68.5684    4.9189 H   0  0  0  0  0  0
   23.1583   69.5182    7.6970 H   0  0  0  0  0  0
   23.0662   71.2567    7.9328 H   0  0  0  0  0  0
   21.6058   70.2933    8.0156 H   0  0  0  0  0  0
   22.3472   71.9943    9.9270 H   0  0  0  0  0  0
  1 19  1  0  0  0
  1  2  2  0  0  0
  1  5  1  0  0  0
  2  3  1  0  0  0
  2 30  1  0  0  0
  3  4  2  0  0  0
  3 31  1  0  0  0
  4 20  1  0  0  0
  5  6  1  0  0  0
  5 32  1  0  0  0
  6  7  2  0  0  0
  6 11  1  0  0  0
  7  8  1  0  0  0
  7 27  1  0  0  0
  8  9  2  0  0  0
  8 33  1  0  0  0
  9 10  1  0  0  0
 10 11  2  0  0  0
 10 12  1  0  0  0
 11 34  1  0  0  0
 12 13  2  0  0  0
 12 17  1  0  0  0
 13 14  1  0  0  0
 13 35  1  0  0  0
 14 15  2  0  0  0
 14 24  1  0  0  0
 15 16  1  0  0  0
 15 36  1  0  0  0
 16 17  2  0  0  0
 16 37  1  0  0  0
 17 18  1  0  0  0
 19 20  1  0  0  0
 19 23  2  0  0  0
 20 21  2  0  0  0
 21 22  1  0  0  0
 21 38  1  0  0  0
 22 23  1  0  0  0
 22 25  1  0  0  0
 25 26  1  0  0  0
 25 39  1  0  0  0
 25 40  1  0  0  0
 26 28  1  0  0  0
 26 29  1  0  0  0
 26 41  1  0  0  0
 27 42  1  0  0  0
 27 43  1  0  0  0
 27 44  1  0  0  0
 28 45  1  0  0  0
 28 46  1  0  0  0
 28 47  1  0  0  0
 29 48  1  0  0  0
M  END
> <s_m_entry_id>
34713

> <s_m_entry_name>
dock_pv.456

> <s_m_Source_Path>
/home/csk/Desktop/cluster/DUD-E-result/tgfr1

> <s_m_Source_File>
dock_pv.maegz

> <i_m_Source_File_Index>
456

> <chembl_id>
CHEMBL4088735

> <chembl_pref_name>
None

> <i_lp_mmshare_version>
53161

> <r_lp_tautomer_probability>
0.999999106000799

> <s_lp_Force_Field>
OPLS_2005

> <r_lp_Energy>
34.344315

> <b_lp_Chiralities_Consistent>
1

> <s_lp_Variant>
CHEMBL4439_lig799-2

> <s_i_glide_gridfile>
glide-grid_3hmm

> <i_i_glide_lignum>
1115

> <i_i_glide_rotatable_bonds>
6

> <r_i_docking_score>
-7.30894113917741

> <r_i_glide_ligand_efficiency>
-0.252032453075083

> <r_i_glide_ligand_efficiency_sa>
-0.774323545332331

> <r_i_glide_ligand_efficiency_ln>
-1.6735621821158

> <r_i_glide_gscore>
-7.30894113917741

> <r_i_glide_lipo>
-3.49622798479012

> <r_i_glide_hbond>
-0.0820304254542507

> <r_i_glide_metal>
0

> <r_i_glide_rewards>
-1.74040103329392

> <r_i_glide_evdw>
-50.4342155456543

> <r_i_glide_ecoul>
-0.626234173774719

> <r_i_glide_erotb>
0.625364207709802

> <r_i_glide_esite>
0

> <r_i_glide_emodel>
-72.0994592972325

> <r_i_glide_energy>
-51.060449719429

> <r_i_glide_einternal>
1.60557234287262

> <i_i_glide_confnum>
222

> <i_i_glide_posenum>
372

> <r_i_glide_eff_state_penalty>
0

> <s_user_duplicate_titles>
CHEMBL4439_lig799

> <i_f3d_flags>
0

> <s_m_subgroup_title>
dock_pv

> <s_m_subgroupid>
dock_pv

> <b_m_subgroup_collapsed>
1

$$$$
CHEMBL4439_lig509
                    3D
 Schrodinger Suite 2021-1.
 50 53  0  0  1  0            999 V2000
   17.6287   67.8789    9.9191 C   0  0  0  0  0  0
   17.1382   67.6567    8.5012 C   0  0  0  0  0  0
   16.0180   66.9456    8.1865 N   0  0  0  0  0  0
   15.9292   66.8868    6.8179 C   0  0  0  0  0  0
   17.0267   67.6616    6.3837 C   0  0  0  0  0  0
   17.7351   68.0930    7.4248 N   0  0  0  0  0  0
   17.4615   68.0570    4.9972 C   0  0  0  0  0  0
   18.7943   68.4570    4.7688 C   0  0  0  0  0  0
   16.9489   68.4572    2.6288 C   0  0  0  0  0  0
   16.5543   68.0677    3.9165 C   0  0  0  0  0  0
   18.2670   68.8583    2.4552 C   0  0  0  0  0  0
   19.1546   68.8622    3.4913 C   0  0  0  0  0  0
   20.3728   69.2661    3.0478 O   0  0  0  0  0  0
   20.1863   69.6570    1.7098 C   0  0  0  0  0  0
   18.8959   69.2569    1.3179 O   0  0  0  0  0  0
   14.8409   66.1422    6.1749 C   0  0  0  0  0  0
   13.6281   66.0732    6.6730 N   0  0  0  0  0  0
   12.8181   65.3239    5.9459 C   0  0  0  0  0  0
   13.3963   64.7285    4.8320 C   0  0  0  0  0  0
   15.0670   65.1743    4.7490 S   0  0  0  0  0  0
   11.3834   65.2217    6.3966 C   0  0  0  0  0  0
   18.9833   67.1687   10.1893 C   0  0  0  0  0  0
   20.2828   67.9142    9.8349 C   0  0  0  0  0  0
   20.2670   69.2570    9.7903 N   0  0  0  0  0  0
   21.3038   67.2570    9.6320 O   0  0  0  0  0  0
   21.4259   70.0993    9.4970 C   0  0  0  0  0  0
   22.4016   70.2378   10.6798 C   0  0  0  0  0  0
   23.4860   71.2968   10.4319 C   0  0  0  0  0  0
   16.8905   67.5013   10.6286 H   0  0  0  0  0  0
   17.6851   68.9482   10.1159 H   0  0  0  0  0  0
   15.3896   66.5130    8.8450 H   0  0  0  0  0  0
   19.5256   68.4565    5.5640 H   0  0  0  0  0  0
   16.2411   68.4576    1.8128 H   0  0  0  0  0  0
   15.5188   67.8114    4.0723 H   0  0  0  0  0  0
   20.9526   69.2384    1.0623 H   0  0  0  0  0  0
   20.2671   70.7360    1.6320 H   0  0  0  0  0  0
   12.9422   64.0952    4.0832 H   0  0  0  0  0  0
   10.6969   65.3445    5.5585 H   0  0  0  0  0  0
   11.1722   64.2454    6.8320 H   0  0  0  0  0  0
   11.1054   65.9750    7.1361 H   0  0  0  0  0  0
   18.9855   66.1646    9.7619 H   0  0  0  0  0  0
   19.0597   67.0001   11.2638 H   0  0  0  0  0  0
   19.4071   69.7490   10.0043 H   0  0  0  0  0  0
   21.0596   71.0908    9.2320 H   0  0  0  0  0  0
   21.9531   69.7594    8.6022 H   0  0  0  0  0  0
   22.8783   69.2754   10.8712 H   0  0  0  0  0  0
   21.8489   70.4877   11.5859 H   0  0  0  0  0  0
   24.1571   71.3827   11.2867 H   0  0  0  0  0  0
   23.0481   72.2802   10.2558 H   0  0  0  0  0  0
   24.0930   71.0497    9.5595 H   0  0  0  0  0  0
  1 22  1  0  0  0
  1 29  1  0  0  0
  1 30  1  0  0  0
  1  2  1  0  0  0
  2  3  1  0  0  0
  2  6  2  0  0  0
  3  4  1  0  0  0
  3 31  1  0  0  0
  4  5  2  0  0  0
  4 16  1  0  0  0
  5  7  1  0  0  0
  5  6  1  0  0  0
  7  8  2  0  0  0
  7 10  1  0  0  0
  8 12  1  0  0  0
  8 32  1  0  0  0
  9 11  1  0  0  0
  9 10  2  0  0  0
  9 33  1  0  0  0
 10 34  1  0  0  0
 11 15  1  0  0  0
 11 12  2  0  0  0
 12 13  1  0  0  0
 13 14  1  0  0  0
 14 15  1  0  0  0
 14 35  1  0  0  0
 14 36  1  0  0  0
 16 17  2  0  0  0
 16 20  1  0  0  0
 17 18  1  0  0  0
 18 19  2  0  0  0
 18 21  1  0  0  0
 19 20  1  0  0  0
 19 37  1  0  0  0
 21 38  1  0  0  0
 21 39  1  0  0  0
 21 40  1  0  0  0
 22 23  1  0  0  0
 22 41  1  0  0  0
 22 42  1  0  0  0
 23 24  1  0  0  0
 23 25  2  0  0  0
 24 26  1  0  0  0
 24 43  1  0  0  0
 26 27  1  0  0  0
 26 44  1  0  0  0
 26 45  1  0  0  0
 27 28  1  0  0  0
 27 46  1  0  0  0
 27 47  1  0  0  0
 28 48  1  0  0  0
 28 49  1  0  0  0
 28 50  1  0  0  0
M  END
> <s_m_entry_id>
34714

> <s_m_entry_name>
dock_pv.457

> <s_m_Source_Path>
/home/csk/Desktop/cluster/DUD-E-result/tgfr1

> <s_m_Source_File>
dock_pv.maegz

> <i_m_Source_File_Index>
457

> <chembl_id>
CHEMBL1957665

> <chembl_pref_name>
None

> <i_lp_mmshare_version>
53161

> <r_lp_tautomer_probability>
0.499999999999999

> <s_lp_Force_Field>
OPLS_2005

> <r_lp_Energy>
18.957591

> <b_lp_Chiralities_Consistent>
1

> <s_lp_Variant>
CHEMBL4439_lig509-2

> <s_i_glide_gridfile>
glide-grid_3hmm

> <i_i_glide_lignum>
673

> <i_i_glide_rotatable_bonds>
8

> <r_i_docking_score>
-7.3073507086445

> <r_i_glide_ligand_efficiency>
-0.260976811023018

> <r_i_glide_ligand_efficiency_sa>
-0.792479305387541

> <r_i_glide_ligand_efficiency_ln>
-1.68675109669487

> <r_i_glide_gscore>
-7.3073507086445

> <r_i_glide_lipo>
-3.18058501478235

> <r_i_glide_hbond>
-0.577260176652753

> <r_i_glide_metal>
0

> <r_i_glide_rewards>
-1.29045952988313

> <r_i_glide_evdw>
-47.4262313842773

> <r_i_glide_ecoul>
-4.98348093032837

> <r_i_glide_erotb>
0.863396899926037

> <r_i_glide_esite>
-0.00360917848918176

> <r_i_glide_emodel>
-72.6781664836517

> <r_i_glide_energy>
-52.4097123146057

> <r_i_glide_einternal>
5.35743093490601

> <i_i_glide_confnum>
70

> <i_i_glide_posenum>
212

> <r_i_glide_eff_state_penalty>
0

> <s_user_duplicate_titles>
CHEMBL4439_lig509

> <i_f3d_flags>
0

> <s_m_subgroup_title>
dock_pv

> <s_m_subgroupid>
dock_pv

> <b_m_subgroup_collapsed>
1

$$$$
CHEMBL4439_lig585
                    3D
 Schrodinger Suite 2021-1.
 47 50  0  0  1  0            999 V2000
   15.4669   67.6570    3.6048 S   0  0  0  0  0  0
   16.7599   67.8950    4.7336 C   0  0  0  0  0  0
   17.8250   68.4569    4.1989 N   0  0  0  0  0  0
   17.6667   68.7571    2.9212 C   0  0  0  0  0  0
   16.4186   68.4556    2.3988 C   0  0  0  0  0  0
   18.8306   69.3921    2.1997 C   0  0  0  0  0  0
   16.6423   67.5637    6.1688 C   0  0  0  0  0  0
   15.6700   66.8025    6.8497 C   0  0  0  0  0  0
   16.0510   66.8896    8.1642 N   0  0  0  0  0  0
   17.1914   67.6371    8.2099 C   0  0  0  0  0  0
   17.5325   68.0575    7.0204 N   0  0  0  0  0  0
   14.4705   66.0356    6.4069 C   0  0  0  0  0  0
   13.2113   66.3052    6.9543 C   0  0  0  0  0  0
   12.0601   65.6569    6.4968 C   0  0  0  0  0  0
   14.6168   65.0765    5.4015 C   0  0  0  0  0  0
   13.4673   64.4420    4.9168 C   0  0  0  0  0  0
   12.1854   64.7273    5.4563 C   0  0  0  0  0  0
   11.1553   64.0406    4.8921 N   0  0  0  0  0  0
   11.5854   63.2572    3.9439 C   0  0  0  0  0  0
   13.3005   63.2570    3.6321 S   0  0  0  0  0  0
   17.9689   67.9074    9.4819 C   0  0  0  0  0  0
   19.0828   66.9722    9.6378 N   0  0  1  0  0  0
   20.2235   67.1844    8.7469 C   0  0  0  0  0  0
   21.3109   68.1108    9.3383 C   0  0  0  0  0  0
   20.8966   69.5781    9.5762 C   0  0  0  0  0  0
   22.0836   70.5057    9.8721 C   0  0  0  0  0  0
   16.0391   68.6168    1.4002 H   0  0  0  0  0  0
   18.9546   68.9787    1.1987 H   0  0  0  0  0  0
   18.6675   70.4611    2.0756 H   0  0  0  0  0  0
   19.7829   69.2595    2.7155 H   0  0  0  0  0  0
   15.5978   66.4569    8.9533 H   0  0  0  0  0  0
   13.1168   67.0478    7.7330 H   0  0  0  0  0  0
   11.0876   65.8781    6.9187 H   0  0  0  0  0  0
   15.5865   64.8678    4.9734 H   0  0  0  0  0  0
   10.9248   62.6622    3.3302 H   0  0  0  0  0  0
   17.3164   67.8132   10.3513 H   0  0  0  0  0  0
   18.3181   68.9387    9.4928 H   0  0  0  0  0  0
   19.4014   66.9307   10.5984 H   0  0  0  0  0  0
   19.9079   67.5515    7.7712 H   0  0  0  0  0  0
   20.6652   66.2053    8.5643 H   0  0  0  0  0  0
   22.1526   68.1030    8.6436 H   0  0  0  0  0  0
   21.6943   67.6840   10.2659 H   0  0  0  0  0  0
   20.2024   69.6338   10.4141 H   0  0  0  0  0  0
   20.3635   69.9577    8.7030 H   0  0  0  0  0  0
   21.7431   71.5281   10.0411 H   0  0  0  0  0  0
   22.7867   70.5320    9.0376 H   0  0  0  0  0  0
   22.6281   70.1847   10.7604 H   0  0  0  0  0  0
  1  2  1  0  0  0
  1  5  1  0  0  0
  2  3  2  0  0  0
  2  7  1  0  0  0
  3  4  1  0  0  0
  4  5  2  0  0  0
  4  6  1  0  0  0
  5 27  1  0  0  0
  6 28  1  0  0  0
  6 29  1  0  0  0
  6 30  1  0  0  0
  7  8  2  0  0  0
  7 11  1  0  0  0
  8  9  1  0  0  0
  8 12  1  0  0  0
  9 10  1  0  0  0
  9 31  1  0  0  0
 10 11  2  0  0  0
 10 21  1  0  0  0
 12 13  2  0  0  0
 12 15  1  0  0  0
 13 14  1  0  0  0
 13 32  1  0  0  0
 14 17  2  0  0  0
 14 33  1  0  0  0
 15 16  2  0  0  0
 15 34  1  0  0  0
 16 17  1  0  0  0
 16 20  1  0  0  0
 17 18  1  0  0  0
 18 19  2  0  0  0
 19 20  1  0  0  0
 19 35  1  0  0  0
 21 22  1  0  0  0
 21 36  1  0  0  0
 21 37  1  0  0  0
 22 23  1  0  0  0
 22 38  1  0  0  0
 23 24  1  0  0  0
 23 39  1  0  0  0
 23 40  1  0  0  0
 24 25  1  0  0  0
 24 41  1  0  0  0
 24 42  1  0  0  0
 25 26  1  0  0  0
 25 43  1  0  0  0
 25 44  1  0  0  0
 26 45  1  0  0  0
 26 46  1  0  0  0
 26 47  1  0  0  0
M  END
> <s_m_entry_id>
34715

> <s_m_entry_name>
dock_pv.458

> <s_m_Source_Path>
/home/csk/Desktop/cluster/DUD-E-result/tgfr1

> <s_m_Source_File>
dock_pv.maegz

> <i_m_Source_File_Index>
458

> <chembl_id>
CHEMBL2208005

> <chembl_pref_name>
None

> <i_lp_mmshare_version>
53161

> <r_lp_tautomer_probability>
0.499999999999999

> <s_lp_Force_Field>
OPLS_2005

> <r_lp_Energy>
9.742268

> <b_lp_Chiralities_Consistent>
1

> <s_lp_Variant>
CHEMBL4439_lig585-1

> <s_i_glide_gridfile>
glide-grid_3hmm

> <i_i_glide_lignum>
783

> <i_i_glide_rotatable_bonds>
7

> <r_i_docking_score>
-7.30422417288333

> <r_i_glide_ligand_efficiency>
-0.280931698957051

> <r_i_glide_ligand_efficiency_sa>
-0.832259052747407

> <r_i_glide_ligand_efficiency_ln>
-1.71537307988729

> <r_i_glide_gscore>
-7.30422417288333

> <r_i_glide_lipo>
-4.00945597509783

> <r_i_glide_hbond>
-0.0269568427313757

> <r_i_glide_metal>
0

> <r_i_glide_rewards>
-1.4387815620633

> <r_i_glide_evdw>
-51.4536285400391

> <r_i_glide_ecoul>
-0.326678365468979

> <r_i_glide_erotb>
0.792653388831482

> <r_i_glide_esite>
0

> <r_i_glide_emodel>
-69.9793392778587

> <r_i_glide_energy>
-51.780306905508

> <r_i_glide_einternal>
6.00978088378906

> <i_i_glide_confnum>
44

> <i_i_glide_posenum>
335

> <r_i_glide_eff_state_penalty>
0

> <s_user_duplicate_titles>
CHEMBL4439_lig585,CHEMBL4439_lig585

> <i_f3d_flags>
0

> <s_m_subgroup_title>
dock_pv

> <s_m_subgroupid>
dock_pv

> <b_m_subgroup_collapsed>
1

$$$$
CHEMBL4439_lig950 
                    3D
 Schrodinger Suite 2021-1.
 47 51  0  0  1  0            999 V2000
   12.3565   65.5493    6.3647 C   0  0  0  0  0  0
   12.8460   64.8795    5.2432 C   0  0  0  0  0  0
   14.2261   64.8590    5.0312 C   0  0  0  0  0  0
   15.1097   65.4567    5.8720 N   0  0  0  0  0  0
   14.6217   66.1271    6.9501 C   0  0  0  0  0  0
   13.2504   66.1838    7.2301 C   0  0  0  0  0  0
   16.6671   68.0240    5.0518 C   0  0  0  0  0  0
   17.4261   67.9720    6.2290 C   0  0  0  0  0  0
   18.7830   68.3417    6.2049 C   0  0  0  0  0  0
   19.4113   68.7819    5.0365 C   0  0  0  0  0  0
   17.2946   68.4313    3.8716 C   0  0  0  0  0  0
   18.6406   68.8287    3.8702 C   0  0  0  0  0  0
   19.1097   69.2575    2.6791 N   0  0  0  0  0  0
   17.8199   69.0909    1.6319 S   0  0  0  0  0  0
   16.6679   68.4810    2.6757 N   0  0  0  0  0  0
   16.7833   67.5406    7.5090 C   0  0  0  0  0  0
   15.6271   66.8005    7.8357 C   0  0  0  0  0  0
   15.4672   66.7236    9.1513 N   0  0  0  0  0  0
   16.4649   67.3694    9.6974 C   0  0  0  0  0  0
   17.2868   67.8903    8.7383 N   0  0  0  0  0  0
   16.6780   67.4745   11.1944 C   0  0  0  0  0  0
   17.9369   68.1143   11.5716 N   0  0  0  0  0  0
   18.6444   67.7812   12.7373 C   0  0  0  0  0  0
   18.1574   66.8939   13.7075 C   0  0  0  0  0  0
   18.9437   66.5608   14.8072 C   0  0  0  0  0  0
   20.2033   67.1330   14.9558 C   0  0  0  0  0  0
   20.6827   68.0392   14.0135 C   0  0  0  0  0  0
   19.9017   68.3654   12.9088 C   0  0  0  0  0  0
   14.8152   64.1348    3.8367 C   0  0  0  0  0  0
   20.9594   66.8208   16.0308 F   0  0  0  0  0  0
   11.2940   65.5812    6.5604 H   0  0  0  0  0  0
   12.1701   64.3909    4.5535 H   0  0  0  0  0  0
   12.8801   66.7164    8.0913 H   0  0  0  0  0  0
   15.6177   67.7744    5.0458 H   0  0  0  0  0  0
   19.3724   68.2962    7.1085 H   0  0  0  0  0  0
   20.4555   69.0693    5.0383 H   0  0  0  0  0  0
   18.1223   68.4301    8.9080 H   0  0  0  0  0  0
   16.6535   66.4581   11.5855 H   0  0  0  0  0  0
   15.8703   68.0269   11.6734 H   0  0  0  0  0  0
   18.2115   68.9571   11.0792 H   0  0  0  0  0  0
   17.1790   66.4468   13.6209 H   0  0  0  0  0  0
   18.5801   65.8602   15.5456 H   0  0  0  0  0  0
   21.6636   68.4751   14.1328 H   0  0  0  0  0  0
   20.2892   69.0514   12.1686 H   0  0  0  0  0  0
   14.2311   64.3234    2.9352 H   0  0  0  0  0  0
   15.8469   64.4348    3.6322 H   0  0  0  0  0  0
   14.7995   63.0643    4.0317 H   0  0  0  0  0  0
  1  2  2  0  0  0
  1  6  1  0  0  0
  1 31  1  0  0  0
  2  3  1  0  0  0
  2 32  1  0  0  0
  3  4  2  0  0  0
  3 29  1  0  0  0
  4  5  1  0  0  0
  5  6  2  0  0  0
  5 17  1  0  0  0
  6 33  1  0  0  0
  7 11  1  0  0  0
  7  8  2  0  0  0
  7 34  1  0  0  0
  8  9  1  0  0  0
  8 16  1  0  0  0
  9 10  2  0  0  0
  9 35  1  0  0  0
 10 12  1  0  0  0
 10 36  1  0  0  0
 11 12  1  0  0  0
 11 15  2  0  0  0
 12 13  2  0  0  0
 13 14  1  0  0  0
 14 15  1  0  0  0
 16 17  2  0  0  0
 16 20  1  0  0  0
 17 18  1  0  0  0
 18 19  2  0  0  0
 19 20  1  0  0  0
 19 21  1  0  0  0
 20 37  1  0  0  0
 21 22  1  0  0  0
 21 38  1  0  0  0
 21 39  1  0  0  0
 22 23  1  0  0  0
 22 40  1  0  0  0
 23 24  2  0  0  0
 23 28  1  0  0  0
 24 25  1  0  0  0
 24 41  1  0  0  0
 25 26  2  0  0  0
 25 42  1  0  0  0
 26 27  1  0  0  0
 26 30  1  0  0  0
 27 28  2  0  0  0
 27 43  1  0  0  0
 28 44  1  0  0  0
 29 45  1  0  0  0
 29 46  1  0  0  0
 29 47  1  0  0  0
M  END
> <s_m_entry_id>
34716

> <s_m_entry_name>
dock_pv.459

> <s_m_Source_Path>
/home/csk/Desktop/cluster/DUD-E-result/tgfr1

> <s_m_Source_File>
dock_pv.maegz

> <i_m_Source_File_Index>
459

> <chembl_id>
CHEMBL4588407

> <chembl_pref_name>
None

> <i_lp_mmshare_version>
53161

> <r_lp_tautomer_probability>
0.499999999999999

> <s_lp_Force_Field>
OPLS_2005

> <r_lp_Energy>
20.15379

> <b_lp_Chiralities_Consistent>
1

> <s_lp_Variant>
CHEMBL4439_lig950 -2

> <s_i_glide_gridfile>
glide-grid_3hmm

> <i_i_glide_lignum>
1288

> <i_i_glide_rotatable_bonds>
5

> <r_i_docking_score>
-7.30403579898295

> <r_i_glide_ligand_efficiency>
-0.243467859966098

> <r_i_glide_ligand_efficiency_sa>
-0.756511247784001

> <r_i_glide_ligand_efficiency_ln>
-1.65955651737312

> <r_i_glide_gscore>
-7.30403579898295

> <r_i_glide_lipo>
-3.36746724704237

> <r_i_glide_hbond>
-0.149854263007185

> <r_i_glide_metal>
0

> <r_i_glide_rewards>
-1.10946034159311

> <r_i_glide_evdw>
-55.6276435852051

> <r_i_glide_ecoul>
-3.10251474380493

> <r_i_glide_erotb>
0.569505443490713

> <r_i_glide_esite>
0

> <r_i_glide_emodel>
-81.2665617204598

> <r_i_glide_energy>
-58.73015832901

> <r_i_glide_einternal>
7.34627628326416

> <i_i_glide_confnum>
60

> <i_i_glide_posenum>
276

> <r_i_glide_eff_state_penalty>
0

> <s_user_duplicate_titles>
CHEMBL4439_lig950 ,CHEMBL4439_lig950 

> <i_f3d_flags>
0

> <s_m_subgroup_title>
dock_pv

> <s_m_subgroupid>
dock_pv

> <b_m_subgroup_collapsed>
1

$$$$
CHEMBL4439_lig44
                    3D
 Schrodinger Suite 2021-1.
 31 33  0  0  1  0            999 V2000
   15.1810   66.5691    6.4394 C   0  0  0  0  0  0
   16.1724   67.5409    6.1088 C   0  0  0  0  0  0
   14.9443   66.5512    7.7419 N   0  0  0  0  0  0
   14.4529   65.5938    5.5555 C   0  0  0  0  0  0
   13.1890   65.2570    5.9442 N   0  0  0  0  0  0
   15.7520   67.4638    8.2722 N   0  0  0  0  0  0
   16.5249   68.0833    7.3384 C   0  0  0  0  0  0
   16.7515   67.9738    4.7939 C   0  0  0  0  0  0
   12.5169   64.3148    5.2308 C   0  0  0  0  0  0
   15.0537   65.0101    4.4336 C   0  0  0  0  0  0
   14.3434   64.0562    3.7021 C   0  0  0  0  0  0
   15.9759   67.9881    3.6302 C   0  0  0  0  0  0
   18.0760   68.4291    4.7371 C   0  0  0  0  0  0
   13.0616   63.6854    4.1092 C   0  0  0  0  0  0
   11.1243   63.9737    5.7241 C   0  0  0  0  0  0
   16.5104   68.4570    2.4325 C   0  0  0  0  0  0
   18.6161   68.8847    3.5373 C   0  0  0  0  0  0
   17.8297   68.9004    2.3889 C   0  0  0  0  0  0
   15.7689   67.6585    9.2638 H   0  0  0  0  0  0
   17.2258   68.8565    7.6195 H   0  0  0  0  0  0
   16.0550   65.2786    4.1362 H   0  0  0  0  0  0
   14.7876   63.5976    2.8319 H   0  0  0  0  0  0
   14.9441   67.6686    3.6553 H   0  0  0  0  0  0
   18.6942   68.4293    5.6228 H   0  0  0  0  0  0
   12.5033   62.9461    3.5528 H   0  0  0  0  0  0
   10.3906   64.6364    5.2645 H   0  0  0  0  0  0
   11.0535   64.0798    6.8077 H   0  0  0  0  0  0
   10.8613   62.9448    5.4775 H   0  0  0  0  0  0
   15.8974   68.4809    1.5430 H   0  0  0  0  0  0
   19.6388   69.2304    3.4991 H   0  0  0  0  0  0
   18.2458   69.2655    1.4612 H   0  0  0  0  0  0
  1  4  1  0  0  0
  1  3  2  0  0  0
  1  2  1  0  0  0
  2  7  2  0  0  0
  2  8  1  0  0  0
  3  6  1  0  0  0
  4  5  2  0  0  0
  4 10  1  0  0  0
  5  9  1  0  0  0
  6 19  1  0  0  0
  6  7  1  0  0  0
  7 20  1  0  0  0
  8 12  2  0  0  0
  8 13  1  0  0  0
  9 15  1  0  0  0
  9 14  2  0  0  0
 10 11  2  0  0  0
 10 21  1  0  0  0
 11 14  1  0  0  0
 11 22  1  0  0  0
 12 16  1  0  0  0
 12 23  1  0  0  0
 13 17  2  0  0  0
 13 24  1  0  0  0
 14 25  1  0  0  0
 15 26  1  0  0  0
 15 27  1  0  0  0
 15 28  1  0  0  0
 16 18  2  0  0  0
 16 29  1  0  0  0
 17 18  1  0  0  0
 17 30  1  0  0  0
 18 31  1  0  0  0
M  END
> <s_m_entry_id>
34718

> <s_m_entry_name>
dock_pv.461

> <s_m_Source_Path>
/home/csk/Desktop/cluster/DUD-E-result/tgfr1

> <s_m_Source_File>
dock_pv.maegz

> <i_m_Source_File_Index>
461

> <chembl_id>
CHEMBL129553

> <chembl_pref_name>
None

> <i_lp_mmshare_version>
53161

> <r_lp_tautomer_probability>
0.5

> <s_lp_Force_Field>
OPLS_2005

> <r_lp_Energy>
16.637985

> <b_lp_Chiralities_Consistent>
1

> <s_lp_Variant>
CHEMBL4439_lig44-2

> <s_i_glide_gridfile>
glide-grid_3hmm

> <i_i_glide_lignum>
61

> <i_i_glide_rotatable_bonds>
2

> <r_i_docking_score>
-7.28164713402568

> <r_i_glide_ligand_efficiency>
-0.404535951890315

> <r_i_glide_ligand_efficiency_sa>
-1.06018411354321

> <r_i_glide_ligand_efficiency_ln>
-1.87170984861443

> <r_i_glide_gscore>
-7.28164713402568

> <r_i_glide_lipo>
-3.8507254492637

> <r_i_glide_hbond>
0

> <r_i_glide_metal>
0

> <r_i_glide_rewards>
-2.06292416105748

> <r_i_glide_evdw>
-37.0386848449707

> <r_i_glide_ecoul>
-0.914706885814667

> <r_i_glide_erotb>
0.621142751416231

> <r_i_glide_esite>
0

> <r_i_glide_emodel>
-54.3897112725262

> <r_i_glide_energy>
-37.9533917307854

> <r_i_glide_einternal>
0.883675277233124

> <i_i_glide_confnum>
12

> <i_i_glide_posenum>
58

> <r_i_glide_eff_state_penalty>
0

> <s_user_duplicate_titles>
CHEMBL4439_lig44,CHEMBL4439_lig44,211424

> <i_f3d_flags>
0

> <s_m_subgroup_title>
dock_pv

> <s_m_subgroupid>
dock_pv

> <b_m_subgroup_collapsed>
1

$$$$
CHEMBL4439_lig171
                    3D
 Schrodinger Suite 2021-1.
 47 51  0  0  1  0            999 V2000
   18.9161   67.7630    6.8147 C   0  0  0  0  0  0
   19.6086   68.5767    5.9108 C   0  0  0  0  0  0
   19.0400   68.8353    4.6660 C   0  0  0  0  0  0
   17.6567   67.2571    6.5077 C   0  0  0  0  0  0
   17.0150   67.5749    5.2898 C   0  0  0  0  0  0
   17.7596   68.3310    4.3286 C   0  0  0  0  0  0
   17.2789   68.5858    3.0836 N   0  0  0  0  0  0
   16.0594   68.1010    2.7644 C   0  0  0  0  0  0
   15.2490   67.4034    3.6473 C   0  0  0  0  0  0
   15.6856   67.1501    4.9504 C   0  0  0  0  0  0
   14.6438   66.5500    5.8628 C   0  0  0  0  0  0
   14.2994   66.8296    7.2146 C   0  0  0  0  0  0
   13.1429   66.3027    7.5634 N   0  0  0  0  0  0
   13.7498   65.5314    5.5535 C   0  0  0  0  0  0
   12.8342   65.4951    6.5573 N   0  0  0  0  0  0
   11.7180   64.6052    6.3270 C   0  0  0  0  0  0
   12.2624   63.7150    5.2054 C   0  0  0  0  0  0
   13.3843   64.5034    4.5234 C   0  0  0  0  0  0
   15.0944   67.5539    8.2278 C   0  0  0  0  0  0
   15.6176   68.8287    8.0114 C   0  0  0  0  0  0
   16.6531   69.2569    8.8406 C   0  0  0  0  0  0
   17.0660   68.4577    9.9111 C   0  0  0  0  0  0
   16.4276   67.2361   10.1125 C   0  0  0  0  0  0
   15.4675   66.7700    9.2769 N   0  0  0  0  0  0
   20.8496   69.1365    6.1526 O   0  0  0  0  0  0
   21.5060   68.9222    7.4040 C   0  0  0  0  0  0
   20.9313   69.8201    8.5137 C   0  0  0  0  0  0
   21.5544   69.3342   10.1125 Cl  0  0  0  0  0  0
   19.3347   67.5049    7.7744 H   0  0  0  0  0  0
   19.5840   69.4262    3.9431 H   0  0  0  0  0  0
   17.1710   66.5964    7.2051 H   0  0  0  0  0  0
   15.7057   68.3290    1.7685 H   0  0  0  0  0  0
   14.2676   67.0982    3.3192 H   0  0  0  0  0  0
   10.8451   65.1744    6.0086 H   0  0  0  0  0  0
   11.4670   64.0331    7.2209 H   0  0  0  0  0  0
   11.4834   63.4185    4.5015 H   0  0  0  0  0  0
   12.6666   62.7985    5.6317 H   0  0  0  0  0  0
   13.0279   64.9854    3.6320 H   0  0  0  0  0  0
   14.2156   63.8576    4.2369 H   0  0  0  0  0  0
   15.3259   69.4080    7.1486 H   0  0  0  0  0  0
   17.1484   70.1953    8.6444 H   0  0  0  0  0  0
   17.8564   68.7904   10.5691 H   0  0  0  0  0  0
   16.7006   66.5990   10.9402 H   0  0  0  0  0  0
   22.5661   69.1429    7.2729 H   0  0  0  0  0  0
   21.4672   67.8722    7.6902 H   0  0  0  0  0  0
   19.8429   69.7768    8.5616 H   0  0  0  0  0  0
   21.2204   70.8563    8.3500 H   0  0  0  0  0  0
  1  2  2  0  0  0
  1  4  1  0  0  0
  1 29  1  0  0  0
  2 25  1  0  0  0
  2  3  1  0  0  0
  3  6  2  0  0  0
  3 30  1  0  0  0
  4  5  2  0  0  0
  4 31  1  0  0  0
  5 10  1  0  0  0
  5  6  1  0  0  0
  6  7  1  0  0  0
  7  8  2  0  0  0
  8  9  1  0  0  0
  8 32  1  0  0  0
  9 10  2  0  0  0
  9 33  1  0  0  0
 10 11  1  0  0  0
 11 14  2  0  0  0
 11 12  1  0  0  0
 12 19  1  0  0  0
 12 13  2  0  0  0
 13 15  1  0  0  0
 14 15  1  0  0  0
 14 18  1  0  0  0
 15 16  1  0  0  0
 16 17  1  0  0  0
 16 34  1  0  0  0
 16 35  1  0  0  0
 17 18  1  0  0  0
 17 36  1  0  0  0
 17 37  1  0  0  0
 18 38  1  0  0  0
 18 39  1  0  0  0
 19 20  2  0  0  0
 19 24  1  0  0  0
 20 21  1  0  0  0
 20 40  1  0  0  0
 21 22  2  0  0  0
 21 41  1  0  0  0
 22 23  1  0  0  0
 22 42  1  0  0  0
 23 24  2  0  0  0
 23 43  1  0  0  0
 25 26  1  0  0  0
 26 27  1  0  0  0
 26 44  1  0  0  0
 26 45  1  0  0  0
 27 28  1  0  0  0
 27 46  1  0  0  0
 27 47  1  0  0  0
M  END
> <s_m_entry_id>
34720

> <s_m_entry_name>
dock_pv.463

> <s_m_Source_Path>
/home/csk/Desktop/cluster/DUD-E-result/tgfr1

> <s_m_Source_File>
dock_pv.maegz

> <i_m_Source_File_Index>
463

> <chembl_id>
CHEMBL261762

> <chembl_pref_name>
None

> <i_lp_mmshare_version>
53161

> <r_lp_tautomer_probability>
1

> <s_lp_Force_Field>
OPLS_2005

> <r_lp_Energy>
44.71913

> <b_lp_Chiralities_Consistent>
1

> <s_lp_Variant>
CHEMBL4439_lig171-1

> <s_i_glide_gridfile>
glide-grid_3hmm

> <i_i_glide_lignum>
263

> <i_i_glide_rotatable_bonds>
5

> <r_i_docking_score>
-7.27149563615593

> <r_i_glide_ligand_efficiency>
-0.259696272719855

> <r_i_glide_ligand_efficiency_sa>
-0.788590836902409

> <r_i_glide_ligand_efficiency_ln>
-1.67847469321384

> <r_i_glide_gscore>
-7.27149563615593

> <r_i_glide_lipo>
-4.26011658355477

> <r_i_glide_hbond>
-0.0139248985824774

> <r_i_glide_metal>
0

> <r_i_glide_rewards>
-0.968293846831555

> <r_i_glide_evdw>
-40.9191513061523

> <r_i_glide_ecoul>
-3.29324197769165

> <r_i_glide_erotb>
0.510783554774244

> <r_i_glide_esite>
0

> <r_i_glide_emodel>
-46.4144357442082

> <r_i_glide_energy>
-44.212393283844

> <r_i_glide_einternal>
16.1779003143311

> <i_i_glide_confnum>
45

> <i_i_glide_posenum>
109

> <r_i_glide_eff_state_penalty>
0

> <s_user_duplicate_titles>
CHEMBL4439_lig171

> <i_f3d_flags>
0

> <s_m_subgroup_title>
dock_pv

> <s_m_subgroupid>
dock_pv

> <b_m_subgroup_collapsed>
1

$$$$
CHEMBL4439_lig822
                    3D
 Schrodinger Suite 2021-1.
 37 40  0  0  1  0            999 V2000
   15.3608   66.8494    6.4184 C   0  0  0  0  0  0
   17.7994   68.1692    6.8527 N   0  0  0  0  0  0
   17.0206   67.6512    7.8501 C   0  0  0  0  0  0
   15.8246   67.0219    7.6793 N   0  0  0  0  0  0
   17.2864   68.0203    5.6276 C   0  0  0  0  0  0
   16.0635   67.3689    5.3129 C   0  0  0  0  0  0
   15.8963   67.4699    3.8891 C   0  0  0  0  0  0
   17.0139   68.1248    3.3997 C   0  0  0  0  0  0
   17.8419   68.4551    4.4456 N   0  0  0  0  0  0
   17.5239   67.7591    9.2598 C   0  0  0  0  0  0
   18.8539   68.0269    9.4195 N   0  0  0  0  0  0
   19.3711   68.1175   10.6734 C   0  0  0  0  0  0
   18.5844   67.9324   11.8172 C   0  0  0  0  0  0
   17.2265   67.6557   11.6567 C   0  0  0  0  0  0
   16.6896   67.5649   10.3740 C   0  0  0  0  0  0
   14.1335   66.1819    6.3309 N   0  0  0  0  0  0
   13.6334   65.2419    5.4140 C   0  0  0  0  0  0
   12.2887   64.8569    5.5135 C   0  0  0  0  0  0
   11.8042   63.8650    4.6582 C   0  0  0  0  0  0
   12.5750   63.2568    3.7241 N   0  0  0  0  0  0
   13.8688   63.6564    3.6185 C   0  0  0  0  0  0
   14.4355   64.6302    4.4401 C   0  0  0  0  0  0
   20.8595   68.4596   10.7544 C   0  0  0  0  0  0
   11.4676   65.4149    6.4319 F   0  0  0  0  0  0
   21.0674   69.6832   10.2660 F   0  0  0  0  0  0
   21.5772   67.5892   10.0403 F   0  0  0  0  0  0
   21.3045   68.4366   12.0120 F   0  0  0  0  0  0
   15.0658   67.1195    3.2896 H   0  0  0  0  0  0
   17.2834   68.3978    2.3880 H   0  0  0  0  0  0
   18.7146   68.9464    4.3269 H   0  0  0  0  0  0
   19.0106   68.0059   12.8048 H   0  0  0  0  0  0
   16.5909   67.5102   12.5201 H   0  0  0  0  0  0
   15.6394   67.3477   10.2534 H   0  0  0  0  0  0
   13.5496   66.3038    7.1445 H   0  0  0  0  0  0
   10.7731   63.5475    4.7158 H   0  0  0  0  0  0
   14.4573   63.1703    2.8537 H   0  0  0  0  0  0
   15.4803   64.8737    4.3357 H   0  0  0  0  0  0
  1  6  1  0  0  0
  1  4  2  0  0  0
  1 16  1  0  0  0
  2  5  1  0  0  0
  2  3  2  0  0  0
  3  4  1  0  0  0
  3 10  1  0  0  0
  5  6  2  0  0  0
  5  9  1  0  0  0
  6  7  1  0  0  0
  7  8  2  0  0  0
  7 28  1  0  0  0
  8  9  1  0  0  0
  8 29  1  0  0  0
  9 30  1  0  0  0
 10 11  2  0  0  0
 10 15  1  0  0  0
 11 12  1  0  0  0
 12 13  2  0  0  0
 12 23  1  0  0  0
 13 14  1  0  0  0
 13 31  1  0  0  0
 14 15  2  0  0  0
 14 32  1  0  0  0
 15 33  1  0  0  0
 16 17  1  0  0  0
 16 34  1  0  0  0
 17 18  2  0  0  0
 17 22  1  0  0  0
 18 19  1  0  0  0
 18 24  1  0  0  0
 19 20  2  0  0  0
 19 35  1  0  0  0
 20 21  1  0  0  0
 21 22  2  0  0  0
 21 36  1  0  0  0
 22 37  1  0  0  0
 23 25  1  0  0  0
 23 26  1  0  0  0
 23 27  1  0  0  0
M  END
> <s_m_entry_id>
34723

> <s_m_entry_name>
dock_pv.466

> <s_m_Source_Path>
/home/csk/Desktop/cluster/DUD-E-result/tgfr1

> <s_m_Source_File>
dock_pv.maegz

> <i_m_Source_File_Index>
466

> <chembl_id>
CHEMBL4217699

> <chembl_pref_name>
None

> <i_lp_mmshare_version>
53161

> <r_lp_tautomer_probability>
0.999999106000799

> <s_lp_Force_Field>
OPLS_2005

> <r_lp_Energy>
20.442897

> <b_lp_Chiralities_Consistent>
1

> <s_lp_Variant>
CHEMBL4439_lig822-1

> <s_i_glide_gridfile>
glide-grid_3hmm

> <i_i_glide_lignum>
1140

> <i_i_glide_rotatable_bonds>
4

> <r_i_docking_score>
-7.26171056904938

> <r_i_glide_ligand_efficiency>
-0.268952243298125

> <r_i_glide_ligand_efficiency_sa>
-0.806856729007953

> <r_i_glide_ligand_efficiency_ln>
-1.69040650181944

> <r_i_glide_gscore>
-7.26171056904938

> <r_i_glide_lipo>
-3.49467111016902

> <r_i_glide_hbond>
0

> <r_i_glide_metal>
0

> <r_i_glide_rewards>
-1.84611903417072

> <r_i_glide_evdw>
-49.2268562316895

> <r_i_glide_ecoul>
0.842662155628204

> <r_i_glide_erotb>
0.414023063530606

> <r_i_glide_esite>
0

> <r_i_glide_emodel>
-64.3476129282077

> <r_i_glide_energy>
-48.3841940760612

> <r_i_glide_einternal>
10.7686929702759

> <i_i_glide_confnum>
8

> <i_i_glide_posenum>
341

> <r_i_glide_eff_state_penalty>
0

> <s_user_duplicate_titles>
CHEMBL4439_lig822

> <i_f3d_flags>
0

> <s_m_subgroup_title>
dock_pv

> <s_m_subgroupid>
dock_pv

> <b_m_subgroup_collapsed>
1

$$$$
CHEMBL4439_lig732
                    3D
 Schrodinger Suite 2021-1.
 49 53  0  0  1  0            999 V2000
   19.3810   67.7345   10.3394 C   0  0  0  0  0  0
   18.3156   67.8495    9.4410 C   0  0  0  0  0  0
   17.0084   67.7946    9.9476 C   0  0  0  0  0  0
   16.7471   67.6565   11.3100 C   0  0  0  0  0  0
   19.1134   67.6742   11.6795 N   0  0  0  0  0  0
   17.8245   67.6251   12.2073 C   0  0  0  0  0  0
   17.9163   67.5434   13.5591 N   0  0  0  0  0  0
   19.2253   67.5373   13.7403 C   0  0  0  0  0  0
   20.0071   67.6583   12.6893 N   0  0  0  0  0  0
   18.5121   68.0645    7.9680 C   0  0  0  0  0  0
   19.5428   68.7010    7.2532 C   0  0  0  0  0  0
   19.0990   68.6730    5.9516 N   0  0  0  0  0  0
   17.8779   68.0568    5.9413 C   0  0  0  0  0  0
   17.5779   67.6332    7.1374 N   0  0  0  0  0  0
   20.8359   69.3248    7.6530 C   0  0  0  0  0  0
   21.9616   69.2597    6.8286 C   0  0  0  0  0  0
   23.1961   69.6570    7.3453 C   0  0  0  0  0  0
   23.2727   70.1282    8.6561 C   0  0  0  0  0  0
   22.0937   70.2350    9.3944 C   0  0  0  0  0  0
   20.8882   69.8566    8.9013 N   0  0  0  0  0  0
   22.0995   70.7618   10.8148 C   0  0  0  0  0  0
   16.9657   67.9861    4.7186 C   0  0  0  0  0  0
   16.1246   66.7938    4.5754 N   0  0  0  0  0  0
   14.9813   66.5316    5.3563 C   0  0  0  0  0  0
   14.6619   67.2210    6.5342 C   0  0  0  0  0  0
   13.5580   66.8561    7.3000 C   0  0  0  0  0  0
   12.6738   65.8910    6.8300 C   0  0  0  0  0  0
   12.9253   65.2571    5.6115 C   0  0  0  0  0  0
   14.1008   65.5416    4.9054 C   0  0  0  0  0  0
   24.4634   70.4648    9.1990 F   0  0  0  0  0  0
   11.9276   64.3580    5.0534 C   0  0  0  0  0  0
   11.1271   63.6536    4.6083 N   0  0  0  0  0  0
   20.4213   67.7225   10.0589 H   0  0  0  0  0  0
   16.1646   67.8765    9.2771 H   0  0  0  0  0  0
   15.7316   67.6216   11.6535 H   0  0  0  0  0  0
   19.6532   67.4458   14.7287 H   0  0  0  0  0  0
   19.5644   69.0877    5.1576 H   0  0  0  0  0  0
   21.9026   68.8550    5.8294 H   0  0  0  0  0  0
   24.0896   69.5824    6.7410 H   0  0  0  0  0  0
   22.5743   71.7431   10.8322 H   0  0  0  0  0  0
   21.0903   70.8541   11.2198 H   0  0  0  0  0  0
   22.6662   70.0917   11.4610 H   0  0  0  0  0  0
   17.5952   68.0221    3.8285 H   0  0  0  0  0  0
   16.3137   68.8569    4.6634 H   0  0  0  0  0  0
   16.1214   66.3779    3.6556 H   0  0  0  0  0  0
   15.2422   68.0586    6.8753 H   0  0  0  0  0  0
   13.3535   67.3739    8.2251 H   0  0  0  0  0  0
   11.7771   65.6713    7.3949 H   0  0  0  0  0  0
   14.3010   65.0358    3.9702 H   0  0  0  0  0  0
  1  5  1  0  0  0
  1  2  2  0  0  0
  1 33  1  0  0  0
  2  3  1  0  0  0
  2 10  1  0  0  0
  3  4  2  0  0  0
  3 34  1  0  0  0
  4  6  1  0  0  0
  4 35  1  0  0  0
  5  6  1  0  0  0
  5  9  1  0  0  0
  6  7  2  0  0  0
  7  8  1  0  0  0
  8  9  2  0  0  0
  8 36  1  0  0  0
 10 11  2  0  0  0
 10 14  1  0  0  0
 11 12  1  0  0  0
 11 15  1  0  0  0
 12 13  1  0  0  0
 12 37  1  0  0  0
 13 14  2  0  0  0
 13 22  1  0  0  0
 15 16  2  0  0  0
 15 20  1  0  0  0
 16 17  1  0  0  0
 16 38  1  0  0  0
 17 18  2  0  0  0
 17 39  1  0  0  0
 18 19  1  0  0  0
 18 30  1  0  0  0
 19 20  2  0  0  0
 19 21  1  0  0  0
 21 40  1  0  0  0
 21 41  1  0  0  0
 21 42  1  0  0  0
 22 23  1  0  0  0
 22 43  1  0  0  0
 22 44  1  0  0  0
 23 24  1  0  0  0
 23 45  1  0  0  0
 24 25  2  0  0  0
 24 29  1  0  0  0
 25 26  1  0  0  0
 25 46  1  0  0  0
 26 27  2  0  0  0
 26 47  1  0  0  0
 27 28  1  0  0  0
 27 48  1  0  0  0
 28 29  2  0  0  0
 28 31  1  0  0  0
 29 49  1  0  0  0
 31 32  3  0  0  0
M  END
> <s_m_entry_id>
34724

> <s_m_entry_name>
dock_pv.467

> <s_m_Source_Path>
/home/csk/Desktop/cluster/DUD-E-result/tgfr1

> <s_m_Source_File>
dock_pv.maegz

> <i_m_Source_File_Index>
467

> <chembl_id>
CHEMBL3634799

> <chembl_pref_name>
None

> <i_lp_mmshare_version>
53161

> <r_lp_tautomer_probability>
0.499999999999999

> <s_lp_Force_Field>
OPLS_2005

> <r_lp_Energy>
17.67362

> <b_lp_Chiralities_Consistent>
1

> <s_lp_Variant>
CHEMBL4439_lig732-1

> <s_i_glide_gridfile>
glide-grid_3hmm

> <i_i_glide_lignum>
1036

> <i_i_glide_rotatable_bonds>
5

> <r_i_docking_score>
-7.26021543639349

> <r_i_glide_ligand_efficiency>
-0.226881732387297

> <r_i_glide_ligand_efficiency_sa>
-0.720304600495796

> <r_i_glide_ligand_efficiency_ln>
-1.62576014220675

> <r_i_glide_gscore>
-7.26021543639349

> <r_i_glide_lipo>
-2.8261852660798

> <r_i_glide_hbond>
0

> <r_i_glide_metal>
0

> <r_i_glide_rewards>
-1.91260427412583

> <r_i_glide_evdw>
-51.3458404541016

> <r_i_glide_ecoul>
-2.90040302276611

> <r_i_glide_erotb>
0.550347223566669

> <r_i_glide_esite>
-0.0694206436345343

> <r_i_glide_emodel>
-76.9362292669587

> <r_i_glide_energy>
-54.2462434768677

> <r_i_glide_einternal>
2.26509284973145

> <i_i_glide_confnum>
47

> <i_i_glide_posenum>
238

> <r_i_glide_eff_state_penalty>
0

> <s_user_duplicate_titles>
CHEMBL4439_lig732

> <i_f3d_flags>
0

> <s_m_subgroup_title>
dock_pv

> <s_m_subgroupid>
dock_pv

> <b_m_subgroup_collapsed>
1

$$$$
CHEMBL4439_lig971
                    3D
 Schrodinger Suite 2021-1.
 42 45  0  0  1  0            999 V2000
   19.5508   68.4462   11.7237 C   0  0  0  0  0  0
   18.5791   67.8543   12.5300 C   0  0  0  0  0  0
   17.4768   67.2588   12.0063 N   0  0  0  0  0  0
   17.3546   67.2567   10.6464 C   0  0  0  0  0  0
   18.3367   67.8835    9.8244 C   0  0  0  0  0  0
   19.4456   68.4569   10.3708 N   0  0  0  0  0  0
   16.2651   66.6009   10.0325 C   0  0  0  0  0  0
   16.1365   66.6161    8.6423 C   0  0  0  0  0  0
   17.0356   67.3064    7.8216 C   0  0  0  0  0  0
   18.1493   67.9152    8.4264 C   0  0  0  0  0  0
   16.8527   67.4073    6.3206 C   0  0  0  0  0  0
   15.8617   66.8992    5.4420 C   0  0  0  0  0  0
   16.2727   67.3323    4.2047 N   0  0  0  0  0  0
   17.4238   68.0486    4.3720 C   0  0  0  0  0  0
   17.7828   68.0583    5.6230 N   0  0  0  0  0  0
   14.6127   66.0902    5.5636 C   0  0  0  0  0  0
   13.5899   66.4089    6.4600 C   0  0  0  0  0  0
   12.4123   65.6571    6.4328 C   0  0  0  0  0  0
   12.2762   64.6181    5.5106 C   0  0  0  0  0  0
   13.3353   64.3622    4.6334 C   0  0  0  0  0  0
   14.4841   65.0878    4.6487 N   0  0  0  0  0  0
   18.2135   68.5333    3.3460 N   0  0  0  0  0  0
   13.2487   63.2641    3.5837 C   0  0  0  0  0  0
   11.1426   63.8813    5.4715 F   0  0  0  0  0  0
   17.7872   68.8582    2.1112 C   0  0  0  0  0  0
   16.6139   68.8570    1.7405 O   0  0  0  0  0  0
   18.8785   69.2573    1.1355 C   0  0  0  0  0  0
   20.4367   68.8946   12.1437 H   0  0  0  0  0  0
   18.6859   67.8300   13.6039 H   0  0  0  0  0  0
   15.5399   66.0964   10.6544 H   0  0  0  0  0  0
   15.3183   66.0766    8.2056 H   0  0  0  0  0  0
   18.8947   68.4307    7.8388 H   0  0  0  0  0  0
   19.1714   68.7479    3.5844 H   0  0  0  0  0  0
   13.7021   67.2351    7.1445 H   0  0  0  0  0  0
   11.5991   65.8886    7.1046 H   0  0  0  0  0  0
   19.4669   68.4021    0.8320 H   0  0  0  0  0  0
   13.1628   62.2845    4.0540 H   0  0  0  0  0  0
   14.1211   63.2491    2.9296 H   0  0  0  0  0  0
   12.3705   63.4152    2.9556 H   0  0  0  0  0  0
   18.4464   69.6565    0.2267 H   0  0  0  0  0  0
   15.8080   67.1628    3.3235 H   0  0  0  0  0  0
   19.5385   70.0063    1.5746 H   0  0  0  0  0  0
  1  2  1  0  0  0
  1  6  2  0  0  0
  1 28  1  0  0  0
  2  3  2  0  0  0
  2 29  1  0  0  0
  3  4  1  0  0  0
  4  5  1  0  0  0
  4  7  2  0  0  0
  5  6  1  0  0  0
  5 10  2  0  0  0
  7  8  1  0  0  0
  7 30  1  0  0  0
  8  9  2  0  0  0
  8 31  1  0  0  0
  9 10  1  0  0  0
  9 11  1  0  0  0
 10 32  1  0  0  0
 11 12  2  0  0  0
 11 15  1  0  0  0
 12 16  1  0  0  0
 12 13  1  0  0  0
 13 41  1  0  0  0
 13 14  1  0  0  0
 14 22  1  0  0  0
 14 15  2  0  0  0
 16 17  1  0  0  0
 16 21  2  0  0  0
 17 18  2  0  0  0
 17 34  1  0  0  0
 18 19  1  0  0  0
 18 35  1  0  0  0
 19 20  2  0  0  0
 19 24  1  0  0  0
 20 21  1  0  0  0
 20 23  1  0  0  0
 22 25  1  0  0  0
 22 33  1  0  0  0
 23 37  1  0  0  0
 23 38  1  0  0  0
 23 39  1  0  0  0
 25 26  2  0  0  0
 25 27  1  0  0  0
 27 40  1  0  0  0
 27 42  1  0  0  0
 27 36  1  0  0  0
M  END
> <s_m_entry_id>
34725

> <s_m_entry_name>
dock_pv.468

> <s_m_Source_Path>
/home/csk/Desktop/cluster/DUD-E-result/tgfr1

> <s_m_Source_File>
dock_pv.maegz

> <i_m_Source_File_Index>
468

> <chembl_id>
CHEMBL519939

> <chembl_pref_name>
None

> <i_lp_mmshare_version>
53161

> <r_lp_tautomer_probability>
0.495688062951706

> <s_lp_Force_Field>
OPLS_2005

> <r_lp_Energy>
26.266538

> <b_lp_Chiralities_Consistent>
1

> <s_lp_Variant>
CHEMBL4439_lig971-2

> <s_i_glide_gridfile>
glide-grid_3hmm

> <i_i_glide_lignum>
1325

> <i_i_glide_rotatable_bonds>
4

> <r_i_docking_score>
-7.25224493318035

> <r_i_glide_ligand_efficiency>
-0.268601664191865

> <r_i_glide_ligand_efficiency_sa>
-0.805804991690328

> <r_i_glide_ligand_efficiency_ln>
-1.68820305784234

> <r_i_glide_gscore>
-7.25224493318035

> <r_i_glide_lipo>
-2.77657046148587

> <r_i_glide_hbond>
0

> <r_i_glide_metal>
0

> <r_i_glide_rewards>
-2.5067670604351

> <r_i_glide_evdw>
-54.0258483886719

> <r_i_glide_ecoul>
1.95791125297546

> <r_i_glide_erotb>
0.438698320227887

> <r_i_glide_esite>
0

> <r_i_glide_emodel>
-71.1654235320943

> <r_i_glide_energy>
-52.0679371356964

> <r_i_glide_einternal>
4.68803405761719

> <i_i_glide_confnum>
1

> <i_i_glide_posenum>
11

> <r_i_glide_eff_state_penalty>
0

> <s_user_duplicate_titles>
CHEMBL4439_lig971,473809

> <i_f3d_flags>
0

> <s_m_subgroup_title>
dock_pv

> <s_m_subgroupid>
dock_pv

> <b_m_subgroup_collapsed>
1

$$$$
CHEMBL4439_lig82
                    3D
 Schrodinger Suite 2021-1.
 35 38  0  0  1  0            999 V2000
   15.5790   66.6048    7.1257 C   0  0  0  0  0  0
   16.6323   67.2950    6.4718 C   0  0  0  0  0  0
   17.6183   67.6593    7.2840 N   0  0  0  0  0  0
   17.4433   67.3103    8.5247 C   0  0  0  0  0  0
   15.9856   66.4569    8.8277 S   0  0  0  0  0  0
   18.3133   67.5776    9.5404 N   0  0  0  0  0  0
   16.7381   67.6786    5.0145 C   0  0  0  0  0  0
   15.6374   67.6592    4.1505 C   0  0  0  0  0  0
   15.8020   68.0573    2.8290 C   0  0  0  0  0  0
   17.0599   68.4576    2.3779 C   0  0  0  0  0  0
   18.1166   68.4535    3.2819 C   0  0  0  0  0  0
   17.9706   68.0706    4.5736 N   0  0  0  0  0  0
   14.2553   66.0441    6.6688 C   0  0  0  0  0  0
   11.6401   65.1535    6.0351 C   0  0  0  0  0  0
   11.8669   66.0570    7.0619 C   0  0  0  0  0  0
   13.1436   66.4635    7.3928 C   0  0  0  0  0  0
   12.7180   64.6730    5.2746 C   0  0  0  0  0  0
   14.0369   65.1504    5.5663 C   0  0  0  0  0  0
   15.0747   64.7355    4.7150 C   0  0  0  0  0  0
   14.8349   63.9026    3.6321 C   0  0  0  0  0  0
   13.5696   63.3716    3.4102 C   0  0  0  0  0  0
   12.5085   63.7434    4.2244 C   0  0  0  0  0  0
   19.1613   68.1010    9.3746 H   0  0  0  0  0  0
   18.1360   67.2921   10.4919 H   0  0  0  0  0  0
   14.6485   67.4099    4.4921 H   0  0  0  0  0  0
   14.9555   68.0670    2.1564 H   0  0  0  0  0  0
   17.2033   68.7725    1.3558 H   0  0  0  0  0  0
   19.1055   68.7623    2.9802 H   0  0  0  0  0  0
   10.6384   64.8191    5.8151 H   0  0  0  0  0  0
   11.0318   66.4262    7.6343 H   0  0  0  0  0  0
   13.2601   67.1586    8.2126 H   0  0  0  0  0  0
   16.0645   65.1139    4.8958 H   0  0  0  0  0  0
   15.6515   63.6533    2.9718 H   0  0  0  0  0  0
   13.4032   62.7031    2.5776 H   0  0  0  0  0  0
   11.5146   63.3700    4.0229 H   0  0  0  0  0  0
  1  2  2  0  0  0
  1 13  1  0  0  0
  1  5  1  0  0  0
  2  7  1  0  0  0
  2  3  1  0  0  0
  3  4  2  0  0  0
  4  6  1  0  0  0
  4  5  1  0  0  0
  6 23  1  0  0  0
  6 24  1  0  0  0
  7 12  1  0  0  0
  7  8  2  0  0  0
  8  9  1  0  0  0
  8 25  1  0  0  0
  9 10  2  0  0  0
  9 26  1  0  0  0
 10 11  1  0  0  0
 10 27  1  0  0  0
 11 12  2  0  0  0
 11 28  1  0  0  0
 13 18  2  0  0  0
 13 16  1  0  0  0
 14 17  2  0  0  0
 14 15  1  0  0  0
 14 29  1  0  0  0
 15 16  2  0  0  0
 15 30  1  0  0  0
 16 31  1  0  0  0
 17 18  1  0  0  0
 17 22  1  0  0  0
 18 19  1  0  0  0
 19 20  2  0  0  0
 19 32  1  0  0  0
 20 21  1  0  0  0
 20 33  1  0  0  0
 21 22  2  0  0  0
 21 34  1  0  0  0
 22 35  1  0  0  0
M  END
> <s_m_entry_id>
34727

> <s_m_entry_name>
dock_pv.470

> <s_m_Source_Path>
/home/csk/Desktop/cluster/DUD-E-result/tgfr1

> <s_m_Source_File>
dock_pv.maegz

> <i_m_Source_File_Index>
470

> <chembl_id>
CHEMBL365918

> <chembl_pref_name>
None

> <i_lp_mmshare_version>
53161

> <r_lp_tautomer_probability>
1

> <s_lp_Force_Field>
OPLS_2005

> <r_lp_Energy>
20.004174

> <b_lp_Chiralities_Consistent>
1

> <s_lp_Variant>
CHEMBL4439_lig82-1

> <s_i_glide_gridfile>
glide-grid_3hmm

> <i_i_glide_lignum>
119

> <i_i_glide_rotatable_bonds>
2

> <r_i_docking_score>
-7.24798223783591

> <r_i_glide_ligand_efficiency>
-0.329453738083451

> <r_i_glide_ligand_efficiency_sa>
-0.92314233079011

> <r_i_glide_ligand_efficiency_ln>
-1.77167123550284

> <r_i_glide_gscore>
-7.24798223783591

> <r_i_glide_lipo>
-3.88484061185499

> <r_i_glide_hbond>
0

> <r_i_glide_metal>
0

> <r_i_glide_rewards>
-1.81446555117571

> <r_i_glide_evdw>
-39.6432647705078

> <r_i_glide_ecoul>
0.220606371760368

> <r_i_glide_erotb>
0.40039620795613

> <r_i_glide_esite>
0

> <r_i_glide_emodel>
-55.9953973866068

> <r_i_glide_energy>
-39.4226583987474

> <r_i_glide_einternal>
0.330634564161301

> <i_i_glide_confnum>
4

> <i_i_glide_posenum>
284

> <r_i_glide_eff_state_penalty>
0

> <s_user_duplicate_titles>
CHEMBL4439_lig82

> <i_f3d_flags>
0

> <s_m_subgroup_title>
dock_pv

> <s_m_subgroupid>
dock_pv

> <b_m_subgroup_collapsed>
1

$$$$
CHEMBL4439_lig71
                    3D
 Schrodinger Suite 2021-1.
 34 37  0  0  1  0            999 V2000
   16.1226   66.5328    8.6581 S   0  0  0  0  0  0
   15.6184   66.7286    6.9906 C   0  0  0  0  0  0
   16.6284   67.4396    6.2886 C   0  0  0  0  0  0
   17.6566   67.7927    7.0506 N   0  0  0  0  0  0
   17.5514   67.4134    8.2922 C   0  0  0  0  0  0
   18.4787   67.6579    9.2604 N   0  0  0  0  0  0
   16.6646   67.8623    4.8383 C   0  0  0  0  0  0
   17.7943   68.4565    4.2471 C   0  0  0  0  0  0
   17.7341   68.8582    2.9113 C   0  0  0  0  0  0
   16.5599   68.6608    2.1889 C   0  0  0  0  0  0
   15.4800   68.0570    2.8318 C   0  0  0  0  0  0
   15.5244   67.6571    4.1252 N   0  0  0  0  0  0
   19.0928   69.6092    2.1601 Cl  0  0  0  0  0  0
   14.2829   66.1550    6.6034 C   0  0  0  0  0  0
   11.6759   65.1554    6.0811 N   0  0  0  0  0  0
   11.9176   66.0571    7.0561 C   0  0  0  0  0  0
   13.1801   66.5445    7.3624 C   0  0  0  0  0  0
   12.7246   64.7331    5.3329 C   0  0  0  0  0  0
   14.0524   65.2340    5.5338 C   0  0  0  0  0  0
   15.0661   64.7950    4.6574 C   0  0  0  0  0  0
   14.7751   63.9082    3.6319 C   0  0  0  0  0  0
   13.5035   63.3629    3.4887 C   0  0  0  0  0  0
   12.4748   63.7650    4.3319 C   0  0  0  0  0  0
   19.3117   68.1931    9.0611 H   0  0  0  0  0  0
   18.3434   67.3700   10.2176 H   0  0  0  0  0  0
   18.7004   68.6202    4.8117 H   0  0  0  0  0  0
   16.4812   68.9682    1.1571 H   0  0  0  0  0  0
   14.5524   67.8803    2.3068 H   0  0  0  0  0  0
   11.0601   66.3621    7.6327 H   0  0  0  0  0  0
   13.2938   67.2494    8.1729 H   0  0  0  0  0  0
   16.0595   65.1965    4.7608 H   0  0  0  0  0  0
   15.5600   63.6478    2.9402 H   0  0  0  0  0  0
   13.3066   62.6595    2.6918 H   0  0  0  0  0  0
   11.4752   63.3779    4.1983 H   0  0  0  0  0  0
  1  2  1  0  0  0
  1  5  1  0  0  0
  2  3  2  0  0  0
  2 14  1  0  0  0
  3  7  1  0  0  0
  3  4  1  0  0  0
  4  5  2  0  0  0
  5  6  1  0  0  0
  6 24  1  0  0  0
  6 25  1  0  0  0
  7 12  1  0  0  0
  7  8  2  0  0  0
  8  9  1  0  0  0
  8 26  1  0  0  0
  9 13  1  0  0  0
  9 10  2  0  0  0
 10 11  1  0  0  0
 10 27  1  0  0  0
 11 12  2  0  0  0
 11 28  1  0  0  0
 14 19  1  0  0  0
 14 17  2  0  0  0
 15 18  1  0  0  0
 15 16  2  0  0  0
 16 17  1  0  0  0
 16 29  1  0  0  0
 17 30  1  0  0  0
 18 19  1  0  0  0
 18 23  2  0  0  0
 19 20  2  0  0  0
 20 21  1  0  0  0
 20 31  1  0  0  0
 21 22  2  0  0  0
 21 32  1  0  0  0
 22 23  1  0  0  0
 22 33  1  0  0  0
 23 34  1  0  0  0
M  END
> <s_m_entry_id>
34729

> <s_m_entry_name>
dock_pv.472

> <s_m_Source_Path>
/home/csk/Desktop/cluster/DUD-E-result/tgfr1

> <s_m_Source_File>
dock_pv.maegz

> <i_m_Source_File_Index>
472

> <chembl_id>
CHEMBL182678

> <chembl_pref_name>
None

> <i_lp_mmshare_version>
53161

> <r_lp_tautomer_probability>
1

> <s_lp_Force_Field>
OPLS_2005

> <r_lp_Energy>
16.342116

> <b_lp_Chiralities_Consistent>
1

> <s_lp_Variant>
CHEMBL4439_lig71-1

> <s_i_glide_gridfile>
glide-grid_3hmm

> <i_i_glide_lignum>
107

> <i_i_glide_rotatable_bonds>
2

> <r_i_docking_score>
-7.23657045243243

> <r_i_glide_ligand_efficiency>
-0.314633497931845

> <r_i_glide_ligand_efficiency_sa>
-0.894775814588381

> <r_i_glide_ligand_efficiency_ln>
-1.74986835299116

> <r_i_glide_gscore>
-7.23657045243243

> <r_i_glide_lipo>
-3.99267244402245

> <r_i_glide_hbond>
0

> <r_i_glide_metal>
0

> <r_i_glide_rewards>
-1.49202478188913

> <r_i_glide_evdw>
-43.1886444091797

> <r_i_glide_ecoul>
0.519901812076569

> <r_i_glide_erotb>
0.329573722126651

> <r_i_glide_esite>
0

> <r_i_glide_emodel>
-60.0934790263196

> <r_i_glide_energy>
-42.6687425971031

> <r_i_glide_einternal>
0.726339399814606

> <i_i_glide_confnum>
10

> <i_i_glide_posenum>
187

> <r_i_glide_eff_state_penalty>
0

> <s_user_duplicate_titles>
CHEMBL4439_lig71

> <i_f3d_flags>
0

> <s_m_subgroup_title>
dock_pv

> <s_m_subgroupid>
dock_pv

> <b_m_subgroup_collapsed>
1

$$$$
CHEMBL4439_lig900 
                    3D
 Schrodinger Suite 2021-1.
 49 53  0  0  1  0            999 V2000
   15.2013   65.5152    5.9658 C   0  0  0  0  0  0
   15.1892   66.4481    7.0138 C   0  0  0  0  0  0
   13.9836   66.8206    7.6235 C   0  0  0  0  0  0
   12.7620   66.2676    7.2152 C   0  0  0  0  0  0
   13.9826   64.9704    5.5413 C   0  0  0  0  0  0
   12.7778   65.3382    6.1649 C   0  0  0  0  0  0
   11.6727   64.7236    5.6833 N   0  0  0  0  0  0
   12.2359   63.6999    4.4841 S   0  0  0  0  0  0
   13.8669   64.0597    4.5437 N   0  0  0  0  0  0
   16.4990   66.9942    7.4792 C   0  0  0  0  0  0
   17.5245   67.6493    6.7417 C   0  0  0  0  0  0
   18.5915   67.8364    7.4957 N   0  0  0  0  0  0
   18.3071   67.3439    8.7065 N   0  0  0  0  0  0
   17.0237   66.8677    8.7625 C   0  0  0  0  0  0
   17.5664   68.0571    5.2886 C   0  0  0  0  0  0
   18.7286   68.5537    4.6753 C   0  0  0  0  0  0
   18.6914   68.8969    3.3225 C   0  0  0  0  0  0
   17.5088   68.7325    2.5997 C   0  0  0  0  0  0
   16.3918   68.2314    3.2693 C   0  0  0  0  0  0
   16.4113   67.9068    4.5862 N   0  0  0  0  0  0
   15.0568   68.0556    2.5721 C   0  0  0  0  0  0
   19.3816   67.1618    9.6950 C   0  0  0  0  0  0
   20.0407   68.4337   10.2519 C   0  0  0  0  0  0
   19.8220   68.7634   11.5586 N   0  0  0  0  0  0
   21.0668   69.3864    9.3536 S   0  0  0  0  0  0
   19.2946   67.9841   12.5961 C   0  0  0  0  0  0
   20.1613   67.5760   13.6157 C   0  0  0  0  0  0
   19.6844   66.8045   14.6748 C   0  0  0  0  0  0
   18.3350   66.4582   14.7350 C   0  0  0  0  0  0
   17.4618   66.8944   13.7397 C   0  0  0  0  0  0
   17.9329   67.6583   12.6713 C   0  0  0  0  0  0
   17.0678   68.0578   11.7120 F   0  0  0  0  0  0
   16.1302   65.2353    5.4951 H   0  0  0  0  0  0
   13.9971   67.5372    8.4316 H   0  0  0  0  0  0
   11.8309   66.5355    7.6937 H   0  0  0  0  0  0
   16.6454   66.3974    9.6573 H   0  0  0  0  0  0
   19.6462   68.6734    5.2318 H   0  0  0  0  0  0
   19.5753   69.2867    2.8383 H   0  0  0  0  0  0
   17.4626   68.9986    1.5545 H   0  0  0  0  0  0
   15.1782   68.0681    1.4943 H   0  0  0  0  0  0
   14.5969   67.1045    2.8437 H   0  0  0  0  0  0
   14.3662   68.8566    2.8331 H   0  0  0  0  0  0
   20.1576   66.5590    9.2168 H   0  0  0  0  0  0
   19.0024   66.5247   10.4902 H   0  0  0  0  0  0
   20.2541   69.6251   11.8570 H   0  0  0  0  0  0
   21.2127   67.8243   13.5705 H   0  0  0  0  0  0
   20.3666   66.4627   15.4415 H   0  0  0  0  0  0
   17.9670   65.8507   15.5487 H   0  0  0  0  0  0
   16.4134   66.6336   13.7863 H   0  0  0  0  0  0
  1  5  1  0  0  0
  1  2  2  0  0  0
  1 33  1  0  0  0
  2  3  1  0  0  0
  2 10  1  0  0  0
  3  4  2  0  0  0
  3 34  1  0  0  0
  4  6  1  0  0  0
  4 35  1  0  0  0
  5  6  1  0  0  0
  5  9  2  0  0  0
  6  7  2  0  0  0
  7  8  1  0  0  0
  8  9  1  0  0  0
 10 11  1  0  0  0
 10 14  2  0  0  0
 11 12  2  0  0  0
 11 15  1  0  0  0
 12 13  1  0  0  0
 13 14  1  0  0  0
 13 22  1  0  0  0
 14 36  1  0  0  0
 15 16  2  0  0  0
 15 20  1  0  0  0
 16 17  1  0  0  0
 16 37  1  0  0  0
 17 18  2  0  0  0
 17 38  1  0  0  0
 18 19  1  0  0  0
 18 39  1  0  0  0
 19 20  2  0  0  0
 19 21  1  0  0  0
 21 40  1  0  0  0
 21 41  1  0  0  0
 21 42  1  0  0  0
 22 23  1  0  0  0
 22 43  1  0  0  0
 22 44  1  0  0  0
 23 24  1  0  0  0
 23 25  2  0  0  0
 24 26  1  0  0  0
 24 45  1  0  0  0
 26 27  2  0  0  0
 26 31  1  0  0  0
 27 28  1  0  0  0
 27 46  1  0  0  0
 28 29  2  0  0  0
 28 47  1  0  0  0
 29 30  1  0  0  0
 29 48  1  0  0  0
 30 31  2  0  0  0
 30 49  1  0  0  0
 31 32  1  0  0  0
M  END
> <s_m_entry_id>
34730

> <s_m_entry_name>
dock_pv.473

> <s_m_Source_Path>
/home/csk/Desktop/cluster/DUD-E-result/tgfr1

> <s_m_Source_File>
dock_pv.maegz

> <i_m_Source_File_Index>
473

> <chembl_id>
CHEMBL4461256

> <chembl_pref_name>
None

> <i_lp_mmshare_version>
53161

> <r_lp_tautomer_probability>
1

> <s_lp_Force_Field>
OPLS_2005

> <r_lp_Energy>
30.893684

> <b_lp_Chiralities_Consistent>
1

> <s_lp_Variant>
CHEMBL4439_lig900 -1

> <s_i_glide_gridfile>
glide-grid_3hmm

> <i_i_glide_lignum>
1235

> <i_i_glide_rotatable_bonds>
6

> <r_i_docking_score>
-7.23442590456285

> <r_i_glide_ligand_efficiency>
-0.226075809517589

> <r_i_glide_ligand_efficiency_sa>
-0.717745954876393

> <r_i_glide_ligand_efficiency_ln>
-1.61998516303379

> <r_i_glide_gscore>
-7.23442590456285

> <r_i_glide_lipo>
-3.82925029156219

> <r_i_glide_hbond>
0

> <r_i_glide_metal>
0

> <r_i_glide_rewards>
-0.93203978371957

> <r_i_glide_evdw>
-60.4838790893555

> <r_i_glide_ecoul>
0.510344982147217

> <r_i_glide_erotb>
0.474506377864605

> <r_i_glide_esite>
0

> <r_i_glide_emodel>
-80.036710818346

> <r_i_glide_energy>
-59.9735341072083

> <r_i_glide_einternal>
7.36922788619995

> <i_i_glide_confnum>
2

> <i_i_glide_posenum>
128

> <r_i_glide_eff_state_penalty>
0

> <s_user_duplicate_titles>
CHEMBL4439_lig900 

> <i_f3d_flags>
0

> <s_m_subgroup_title>
dock_pv

> <s_m_subgroupid>
dock_pv

> <b_m_subgroup_collapsed>
1

$$$$
CHEMBL4439_lig216
                    3D
 Schrodinger Suite 2021-1.
 50 54  0  0  1  0            999 V2000
   17.0930   67.9901    6.4649 C   0  0  0  0  0  0
   16.0339   67.1487    6.8745 C   0  0  0  0  0  0
   15.8517   67.2114    8.1863 N   0  0  0  0  0  0
   16.7309   68.0709    8.6224 C   0  0  0  0  0  0
   17.5328   68.5871    7.6375 N   0  0  0  0  0  0
   17.6372   68.3031    5.0970 C   0  0  0  0  0  0
   16.7618   68.4569    4.0165 C   0  0  0  0  0  0
   17.2417   68.7813    2.7519 C   0  0  0  0  0  0
   18.6053   68.9707    2.5656 C   0  0  0  0  0  0
   19.4905   68.8273    3.6312 C   0  0  0  0  0  0
   19.0090   68.4569    4.8822 C   0  0  0  0  0  0
   15.1692   66.2519    6.0351 C   0  0  0  0  0  0
   15.6595   65.6664    4.8662 C   0  0  0  0  0  0
   14.8047   64.8527    4.1331 C   0  0  0  0  0  0
   13.5257   64.6481    4.5065 N   0  0  0  0  0  0
   13.1073   65.2586    5.6480 C   0  0  0  0  0  0
   13.8867   66.0332    6.4494 N   0  0  0  0  0  0
   19.0716   69.2601    1.3317 F   0  0  0  0  0  0
   18.5345   69.6435    7.8234 C   0  0  0  0  0  0
   19.8465   69.2140    8.4832 C   0  0  0  0  0  0
   19.8668   68.8570    9.8366 C   0  0  0  0  0  0
   21.0753   68.6076   10.4926 C   0  0  0  0  0  0
   22.2726   68.6395    9.7721 C   0  0  0  0  0  0
   22.2597   68.9648    8.4156 C   0  0  0  0  0  0
   21.0562   69.2709    7.7800 C   0  0  0  0  0  0
   21.0826   68.3885   11.9328 C   0  0  0  0  0  0
   21.0852   68.2232   13.0794 N   0  0  0  0  0  0
   11.7734   65.1090    6.0440 N   0  0  0  0  0  0
   10.7638   64.6666    5.0903 C   0  0  0  0  0  0
   10.8712   63.2575    4.5540 C   0  0  0  0  0  0
    9.8109   63.6042    5.5664 C   0  0  0  0  0  0
   16.8406   68.4035    9.6432 H   0  0  0  0  0  0
   15.6996   68.3267    4.1511 H   0  0  0  0  0  0
   16.5595   68.8888    1.9213 H   0  0  0  0  0  0
   20.5514   68.9533    3.4724 H   0  0  0  0  0  0
   19.7058   68.2783    5.6833 H   0  0  0  0  0  0
   16.6670   65.8366    4.5314 H   0  0  0  0  0  0
   15.1288   64.3574    3.2313 H   0  0  0  0  0  0
   18.0748   70.4215    8.4326 H   0  0  0  0  0  0
   18.7223   70.1367    6.8712 H   0  0  0  0  0  0
   18.9432   68.8636   10.3981 H   0  0  0  0  0  0
   23.2196   68.4493   10.2586 H   0  0  0  0  0  0
   23.1871   69.0168    7.8619 H   0  0  0  0  0  0
   21.0854   69.5794    6.7456 H   0  0  0  0  0  0
   11.4653   65.5527    6.8977 H   0  0  0  0  0  0
   10.3898   65.4502    4.4282 H   0  0  0  0  0  0
   10.5903   63.0842    3.5142 H   0  0  0  0  0  0
   11.7271   62.6553    4.8581 H   0  0  0  0  0  0
    9.9061   63.2581    6.5962 H   0  0  0  0  0  0
    8.7757   63.6520    5.2354 H   0  0  0  0  0  0
  1  5  1  0  0  0
  1  6  1  0  0  0
  1  2  2  0  0  0
  2 12  1  0  0  0
  2  3  1  0  0  0
  3  4  2  0  0  0
  4  5  1  0  0  0
  4 32  1  0  0  0
  5 19  1  0  0  0
  6  7  2  0  0  0
  6 11  1  0  0  0
  7  8  1  0  0  0
  7 33  1  0  0  0
  8  9  2  0  0  0
  8 34  1  0  0  0
  9 10  1  0  0  0
  9 18  1  0  0  0
 10 11  2  0  0  0
 10 35  1  0  0  0
 11 36  1  0  0  0
 12 13  2  0  0  0
 12 17  1  0  0  0
 13 14  1  0  0  0
 13 37  1  0  0  0
 14 15  2  0  0  0
 14 38  1  0  0  0
 15 16  1  0  0  0
 16 17  2  0  0  0
 16 28  1  0  0  0
 19 20  1  0  0  0
 19 39  1  0  0  0
 19 40  1  0  0  0
 20 21  2  0  0  0
 20 25  1  0  0  0
 21 22  1  0  0  0
 21 41  1  0  0  0
 22 23  2  0  0  0
 22 26  1  0  0  0
 23 24  1  0  0  0
 23 42  1  0  0  0
 24 25  2  0  0  0
 24 43  1  0  0  0
 25 44  1  0  0  0
 26 27  3  0  0  0
 28 29  1  0  0  0
 28 45  1  0  0  0
 29 30  1  0  0  0
 29 31  1  0  0  0
 29 46  1  0  0  0
 30 31  1  0  0  0
 30 47  1  0  0  0
 30 48  1  0  0  0
 31 49  1  0  0  0
 31 50  1  0  0  0
M  END
> <s_m_entry_id>
34732

> <s_m_entry_name>
dock_pv.475

> <s_m_Source_Path>
/home/csk/Desktop/cluster/DUD-E-result/tgfr1

> <s_m_Source_File>
dock_pv.maegz

> <i_m_Source_File_Index>
475

> <chembl_id>
CHEMBL495301

> <chembl_pref_name>
None

> <i_lp_mmshare_version>
53161

> <r_lp_tautomer_probability>
0.999999987636

> <s_lp_Force_Field>
OPLS_2005

> <r_lp_Energy>
21.99806

> <b_lp_Chiralities_Consistent>
1

> <s_lp_Variant>
CHEMBL4439_lig216-1

> <s_i_glide_gridfile>
glide-grid_3hmm

> <i_i_glide_lignum>
317

> <i_i_glide_rotatable_bonds>
6

> <r_i_docking_score>
-7.21953795912882

> <r_i_glide_ligand_efficiency>
-0.23288832126222

> <r_i_glide_ligand_efficiency_sa>
-0.731590865743624

> <r_i_glide_ligand_efficiency_ln>
-1.6282270620506

> <r_i_glide_gscore>
-7.21953795912882

> <r_i_glide_lipo>
-3.59410404909102

> <r_i_glide_hbond>
0

> <r_i_glide_metal>
0

> <r_i_glide_rewards>
-1.45227479424292

> <r_i_glide_evdw>
-49.9281425476074

> <r_i_glide_ecoul>
-2.5225772857666

> <r_i_glide_erotb>
0.701634604450477

> <r_i_glide_esite>
0

> <r_i_glide_emodel>
-72.9098331992603

> <r_i_glide_energy>
-52.450719833374

> <r_i_glide_einternal>
4.52085590362549

> <i_i_glide_confnum>
64

> <i_i_glide_posenum>
371

> <r_i_glide_eff_state_penalty>
0

> <s_user_duplicate_titles>
CHEMBL4439_lig216

> <i_f3d_flags>
0

> <s_m_subgroup_title>
dock_pv

> <s_m_subgroupid>
dock_pv

> <b_m_subgroup_collapsed>
1

$$$$
CHEMBL4439_lig498
                    3D
 Schrodinger Suite 2021-1.
 42 45  0  0  1  0            999 V2000
   16.2994   67.4588    9.0417 C   0  0  0  0  0  0
   15.2455   66.8571    8.4287 N   0  0  0  0  0  0
   15.4890   66.8368    7.0814 C   0  0  0  0  0  0
   16.6772   67.5925    6.9598 C   0  0  0  0  0  0
   17.1495   67.9246    8.1625 N   0  0  0  0  0  0
   17.4153   68.0421    5.7280 C   0  0  0  0  0  0
   16.7378   68.1787    4.5024 C   0  0  0  0  0  0
   19.4956   68.7832    4.6517 C   0  0  0  0  0  0
   18.7945   68.3527    5.7862 C   0  0  0  0  0  0
   18.7812   68.9084    3.4673 C   0  0  0  0  0  0
   17.4525   68.6147    3.3932 C   0  0  0  0  0  0
   17.0133   68.8119    2.1225 O   0  0  0  0  0  0
   18.0854   69.3980    1.4337 C   0  0  0  0  0  0
   19.2241   69.2953    2.2447 O   0  0  0  0  0  0
   14.5595   66.1189    6.1953 C   0  0  0  0  0  0
   13.2934   65.9368    6.4908 N   0  0  0  0  0  0
   12.6717   65.1484    5.6336 C   0  0  0  0  0  0
   13.4529   64.6589    4.5964 C   0  0  0  0  0  0
   15.0669   65.2572    4.7740 S   0  0  0  0  0  0
   11.2136   64.8862    5.9004 C   0  0  0  0  0  0
   16.3890   67.5580   10.5520 C   0  0  0  0  0  0
   17.8227   67.5568   11.1192 C   0  0  0  0  0  0
   17.8307   67.3656   12.6473 C   0  0  0  0  0  0
   19.1914   67.2604   13.1406 N   0  0  0  0  0  0
   14.4447   66.4613    8.8940 H   0  0  0  0  0  0
   15.6803   67.9842    4.4232 H   0  0  0  0  0  0
   20.5513   69.0062    4.7051 H   0  0  0  0  0  0
   19.3348   68.2522    6.7163 H   0  0  0  0  0  0
   17.8666   70.4534    1.2579 H   0  0  0  0  0  0
   18.2609   68.8765    0.4930 H   0  0  0  0  0  0
   13.1703   64.0208    3.7708 H   0  0  0  0  0  0
   10.7418   64.3173    5.0985 H   0  0  0  0  0  0
   10.6669   65.8223    5.9947 H   0  0  0  0  0  0
   11.0687   64.3251    6.8248 H   0  0  0  0  0  0
   15.8674   68.4522   10.8788 H   0  0  0  0  0  0
   15.8447   66.7259   11.0020 H   0  0  0  0  0  0
   18.3942   66.7543   10.6497 H   0  0  0  0  0  0
   18.3250   68.4892   10.8543 H   0  0  0  0  0  0
   17.3257   68.1960   13.1430 H   0  0  0  0  0  0
   17.2901   66.4576   12.9176 H   0  0  0  0  0  0
   19.1983   66.8524   14.0633 H   0  0  0  0  0  0
   19.7148   66.6113   12.5573 H   0  0  0  0  0  0
  1  2  1  0  0  0
  1 21  1  0  0  0
  1  5  2  0  0  0
  2  3  1  0  0  0
  2 25  1  0  0  0
  3  4  2  0  0  0
  3 15  1  0  0  0
  4  6  1  0  0  0
  4  5  1  0  0  0
  6  7  2  0  0  0
  6  9  1  0  0  0
  7 11  1  0  0  0
  7 26  1  0  0  0
  8 10  1  0  0  0
  8  9  2  0  0  0
  8 27  1  0  0  0
  9 28  1  0  0  0
 10 14  1  0  0  0
 10 11  2  0  0  0
 11 12  1  0  0  0
 12 13  1  0  0  0
 13 14  1  0  0  0
 13 29  1  0  0  0
 13 30  1  0  0  0
 15 16  2  0  0  0
 15 19  1  0  0  0
 16 17  1  0  0  0
 17 18  2  0  0  0
 17 20  1  0  0  0
 18 19  1  0  0  0
 18 31  1  0  0  0
 20 32  1  0  0  0
 20 33  1  0  0  0
 20 34  1  0  0  0
 21 22  1  0  0  0
 21 35  1  0  0  0
 21 36  1  0  0  0
 22 23  1  0  0  0
 22 37  1  0  0  0
 22 38  1  0  0  0
 23 24  1  0  0  0
 23 39  1  0  0  0
 23 40  1  0  0  0
 24 41  1  0  0  0
 24 42  1  0  0  0
M  END
> <s_m_entry_id>
34733

> <s_m_entry_name>
dock_pv.476

> <s_m_Source_Path>
/home/csk/Desktop/cluster/DUD-E-result/tgfr1

> <s_m_Source_File>
dock_pv.maegz

> <i_m_Source_File_Index>
476

> <chembl_id>
CHEMBL1957654

> <chembl_pref_name>
None

> <i_lp_mmshare_version>
53161

> <r_lp_tautomer_probability>
0.499999999999999

> <s_lp_Force_Field>
OPLS_2005

> <r_lp_Energy>
22.919375

> <b_lp_Chiralities_Consistent>
1

> <s_lp_Variant>
CHEMBL4439_lig498-2

> <s_i_glide_gridfile>
glide-grid_3hmm

> <i_i_glide_lignum>
652

> <i_i_glide_rotatable_bonds>
5

> <r_i_docking_score>
-7.21275877839096

> <r_i_glide_ligand_efficiency>
-0.30053161576629

> <r_i_glide_ligand_efficiency_sa>
-0.866883186487112

> <r_i_glide_ligand_efficiency_ln>
-1.72634414760288

> <r_i_glide_gscore>
-7.21275877839096

> <r_i_glide_lipo>
-3.40914094810368

> <r_i_glide_hbond>
-0.32

> <r_i_glide_metal>
0

> <r_i_glide_rewards>
-1.82288354006553

> <r_i_glide_evdw>
-45.0056991577148

> <r_i_glide_ecoul>
-0.380667567253113

> <r_i_glide_erotb>
0.646904625097919

> <r_i_glide_esite>
-0.00025382234596478

> <r_i_glide_emodel>
-64.9792406140037

> <r_i_glide_energy>
-45.386366724968

> <r_i_glide_einternal>
1.40194463729858

> <i_i_glide_confnum>
10

> <i_i_glide_posenum>
106

> <r_i_glide_eff_state_penalty>
0

> <s_user_duplicate_titles>
CHEMBL4439_lig498

> <i_f3d_flags>
0

> <s_m_subgroup_title>
dock_pv

> <s_m_subgroupid>
dock_pv

> <b_m_subgroup_collapsed>
1

$$$$
CHEMBL4439_lig846
                    3D
 Schrodinger Suite 2021-1.
 44 47  0  0  1  0            999 V2000
   12.9256   64.3232    4.3233 C   0  0  0  0  0  0
   11.8837   64.1255    5.2291 C   0  0  0  0  0  0
   11.8753   64.8297    6.4306 C   0  0  0  0  0  0
   12.8696   65.6576    6.8352 N   0  0  0  0  0  0
   13.8837   65.2740    4.6944 C   0  0  0  0  0  0
   13.8609   65.8813    5.9714 C   0  0  0  0  0  0
   15.0663   66.6420    6.1146 C   0  0  0  0  0  0
   15.5920   66.7770    4.8312 C   0  0  0  0  0  0
   14.9301   65.8671    4.0320 N   0  0  0  0  0  0
   15.5994   67.1420    7.3995 C   0  0  0  0  0  0
   15.5363   68.4631    7.8359 C   0  0  0  0  0  0
   16.0534   68.8573    9.0271 N   0  0  0  0  0  0
   16.6695   67.9373    9.8153 C   0  0  0  0  0  0
   16.7957   66.5983    9.4258 C   0  0  0  0  0  0
   16.2544   66.2111    8.2052 C   0  0  0  0  0  0
   16.6900   67.6362    4.2861 C   0  0  0  0  0  0
   16.6349   68.0613    2.9526 C   0  0  0  0  0  0
   17.6580   68.8626    2.4501 C   0  0  0  0  0  0
   18.7104   69.2587    3.2032 N   0  0  0  0  0  0
   18.7696   68.8548    4.5039 C   0  0  0  0  0  0
   17.7706   68.0571    5.0730 C   0  0  0  0  0  0
   19.8204   69.2600    5.3452 N   0  0  0  0  0  0
   21.0629   69.6377    4.9811 C   0  0  0  0  0  0
   21.9899   70.0612    6.1139 C   0  0  0  0  0  0
   21.4819   69.6572    3.8243 O   0  0  0  0  0  0
   17.1506   68.4566   10.9969 O   0  0  0  0  0  0
   17.7635   67.5874   11.9408 C   0  0  0  0  0  0
   12.9352   63.8422    3.3532 H   0  0  0  0  0  0
   11.0726   63.4528    4.9890 H   0  0  0  0  0  0
   11.0671   64.6967    7.1261 H   0  0  0  0  0  0
   15.1867   65.7218    3.0677 H   0  0  0  0  0  0
   15.0698   69.2260    7.2303 H   0  0  0  0  0  0
   17.3069   65.8685   10.0311 H   0  0  0  0  0  0
   16.3583   65.1940    7.8712 H   0  0  0  0  0  0
   15.8051   67.7940    2.3161 H   0  0  0  0  0  0
   17.6438   69.2110    1.4291 H   0  0  0  0  0  0
   17.8435   67.7528    6.1063 H   0  0  0  0  0  0
   19.6570   69.1415    6.3322 H   0  0  0  0  0  0
   22.6151   69.2249    6.4269 H   0  0  0  0  0  0
   21.4358   70.4245    6.9787 H   0  0  0  0  0  0
   22.6519   70.8576    5.7747 H   0  0  0  0  0  0
   18.0948   68.1699   12.8006 H   0  0  0  0  0  0
   17.0558   66.8410   12.3023 H   0  0  0  0  0  0
   18.6400   67.0881   11.5248 H   0  0  0  0  0  0
  1  5  1  0  0  0
  1  2  2  0  0  0
  1 28  1  0  0  0
  2  3  1  0  0  0
  2 29  1  0  0  0
  3  4  2  0  0  0
  3 30  1  0  0  0
  4  6  1  0  0  0
  5  6  2  0  0  0
  5  9  1  0  0  0
  6  7  1  0  0  0
  7  8  2  0  0  0
  7 10  1  0  0  0
  8  9  1  0  0  0
  8 16  1  0  0  0
  9 31  1  0  0  0
 10 11  2  0  0  0
 10 15  1  0  0  0
 11 12  1  0  0  0
 11 32  1  0  0  0
 12 13  2  0  0  0
 13 14  1  0  0  0
 13 26  1  0  0  0
 14 15  2  0  0  0
 14 33  1  0  0  0
 15 34  1  0  0  0
 16 17  2  0  0  0
 16 21  1  0  0  0
 17 18  1  0  0  0
 17 35  1  0  0  0
 18 19  2  0  0  0
 18 36  1  0  0  0
 19 20  1  0  0  0
 20 21  2  0  0  0
 20 22  1  0  0  0
 21 37  1  0  0  0
 22 23  1  0  0  0
 22 38  1  0  0  0
 23 24  1  0  0  0
 23 25  2  0  0  0
 24 39  1  0  0  0
 24 40  1  0  0  0
 24 41  1  0  0  0
 26 27  1  0  0  0
 27 42  1  0  0  0
 27 43  1  0  0  0
 27 44  1  0  0  0
M  END
> <s_m_entry_id>
34734

> <s_m_entry_name>
dock_pv.477

> <s_m_Source_Path>
/home/csk/Desktop/cluster/DUD-E-result/tgfr1

> <s_m_Source_File>
dock_pv.maegz

> <i_m_Source_File_Index>
477

> <chembl_id>
CHEMBL4279160

> <chembl_pref_name>
None

> <i_lp_mmshare_version>
53161

> <r_lp_tautomer_probability>
0.999991217065141

> <s_lp_Force_Field>
OPLS_2005

> <r_lp_Energy>
11.604556

> <b_lp_Chiralities_Consistent>
1

> <s_lp_Variant>
CHEMBL4439_lig846-1

> <s_i_glide_gridfile>
glide-grid_3hmm

> <i_i_glide_lignum>
1164

> <i_i_glide_rotatable_bonds>
5

> <r_i_docking_score>
-7.19714222578759

> <r_i_glide_ligand_efficiency>
-0.266560823177318

> <r_i_glide_ligand_efficiency_sa>
-0.799682468653413

> <r_i_glide_ligand_efficiency_ln>
-1.67537605600043

> <r_i_glide_gscore>
-7.19714222578759

> <r_i_glide_lipo>
-3.90060545933466

> <r_i_glide_hbond>
0

> <r_i_glide_metal>
0

> <r_i_glide_rewards>
-1.22390985859932

> <r_i_glide_evdw>
-49.0238265991211

> <r_i_glide_ecoul>
-0.444260686635971

> <r_i_glide_erotb>
0.44520352509784

> <r_i_glide_esite>
0

> <r_i_glide_emodel>
-66.130730789899

> <r_i_glide_energy>
-49.4680872857571

> <r_i_glide_einternal>
5.62736034393311

> <i_i_glide_confnum>
17

> <i_i_glide_posenum>
1

> <r_i_glide_eff_state_penalty>
0

> <s_user_duplicate_titles>
CHEMBL4439_lig846

> <i_f3d_flags>
0

> <s_m_subgroup_title>
dock_pv

> <s_m_subgroupid>
dock_pv

> <b_m_subgroup_collapsed>
1

$$$$
CHEMBL4439_lig230
                    3D
 Schrodinger Suite 2021-1.
 42 46  0  0  1  0            999 V2000
   18.5507   68.0572   11.2314 C   0  0  0  0  0  0
   17.4573   67.4659   11.8568 C   0  0  0  0  0  0
   16.4192   66.9249   11.1032 C   0  0  0  0  0  0
   18.6156   68.1406    9.8451 C   0  0  0  0  0  0
   17.5627   67.6163    9.0489 C   0  0  0  0  0  0
   16.4491   66.9918    9.6930 C   0  0  0  0  0  0
   15.4095   66.4567    8.9904 N   0  0  0  0  0  0
   15.4914   66.5123    7.6377 C   0  0  0  0  0  0
   16.4984   67.0762    6.9413 N   0  0  0  0  0  0
   17.5100   67.6555    7.6262 C   0  0  0  0  0  0
   14.3803   65.9250    6.8316 C   0  0  0  0  0  0
   18.5245   68.2762    6.8759 N   0  0  0  0  0  0
   13.0369   66.0718    7.1988 C   0  0  0  0  0  0
   12.0499   65.5073    6.3905 C   0  0  0  0  0  0
   12.4105   64.8086    5.2390 C   0  0  0  0  0  0
   13.7664   64.6936    4.9321 C   0  0  0  0  0  0
   14.7417   65.2354    5.7092 N   0  0  0  0  0  0
   14.2254   63.9223    3.7090 C   0  0  0  0  0  0
   18.6532   68.5544    5.5023 C   0  0  0  0  0  0
   19.9149   68.9648    5.0574 C   0  0  0  0  0  0
   20.1635   69.2570    3.7161 C   0  0  0  0  0  0
   17.5747   68.4559    4.6022 C   0  0  0  0  0  0
   17.8260   68.7340    3.2666 C   0  0  0  0  0  0
   19.1007   69.1224    2.8143 C   0  0  0  0  0  0
   19.0661   69.2571    1.4615 N   0  0  0  0  0  0
   17.7774   69.0060    1.0583 N   0  0  0  0  0  0
   17.0374   68.7126    2.1369 N   0  0  0  0  0  0
   19.3550   68.4635   11.8292 H   0  0  0  0  0  0
   17.4128   67.4149   12.9355 H   0  0  0  0  0  0
   15.5796   66.4556   11.5972 H   0  0  0  0  0  0
   19.4639   68.6183    9.3769 H   0  0  0  0  0  0
   19.3199   68.5527    7.4258 H   0  0  0  0  0  0
   12.7590   66.6240    8.0830 H   0  0  0  0  0  0
   11.0120   65.6176    6.6544 H   0  0  0  0  0  0
   11.6589   64.3654    4.6013 H   0  0  0  0  0  0
   13.5302   64.0567    2.8797 H   0  0  0  0  0  0
   14.2680   62.8579    3.9339 H   0  0  0  0  0  0
   15.2111   64.2427    3.3694 H   0  0  0  0  0  0
   20.7339   69.0438    5.7599 H   0  0  0  0  0  0
   21.1489   69.5449    3.3786 H   0  0  0  0  0  0
   16.5752   68.1903    4.8935 H   0  0  0  0  0  0
   16.0561   68.4840    2.0504 H   0  0  0  0  0  0
  1  2  2  0  0  0
  1  4  1  0  0  0
  1 28  1  0  0  0
  2  3  1  0  0  0
  2 29  1  0  0  0
  3  6  2  0  0  0
  3 30  1  0  0  0
  4  5  2  0  0  0
  4 31  1  0  0  0
  5 10  1  0  0  0
  5  6  1  0  0  0
  6  7  1  0  0  0
  7  8  2  0  0  0
  8  9  1  0  0  0
  8 11  1  0  0  0
  9 10  2  0  0  0
 10 12  1  0  0  0
 11 13  2  0  0  0
 11 17  1  0  0  0
 12 19  1  0  0  0
 12 32  1  0  0  0
 13 14  1  0  0  0
 13 33  1  0  0  0
 14 15  2  0  0  0
 14 34  1  0  0  0
 15 16  1  0  0  0
 15 35  1  0  0  0
 16 17  2  0  0  0
 16 18  1  0  0  0
 18 36  1  0  0  0
 18 37  1  0  0  0
 18 38  1  0  0  0
 19 20  2  0  0  0
 19 22  1  0  0  0
 20 21  1  0  0  0
 20 39  1  0  0  0
 21 24  2  0  0  0
 21 40  1  0  0  0
 22 23  2  0  0  0
 22 41  1  0  0  0
 23 24  1  0  0  0
 23 27  1  0  0  0
 24 25  1  0  0  0
 25 26  2  0  0  0
 26 27  1  0  0  0
 27 42  1  0  0  0
M  END
> <s_m_entry_id>
34735

> <s_m_entry_name>
dock_pv.478

> <s_m_Source_Path>
/home/csk/Desktop/cluster/DUD-E-result/tgfr1

> <s_m_Source_File>
dock_pv.maegz

> <i_m_Source_File_Index>
478

> <chembl_id>
CHEMBL563207

> <chembl_pref_name>
None

> <i_lp_mmshare_version>
53161

> <r_lp_tautomer_probability>
0.249994500060499

> <s_lp_Force_Field>
OPLS_2005

> <r_lp_Energy>
19.506792

> <b_lp_Chiralities_Consistent>
1

> <s_lp_Variant>
CHEMBL4439_lig230-2

> <s_i_glide_gridfile>
glide-grid_3hmm

> <i_i_glide_lignum>
334

> <i_i_glide_rotatable_bonds>
3

> <r_i_docking_score>
-7.19457555812249

> <r_i_glide_ligand_efficiency>
-0.266465761411944

> <r_i_glide_ligand_efficiency_sa>
-0.799397283357605

> <r_i_glide_ligand_efficiency_ln>
-1.67477857808282

> <r_i_glide_gscore>
-7.19457555812249

> <r_i_glide_lipo>
-3.33584425373794

> <r_i_glide_hbond>
-0.0837608780718169

> <r_i_glide_metal>
0

> <r_i_glide_rewards>
-1.43869689816693

> <r_i_glide_evdw>
-48.486686706543

> <r_i_glide_ecoul>
-2.47131013870239

> <r_i_glide_erotb>
0.458757327986705

> <r_i_glide_esite>
0

> <r_i_glide_emodel>
-71.7343433821865

> <r_i_glide_energy>
-50.9579968452454

> <r_i_glide_einternal>
3.54995465278625

> <i_i_glide_confnum>
6

> <i_i_glide_posenum>
96

> <r_i_glide_eff_state_penalty>
0

> <s_user_duplicate_titles>
CHEMBL4439_lig230

> <i_f3d_flags>
0

> <s_m_subgroup_title>
dock_pv

> <s_m_subgroupid>
dock_pv

> <b_m_subgroup_collapsed>
1

$$$$
CHEMBL4439_lig427
                    3D
 Schrodinger Suite 2021-1.
 40 43  0  0  1  0            999 V2000
   12.1408   65.5348    6.4248 C   0  0  0  0  0  0
   13.2138   66.1993    7.0140 C   0  0  0  0  0  0
   14.7844   65.2204    5.4568 C   0  0  0  0  0  0
   16.7334   67.3019    6.4990 C   0  0  0  0  0  0
   12.3935   64.6848    5.3390 C   0  0  0  0  0  0
   14.5292   66.0563    6.5532 C   0  0  0  0  0  0
   13.7281   64.5208    4.8557 C   0  0  0  0  0  0
   15.6538   66.7743    7.2214 C   0  0  0  0  0  0
   17.7496   67.9667    7.2059 C   0  0  0  0  0  0
   11.6272   63.8576    4.4812 C   0  0  0  0  0  0
   16.6061   67.5410    9.1835 C   0  0  0  0  0  0
   19.7263   69.5081    7.2730 C   0  0  0  0  0  0
   18.9534   68.6344    5.0966 C   0  0  0  0  0  0
   21.0692   69.8339    6.5894 C   0  0  0  0  0  0
   20.3321   69.0366    4.5312 C   0  0  0  0  0  0
   15.5826   66.8963    8.5768 N   0  0  0  0  0  0
   17.6783   68.0802    8.5634 N   0  0  0  0  0  0
   12.5286   63.2601    3.6344 N   0  0  0  0  0  0
   13.8068   63.6429    3.8070 N   0  0  0  0  0  0
   18.8627   68.5314    6.5699 N   0  0  0  0  0  0
   10.2760   63.6647    4.4524 N   0  0  0  0  0  0
   16.5710   67.6527   10.5653 N   0  0  0  0  0  0
   20.8415   70.1595    5.2307 O   0  0  0  0  0  0
   11.1371   65.6714    6.8022 H   0  0  0  0  0  0
   13.0115   66.8516    7.8518 H   0  0  0  0  0  0
   15.7914   65.0874    5.0899 H   0  0  0  0  0  0
   16.7594   67.2096    5.4253 H   0  0  0  0  0  0
   19.1524   70.4233    7.4187 H   0  0  0  0  0  0
   19.9595   69.1324    8.2699 H   0  0  0  0  0  0
   18.7129   67.6652    4.6598 H   0  0  0  0  0  0
   18.1935   69.3319    4.7431 H   0  0  0  0  0  0
   21.7700   69.0005    6.6822 H   0  0  0  0  0  0
   21.5435   70.6849    7.0789 H   0  0  0  0  0  0
   21.0320   68.1990    4.5777 H   0  0  0  0  0  0
   20.2412   69.2943    3.4749 H   0  0  0  0  0  0
   12.2679   62.6199    2.9001 H   0  0  0  0  0  0
    9.6739   64.1095    5.1316 H   0  0  0  0  0  0
    9.8270   63.0969    3.7488 H   0  0  0  0  0  0
   15.7557   67.3424   11.0746 H   0  0  0  0  0  0
   17.2944   68.2008   11.0058 H   0  0  0  0  0  0
  1  2  2  0  0  0
  1  5  1  0  0  0
  1 24  1  0  0  0
  2  6  1  0  0  0
  2 25  1  0  0  0
  3  6  2  0  0  0
  3  7  1  0  0  0
  3 26  1  0  0  0
  4  8  2  0  0  0
  4  9  1  0  0  0
  4 27  1  0  0  0
  5  7  1  0  0  0
  5 10  2  0  0  0
  6  8  1  0  0  0
  7 19  2  0  0  0
  8 16  1  0  0  0
  9 17  2  0  0  0
  9 20  1  0  0  0
 10 18  1  0  0  0
 10 21  1  0  0  0
 11 22  1  0  0  0
 11 16  2  0  0  0
 11 17  1  0  0  0
 12 20  1  0  0  0
 12 14  1  0  0  0
 12 28  1  0  0  0
 12 29  1  0  0  0
 13 15  1  0  0  0
 13 20  1  0  0  0
 13 30  1  0  0  0
 13 31  1  0  0  0
 14 23  1  0  0  0
 14 32  1  0  0  0
 14 33  1  0  0  0
 15 23  1  0  0  0
 15 34  1  0  0  0
 15 35  1  0  0  0
 18 19  1  0  0  0
 18 36  1  0  0  0
 21 37  1  0  0  0
 21 38  1  0  0  0
 22 39  1  0  0  0
 22 40  1  0  0  0
M  END
> <s_m_entry_id>
34736

> <s_m_entry_name>
dock_pv.479

> <s_m_Source_Path>
/home/csk/Desktop/cluster/DUD-E-result/tgfr1

> <s_m_Source_File>
dock_pv.maegz

> <i_m_Source_File_Index>
479

> <chembl_id>
CHEMBL1614772

> <chembl_pref_name>
None

> <i_lp_mmshare_version>
53161

> <r_lp_tautomer_probability>
0.999999648617923

> <s_lp_Force_Field>
OPLS_2005

> <r_lp_Energy>
33.849719

> <b_lp_Chiralities_Consistent>
1

> <s_lp_Variant>
CHEMBL4439_lig427-1

> <s_i_glide_gridfile>
glide-grid_3hmm

> <i_i_glide_lignum>
567

> <i_i_glide_rotatable_bonds>
2

> <r_i_docking_score>
-7.19015592566324

> <r_i_glide_ligand_efficiency>
-0.312615475028837

> <r_i_glide_ligand_efficiency_sa>
-0.88903682589593

> <r_i_glide_ligand_efficiency_ln>
-1.73864489955472

> <r_i_glide_gscore>
-7.19015592566324

> <r_i_glide_lipo>
-2.72890107950211

> <r_i_glide_hbond>
0

> <r_i_glide_metal>
0

> <r_i_glide_rewards>
-2.09636765387953

> <r_i_glide_evdw>
-48.5530166625977

> <r_i_glide_ecoul>
-2.13230633735657

> <r_i_glide_erotb>
0.382609591451766

> <r_i_glide_esite>
0

> <r_i_glide_emodel>
-70.676922076872

> <r_i_glide_energy>
-50.6853229999542

> <r_i_glide_einternal>
2.25642585754395

> <i_i_glide_confnum>
15

> <i_i_glide_posenum>
6

> <r_i_glide_eff_state_penalty>
0

> <s_user_duplicate_titles>
CHEMBL4439_lig427

> <i_f3d_flags>
0

> <s_m_subgroup_title>
dock_pv

> <s_m_subgroupid>
dock_pv

> <b_m_subgroup_collapsed>
1

$$$$
CHEMBL4439_lig57
                    3D
 Schrodinger Suite 2021-1.
 45 49  0  0  1  0            999 V2000
   11.5015   63.2572    3.6323 O   0  0  0  0  0  0
   11.2173   64.0499    4.7698 C   0  0  0  0  0  0
   12.4146   64.8094    5.3360 C   0  0  0  0  0  0
   13.6824   64.7309    4.7472 C   0  0  0  0  0  0
   14.7541   65.4209    5.3033 C   0  0  0  0  0  0
   14.5742   66.1840    6.4604 C   0  0  0  0  0  0
   13.3076   66.2742    7.0409 C   0  0  0  0  0  0
   12.2319   65.5965    6.4739 C   0  0  0  0  0  0
   15.7452   66.8639    7.0771 C   0  0  0  0  0  0
   15.9683   66.9799    8.3598 N   0  0  0  0  0  0
   17.1653   67.5464    8.5003 C   0  0  0  0  0  0
   17.7083   67.8905    7.2334 C   0  0  0  0  0  0
   16.7553   67.4316    6.3604 N   0  0  0  0  0  0
   18.9528   68.5615    6.7223 C   0  0  0  0  0  0
   19.6915   69.4614    7.5166 C   0  0  0  0  0  0
   20.8671   70.0571    7.0418 C   0  0  0  0  0  0
   21.2421   69.7952    5.7331 C   0  0  0  0  0  0
   22.2660   70.3276    5.0188 O   0  0  0  0  0  0
   22.2663   69.6570    3.7852 C   0  0  0  0  0  0
   21.0664   68.9377    3.6928 O   0  0  0  0  0  0
   20.5189   68.9630    4.9357 C   0  0  0  0  0  0
   19.3767   68.3238    5.3980 C   0  0  0  0  0  0
   17.7197   67.6967    9.8946 C   0  0  0  0  0  0
   16.8983   67.6569   11.0329 C   0  0  0  0  0  0
   17.4671   67.8349   12.2933 C   0  0  0  0  0  0
   18.8417   68.0496   12.4016 C   0  0  0  0  0  0
   19.6042   68.0555   11.2334 C   0  0  0  0  0  0
   19.0649   67.8565   10.0042 N   0  0  0  0  0  0
   11.8652   63.8351    2.9527 H   0  0  0  0  0  0
   10.4252   64.7537    4.5125 H   0  0  0  0  0  0
   10.8196   63.3935    5.5457 H   0  0  0  0  0  0
   13.8515   64.1353    3.8616 H   0  0  0  0  0  0
   15.7288   65.3358    4.8443 H   0  0  0  0  0  0
   13.1559   66.8668    7.9321 H   0  0  0  0  0  0
   11.2563   65.6691    6.9371 H   0  0  0  0  0  0
   16.8028   67.4841    5.3535 H   0  0  0  0  0  0
   19.3543   69.7275    8.5053 H   0  0  0  0  0  0
   21.4346   70.7337    7.6638 H   0  0  0  0  0  0
   22.3435   70.3726    2.9649 H   0  0  0  0  0  0
   23.1118   68.9693    3.7609 H   0  0  0  0  0  0
   18.8272   67.6715    4.7378 H   0  0  0  0  0  0
   15.8324   67.5155   10.9502 H   0  0  0  0  0  0
   16.8415   67.8154   13.1754 H   0  0  0  0  0  0
   19.3104   68.1908   13.3619 H   0  0  0  0  0  0
   20.6734   68.1970   11.2685 H   0  0  0  0  0  0
  1  2  1  0  0  0
  1 29  1  0  0  0
  2  3  1  0  0  0
  2 30  1  0  0  0
  2 31  1  0  0  0
  3  4  2  0  0  0
  3  8  1  0  0  0
  4  5  1  0  0  0
  4 32  1  0  0  0
  5  6  2  0  0  0
  5 33  1  0  0  0
  6  7  1  0  0  0
  6  9  1  0  0  0
  7  8  2  0  0  0
  7 34  1  0  0  0
  8 35  1  0  0  0
  9 10  2  0  0  0
  9 13  1  0  0  0
 10 11  1  0  0  0
 11 12  2  0  0  0
 11 23  1  0  0  0
 12 13  1  0  0  0
 12 14  1  0  0  0
 13 36  1  0  0  0
 14 15  2  0  0  0
 14 22  1  0  0  0
 15 16  1  0  0  0
 15 37  1  0  0  0
 16 17  2  0  0  0
 16 38  1  0  0  0
 17 18  1  0  0  0
 17 21  1  0  0  0
 18 19  1  0  0  0
 19 20  1  0  0  0
 19 39  1  0  0  0
 19 40  1  0  0  0
 20 21  1  0  0  0
 21 22  2  0  0  0
 22 41  1  0  0  0
 23 24  2  0  0  0
 23 28  1  0  0  0
 24 25  1  0  0  0
 24 42  1  0  0  0
 25 26  2  0  0  0
 25 43  1  0  0  0
 26 27  1  0  0  0
 26 44  1  0  0  0
 27 28  2  0  0  0
 27 45  1  0  0  0
M  END
> <s_m_entry_id>
34737

> <s_m_entry_name>
dock_pv.480

> <s_m_Source_Path>
/home/csk/Desktop/cluster/DUD-E-result/tgfr1

> <s_m_Source_File>
dock_pv.maegz

> <i_m_Source_File_Index>
480

> <chembl_id>
CHEMBL267228

> <chembl_pref_name>
None

> <i_lp_mmshare_version>
53161

> <r_lp_tautomer_probability>
0.499999999999999

> <s_lp_Force_Field>
OPLS_2005

> <r_lp_Energy>
33.307607

> <b_lp_Chiralities_Consistent>
1

> <s_lp_Variant>
CHEMBL4439_lig57-1

> <s_i_glide_gridfile>
glide-grid_3hmm

> <i_i_glide_lignum>
85

> <i_i_glide_rotatable_bonds>
5

> <r_i_docking_score>
-7.18652664285945

> <r_i_glide_ligand_efficiency>
-0.256661665816409

> <r_i_glide_ligand_efficiency_sa>
-0.779375983055664

> <r_i_glide_ligand_efficiency_ln>
-1.65886135476296

> <r_i_glide_gscore>
-7.18652664285945

> <r_i_glide_lipo>
-3.22839376123263

> <r_i_glide_hbond>
-0.171975936509245

> <r_i_glide_metal>
0

> <r_i_glide_rewards>
-1.36352973119463

> <r_i_glide_evdw>
-51.9380950927734

> <r_i_glide_ecoul>
-2.57002401351929

> <r_i_glide_erotb>
0.559781142743618

> <r_i_glide_esite>
0

> <r_i_glide_emodel>
-76.8262558447934

> <r_i_glide_energy>
-54.5081191062927

> <r_i_glide_einternal>
1.93725836277008

> <i_i_glide_confnum>
30

> <i_i_glide_posenum>
100

> <r_i_glide_eff_state_penalty>
0

> <s_user_duplicate_titles>
CHEMBL4439_lig57,274

> <i_f3d_flags>
0

> <s_m_subgroup_title>
dock_pv

> <s_m_subgroupid>
dock_pv

> <b_m_subgroup_collapsed>
1

$$$$
CHEMBL4439_lig837
                    3D
 Schrodinger Suite 2021-1.
 43 46  0  0  1  0            999 V2000
   13.7234   65.0920    4.4317 C   0  0  0  0  0  0
   12.6220   64.8041    5.2345 C   0  0  0  0  0  0
   12.5560   65.3252    6.5222 C   0  0  0  0  0  0
   13.5486   66.0573    7.0933 N   0  0  0  0  0  0
   14.6880   65.9352    4.9872 C   0  0  0  0  0  0
   14.6155   66.3620    6.3389 C   0  0  0  0  0  0
   15.8503   67.0497    6.6622 C   0  0  0  0  0  0
   16.4733   67.2714    5.4054 C   0  0  0  0  0  0
   15.8002   66.5326    4.4591 N   0  0  0  0  0  0
   16.3133   67.4109    8.0601 C   0  0  0  0  0  0
   17.4888   68.0781    8.1377 N   0  0  0  0  0  0
   18.0952   68.2543    9.3376 C   0  0  0  0  0  0
   17.5051   67.8507   10.5349 C   0  0  0  0  0  0
   16.2670   67.2146   10.4722 C   0  0  0  0  0  0
   15.6700   66.9818    9.2302 C   0  0  0  0  0  0
   17.6615   68.0671    4.9387 C   0  0  0  0  0  0
   17.5623   68.8561    3.7826 C   0  0  0  0  0  0
   18.6611   69.6195    3.3802 C   0  0  0  0  0  0
   19.8267   69.6551    4.0756 N   0  0  0  0  0  0
   19.9278   68.8813    5.1908 C   0  0  0  0  0  0
   18.8887   68.0570    5.6079 C   0  0  0  0  0  0
   21.0671   68.8673    6.0035 N   0  0  0  0  0  0
   21.9021   69.8908    6.2541 C   0  0  0  0  0  0
   22.9280   69.6570    7.3569 C   0  0  0  0  0  0
   21.8547   70.9816    5.6959 O   0  0  0  0  0  0
   19.4903   68.8569    9.2972 C   0  0  0  0  0  0
   20.3836   67.9251    8.9571 F   0  0  0  0  0  0
   19.5650   69.8672    8.4317 F   0  0  0  0  0  0
   13.7912   64.7342    3.4137 H   0  0  0  0  0  0
   11.8130   64.2003    4.8487 H   0  0  0  0  0  0
   11.6966   65.1265    7.1486 H   0  0  0  0  0  0
   16.1177   66.4831    3.5021 H   0  0  0  0  0  0
   17.9971   68.0043   11.4841 H   0  0  0  0  0  0
   15.7883   66.8812   11.3810 H   0  0  0  0  0  0
   14.7327   66.4573    9.2080 H   0  0  0  0  0  0
   16.6457   68.8928    3.2124 H   0  0  0  0  0  0
   18.6124   70.2364    2.4940 H   0  0  0  0  0  0
   19.0422   67.4000    6.4486 H   0  0  0  0  0  0
   21.1616   68.0637    6.6039 H   0  0  0  0  0  0
   23.4409   68.7038    7.2316 H   0  0  0  0  0  0
   22.4405   69.6665    8.3307 H   0  0  0  0  0  0
   23.6735   70.4539    7.3528 H   0  0  0  0  0  0
   19.7809   69.2525   10.2710 H   0  0  0  0  0  0
  1  5  1  0  0  0
  1  2  2  0  0  0
  1 29  1  0  0  0
  2  3  1  0  0  0
  2 30  1  0  0  0
  3  4  2  0  0  0
  3 31  1  0  0  0
  4  6  1  0  0  0
  5  6  2  0  0  0
  5  9  1  0  0  0
  6  7  1  0  0  0
  7  8  2  0  0  0
  7 10  1  0  0  0
  8  9  1  0  0  0
  8 16  1  0  0  0
  9 32  1  0  0  0
 10 11  2  0  0  0
 10 15  1  0  0  0
 11 12  1  0  0  0
 12 13  2  0  0  0
 12 26  1  0  0  0
 13 14  1  0  0  0
 13 33  1  0  0  0
 14 15  2  0  0  0
 14 34  1  0  0  0
 15 35  1  0  0  0
 16 17  2  0  0  0
 16 21  1  0  0  0
 17 18  1  0  0  0
 17 36  1  0  0  0
 18 19  2  0  0  0
 18 37  1  0  0  0
 19 20  1  0  0  0
 20 21  2  0  0  0
 20 22  1  0  0  0
 21 38  1  0  0  0
 22 23  1  0  0  0
 22 39  1  0  0  0
 23 24  1  0  0  0
 23 25  2  0  0  0
 24 40  1  0  0  0
 24 41  1  0  0  0
 24 42  1  0  0  0
 26 27  1  0  0  0
 26 28  1  0  0  0
 26 43  1  0  0  0
M  END
> <s_m_entry_id>
34739

> <s_m_entry_name>
dock_pv.482

> <s_m_Source_Path>
/home/csk/Desktop/cluster/DUD-E-result/tgfr1

> <s_m_Source_File>
dock_pv.maegz

> <i_m_Source_File_Index>
482

> <chembl_id>
CHEMBL4284170

> <chembl_pref_name>
None

> <i_lp_mmshare_version>
53161

> <r_lp_tautomer_probability>
0.999991217065141

> <s_lp_Force_Field>
OPLS_2005

> <r_lp_Energy>
13.574793

> <b_lp_Chiralities_Consistent>
1

> <s_lp_Variant>
CHEMBL4439_lig837-1

> <s_i_glide_gridfile>
glide-grid_3hmm

> <i_i_glide_lignum>
1155

> <i_i_glide_rotatable_bonds>
5

> <r_i_docking_score>
-7.16499084141787

> <r_i_glide_ligand_efficiency>
-0.255892530050638

> <r_i_glide_ligand_efficiency_sa>
-0.777040433874044

> <r_i_glide_ligand_efficiency_ln>
-1.65389025947164

> <r_i_glide_gscore>
-7.16499084141787

> <r_i_glide_lipo>
-3.00591000018192

> <r_i_glide_hbond>
-0.32

> <r_i_glide_metal>
0

> <r_i_glide_rewards>
-1.26519436835846

> <r_i_glide_evdw>
-40.883472442627

> <r_i_glide_ecoul>
-6.22591161727905

> <r_i_glide_erotb>
0.404173891845712

> <r_i_glide_esite>
0

> <r_i_glide_emodel>
-62.9328225762614

> <r_i_glide_energy>
-47.109384059906

> <r_i_glide_einternal>
2.37195682525635

> <i_i_glide_confnum>
24

> <i_i_glide_posenum>
207

> <r_i_glide_eff_state_penalty>
0

> <s_user_duplicate_titles>
CHEMBL4439_lig837

> <i_f3d_flags>
0

> <s_m_subgroup_title>
dock_pv

> <s_m_subgroupid>
dock_pv

> <b_m_subgroup_collapsed>
1

$$$$
CHEMBL4439_lig291
                    3D
 Schrodinger Suite 2021-1.
 45 48  0  0  1  0            999 V2000
   18.1373   67.6570    7.5156 C   0  0  2  0  0  0
   17.1381   66.8846    6.8276 N   0  0  0  0  0  0
   15.8760   67.1951    7.2497 C   0  0  0  0  0  0
   15.8585   68.0618    8.1833 N   0  0  0  0  0  0
   17.2394   68.4274    8.4980 C   0  0  1  0  0  0
   14.7224   66.4960    6.6552 C   0  0  0  0  0  0
   14.8854   65.7943    5.4480 C   0  0  0  0  0  0
   13.8558   65.0158    4.9383 C   0  0  0  0  0  0
   12.6542   64.9468    5.6312 C   0  0  0  0  0  0
   12.4479   65.6831    6.7969 C   0  0  0  0  0  0
   13.4851   66.4570    7.3109 C   0  0  0  0  0  0
   17.6044   68.1685    9.9783 C   0  0  0  0  0  0
   18.9068   68.4568   10.4070 C   0  0  0  0  0  0
   19.2840   68.2620   11.7333 C   0  0  0  0  0  0
   18.3578   67.7722   12.6474 C   0  0  0  0  0  0
   17.0673   67.4592   12.2366 C   0  0  0  0  0  0
   16.6905   67.6537   10.9099 C   0  0  0  0  0  0
   19.0585   68.4379    6.5706 C   0  0  0  0  0  0
   20.3773   68.7130    6.9561 C   0  0  0  0  0  0
   21.2361   69.3283    6.0436 C   0  0  0  0  0  0
   20.8576   69.6600    4.7844 N   0  0  0  0  0  0
   19.5785   69.3991    4.4200 C   0  0  0  0  0  0
   18.6539   68.8054    5.2776 C   0  0  0  0  0  0
   18.7072   67.6126   13.9448 F   0  0  0  0  0  0
   11.3551   63.8650    4.9900 S   0  0  2  0  0  0
   10.2823   65.2570    4.4320 C   0  0  0  0  0  0
   10.6671   63.2577    6.2102 O   0  0  0  0  0  0
   18.7721   66.9563    8.0616 H   0  0  0  0  0  0
   17.5041   65.9588    6.6655 H   0  0  0  0  0  0
   17.3330   69.5033    8.3326 H   0  0  0  0  0  0
   15.8190   65.8183    4.9033 H   0  0  0  0  0  0
   13.9960   64.4611    4.0210 H   0  0  0  0  0  0
   11.4943   65.6405    7.3042 H   0  0  0  0  0  0
   13.3302   67.0007    8.2328 H   0  0  0  0  0  0
   19.6243   68.8770    9.7213 H   0  0  0  0  0  0
   20.2861   68.5055   12.0525 H   0  0  0  0  0  0
   16.3512   67.0747   12.9478 H   0  0  0  0  0  0
   15.6803   67.4076   10.6228 H   0  0  0  0  0  0
   20.7532   68.4220    7.9242 H   0  0  0  0  0  0
   22.2675   69.5289    6.3006 H   0  0  0  0  0  0
   19.3031   69.6591    3.4086 H   0  0  0  0  0  0
   17.6513   68.6055    4.9290 H   0  0  0  0  0  0
   10.8440   65.9387    3.7980 H   0  0  0  0  0  0
    9.8679   65.8404    5.2370 H   0  0  0  0  0  0
    9.4671   64.8625    3.8434 H   0  0  0  0  0  0
  1  5  1  0  0  0
  1 18  1  0  0  0
  1  2  1  0  0  0
  1 28  1  0  0  0
  2  3  1  0  0  0
  2 29  1  0  0  0
  3  4  2  0  0  0
  3  6  1  0  0  0
  4  5  1  0  0  0
  5 12  1  0  0  0
  5 30  1  0  0  0
  6  7  2  0  0  0
  6 11  1  0  0  0
  7  8  1  0  0  0
  7 31  1  0  0  0
  8  9  2  0  0  0
  8 32  1  0  0  0
  9 10  1  0  0  0
  9 25  1  0  0  0
 10 11  2  0  0  0
 10 33  1  0  0  0
 11 34  1  0  0  0
 12 17  2  0  0  0
 12 13  1  0  0  0
 13 14  2  0  0  0
 13 35  1  0  0  0
 14 15  1  0  0  0
 14 36  1  0  0  0
 15 16  2  0  0  0
 15 24  1  0  0  0
 16 17  1  0  0  0
 16 37  1  0  0  0
 17 38  1  0  0  0
 18 19  2  0  0  0
 18 23  1  0  0  0
 19 20  1  0  0  0
 19 39  1  0  0  0
 20 21  2  0  0  0
 20 40  1  0  0  0
 21 22  1  0  0  0
 22 23  2  0  0  0
 22 41  1  0  0  0
 23 42  1  0  0  0
 25 26  1  0  0  0
 25 27  2  0  0  0
 26 43  1  0  0  0
 26 44  1  0  0  0
 26 45  1  0  0  0
M  END
> <s_m_entry_id>
34740

> <s_m_entry_name>
dock_pv.483

> <s_m_Source_Path>
/home/csk/Desktop/cluster/DUD-E-result/tgfr1

> <s_m_Source_File>
dock_pv.maegz

> <i_m_Source_File_Index>
483

> <chembl_id>
CHEMBL566254

> <chembl_pref_name>
None

> <i_lp_mmshare_version>
53161

> <r_lp_tautomer_probability>
0.499999999998415

> <s_lp_Force_Field>
OPLS_2005

> <r_lp_Energy>
26.980078

> <b_lp_Chiralities_Consistent>
1

> <s_lp_Variant>
CHEMBL4439_lig291-5

> <s_i_glide_gridfile>
glide-grid_3hmm

> <i_i_glide_lignum>
412

> <i_i_glide_rotatable_bonds>
4

> <r_i_docking_score>
-7.16441211662785

> <r_i_glide_ligand_efficiency>
-0.265348596912143

> <r_i_glide_ligand_efficiency_sa>
-0.796045789861882

> <r_i_glide_ligand_efficiency_ln>
-1.66775702618607

> <r_i_glide_gscore>
-7.16441211662785

> <r_i_glide_lipo>
-2.88930735612653

> <r_i_glide_hbond>
0

> <r_i_glide_metal>
0

> <r_i_glide_rewards>
-1.76877771002618

> <r_i_glide_evdw>
-47.4631500244141

> <r_i_glide_ecoul>
-2.97230005264282

> <r_i_glide_erotb>
0.404004624422521

> <r_i_glide_esite>
-0.0913291657805345

> <r_i_glide_emodel>
-71.5273409953389

> <r_i_glide_energy>
-50.4354500770569

> <r_i_glide_einternal>
1.49779057502747

> <i_i_glide_confnum>
2

> <i_i_glide_posenum>
4

> <r_i_glide_eff_state_penalty>
0

> <s_user_duplicate_titles>
CHEMBL4439_lig291

> <i_f3d_flags>
0

> <s_m_subgroup_title>
dock_pv

> <s_m_subgroupid>
dock_pv

> <b_m_subgroup_collapsed>
1

$$$$
CHEMBL4439_lig313
                    3D
 Schrodinger Suite 2021-1.
 37 40  0  0  1  0            999 V2000
   17.3968   67.9169    6.6043 C   0  0  0  0  0  0
   16.4098   67.3045    7.3005 C   0  0  0  0  0  0
   16.7038   67.4072    8.6502 N   0  0  0  0  0  0
   17.9211   68.0653    8.7384 N   0  0  0  0  0  0
   18.3843   68.4377    7.5306 C   0  0  0  0  0  0
   19.4068   69.0815    7.2913 O   0  0  0  0  0  0
   18.5244   68.4412   10.0200 C   0  0  0  0  0  0
   16.6740   66.2038    9.4837 C   0  0  0  0  0  0
   15.2060   66.5879    6.8030 C   0  0  0  0  0  0
   13.9860   66.7201    7.4733 C   0  0  0  0  0  0
   12.8384   66.0571    7.0385 C   0  0  0  0  0  0
   15.2765   65.7638    5.6759 C   0  0  0  0  0  0
   14.1385   65.0569    5.2177 C   0  0  0  0  0  0
   12.8978   65.2169    5.9065 C   0  0  0  0  0  0
   11.7776   64.5554    5.4990 N   0  0  0  0  0  0
   11.9021   63.7347    4.4287 C   0  0  0  0  0  0
   13.1169   63.5584    3.7680 C   0  0  0  0  0  0
   14.2420   64.2214    4.1444 N   0  0  0  0  0  0
   17.5358   68.1246    5.1579 C   0  0  0  0  0  0
   18.6147   68.4569    4.3378 C   0  0  0  0  0  0
   18.1294   68.5902    3.0370 C   0  0  0  0  0  0
   16.7750   68.3272    3.1057 C   0  0  0  0  0  0
   16.4168   68.0569    4.3866 O   0  0  0  0  0  0
   19.3163   69.1859    9.9114 H   0  0  0  0  0  0
   17.7697   68.8566   10.6879 H   0  0  0  0  0  0
   18.9640   67.5687   10.5049 H   0  0  0  0  0  0
   15.7408   65.6577    9.3466 H   0  0  0  0  0  0
   17.4950   65.5274    9.2330 H   0  0  0  0  0  0
   16.7381   66.4572   10.5437 H   0  0  0  0  0  0
   13.9238   67.3591    8.3421 H   0  0  0  0  0  0
   11.8965   66.1707    7.5584 H   0  0  0  0  0  0
   16.2054   65.6571    5.1413 H   0  0  0  0  0  0
   11.0017   63.2516    4.0862 H   0  0  0  0  0  0
   13.1943   62.9169    2.9015 H   0  0  0  0  0  0
   19.6379   68.5988    4.6588 H   0  0  0  0  0  0
   18.6927   68.8540    2.1539 H   0  0  0  0  0  0
   15.9741   68.3130    2.3806 H   0  0  0  0  0  0
  1  2  2  0  0  0
  1 19  1  0  0  0
  1  5  1  0  0  0
  2  9  1  0  0  0
  2  3  1  0  0  0
  3  8  1  0  0  0
  3  4  1  0  0  0
  4  7  1  0  0  0
  4  5  1  0  0  0
  5  6  2  0  0  0
  7 24  1  0  0  0
  7 25  1  0  0  0
  7 26  1  0  0  0
  8 27  1  0  0  0
  8 28  1  0  0  0
  8 29  1  0  0  0
  9 12  1  0  0  0
  9 10  2  0  0  0
 10 11  1  0  0  0
 10 30  1  0  0  0
 11 14  2  0  0  0
 11 31  1  0  0  0
 12 13  2  0  0  0
 12 32  1  0  0  0
 13 14  1  0  0  0
 13 18  1  0  0  0
 14 15  1  0  0  0
 15 16  2  0  0  0
 16 17  1  0  0  0
 16 33  1  0  0  0
 17 18  2  0  0  0
 17 34  1  0  0  0
 19 20  2  0  0  0
 19 23  1  0  0  0
 20 21  1  0  0  0
 20 35  1  0  0  0
 21 22  2  0  0  0
 21 36  1  0  0  0
 22 23  1  0  0  0
 22 37  1  0  0  0
M  END
> <s_m_entry_id>
34741

> <s_m_entry_name>
dock_pv.484

> <s_m_Source_Path>
/home/csk/Desktop/cluster/DUD-E-result/tgfr1

> <s_m_Source_File>
dock_pv.maegz

> <i_m_Source_File_Index>
484

> <chembl_id>
CHEMBL610195

> <chembl_pref_name>
None

> <i_lp_mmshare_version>
53161

> <r_lp_tautomer_probability>
1

> <s_lp_Force_Field>
OPLS_2005

> <r_lp_Energy>
37.801787

> <b_lp_Chiralities_Consistent>
1

> <s_lp_Variant>
CHEMBL4439_lig313-1

> <s_i_glide_gridfile>
glide-grid_3hmm

> <i_i_glide_lignum>
445

> <i_i_glide_rotatable_bonds>
2

> <r_i_docking_score>
-7.15810814738027

> <r_i_glide_ligand_efficiency>
-0.31122209336436

> <r_i_glide_ligand_efficiency_sa>
-0.885074233794135

> <r_i_glide_ligand_efficiency_ln>
-1.73089545617271

> <r_i_glide_gscore>
-7.15810814738027

> <r_i_glide_lipo>
-3.33675636172663

> <r_i_glide_hbond>
0

> <r_i_glide_metal>
0

> <r_i_glide_rewards>
-1.91715881084923

> <r_i_glide_evdw>
-46.5240631103516

> <r_i_glide_ecoul>
0.188792288303375

> <r_i_glide_erotb>
0.393691337467661

> <r_i_glide_esite>
0

> <r_i_glide_emodel>
-65.3058775475306

> <r_i_glide_energy>
-46.3352708220482

> <r_i_glide_einternal>
1.44051396846771

> <i_i_glide_confnum>
1

> <i_i_glide_posenum>
76

> <r_i_glide_eff_state_penalty>
0

> <s_user_duplicate_titles>
CHEMBL4439_lig313,593953

> <i_f3d_flags>
0

> <s_m_subgroup_title>
dock_pv

> <s_m_subgroupid>
dock_pv

> <b_m_subgroup_collapsed>
1

$$$$
CHEMBL4439_lig310
                    3D
 Schrodinger Suite 2021-1.
 40 43  0  0  1  0            999 V2000
   17.3564   68.0574    5.0171 C   0  0  0  0  0  0
   18.5378   68.5622    5.4707 C   0  0  0  0  0  0
   19.2110   69.1031    4.3768 N   0  0  0  0  0  0
   18.4153   68.8732    3.2636 N   0  0  0  0  0  0
   17.2484   68.2976    3.5882 C   0  0  0  0  0  0
   16.3057   68.0570    2.8317 O   0  0  0  0  0  0
   18.7031   69.4376    1.9386 C   0  0  0  0  0  0
   20.6073   68.7310    4.1263 C   0  0  0  0  0  0
   19.1153   68.5878    6.8552 C   0  0  0  0  0  0
   18.7347   67.6572    7.8290 C   0  0  0  0  0  0
   19.2844   67.6452    9.1106 C   0  0  0  0  0  0
   20.0799   69.5443    7.2047 C   0  0  0  0  0  0
   20.6840   69.5470    8.4838 C   0  0  0  0  0  0
   20.2720   68.5890    9.4574 C   0  0  0  0  0  0
   20.8271   68.5728   10.7043 N   0  0  0  0  0  0
   21.7846   69.4979   10.9701 C   0  0  0  0  0  0
   22.1955   70.4269   10.0155 C   0  0  0  0  0  0
   21.6565   70.4570    8.7717 N   0  0  0  0  0  0
   16.1995   67.4870    5.7688 C   0  0  0  0  0  0
   15.4796   66.3941    5.2565 C   0  0  0  0  0  0
   14.3606   65.8902    5.9190 C   0  0  0  0  0  0
   13.9548   66.4575    7.1249 C   0  0  0  0  0  0
   14.6672   67.5302    7.6591 C   0  0  0  0  0  0
   15.7699   68.0474    6.9798 C   0  0  0  0  0  0
   13.4668   64.5828    5.2320 Cl  0  0  0  0  0  0
   17.8282   69.4665    1.2861 H   0  0  0  0  0  0
   19.0641   70.4571    2.0320 H   0  0  0  0  0  0
   19.4669   68.8571    1.4247 H   0  0  0  0  0  0
   21.2613   69.0054    4.9522 H   0  0  0  0  0  0
   20.7031   67.6561    4.0038 H   0  0  0  0  0  0
   21.0095   69.2240    3.2405 H   0  0  0  0  0  0
   18.0155   66.8908    7.5866 H   0  0  0  0  0  0
   18.9784   66.9081    9.8396 H   0  0  0  0  0  0
   20.3947   70.2945    6.4951 H   0  0  0  0  0  0
   22.2240   69.4782   11.9562 H   0  0  0  0  0  0
   22.9644   71.1568   10.2269 H   0  0  0  0  0  0
   15.7754   65.9419    4.3206 H   0  0  0  0  0  0
   13.0772   66.0828    7.6315 H   0  0  0  0  0  0
   14.3472   67.9868    8.5828 H   0  0  0  0  0  0
   16.2840   68.9016    7.3952 H   0  0  0  0  0  0
  1  5  1  0  0  0
  1  2  2  0  0  0
  1 19  1  0  0  0
  2  9  1  0  0  0
  2  3  1  0  0  0
  3  8  1  0  0  0
  3  4  1  0  0  0
  4  7  1  0  0  0
  4  5  1  0  0  0
  5  6  2  0  0  0
  7 26  1  0  0  0
  7 27  1  0  0  0
  7 28  1  0  0  0
  8 29  1  0  0  0
  8 30  1  0  0  0
  8 31  1  0  0  0
  9 12  1  0  0  0
  9 10  2  0  0  0
 10 11  1  0  0  0
 10 32  1  0  0  0
 11 14  2  0  0  0
 11 33  1  0  0  0
 12 13  2  0  0  0
 12 34  1  0  0  0
 13 14  1  0  0  0
 13 18  1  0  0  0
 14 15  1  0  0  0
 15 16  2  0  0  0
 16 17  1  0  0  0
 16 35  1  0  0  0
 17 18  2  0  0  0
 17 36  1  0  0  0
 19 20  2  0  0  0
 19 24  1  0  0  0
 20 21  1  0  0  0
 20 37  1  0  0  0
 21 22  2  0  0  0
 21 25  1  0  0  0
 22 23  1  0  0  0
 22 38  1  0  0  0
 23 24  2  0  0  0
 23 39  1  0  0  0
 24 40  1  0  0  0
M  END
> <s_m_entry_id>
34742

> <s_m_entry_name>
dock_pv.485

> <s_m_Source_Path>
/home/csk/Desktop/cluster/DUD-E-result/tgfr1

> <s_m_Source_File>
dock_pv.maegz

> <i_m_Source_File_Index>
485

> <chembl_id>
CHEMBL592977

> <chembl_pref_name>
None

> <i_lp_mmshare_version>
53161

> <r_lp_tautomer_probability>
1

> <s_lp_Force_Field>
OPLS_2005

> <r_lp_Energy>
42.743542

> <b_lp_Chiralities_Consistent>
1

> <s_lp_Variant>
CHEMBL4439_lig310-1

> <s_i_glide_gridfile>
glide-grid_3hmm

> <i_i_glide_lignum>
442

> <i_i_glide_rotatable_bonds>
2

> <r_i_docking_score>
-7.15313681136311

> <r_i_glide_ligand_efficiency>
-0.286125472454524

> <r_i_glide_ligand_efficiency_sa>
-0.83663595591389

> <r_i_glide_ligand_efficiency_ln>
-1.69550778650532

> <r_i_glide_gscore>
-7.15313681136311

> <r_i_glide_lipo>
-3.42557989394272

> <r_i_glide_hbond>
0

> <r_i_glide_metal>
0

> <r_i_glide_rewards>
-1.87373336821936

> <r_i_glide_evdw>
-45.0875854492188

> <r_i_glide_ecoul>
0.604713261127472

> <r_i_glide_erotb>
0.309848734090791

> <r_i_glide_esite>
0

> <r_i_glide_emodel>
-63.6016507080949

> <r_i_glide_energy>
-44.4828721880913

> <r_i_glide_einternal>
0.628016829490662

> <i_i_glide_confnum>
8

> <i_i_glide_posenum>
98

> <r_i_glide_eff_state_penalty>
0

> <s_user_duplicate_titles>
CHEMBL4439_lig310,593916

> <i_f3d_flags>
0

> <s_m_subgroup_title>
dock_pv

> <s_m_subgroupid>
dock_pv

> <b_m_subgroup_collapsed>
1

$$$$
CHEMBL4439_lig192
                    3D
 Schrodinger Suite 2021-1.
 43 46  0  0  1  0            999 V2000
   15.8053   66.8865    5.7678 C   0  0  0  0  0  0
   16.6582   67.3436    6.7950 C   0  0  0  0  0  0
   17.6460   68.0568    6.2749 N   0  0  0  0  0  0
   17.4895   68.0972    4.9806 C   0  0  0  0  0  0
   16.3813   67.3823    4.6204 N   0  0  0  0  0  0
   14.5460   66.0834    5.7224 C   0  0  0  0  0  0
   13.4704   66.3878    6.5631 C   0  0  0  0  0  0
   12.2907   65.6490    6.4858 C   0  0  0  0  0  0
   12.1888   64.6015    5.5721 C   0  0  0  0  0  0
   13.2535   64.2922    4.7296 C   0  0  0  0  0  0
   14.4301   65.0352    4.8023 C   0  0  0  0  0  0
   16.6339   67.1330    8.2884 C   0  0  0  0  0  0
   15.8334   66.1648    8.8930 C   0  0  0  0  0  0
   15.8700   66.0765   10.2869 C   0  0  0  0  0  0
   16.6733   66.8606   11.0463 N   0  0  0  0  0  0
   17.4624   67.7281   10.3790 C   0  0  0  0  0  0
   17.4680   67.9175    9.0369 N   0  0  0  0  0  0
   11.0524   63.8724    5.5031 F   0  0  0  0  0  0
   18.3617   68.4566   11.1366 N   0  0  0  0  0  0
   18.3464   68.8970    3.9948 C   0  0  0  0  0  0
   19.7795   69.2986    4.4053 C   0  0  0  0  0  0
   20.1482   69.6073    5.7269 C   0  0  0  0  0  0
   21.4684   69.9339    6.0495 C   0  0  0  0  0  0
   22.4217   70.0554    5.0362 C   0  0  0  0  0  0
   22.0665   69.7807    3.7161 C   0  0  0  0  0  0
   20.7559   69.4136    3.4079 C   0  0  0  0  0  0
   21.8498   70.0998    7.4448 C   0  0  0  0  0  0
   22.1426   70.2282    8.5571 N   0  0  0  0  0  0
   16.0228   67.2687    3.6829 H   0  0  0  0  0  0
   13.5436   67.2002    7.2701 H   0  0  0  0  0  0
   11.4491   65.8781    7.1247 H   0  0  0  0  0  0
   13.1685   63.4766    4.0224 H   0  0  0  0  0  0
   15.2511   64.7914    4.1425 H   0  0  0  0  0  0
   15.2141   65.5213    8.2998 H   0  0  0  0  0  0
   15.2514   65.3826   10.8285 H   0  0  0  0  0  0
   18.8402   69.2319   10.6999 H   0  0  0  0  0  0
   18.3429   68.3527   12.1348 H   0  0  0  0  0  0
   17.8249   69.8135    3.7163 H   0  0  0  0  0  0
   18.4171   68.3300    3.0636 H   0  0  0  0  0  0
   19.4283   69.5875    6.5292 H   0  0  0  0  0  0
   23.4455   70.3215    5.2639 H   0  0  0  0  0  0
   22.8036   69.8667    2.9296 H   0  0  0  0  0  0
   20.4938   69.2551    2.3713 H   0  0  0  0  0  0
  1  2  2  0  0  0
  1  6  1  0  0  0
  1  5  1  0  0  0
  2 12  1  0  0  0
  2  3  1  0  0  0
  3  4  2  0  0  0
  4  5  1  0  0  0
  4 20  1  0  0  0
  5 29  1  0  0  0
  6 11  1  0  0  0
  6  7  2  0  0  0
  7  8  1  0  0  0
  7 30  1  0  0  0
  8  9  2  0  0  0
  8 31  1  0  0  0
  9 18  1  0  0  0
  9 10  1  0  0  0
 10 11  2  0  0  0
 10 32  1  0  0  0
 11 33  1  0  0  0
 12 17  1  0  0  0
 12 13  2  0  0  0
 13 14  1  0  0  0
 13 34  1  0  0  0
 14 15  2  0  0  0
 14 35  1  0  0  0
 15 16  1  0  0  0
 16 17  2  0  0  0
 16 19  1  0  0  0
 19 36  1  0  0  0
 19 37  1  0  0  0
 20 21  1  0  0  0
 20 38  1  0  0  0
 20 39  1  0  0  0
 21 22  2  0  0  0
 21 26  1  0  0  0
 22 23  1  0  0  0
 22 40  1  0  0  0
 23 24  2  0  0  0
 23 27  1  0  0  0
 24 25  1  0  0  0
 24 41  1  0  0  0
 25 26  2  0  0  0
 25 42  1  0  0  0
 26 43  1  0  0  0
 27 28  3  0  0  0
M  END
> <s_m_entry_id>
34744

> <s_m_entry_name>
dock_pv.487

> <s_m_Source_Path>
/home/csk/Desktop/cluster/DUD-E-result/tgfr1

> <s_m_Source_File>
dock_pv.maegz

> <i_m_Source_File_Index>
487

> <chembl_id>
CHEMBL519294

> <chembl_pref_name>
None

> <i_lp_mmshare_version>
53161

> <r_lp_tautomer_probability>
0.499999996908999

> <s_lp_Force_Field>
OPLS_2005

> <r_lp_Energy>
12.523005

> <b_lp_Chiralities_Consistent>
1

> <s_lp_Variant>
CHEMBL4439_lig192-2

> <s_i_glide_gridfile>
glide-grid_3hmm

> <i_i_glide_lignum>
292

> <i_i_glide_rotatable_bonds>
4

> <r_i_docking_score>
-7.1439876172989

> <r_i_glide_ligand_efficiency>
-0.255142414903532

> <r_i_glide_ligand_efficiency_sa>
-0.774762642493235

> <r_i_glide_ligand_efficiency_ln>
-1.64904209866352

> <r_i_glide_gscore>
-7.1439876172989

> <r_i_glide_lipo>
-2.85025659354669

> <r_i_glide_hbond>
-0.182396563719538

> <r_i_glide_metal>
0

> <r_i_glide_rewards>
-2.24914139105123

> <r_i_glide_evdw>
-46.9196586608887

> <r_i_glide_ecoul>
-0.421069771051407

> <r_i_glide_erotb>
0.562502768471996

> <r_i_glide_esite>
-0.0155524387513012

> <r_i_glide_emodel>
-66.0066073535873

> <r_i_glide_energy>
-47.3407284319401

> <r_i_glide_einternal>
3.60006999969482

> <i_i_glide_confnum>
2

> <i_i_glide_posenum>
112

> <r_i_glide_eff_state_penalty>
0

> <s_user_duplicate_titles>
CHEMBL4439_lig192

> <i_f3d_flags>
0

> <s_m_subgroup_title>
dock_pv

> <s_m_subgroupid>
dock_pv

> <b_m_subgroup_collapsed>
1

$$$$
CHEMBL4439_lig512
                    3D
 Schrodinger Suite 2021-1.
 56 59  0  0  1  0            999 V2000
   17.3296   68.3590    3.0820 C   0  0  0  0  0  0
   16.5973   67.8264    4.3022 C   0  0  0  0  0  0
   15.5037   67.0211    4.2345 N   0  0  0  0  0  0
   15.1404   66.6847    5.5174 C   0  0  0  0  0  0
   16.1205   67.3238    6.3165 C   0  0  0  0  0  0
   16.9119   68.0567    5.5451 N   0  0  0  0  0  0
   16.4323   67.2883    7.7933 C   0  0  0  0  0  0
   17.5394   68.0064    8.3033 C   0  0  0  0  0  0
   15.9693   66.4553   10.0566 C   0  0  0  0  0  0
   15.6759   66.5069    8.6868 C   0  0  0  0  0  0
   17.0574   67.1885   10.5080 C   0  0  0  0  0  0
   17.8263   67.9210    9.6575 C   0  0  0  0  0  0
   18.8736   68.4521   10.3363 O   0  0  0  0  0  0
   18.6482   68.1597   11.6888 C   0  0  0  0  0  0
   17.5698   67.2635   11.7627 O   0  0  0  0  0  0
   13.9800   65.7977    5.6735 C   0  0  0  0  0  0
   13.7219   64.8421    4.8080 N   0  0  0  0  0  0
   12.5380   64.2898    4.9784 C   0  0  0  0  0  0
   11.8019   64.7960    6.0418 C   0  0  0  0  0  0
   12.7037   66.0569    6.8289 S   0  0  0  0  0  0
   12.1470   63.2173    3.9903 C   0  0  0  0  0  0
   18.6224   69.1494    3.3951 C   0  0  0  0  0  0
   19.7089   68.3458    4.1491 C   0  0  0  0  0  0
   21.0232   69.1337    4.3506 C   0  0  0  0  0  0
   21.0942   69.8116    5.7230 C   0  0  0  0  0  0
   22.2253   69.6570    6.4266 N   0  0  0  0  0  0
   20.1309   70.4569    6.1299 O   0  0  0  0  0  0
   22.4913   70.2322    7.7438 C   0  0  0  0  0  0
   21.6141   69.6711    8.8832 C   0  0  0  0  0  0
   21.8714   70.3637   10.2292 C   0  0  0  0  0  0
   16.6620   69.0003    2.5048 H   0  0  0  0  0  0
   17.5825   67.5309    2.4191 H   0  0  0  0  0  0
   15.0456   66.7077    3.3911 H   0  0  0  0  0  0
   18.1794   68.5984    7.6636 H   0  0  0  0  0  0
   15.3788   65.8618   10.7380 H   0  0  0  0  0  0
   14.8661   65.9170    8.3151 H   0  0  0  0  0  0
   18.3908   69.0874   12.2040 H   0  0  0  0  0  0
   19.5426   67.6999   12.1149 H   0  0  0  0  0  0
   10.8190   64.5091    6.3851 H   0  0  0  0  0  0
   11.1346   62.8569    4.1682 H   0  0  0  0  0  0
   12.1725   63.5823    2.9627 H   0  0  0  0  0  0
   12.8151   62.3582    4.0395 H   0  0  0  0  0  0
   18.3723   70.0470    3.9626 H   0  0  0  0  0  0
   19.0383   69.5076    2.4519 H   0  0  0  0  0  0
   19.9044   67.4133    3.6321 H   0  0  0  0  0  0
   19.3451   68.0029    5.1169 H   0  0  0  0  0  0
   21.1572   69.8913    3.5782 H   0  0  0  0  0  0
   21.8672   68.4564    4.2442 H   0  0  0  0  0  0
   22.9498   69.0706    6.0317 H   0  0  0  0  0  0
   22.3757   71.3120    7.6896 H   0  0  0  0  0  0
   23.5472   70.0945    7.9848 H   0  0  0  0  0  0
   21.7825   68.5977    8.9851 H   0  0  0  0  0  0
   20.5577   69.7921    8.6358 H   0  0  0  0  0  0
   21.2304   69.9494   11.0083 H   0  0  0  0  0  0
   21.6638   71.4335   10.1679 H   0  0  0  0  0  0
   22.9069   70.2404   10.5489 H   0  0  0  0  0  0
  1 22  1  0  0  0
  1 31  1  0  0  0
  1 32  1  0  0  0
  1  2  1  0  0  0
  2  3  1  0  0  0
  2  6  2  0  0  0
  3  4  1  0  0  0
  3 33  1  0  0  0
  4  5  2  0  0  0
  4 16  1  0  0  0
  5  7  1  0  0  0
  5  6  1  0  0  0
  7  8  2  0  0  0
  7 10  1  0  0  0
  8 12  1  0  0  0
  8 34  1  0  0  0
  9 11  1  0  0  0
  9 10  2  0  0  0
  9 35  1  0  0  0
 10 36  1  0  0  0
 11 15  1  0  0  0
 11 12  2  0  0  0
 12 13  1  0  0  0
 13 14  1  0  0  0
 14 15  1  0  0  0
 14 37  1  0  0  0
 14 38  1  0  0  0
 16 17  2  0  0  0
 16 20  1  0  0  0
 17 18  1  0  0  0
 18 19  2  0  0  0
 18 21  1  0  0  0
 19 20  1  0  0  0
 19 39  1  0  0  0
 21 40  1  0  0  0
 21 41  1  0  0  0
 21 42  1  0  0  0
 22 23  1  0  0  0
 22 43  1  0  0  0
 22 44  1  0  0  0
 23 24  1  0  0  0
 23 45  1  0  0  0
 23 46  1  0  0  0
 24 25  1  0  0  0
 24 47  1  0  0  0
 24 48  1  0  0  0
 25 26  1  0  0  0
 25 27  2  0  0  0
 26 28  1  0  0  0
 26 49  1  0  0  0
 28 29  1  0  0  0
 28 50  1  0  0  0
 28 51  1  0  0  0
 29 30  1  0  0  0
 29 52  1  0  0  0
 29 53  1  0  0  0
 30 54  1  0  0  0
 30 55  1  0  0  0
 30 56  1  0  0  0
M  END
> <s_m_entry_id>
34746

> <s_m_entry_name>
dock_pv.489

> <s_m_Source_Path>
/home/csk/Desktop/cluster/DUD-E-result/tgfr1

> <s_m_Source_File>
dock_pv.maegz

> <i_m_Source_File_Index>
489

> <chembl_id>
CHEMBL1957667

> <chembl_pref_name>
None

> <i_lp_mmshare_version>
53161

> <r_lp_tautomer_probability>
0.499999999999999

> <s_lp_Force_Field>
OPLS_2005

> <r_lp_Energy>
18.787333

> <b_lp_Chiralities_Consistent>
1

> <s_lp_Variant>
CHEMBL4439_lig512-2

> <s_i_glide_gridfile>
glide-grid_3hmm

> <i_i_glide_lignum>
679

> <i_i_glide_rotatable_bonds>
10

> <r_i_docking_score>
-7.12842011866632

> <r_i_glide_ligand_efficiency>
-0.237614003955544

> <r_i_glide_ligand_efficiency_sa>
-0.738321956123456

> <r_i_glide_ligand_efficiency_ln>
-1.61965472131909

> <r_i_glide_gscore>
-7.12842011866632

> <r_i_glide_lipo>
-3.22475248680088

> <r_i_glide_hbond>
-0.330230044532415

> <r_i_glide_metal>
0

> <r_i_glide_rewards>
-1.36660007589631

> <r_i_glide_evdw>
-54.1202011108398

> <r_i_glide_ecoul>
-3.21763134002686

> <r_i_glide_erotb>
0.981817245109304

> <r_i_glide_esite>
0

> <r_i_glide_emodel>
-79.264440020025

> <r_i_glide_energy>
-57.3378324508667

> <r_i_glide_einternal>
5.85216999053955

> <i_i_glide_confnum>
32

> <i_i_glide_posenum>
139

> <r_i_glide_eff_state_penalty>
0

> <s_user_duplicate_titles>
CHEMBL4439_lig512

> <i_f3d_flags>
0

> <s_m_subgroup_title>
dock_pv

> <s_m_subgroupid>
dock_pv

> <b_m_subgroup_collapsed>
1

$$$$
CHEMBL4439_lig605
                    3D
 Schrodinger Suite 2021-1.
 49 52  0  0  1  0            999 V2000
   19.3011   69.2566    2.8588 N   0  0  0  0  0  0
   18.5483   69.2766    1.7293 C   0  0  0  0  0  0
   17.2120   68.8800    1.7276 C   0  0  0  0  0  0
   16.5900   68.4577    2.8554 N   0  0  0  0  0  0
   17.3256   68.4408    4.0031 C   0  0  0  0  0  0
   16.7149   68.0571    5.2148 C   0  0  0  0  0  0
   17.4625   67.9182    6.3904 C   0  0  0  0  0  0
   18.8276   68.2305    6.3553 C   0  0  0  0  0  0
   19.4482   68.6919    5.1943 C   0  0  0  0  0  0
   18.7041   68.8084    3.9999 C   0  0  0  0  0  0
   15.6761   66.6505    7.7764 N   0  0  0  0  0  0
   15.3583   66.4568    9.0609 N   0  0  0  0  0  0
   16.3037   67.0831    9.8231 N   0  0  0  0  0  0
   17.1669   67.6629    9.0154 C   0  0  0  0  0  0
   16.8134   67.4491    7.6693 C   0  0  0  0  0  0
   14.8818   66.0089    6.7935 C   0  0  0  0  0  0
   15.4672   65.3318    5.7207 C   0  0  0  0  0  0
   14.6533   64.7449    4.7506 C   0  0  0  0  0  0
   13.2694   64.7836    4.9105 C   0  0  0  0  0  0
   12.7569   65.4322    6.0349 C   0  0  0  0  0  0
   13.5338   66.0570    6.9553 N   0  0  0  0  0  0
   11.2827   65.4347    6.3366 C   0  0  0  0  0  0
   18.3281   68.3948    9.6497 C   0  0  0  0  0  0
   19.4820   67.4304    9.9982 C   0  0  0  0  0  0
   20.6745   68.0596   10.7588 C   0  0  0  0  0  0
   20.3063   68.4641   12.1982 C   0  0  0  0  0  0
   21.3284   69.2254    9.9926 C   0  0  0  0  0  0
   19.0359   69.6285    0.8305 H   0  0  0  0  0  0
   16.6102   68.9052    0.8319 H   0  0  0  0  0  0
   15.6527   67.8704    5.1969 H   0  0  0  0  0  0
   19.4363   68.1210    7.2368 H   0  0  0  0  0  0
   20.5007   68.9402    5.1924 H   0  0  0  0  0  0
   16.5395   65.2980    5.6334 H   0  0  0  0  0  0
   15.0900   64.2436    3.8987 H   0  0  0  0  0  0
   12.6180   64.3135    4.1870 H   0  0  0  0  0  0
   10.6890   65.6519    5.4480 H   0  0  0  0  0  0
   11.0676   66.1884    7.0931 H   0  0  0  0  0  0
   10.9920   64.4630    6.7396 H   0  0  0  0  0  0
   18.6685   69.2192    9.0248 H   0  0  0  0  0  0
   17.9846   68.8568   10.5738 H   0  0  0  0  0  0
   19.0681   66.6166   10.5978 H   0  0  0  0  0  0
   19.8529   66.9518    9.0911 H   0  0  0  0  0  0
   21.4329   67.2786   10.8414 H   0  0  0  0  0  0
   19.5594   69.2568   12.2159 H   0  0  0  0  0  0
   19.9033   67.6155   12.7524 H   0  0  0  0  0  0
   21.1802   68.8223   12.7425 H   0  0  0  0  0  0
   20.6690   70.0920    9.9322 H   0  0  0  0  0  0
   22.2466   69.5519   10.4822 H   0  0  0  0  0  0
   21.5900   68.9341    8.9744 H   0  0  0  0  0  0
  1  2  2  0  0  0
  1 10  1  0  0  0
  2  3  1  0  0  0
  2 28  1  0  0  0
  3  4  2  0  0  0
  3 29  1  0  0  0
  4  5  1  0  0  0
  5  6  2  0  0  0
  5 10  1  0  0  0
  6  7  1  0  0  0
  6 30  1  0  0  0
  7  8  2  0  0  0
  7 15  1  0  0  0
  8  9  1  0  0  0
  8 31  1  0  0  0
  9 10  2  0  0  0
  9 32  1  0  0  0
 11 12  1  0  0  0
 11 15  1  0  0  0
 11 16  1  0  0  0
 12 13  2  0  0  0
 13 14  1  0  0  0
 14 15  2  0  0  0
 14 23  1  0  0  0
 16 17  1  0  0  0
 16 21  2  0  0  0
 17 18  2  0  0  0
 17 33  1  0  0  0
 18 19  1  0  0  0
 18 34  1  0  0  0
 19 20  2  0  0  0
 19 35  1  0  0  0
 20 21  1  0  0  0
 20 22  1  0  0  0
 22 36  1  0  0  0
 22 37  1  0  0  0
 22 38  1  0  0  0
 23 24  1  0  0  0
 23 39  1  0  0  0
 23 40  1  0  0  0
 24 25  1  0  0  0
 24 41  1  0  0  0
 24 42  1  0  0  0
 25 26  1  0  0  0
 25 27  1  0  0  0
 25 43  1  0  0  0
 26 44  1  0  0  0
 26 45  1  0  0  0
 26 46  1  0  0  0
 27 47  1  0  0  0
 27 48  1  0  0  0
 27 49  1  0  0  0
M  END
> <s_m_entry_id>
34747

> <s_m_entry_name>
dock_pv.490

> <s_m_Source_Path>
/home/csk/Desktop/cluster/DUD-E-result/tgfr1

> <s_m_Source_File>
dock_pv.maegz

> <i_m_Source_File_Index>
490

> <chembl_id>
CHEMBL2324828

> <chembl_pref_name>
None

> <i_lp_mmshare_version>
53161

> <r_lp_tautomer_probability>
1

> <s_lp_Force_Field>
OPLS_2005

> <r_lp_Energy>
22.917165

> <b_lp_Chiralities_Consistent>
1

> <s_lp_Variant>
CHEMBL4439_lig605-1

> <s_i_glide_gridfile>
glide-grid_3hmm

> <i_i_glide_lignum>
821

> <i_i_glide_rotatable_bonds>
5

> <r_i_docking_score>
-7.1281733707969

> <r_i_glide_ligand_efficiency>
-0.264006421140626

> <r_i_glide_ligand_efficiency_sa>
-0.792019262551755

> <r_i_glide_ligand_efficiency_ln>
-1.65932124359904

> <r_i_glide_gscore>
-7.1281733707969

> <r_i_glide_lipo>
-3.36947242405684

> <r_i_glide_hbond>
0

> <r_i_glide_metal>
0

> <r_i_glide_rewards>
-1.50846001103611

> <r_i_glide_evdw>
-47.3136291503906

> <r_i_glide_ecoul>
-2.98438596725464

> <r_i_glide_erotb>
0.596386782726977

> <r_i_glide_esite>
-0.0332883658231928

> <r_i_glide_emodel>
-70.2409399702583

> <r_i_glide_energy>
-50.2980151176453

> <r_i_glide_einternal>
3.78386855125427

> <i_i_glide_confnum>
12

> <i_i_glide_posenum>
68

> <r_i_glide_eff_state_penalty>
0

> <s_user_duplicate_titles>
CHEMBL4439_lig605

> <i_f3d_flags>
0

> <s_m_subgroup_title>
dock_pv

> <s_m_subgroupid>
dock_pv

> <b_m_subgroup_collapsed>
1

$$$$
CHEMBL4439_lig81
                    3D
 Schrodinger Suite 2021-1.
 34 37  0  0  1  0            999 V2000
   15.5772   66.6592    7.1554 C   0  0  0  0  0  0
   16.6603   67.3465    6.5438 C   0  0  0  0  0  0
   17.6163   67.6989    7.3994 N   0  0  0  0  0  0
   17.4032   67.3246    8.6259 C   0  0  0  0  0  0
   15.9441   66.4592    8.8622 S   0  0  0  0  0  0
   14.2569   66.1130    6.6764 C   0  0  0  0  0  0
   16.8446   67.7347    5.0932 C   0  0  0  0  0  0
   18.1055   68.1177    4.7286 N   0  0  0  0  0  0
   14.0398   65.2263    5.5705 C   0  0  0  0  0  0
   11.6464   65.1774    6.0498 N   0  0  0  0  0  0
   12.7092   64.7555    5.3202 C   0  0  0  0  0  0
   18.2365   67.5759    9.6753 N   0  0  0  0  0  0
   15.8057   67.7080    4.1551 C   0  0  0  0  0  0
   18.3476   68.4614    3.4410 C   0  0  0  0  0  0
   17.3593   68.4381    2.4621 C   0  0  0  0  0  0
   11.8751   66.0564    7.0491 C   0  0  0  0  0  0
   13.1344   66.5082    7.4039 C   0  0  0  0  0  0
   16.0688   68.0574    2.8318 C   0  0  0  0  0  0
   17.7319   68.8626    0.8332 Cl  0  0  0  0  0  0
   15.0658   64.7950    4.7031 C   0  0  0  0  0  0
   12.4714   63.8187    4.2872 C   0  0  0  0  0  0
   14.7896   63.9420    3.6388 C   0  0  0  0  0  0
   13.5134   63.4215    3.4570 C   0  0  0  0  0  0
   19.0834   68.1120    9.5500 H   0  0  0  0  0  0
   18.0092   67.3012   10.6186 H   0  0  0  0  0  0
   14.7952   67.4624    4.4355 H   0  0  0  0  0  0
   19.3598   68.7532    3.2026 H   0  0  0  0  0  0
   11.0135   66.3554    7.6258 H   0  0  0  0  0  0
   13.2281   67.1894    8.2375 H   0  0  0  0  0  0
   15.2733   68.0526    2.0999 H   0  0  0  0  0  0
   16.0634   65.1659    4.8620 H   0  0  0  0  0  0
   11.4698   63.4507    4.1175 H   0  0  0  0  0  0
   15.5875   63.6560    2.9706 H   0  0  0  0  0  0
   13.3238   62.7381    2.6410 H   0  0  0  0  0  0
  1  2  2  0  0  0
  1  5  1  0  0  0
  1  6  1  0  0  0
  2  3  1  0  0  0
  2  7  1  0  0  0
  3  4  2  0  0  0
  4  5  1  0  0  0
  4 12  1  0  0  0
  6  9  1  0  0  0
  6 17  2  0  0  0
  7  8  1  0  0  0
  7 13  2  0  0  0
  8 14  2  0  0  0
  9 11  1  0  0  0
  9 20  2  0  0  0
 10 16  2  0  0  0
 10 11  1  0  0  0
 11 21  2  0  0  0
 12 24  1  0  0  0
 12 25  1  0  0  0
 13 18  1  0  0  0
 13 26  1  0  0  0
 14 15  1  0  0  0
 14 27  1  0  0  0
 15 18  2  0  0  0
 15 19  1  0  0  0
 16 17  1  0  0  0
 16 28  1  0  0  0
 17 29  1  0  0  0
 18 30  1  0  0  0
 20 22  1  0  0  0
 20 31  1  0  0  0
 21 23  1  0  0  0
 21 32  1  0  0  0
 22 23  2  0  0  0
 22 33  1  0  0  0
 23 34  1  0  0  0
M  END
> <s_m_entry_id>
34749

> <s_m_entry_name>
dock_pv.492

> <s_m_Source_Path>
/home/csk/Desktop/cluster/DUD-E-result/tgfr1

> <s_m_Source_File>
dock_pv.maegz

> <i_m_Source_File_Index>
492

> <chembl_id>
CHEMBL447486

> <chembl_pref_name>
None

> <i_lp_mmshare_version>
53161

> <r_lp_tautomer_probability>
1

> <s_lp_Force_Field>
OPLS_2005

> <r_lp_Energy>
19.178066

> <b_lp_Chiralities_Consistent>
1

> <s_lp_Variant>
CHEMBL4439_lig81-1

> <s_i_glide_gridfile>
glide-grid_3hmm

> <i_i_glide_lignum>
118

> <i_i_glide_rotatable_bonds>
2

> <r_i_docking_score>
-7.10553846848907

> <r_i_glide_ligand_efficiency>
-0.308936455151699

> <r_i_glide_ligand_efficiency_sa>
-0.878574182760056

> <r_i_glide_ligand_efficiency_ln>
-1.71818363114132

> <r_i_glide_gscore>
-7.10553846848907

> <r_i_glide_lipo>
-3.73899760477693

> <r_i_glide_hbond>
0

> <r_i_glide_metal>
0

> <r_i_glide_rewards>
-1.4676740716319

> <r_i_glide_evdw>
-42.8511695861816

> <r_i_glide_ecoul>
-0.572546899318695

> <r_i_glide_erotb>
0.329573722126651

> <r_i_glide_esite>
0

> <r_i_glide_emodel>
-60.6968674790752

> <r_i_glide_energy>
-43.4237164855003

> <r_i_glide_einternal>
0.399543076753616

> <i_i_glide_confnum>
5

> <i_i_glide_posenum>
353

> <r_i_glide_eff_state_penalty>
0

> <s_user_duplicate_titles>
CHEMBL4439_lig81

> <i_f3d_flags>
0

> <s_m_subgroup_title>
dock_pv

> <s_m_subgroupid>
dock_pv

> <b_m_subgroup_collapsed>
1

$$$$
CHEMBL4439_lig948 
                    3D
 Schrodinger Suite 2021-1.
 47 51  0  0  1  0            999 V2000
   21.0850   69.4792    5.1765 C   0  0  0  0  0  0
   21.7664   70.0600    6.2461 C   0  0  0  0  0  0
   21.1575   70.0548    7.5018 C   0  0  0  0  0  0
   19.9331   69.5065    7.7211 N   0  0  0  0  0  0
   19.3032   68.8823    6.6918 C   0  0  0  0  0  0
   19.8478   68.8735    5.3978 C   0  0  0  0  0  0
   19.1440   67.7552   10.0267 C   0  0  0  0  0  0
   17.8008   67.7109    9.6297 C   0  0  0  0  0  0
   16.7904   67.7474   10.6050 C   0  0  0  0  0  0
   17.0681   67.8468   11.9700 C   0  0  0  0  0  0
   19.4348   67.9262   11.3859 C   0  0  0  0  0  0
   18.4110   67.9475   12.3499 C   0  0  0  0  0  0
   18.8280   68.0568   13.6318 N   0  0  0  0  0  0
   20.4963   68.1346   13.5271 S   0  0  0  0  0  0
   20.6909   68.0571   11.8701 N   0  0  0  0  0  0
   17.4226   67.5948    8.1770 C   0  0  0  0  0  0
   18.0533   68.1089    7.0153 C   0  0  0  0  0  0
   17.2428   67.6569    6.0082 N   0  0  0  0  0  0
   16.2720   66.8718    6.5497 C   0  0  0  0  0  0
   16.3517   66.8638    7.8559 N   0  0  0  0  0  0
   15.3875   66.0100    5.6745 C   0  0  0  0  0  0
   14.0659   65.6998    6.2118 N   0  0  0  0  0  0
   13.2162   64.8581    5.4689 C   0  0  0  0  0  0
   11.8626   64.8306    5.8119 C   0  0  0  0  0  0
   10.9739   64.0346    5.0918 C   0  0  0  0  0  0
   11.4408   63.2585    4.0321 C   0  0  0  0  0  0
   12.7886   63.2570    3.6943 C   0  0  0  0  0  0
   13.6735   64.0569    4.4092 C   0  0  0  0  0  0
   21.8650   70.6088    8.7258 C   0  0  0  0  0  0
   21.5367   69.4547    4.1963 H   0  0  0  0  0  0
   22.7526   70.4799    6.1030 H   0  0  0  0  0  0
   19.3544   68.3731    4.5787 H   0  0  0  0  0  0
   19.9443   67.6587    9.3113 H   0  0  0  0  0  0
   15.7568   67.7019   10.2990 H   0  0  0  0  0  0
   16.2671   67.8596   12.6971 H   0  0  0  0  0  0
   17.3990   67.8038    5.0214 H   0  0  0  0  0  0
   15.9183   65.0679    5.5288 H   0  0  0  0  0  0
   15.2605   66.4667    4.6897 H   0  0  0  0  0  0
   13.6216   66.4314    6.7483 H   0  0  0  0  0  0
   11.4902   65.4364    6.6265 H   0  0  0  0  0  0
    9.9233   64.0283    5.3455 H   0  0  0  0  0  0
   10.7523   62.6699    3.4445 H   0  0  0  0  0  0
   13.1415   62.6582    2.8676 H   0  0  0  0  0  0
   14.7089   64.0461    4.1080 H   0  0  0  0  0  0
   22.6987   71.2548    8.4470 H   0  0  0  0  0  0
   21.1813   71.1884    9.3490 H   0  0  0  0  0  0
   22.2592   69.7913    9.3276 H   0  0  0  0  0  0
  1  2  2  0  0  0
  1  6  1  0  0  0
  1 30  1  0  0  0
  2  3  1  0  0  0
  2 31  1  0  0  0
  3  4  2  0  0  0
  3 29  1  0  0  0
  4  5  1  0  0  0
  5  6  2  0  0  0
  5 17  1  0  0  0
  6 32  1  0  0  0
  7 11  1  0  0  0
  7  8  2  0  0  0
  7 33  1  0  0  0
  8  9  1  0  0  0
  8 16  1  0  0  0
  9 10  2  0  0  0
  9 34  1  0  0  0
 10 12  1  0  0  0
 10 35  1  0  0  0
 11 12  1  0  0  0
 11 15  2  0  0  0
 12 13  2  0  0  0
 13 14  1  0  0  0
 14 15  1  0  0  0
 16 17  2  0  0  0
 16 20  1  0  0  0
 17 18  1  0  0  0
 18 19  1  0  0  0
 18 36  1  0  0  0
 19 20  2  0  0  0
 19 21  1  0  0  0
 21 22  1  0  0  0
 21 37  1  0  0  0
 21 38  1  0  0  0
 22 23  1  0  0  0
 22 39  1  0  0  0
 23 24  2  0  0  0
 23 28  1  0  0  0
 24 25  1  0  0  0
 24 40  1  0  0  0
 25 26  2  0  0  0
 25 41  1  0  0  0
 26 27  1  0  0  0
 26 42  1  0  0  0
 27 28  2  0  0  0
 27 43  1  0  0  0
 28 44  1  0  0  0
 29 45  1  0  0  0
 29 46  1  0  0  0
 29 47  1  0  0  0
M  END
> <s_m_entry_id>
34751

> <s_m_entry_name>
dock_pv.494

> <s_m_Source_Path>
/home/csk/Desktop/cluster/DUD-E-result/tgfr1

> <s_m_Source_File>
dock_pv.maegz

> <i_m_Source_File_Index>
494

> <chembl_id>
CHEMBL4464656

> <chembl_pref_name>
None

> <i_lp_mmshare_version>
53161

> <r_lp_tautomer_probability>
0.499999999999999

> <s_lp_Force_Field>
OPLS_2005

> <r_lp_Energy>
14.433585

> <b_lp_Chiralities_Consistent>
1

> <s_lp_Variant>
CHEMBL4439_lig948 -1

> <s_i_glide_gridfile>
glide-grid_3hmm

> <i_i_glide_lignum>
1283

> <i_i_glide_rotatable_bonds>
5

> <r_i_docking_score>
-7.09402042021318

> <r_i_glide_ligand_efficiency>
-0.244621393800454

> <r_i_glide_ligand_efficiency_sa>
-0.751554423252291

> <r_i_glide_ligand_efficiency_ln>
-1.62435078739219

> <r_i_glide_gscore>
-7.09402042021318

> <r_i_glide_lipo>
-3.35930098888911

> <r_i_glide_hbond>
-0.0138874674118278

> <r_i_glide_metal>
0

> <r_i_glide_rewards>
-1.35421461217139

> <r_i_glide_evdw>
-53.1381683349609

> <r_i_glide_ecoul>
-2.17605018615723

> <r_i_glide_erotb>
0.616698592930783

> <r_i_glide_esite>
0

> <r_i_glide_emodel>
-78.8298670786912

> <r_i_glide_energy>
-55.3142185211182

> <r_i_glide_einternal>
3.49668836593628

> <i_i_glide_confnum>
36

> <i_i_glide_posenum>
327

> <r_i_glide_eff_state_penalty>
0

> <s_user_duplicate_titles>
CHEMBL4439_lig948 

> <i_f3d_flags>
0

> <s_m_subgroup_title>
dock_pv

> <s_m_subgroupid>
dock_pv

> <b_m_subgroup_collapsed>
1

$$$$
CHEMBL4439_lig561
                    3D
 Schrodinger Suite 2021-1.
 50 54  0  0  1  0            999 V2000
   20.0484   67.7261    9.6088 C   0  0  0  0  0  0
   20.9448   68.7650    9.8448 C   0  0  0  0  0  0
   21.1333   69.7170    8.8425 C   0  0  0  0  0  0
   20.4690   69.6784    7.6543 N   0  0  0  0  0  0
   19.6398   68.6331    7.3984 C   0  0  0  0  0  0
   19.3947   67.6570    8.3792 C   0  0  0  0  0  0
   18.9600   68.5671    6.0456 C   0  0  0  0  0  0
   20.7916   69.6570    2.7077 C   0  0  0  0  0  0
   20.6997   69.4352    4.0980 C   0  0  0  0  0  0
   21.8707   69.6570    4.8417 C   0  0  0  0  0  0
   23.0829   70.0570    4.2679 C   0  0  0  0  0  0
   21.9918   69.9937    2.1439 N   0  0  0  0  0  0
   23.1526   70.2050    2.8792 C   0  0  0  0  0  0
   24.1549   70.5161    2.0238 N   0  0  0  0  0  0
   23.5431   70.4570    0.8552 C   0  0  0  0  0  0
   22.2613   70.1427    0.8320 N   0  0  0  0  0  0
   19.4012   68.9203    4.7241 C   0  0  0  0  0  0
   17.7328   68.0570    6.0911 N   0  0  0  0  0  0
   17.1378   67.9491    4.9396 C   0  0  0  0  0  0
   18.0578   68.5614    3.6317 S   0  0  0  0  0  0
   22.1279   70.8460    9.0337 C   0  0  0  0  0  0
   15.9231   67.3519    4.7026 N   0  0  0  0  0  0
   15.0573   66.7182    5.6957 C   0  0  0  0  0  0
   14.2437   65.5527    5.1267 C   0  0  0  0  0  0
   14.7488   64.7215    4.1175 C   0  0  0  0  0  0
   13.9912   63.6570    3.6320 C   0  0  0  0  0  0
   12.7311   63.3917    4.1601 C   0  0  0  0  0  0
   12.2222   64.1944    5.1817 C   0  0  0  0  0  0
   12.9862   65.2597    5.6716 C   0  0  0  0  0  0
   10.8519   63.9032    5.7603 C   0  0  0  0  0  0
   19.8670   66.9778   10.3665 H   0  0  0  0  0  0
   21.4785   68.8278   10.7815 H   0  0  0  0  0  0
   18.6989   66.8570    8.1958 H   0  0  0  0  0  0
   19.9827   69.5314    2.0049 H   0  0  0  0  0  0
   21.9216   69.4354    5.8859 H   0  0  0  0  0  0
   23.9608   70.2058    4.8810 H   0  0  0  0  0  0
   24.0761   70.6817   -0.0588 H   0  0  0  0  0  0
   23.0176   70.4913    9.5546 H   0  0  0  0  0  0
   22.4601   71.2570    8.0792 H   0  0  0  0  0  0
   21.6862   71.6434    9.6320 H   0  0  0  0  0  0
   15.4611   67.4880    3.8145 H   0  0  0  0  0  0
   14.3838   67.4803    6.0907 H   0  0  0  0  0  0
   15.6499   66.3586    6.5381 H   0  0  0  0  0  0
   15.7278   64.8979    3.6973 H   0  0  0  0  0  0
   14.3757   63.0387    2.8349 H   0  0  0  0  0  0
   12.1534   62.5679    3.7664 H   0  0  0  0  0  0
   12.5860   65.8766    6.4636 H   0  0  0  0  0  0
   10.8401   64.0945    6.8320 H   0  0  0  0  0  0
   10.0969   64.5283    5.2830 H   0  0  0  0  0  0
   10.5777   62.8570    5.6320 H   0  0  0  0  0  0
  1  6  1  0  0  0
  1  2  2  0  0  0
  1 31  1  0  0  0
  2  3  1  0  0  0
  2 32  1  0  0  0
  3 21  1  0  0  0
  3  4  2  0  0  0
  4  5  1  0  0  0
  5  6  2  0  0  0
  5  7  1  0  0  0
  6 33  1  0  0  0
  7 17  2  0  0  0
  7 18  1  0  0  0
  8 12  1  0  0  0
  8  9  2  0  0  0
  8 34  1  0  0  0
  9 17  1  0  0  0
  9 10  1  0  0  0
 10 11  2  0  0  0
 10 35  1  0  0  0
 11 13  1  0  0  0
 11 36  1  0  0  0
 12 16  1  0  0  0
 12 13  1  0  0  0
 13 14  2  0  0  0
 14 15  1  0  0  0
 15 16  2  0  0  0
 15 37  1  0  0  0
 17 20  1  0  0  0
 18 19  2  0  0  0
 19 20  1  0  0  0
 19 22  1  0  0  0
 21 38  1  0  0  0
 21 39  1  0  0  0
 21 40  1  0  0  0
 22 23  1  0  0  0
 22 41  1  0  0  0
 23 24  1  0  0  0
 23 42  1  0  0  0
 23 43  1  0  0  0
 24 25  2  0  0  0
 24 29  1  0  0  0
 25 26  1  0  0  0
 25 44  1  0  0  0
 26 27  2  0  0  0
 26 45  1  0  0  0
 27 28  1  0  0  0
 27 46  1  0  0  0
 28 29  2  0  0  0
 28 30  1  0  0  0
 29 47  1  0  0  0
 30 48  1  0  0  0
 30 49  1  0  0  0
 30 50  1  0  0  0
M  END
> <s_m_entry_id>
34752

> <s_m_entry_name>
dock_pv.495

> <s_m_Source_Path>
/home/csk/Desktop/cluster/DUD-E-result/tgfr1

> <s_m_Source_File>
dock_pv.maegz

> <i_m_Source_File_Index>
495

> <chembl_id>
CHEMBL2087968

> <chembl_pref_name>
None

> <i_lp_mmshare_version>
53161

> <r_lp_tautomer_probability>
1

> <s_lp_Force_Field>
OPLS_2005

> <r_lp_Energy>
12.18272

> <b_lp_Chiralities_Consistent>
1

> <s_lp_Variant>
CHEMBL4439_lig561-1

> <s_i_glide_gridfile>
glide-grid_3hmm

> <i_i_glide_lignum>
740

> <i_i_glide_rotatable_bonds>
5

> <r_i_docking_score>
-7.08664110426448

> <r_i_glide_ligand_efficiency>
-0.236221370142149

> <r_i_glide_ligand_efficiency_sa>
-0.733994719074491

> <r_i_glide_ligand_efficiency_ln>
-1.61016207402817

> <r_i_glide_gscore>
-7.08664110426448

> <r_i_glide_lipo>
-3.85134178151768

> <r_i_glide_hbond>
0

> <r_i_glide_metal>
0

> <r_i_glide_rewards>
-0.990172084891394

> <r_i_glide_evdw>
-54.5024375915527

> <r_i_glide_ecoul>
-0.662868559360504

> <r_i_glide_erotb>
0.5794249256263

> <r_i_glide_esite>
0

> <r_i_glide_emodel>
-75.8295409634857

> <r_i_glide_energy>
-55.1653061509132

> <r_i_glide_einternal>
5.23352956771851

> <i_i_glide_confnum>
122

> <i_i_glide_posenum>
78

> <r_i_glide_eff_state_penalty>
0

> <s_user_duplicate_titles>
CHEMBL4439_lig561

> <i_f3d_flags>
0

> <s_m_subgroup_title>
dock_pv

> <s_m_subgroupid>
dock_pv

> <b_m_subgroup_collapsed>
1

$$$$
CHEMBL4439_lig48
                    3D
 Schrodinger Suite 2021-1.
 28 30  0  0  1  0            999 V2000
   16.2114   67.6051    4.9456 C   0  0  0  0  0  0
   17.4642   68.0569    5.2390 N   0  0  0  0  0  0
   18.2277   68.5490    4.2305 C   0  0  0  0  0  0
   17.7679   68.6534    2.9184 C   0  0  0  0  0  0
   16.4751   68.2121    2.6347 C   0  0  0  0  0  0
   15.6902   67.6571    3.6486 C   0  0  0  0  0  0
   13.6971   65.2707    5.4218 C   0  0  0  0  0  0
   14.4597   64.6548    4.4260 C   0  0  0  0  0  0
   13.9012   63.6567    3.6321 C   0  0  0  0  0  0
   12.5850   63.2571    3.8441 C   0  0  0  0  0  0
   11.8133   63.8617    4.8323 C   0  0  0  0  0  0
   12.3677   64.8692    5.6171 C   0  0  0  0  0  0
   15.3693   67.2038    6.1150 C   0  0  0  0  0  0
   14.3104   66.3007    6.3183 C   0  0  0  0  0  0
   13.9088   66.5510    7.6398 C   0  0  0  0  0  0
   14.6669   67.4093    8.2692 N   0  0  0  0  0  0
   15.5400   67.7912    7.3448 N   0  0  0  0  0  0
   19.2200   68.8831    4.4971 H   0  0  0  0  0  0
   18.3925   69.0753    2.1444 H   0  0  0  0  0  0
   16.0756   68.3099    1.6359 H   0  0  0  0  0  0
   14.6793   67.3364    3.4412 H   0  0  0  0  0  0
   15.4903   64.9354    4.2697 H   0  0  0  0  0  0
   14.4881   63.1950    2.8527 H   0  0  0  0  0  0
   12.1572   62.4814    3.2264 H   0  0  0  0  0  0
   10.7893   63.5545    4.9870 H   0  0  0  0  0  0
   11.7548   65.3310    6.3776 H   0  0  0  0  0  0
   13.0774   66.0795    8.1424 H   0  0  0  0  0  0
   16.2490   68.4835    7.5397 H   0  0  0  0  0  0
  1  6  1  0  0  0
  1  2  2  0  0  0
  1 13  1  0  0  0
  2  3  1  0  0  0
  3  4  2  0  0  0
  3 18  1  0  0  0
  4  5  1  0  0  0
  4 19  1  0  0  0
  5  6  2  0  0  0
  5 20  1  0  0  0
  6 21  1  0  0  0
  7  8  2  0  0  0
  7 12  1  0  0  0
  7 14  1  0  0  0
  8  9  1  0  0  0
  8 22  1  0  0  0
  9 10  2  0  0  0
  9 23  1  0  0  0
 10 11  1  0  0  0
 10 24  1  0  0  0
 11 12  2  0  0  0
 11 25  1  0  0  0
 12 26  1  0  0  0
 13 17  1  0  0  0
 13 14  2  0  0  0
 14 15  1  0  0  0
 15 27  1  0  0  0
 15 16  2  0  0  0
 16 17  1  0  0  0
 17 28  1  0  0  0
M  END
> <s_m_entry_id>
34756

> <s_m_entry_name>
dock_pv.499

> <s_m_Source_Path>
/home/csk/Desktop/cluster/DUD-E-result/tgfr1

> <s_m_Source_File>
dock_pv.maegz

> <i_m_Source_File_Index>
499

> <chembl_id>
CHEMBL129280

> <chembl_pref_name>
None

> <i_lp_mmshare_version>
53161

> <r_lp_tautomer_probability>
0.5

> <s_lp_Force_Field>
OPLS_2005

> <r_lp_Energy>
13.967533

> <b_lp_Chiralities_Consistent>
1

> <s_lp_Variant>
CHEMBL4439_lig48-2

> <s_i_glide_gridfile>
glide-grid_3hmm

> <i_i_glide_lignum>
68

> <i_i_glide_rotatable_bonds>
2

> <r_i_docking_score>
-7.07306811766585

> <r_i_glide_ligand_efficiency>
-0.416062830450932

> <r_i_glide_ligand_efficiency_sa>
-1.0698146954853

> <r_i_glide_ligand_efficiency_ln>
-1.84520596241619

> <r_i_glide_gscore>
-7.07306811766585

> <r_i_glide_lipo>
-3.73457671233917

> <r_i_glide_hbond>
0

> <r_i_glide_metal>
0

> <r_i_glide_rewards>
-2.25308828502313

> <r_i_glide_evdw>
-35.7307815551758

> <r_i_glide_ecoul>
0.0785107687115669

> <r_i_glide_erotb>
0.689359342148508

> <r_i_glide_esite>
0

> <r_i_glide_emodel>
-49.6146694734021

> <r_i_glide_energy>
-35.6522707864642

> <r_i_glide_einternal>
1.97507417201996

> <i_i_glide_confnum>
4

> <i_i_glide_posenum>
59

> <r_i_glide_eff_state_penalty>
0

> <s_user_duplicate_titles>
CHEMBL4439_lig48,CHEMBL4439_lig48

> <i_f3d_flags>
0

> <s_m_subgroup_title>
dock_pv

> <s_m_subgroupid>
dock_pv

> <b_m_subgroup_collapsed>
1

$$$$
CHEMBL4439_lig545
                    3D
 Schrodinger Suite 2021-1.
 47 51  0  0  1  0            999 V2000
   21.0671   70.0570    7.7891 C   0  0  0  0  0  0
   21.5214   69.8203    6.4929 C   0  0  0  0  0  0
   20.7355   69.0250    5.6585 C   0  0  0  0  0  0
   19.5770   68.4516    6.0692 N   0  0  0  0  0  0
   19.1344   68.6876    7.3374 C   0  0  0  0  0  0
   19.8436   69.5313    8.2030 C   0  0  0  0  0  0
   17.8483   67.9884    7.7178 C   0  0  0  0  0  0
   19.3494   67.6641   10.5890 C   0  0  0  0  0  0
   17.9676   67.6955   10.3851 C   0  0  0  0  0  0
   17.1338   67.8725   11.5015 C   0  0  0  0  0  0
   17.6431   68.0613   12.7912 C   0  0  0  0  0  0
   19.8426   67.9387   11.8349 N   0  0  0  0  0  0
   19.0361   68.1296   12.9554 C   0  0  0  0  0  0
   19.8353   68.3549   14.0298 N   0  0  0  0  0  0
   21.0394   68.2799   13.4884 C   0  0  0  0  0  0
   21.1357   68.0572   12.1916 N   0  0  0  0  0  0
   17.3928   67.5875    9.0012 C   0  0  0  0  0  0
   17.0005   67.7069    6.7347 N   0  0  0  0  0  0
   15.9079   67.1200    7.1166 C   0  0  0  0  0  0
   15.8303   66.8192    8.8100 S   0  0  0  0  0  0
   21.1282   68.7437    4.2222 C   0  0  0  0  0  0
   14.9172   66.7481    6.2443 N   0  0  0  0  0  0
   13.5438   66.3622    6.5493 C   0  0  0  0  0  0
   12.9909   65.2564    5.6480 C   0  0  0  0  0  0
   13.7429   64.6328    4.6377 C   0  0  0  0  0  0
   13.1640   63.6515    3.8345 C   0  0  0  0  0  0
   11.8458   63.2591    4.0410 C   0  0  0  0  0  0
   11.0933   63.8663    5.0439 C   0  0  0  0  0  0
   11.6647   64.8562    5.8426 C   0  0  0  0  0  0
    9.8074   63.5010    5.2322 F   0  0  0  0  0  0
   13.8694   63.0900    2.8327 F   0  0  0  0  0  0
   21.6360   70.6894    8.4555 H   0  0  0  0  0  0
   22.4514   70.2500    6.1477 H   0  0  0  0  0  0
   19.4672   69.7758    9.1851 H   0  0  0  0  0  0
   20.0747   67.4895    9.8093 H   0  0  0  0  0  0
   16.0602   67.8877   11.3819 H   0  0  0  0  0  0
   16.9707   68.1882   13.6255 H   0  0  0  0  0  0
   21.9297   68.4061   14.0883 H   0  0  0  0  0  0
   22.1432   69.0863    4.0125 H   0  0  0  0  0  0
   21.0881   67.6693    4.0323 H   0  0  0  0  0  0
   20.4431   69.2459    3.5365 H   0  0  0  0  0  0
   15.0475   66.9415    5.2613 H   0  0  0  0  0  0
   12.9263   67.2553    6.4340 H   0  0  0  0  0  0
   13.4433   66.0526    7.5888 H   0  0  0  0  0  0
   14.7688   64.9093    4.4479 H   0  0  0  0  0  0
   11.4033   62.5074    3.4055 H   0  0  0  0  0  0
   11.0676   65.3155    6.6174 H   0  0  0  0  0  0
  1  6  1  0  0  0
  1  2  2  0  0  0
  1 32  1  0  0  0
  2  3  1  0  0  0
  2 33  1  0  0  0
  3 21  1  0  0  0
  3  4  2  0  0  0
  4  5  1  0  0  0
  5  6  2  0  0  0
  5  7  1  0  0  0
  6 34  1  0  0  0
  7 17  2  0  0  0
  7 18  1  0  0  0
  8 12  1  0  0  0
  8  9  2  0  0  0
  8 35  1  0  0  0
  9 17  1  0  0  0
  9 10  1  0  0  0
 10 11  2  0  0  0
 10 36  1  0  0  0
 11 13  1  0  0  0
 11 37  1  0  0  0
 12 16  1  0  0  0
 12 13  1  0  0  0
 13 14  2  0  0  0
 14 15  1  0  0  0
 15 16  2  0  0  0
 15 38  1  0  0  0
 17 20  1  0  0  0
 18 19  2  0  0  0
 19 20  1  0  0  0
 19 22  1  0  0  0
 21 39  1  0  0  0
 21 40  1  0  0  0
 21 41  1  0  0  0
 22 23  1  0  0  0
 22 42  1  0  0  0
 23 24  1  0  0  0
 23 43  1  0  0  0
 23 44  1  0  0  0
 24 25  2  0  0  0
 24 29  1  0  0  0
 25 26  1  0  0  0
 25 45  1  0  0  0
 26 27  2  0  0  0
 26 31  1  0  0  0
 27 28  1  0  0  0
 27 46  1  0  0  0
 28 29  2  0  0  0
 28 30  1  0  0  0
 29 47  1  0  0  0
M  END
> <s_m_entry_id>
34757

> <s_m_entry_name>
dock_pv.500

> <s_m_Source_Path>
/home/csk/Desktop/cluster/DUD-E-result/tgfr1

> <s_m_Source_File>
dock_pv.maegz

> <i_m_Source_File_Index>
500

> <chembl_id>
CHEMBL2087984

> <chembl_pref_name>
None

> <i_lp_mmshare_version>
53161

> <r_lp_tautomer_probability>
1

> <s_lp_Force_Field>
OPLS_2005

> <r_lp_Energy>
11.890214

> <b_lp_Chiralities_Consistent>
1

> <s_lp_Variant>
CHEMBL4439_lig545-1

> <s_i_glide_gridfile>
glide-grid_3hmm

> <i_i_glide_lignum>
724

> <i_i_glide_rotatable_bonds>
5

> <r_i_docking_score>
-7.06958311929498

> <r_i_glide_ligand_efficiency>
-0.228051068364354

> <r_i_glide_ligand_efficiency_sa>
-0.716395213096938

> <r_i_glide_ligand_efficiency_ln>
-1.59440765010414

> <r_i_glide_gscore>
-7.06958311929498

> <r_i_glide_lipo>
-3.33329419008377

> <r_i_glide_hbond>
0

> <r_i_glide_metal>
0

> <r_i_glide_rewards>
-1.22782048533459

> <r_i_glide_evdw>
-54.5537567138672

> <r_i_glide_ecoul>
-1.43402540683746

> <r_i_glide_erotb>
0.527547068765341

> <r_i_glide_esite>
-0.0932238659229783

> <r_i_glide_emodel>
-77.1860433936988

> <r_i_glide_energy>
-55.9877821207047

> <r_i_glide_einternal>
8.87875843048096

> <i_i_glide_confnum>
13

> <i_i_glide_posenum>
298

> <r_i_glide_eff_state_penalty>
0

> <s_user_duplicate_titles>
CHEMBL4439_lig545

> <i_f3d_flags>
0

> <s_m_subgroup_title>
dock_pv

> <s_m_subgroupid>
dock_pv

> <b_m_subgroup_collapsed>
1

$$$$
CHEMBL4439_lig108
                    3D
 Schrodinger Suite 2021-1.
 51 55  0  0  1  0            999 V2000
   19.3096   69.0488    7.4670 C   0  0  0  0  0  0
   18.6931   68.5305    6.3151 C   0  0  0  0  0  0
   19.3664   68.4551    5.1338 N   0  0  0  0  0  0
   20.6662   68.8318    5.1033 C   0  0  0  0  0  0
   21.3538   69.2546    6.2388 C   0  0  0  0  0  0
   20.6796   69.3392    7.4655 C   0  0  0  0  0  0
   21.4579   69.7119    8.7015 C   0  0  0  0  0  0
   21.2963   69.4372   10.0851 C   0  0  0  0  0  0
   22.3718   70.0780   10.6554 N   0  0  0  0  0  0
   23.1898   70.6942    9.8175 N   0  0  0  0  0  0
   22.6527   70.4583    8.6538 C   0  0  0  0  0  0
   20.3305   68.6902   10.9762 C   0  0  0  0  0  0
   20.4886   68.6722   12.3729 C   0  0  0  0  0  0
   19.5289   68.0423   13.1656 C   0  0  0  0  0  0
   18.4251   67.4455   12.5612 C   0  0  0  0  0  0
   18.3441   67.4691   11.1690 C   0  0  0  0  0  0
   19.2839   68.0572   10.3847 N   0  0  0  0  0  0
   17.3061   67.9549    6.3341 C   0  0  0  0  0  0
   16.5595   67.7741    5.1593 C   0  0  0  0  0  0
   15.3005   67.1765    5.1890 C   0  0  0  0  0  0
   14.7596   66.7235    6.3997 C   0  0  0  0  0  0
   15.4851   66.9291    7.5771 C   0  0  0  0  0  0
   16.7386   67.5259    7.5399 C   0  0  0  0  0  0
   13.3836   66.1000    6.4944 C   0  0  0  0  0  0
   12.9779   65.1722    5.5869 N   0  0  0  0  0  0
   12.6674   66.4434    7.4394 O   0  0  0  0  0  0
   13.7847   64.5766    4.5072 C   0  0  0  0  0  0
   12.9651   63.3548    4.0774 C   0  0  0  0  0  0
   11.5365   63.7182    4.4312 C   0  0  0  0  0  0
   11.6431   64.5642    5.6922 C   0  0  0  0  0  0
   18.7351   69.1968    8.3614 H   0  0  0  0  0  0
   21.1762   68.7339    4.1570 H   0  0  0  0  0  0
   22.4100   69.4671    6.1576 H   0  0  0  0  0  0
   22.5579   70.0816   11.6448 H   0  0  0  0  0  0
   23.1201   70.8558    7.7634 H   0  0  0  0  0  0
   21.3294   69.1495   12.8518 H   0  0  0  0  0  0
   19.6456   68.0163   14.2377 H   0  0  0  0  0  0
   17.6641   66.9544   13.1495 H   0  0  0  0  0  0
   17.5183   66.9942   10.6632 H   0  0  0  0  0  0
   16.9524   68.1033    4.2087 H   0  0  0  0  0  0
   14.7484   67.0940    4.2657 H   0  0  0  0  0  0
   15.0855   66.6234    8.5328 H   0  0  0  0  0  0
   17.2725   67.6325    8.4690 H   0  0  0  0  0  0
   14.7746   64.2617    4.8383 H   0  0  0  0  0  0
   13.8439   65.2512    3.6525 H   0  0  0  0  0  0
   13.2574   62.4630    4.6303 H   0  0  0  0  0  0
   13.0976   63.1258    3.0186 H   0  0  0  0  0  0
   11.1138   64.3267    3.6356 H   0  0  0  0  0  0
   10.8805   62.8582    4.5573 H   0  0  0  0  0  0
   10.8512   65.3158    5.7249 H   0  0  0  0  0  0
   11.5833   63.9261    6.5754 H   0  0  0  0  0  0
  1  6  1  0  0  0
  1  2  2  0  0  0
  1 31  1  0  0  0
  2  3  1  0  0  0
  2 18  1  0  0  0
  3  4  2  0  0  0
  4  5  1  0  0  0
  4 32  1  0  0  0
  5  6  2  0  0  0
  5 33  1  0  0  0
  6  7  1  0  0  0
  7  8  2  0  0  0
  7 11  1  0  0  0
  8  9  1  0  0  0
  8 12  1  0  0  0
  9 10  1  0  0  0
  9 34  1  0  0  0
 10 11  2  0  0  0
 11 35  1  0  0  0
 12 17  1  0  0  0
 12 13  2  0  0  0
 13 14  1  0  0  0
 13 36  1  0  0  0
 14 15  2  0  0  0
 14 37  1  0  0  0
 15 16  1  0  0  0
 15 38  1  0  0  0
 16 17  2  0  0  0
 16 39  1  0  0  0
 18 19  2  0  0  0
 18 23  1  0  0  0
 19 20  1  0  0  0
 19 40  1  0  0  0
 20 21  2  0  0  0
 20 41  1  0  0  0
 21 22  1  0  0  0
 21 24  1  0  0  0
 22 23  2  0  0  0
 22 42  1  0  0  0
 23 43  1  0  0  0
 24 25  1  0  0  0
 24 26  2  0  0  0
 25 27  1  0  0  0
 25 30  1  0  0  0
 27 28  1  0  0  0
 27 44  1  0  0  0
 27 45  1  0  0  0
 28 29  1  0  0  0
 28 46  1  0  0  0
 28 47  1  0  0  0
 29 30  1  0  0  0
 29 48  1  0  0  0
 29 49  1  0  0  0
 30 50  1  0  0  0
 30 51  1  0  0  0
M  END
> <s_m_entry_id>
34758

> <s_m_entry_name>
dock_pv.501

> <s_m_Source_Path>
/home/csk/Desktop/cluster/DUD-E-result/tgfr1

> <s_m_Source_File>
dock_pv.maegz

> <i_m_Source_File_Index>
501

> <chembl_id>
CHEMBL380916

> <chembl_pref_name>
None

> <i_lp_mmshare_version>
53161

> <r_lp_tautomer_probability>
0.5

> <s_lp_Force_Field>
OPLS_2005

> <r_lp_Energy>
48.2614

> <b_lp_Chiralities_Consistent>
1

> <s_lp_Variant>
CHEMBL4439_lig108-2

> <s_i_glide_gridfile>
glide-grid_3hmm

> <i_i_glide_lignum>
153

> <i_i_glide_rotatable_bonds>
5

> <r_i_docking_score>
-7.05579089634631

> <r_i_glide_ligand_efficiency>
-0.23519302987821

> <r_i_glide_ligand_efficiency_sa>
-0.730799426782821

> <r_i_glide_ligand_efficiency_ln>
-1.60315257064922

> <r_i_glide_gscore>
-7.05579089634631

> <r_i_glide_lipo>
-3.16683080487959

> <r_i_glide_hbond>
-0.0236001407320767

> <r_i_glide_metal>
0

> <r_i_glide_rewards>
-1.6173132374333

> <r_i_glide_evdw>
-54.6842460632324

> <r_i_glide_ecoul>
-0.927020728588104

> <r_i_glide_erotb>
0.625218699148501

> <r_i_glide_esite>
0

> <r_i_glide_emodel>
-78.2204587330438

> <r_i_glide_energy>
-55.6112667918205

> <r_i_glide_einternal>
2.07619309425354

> <i_i_glide_confnum>
135

> <i_i_glide_posenum>
162

> <r_i_glide_eff_state_penalty>
0

> <s_user_duplicate_titles>
CHEMBL4439_lig108,343535

> <i_f3d_flags>
0

> <s_m_subgroup_title>
dock_pv

> <s_m_subgroupid>
dock_pv

> <b_m_subgroup_collapsed>
1

$$$$
CHEMBL4439_lig895 
                    3D
 Schrodinger Suite 2021-1.
 49 53  0  0  1  0            999 V2000
   20.6714   69.7889    8.9255 C   0  0  0  0  0  0
   19.8650   68.6677    9.1605 C   0  0  0  0  0  0
   20.1401   67.8265   10.2477 C   0  0  0  0  0  0
   21.2064   68.0575   11.1202 C   0  0  0  0  0  0
   21.7609   70.0175    9.7795 C   0  0  0  0  0  0
   22.0195   69.1669   10.8693 C   0  0  0  0  0  0
   23.0902   69.5016   11.6258 N   0  0  0  0  0  0
   23.7275   70.8562   10.8796 S   0  0  0  0  0  0
   22.6340   71.0379    9.6315 N   0  0  0  0  0  0
   18.6667   68.3623    8.3129 C   0  0  0  0  0  0
   18.4339   68.4043    6.9023 C   0  0  0  0  0  0
   17.1879   68.0570    6.6332 N   0  0  0  0  0  0
   16.5976   67.7798    7.7914 N   0  0  0  0  0  0
   17.4453   67.9578    8.8437 C   0  0  0  0  0  0
   19.3346   68.7571    5.7402 C   0  0  0  0  0  0
   20.7245   68.8735    5.8490 C   0  0  0  0  0  0
   21.4671   69.2572    4.7315 C   0  0  0  0  0  0
   20.8326   69.4388    3.5068 C   0  0  0  0  0  0
   19.4509   69.2603    3.4469 C   0  0  0  0  0  0
   18.7100   68.9462    4.5373 N   0  0  0  0  0  0
   18.6826   69.4426    2.1516 C   0  0  0  0  0  0
   15.1825   67.4242    7.8016 C   0  0  0  0  0  0
   14.8290   66.1828    6.9661 C   0  0  0  0  0  0
   13.5747   66.1389    6.4762 N   0  0  0  0  0  0
   15.6507   65.2749    6.8319 O   0  0  0  0  0  0
   13.0278   65.1536    5.6398 C   0  0  0  0  0  0
   13.7853   64.4451    4.6954 C   0  0  0  0  0  0
   13.1718   63.4856    3.8960 C   0  0  0  0  0  0
   11.8049   63.2570    4.0233 C   0  0  0  0  0  0
   11.0426   63.9677    4.9471 C   0  0  0  0  0  0
   11.6567   64.9199    5.7551 C   0  0  0  0  0  0
   20.4644   70.4564    8.1045 H   0  0  0  0  0  0
   19.5126   66.9659   10.4298 H   0  0  0  0  0  0
   21.3988   67.3905   11.9490 H   0  0  0  0  0  0
   17.1140   67.8015    9.8598 H   0  0  0  0  0  0
   21.2472   68.6528    6.7633 H   0  0  0  0  0  0
   22.5413   69.3523    4.8060 H   0  0  0  0  0  0
   21.4030   69.7039    2.6287 H   0  0  0  0  0  0
   19.3496   69.6522    1.3140 H   0  0  0  0  0  0
   18.1147   68.5419    1.9148 H   0  0  0  0  0  0
   17.9841   70.2762    2.2404 H   0  0  0  0  0  0
   14.6456   68.2933    7.4206 H   0  0  0  0  0  0
   14.8614   67.2662    8.8306 H   0  0  0  0  0  0
   12.9314   66.8570    6.7691 H   0  0  0  0  0  0
   14.8411   64.6313    4.5658 H   0  0  0  0  0  0
   13.7470   62.9378    3.1629 H   0  0  0  0  0  0
   11.3302   62.5280    3.3836 H   0  0  0  0  0  0
    9.9813   63.7843    5.0354 H   0  0  0  0  0  0
   11.0664   65.4686    6.4753 H   0  0  0  0  0  0
  1  5  1  0  0  0
  1  2  2  0  0  0
  1 32  1  0  0  0
  2  3  1  0  0  0
  2 10  1  0  0  0
  3  4  2  0  0  0
  3 33  1  0  0  0
  4  6  1  0  0  0
  4 34  1  0  0  0
  5  6  1  0  0  0
  5  9  2  0  0  0
  6  7  2  0  0  0
  7  8  1  0  0  0
  8  9  1  0  0  0
 10 11  1  0  0  0
 10 14  2  0  0  0
 11 12  2  0  0  0
 11 15  1  0  0  0
 12 13  1  0  0  0
 13 14  1  0  0  0
 13 22  1  0  0  0
 14 35  1  0  0  0
 15 16  2  0  0  0
 15 20  1  0  0  0
 16 17  1  0  0  0
 16 36  1  0  0  0
 17 18  2  0  0  0
 17 37  1  0  0  0
 18 19  1  0  0  0
 18 38  1  0  0  0
 19 20  2  0  0  0
 19 21  1  0  0  0
 21 39  1  0  0  0
 21 40  1  0  0  0
 21 41  1  0  0  0
 22 23  1  0  0  0
 22 42  1  0  0  0
 22 43  1  0  0  0
 23 24  1  0  0  0
 23 25  2  0  0  0
 24 26  1  0  0  0
 24 44  1  0  0  0
 26 27  2  0  0  0
 26 31  1  0  0  0
 27 28  1  0  0  0
 27 45  1  0  0  0
 28 29  2  0  0  0
 28 46  1  0  0  0
 29 30  1  0  0  0
 29 47  1  0  0  0
 30 31  2  0  0  0
 30 48  1  0  0  0
 31 49  1  0  0  0
M  END
> <s_m_entry_id>
34759

> <s_m_entry_name>
dock_pv.502

> <s_m_Source_Path>
/home/csk/Desktop/cluster/DUD-E-result/tgfr1

> <s_m_Source_File>
dock_pv.maegz

> <i_m_Source_File_Index>
502

> <chembl_id>
CHEMBL4569982

> <chembl_pref_name>
None

> <i_lp_mmshare_version>
53161

> <r_lp_tautomer_probability>
1

> <s_lp_Force_Field>
OPLS_2005

> <r_lp_Energy>
27.931311

> <b_lp_Chiralities_Consistent>
1

> <s_lp_Variant>
CHEMBL4439_lig895 -1

> <s_i_glide_gridfile>
glide-grid_3hmm

> <i_i_glide_lignum>
1230

> <i_i_glide_rotatable_bonds>
6

> <r_i_docking_score>
-7.05427624029554

> <r_i_glide_ligand_efficiency>
-0.22755729807405

> <r_i_glide_ligand_efficiency_sa>
-0.714844092662025

> <r_i_glide_ligand_efficiency_ln>
-1.59095547979026

> <r_i_glide_gscore>
-7.05427624029554

> <r_i_glide_lipo>
-3.47556319256629

> <r_i_glide_hbond>
0

> <r_i_glide_metal>
0

> <r_i_glide_rewards>
-1.17141120159384

> <r_i_glide_evdw>
-55.5863456726074

> <r_i_glide_ecoul>
-1.15684711933136

> <r_i_glide_erotb>
0.545542505394672

> <r_i_glide_esite>
0

> <r_i_glide_emodel>
-80.6149143579915

> <r_i_glide_energy>
-56.7431927919388

> <r_i_glide_einternal>
1.7375807762146

> <i_i_glide_confnum>
8

> <i_i_glide_posenum>
180

> <r_i_glide_eff_state_penalty>
0

> <s_user_duplicate_titles>
CHEMBL4439_lig895 

> <i_f3d_flags>
0

> <s_m_subgroup_title>
dock_pv

> <s_m_subgroupid>
dock_pv

> <b_m_subgroup_collapsed>
1

$$$$
CHEMBL4439_lig288
                    3D
 Schrodinger Suite 2021-1.
 34 37  0  0  1  0            999 V2000
   15.6317   66.6615    7.1853 C   0  0  0  0  0  0
   16.6510   67.3609    6.4884 C   0  0  0  0  0  0
   17.6700   67.7169    7.2665 N   0  0  0  0  0  0
   14.2950   66.1043    6.7916 C   0  0  0  0  0  0
   11.6712   65.1911    6.2221 N   0  0  0  0  0  0
   11.9263   66.0571    7.2254 C   0  0  0  0  0  0
   13.1963   66.5077    7.5509 C   0  0  0  0  0  0
   16.1241   66.4588    8.8570 S   0  0  0  0  0  0
   17.5556   67.3363    8.5058 C   0  0  0  0  0  0
   12.7136   64.7643    5.4680 C   0  0  0  0  0  0
   14.0533   65.2132    5.6976 C   0  0  0  0  0  0
   15.0648   64.7732    4.8139 C   0  0  0  0  0  0
   14.7558   63.9474    3.7386 C   0  0  0  0  0  0
   13.4668   63.4546    3.5693 C   0  0  0  0  0  0
   12.4442   63.8514    4.4243 C   0  0  0  0  0  0
   16.7021   67.7515    5.0241 C   0  0  0  0  0  0
   15.6025   67.6574    4.1596 C   0  0  0  0  0  0
   15.7367   68.0571    2.8314 C   0  0  0  0  0  0
   16.9623   68.5442    2.3809 C   0  0  0  0  0  0
   18.0213   68.6214    3.2819 C   0  0  0  0  0  0
   17.9002   68.2285    4.5731 N   0  0  0  0  0  0
   18.4752   67.5787    9.4829 N   0  0  0  0  0  0
   19.5317   69.2585    2.7545 Cl  0  0  0  0  0  0
   11.0661   66.3798    7.7903 H   0  0  0  0  0  0
   13.3181   67.1980    8.3738 H   0  0  0  0  0  0
   16.0702   65.1264    4.9611 H   0  0  0  0  0  0
   15.5366   63.6575    3.0521 H   0  0  0  0  0  0
   13.2518   62.7905    2.7442 H   0  0  0  0  0  0
   11.4346   63.5010    4.2646 H   0  0  0  0  0  0
   14.6294   67.3568    4.5025 H   0  0  0  0  0  0
   14.8906   68.0119    2.1600 H   0  0  0  0  0  0
   17.0818   68.8707    1.3590 H   0  0  0  0  0  0
   19.3090   68.1157    9.2916 H   0  0  0  0  0  0
   18.3508   67.2562   10.4317 H   0  0  0  0  0  0
  1  4  1  0  0  0
  1  8  1  0  0  0
  1  2  2  0  0  0
  2  3  1  0  0  0
  2 16  1  0  0  0
  3  9  2  0  0  0
  4  7  1  0  0  0
  4 11  2  0  0  0
  5 10  2  0  0  0
  5  6  1  0  0  0
  6  7  2  0  0  0
  6 24  1  0  0  0
  7 25  1  0  0  0
  8  9  1  0  0  0
  9 22  1  0  0  0
 10 11  1  0  0  0
 10 15  1  0  0  0
 11 12  1  0  0  0
 12 13  2  0  0  0
 12 26  1  0  0  0
 13 14  1  0  0  0
 13 27  1  0  0  0
 14 15  2  0  0  0
 14 28  1  0  0  0
 15 29  1  0  0  0
 16 17  2  0  0  0
 16 21  1  0  0  0
 17 18  1  0  0  0
 17 30  1  0  0  0
 18 19  2  0  0  0
 18 31  1  0  0  0
 19 20  1  0  0  0
 19 32  1  0  0  0
 20 21  2  0  0  0
 20 23  1  0  0  0
 22 33  1  0  0  0
 22 34  1  0  0  0
M  END
> <s_m_entry_id>
34761

> <s_m_entry_name>
dock_pv.504

> <s_m_Source_Path>
/home/csk/Desktop/cluster/DUD-E-result/tgfr1

> <s_m_Source_File>
dock_pv.maegz

> <i_m_Source_File_Index>
504

> <chembl_id>
CHEMBL582791

> <chembl_pref_name>
None

> <i_lp_mmshare_version>
53161

> <r_lp_tautomer_probability>
1

> <s_lp_Force_Field>
OPLS_2005

> <r_lp_Energy>
17.013231

> <b_lp_Chiralities_Consistent>
1

> <s_lp_Variant>
CHEMBL4439_lig288-1

> <s_i_glide_gridfile>
glide-grid_3hmm

> <i_i_glide_lignum>
405

> <i_i_glide_rotatable_bonds>
2

> <r_i_docking_score>
-7.04505986681601

> <r_i_glide_ligand_efficiency>
-0.306306950731131

> <r_i_glide_ligand_efficiency_sa>
-0.871096221972845

> <r_i_glide_ligand_efficiency_ln>
-1.70355935686713

> <r_i_glide_gscore>
-7.04505986681601

> <r_i_glide_lipo>
-3.831331506335

> <r_i_glide_hbond>
0

> <r_i_glide_metal>
0

> <r_i_glide_rewards>
-1.54979606230012

> <r_i_glide_evdw>
-41.6537704467773

> <r_i_glide_ecoul>
0.594550013542175

> <r_i_glide_erotb>
0.329573722126651

> <r_i_glide_esite>
0

> <r_i_glide_emodel>
-58.2086421063724

> <r_i_glide_energy>
-41.0592204332352

> <r_i_glide_einternal>
0.335745304822922

> <i_i_glide_confnum>
10

> <i_i_glide_posenum>
146

> <r_i_glide_eff_state_penalty>
0

> <s_user_duplicate_titles>
CHEMBL4439_lig288

> <i_f3d_flags>
0

> <s_m_subgroup_title>
dock_pv

> <s_m_subgroupid>
dock_pv

> <b_m_subgroup_collapsed>
1

$$$$
CHEMBL4439_lig67
                    3D
 Schrodinger Suite 2021-1.
 34 37  0  0  1  0            999 V2000
   16.2665   66.5326    8.9011 S   0  0  0  0  0  0
   15.7852   66.7566    7.2302 C   0  0  0  0  0  0
   16.8185   67.4569    6.5469 C   0  0  0  0  0  0
   17.8338   67.7930    7.3314 N   0  0  0  0  0  0
   17.7073   67.4019    8.5664 C   0  0  0  0  0  0
   18.6239   67.6256    9.5504 N   0  0  0  0  0  0
   16.9088   67.8771    5.0944 C   0  0  0  0  0  0
   18.0712   68.4573    4.5539 C   0  0  0  0  0  0
   18.0868   68.8443    3.2128 C   0  0  0  0  0  0
   16.9498   68.6448    2.4317 C   0  0  0  0  0  0
   15.8338   68.0570    3.0211 C   0  0  0  0  0  0
   15.8087   67.6683    4.3221 N   0  0  0  0  0  0
   14.4477   66.2042    6.8226 C   0  0  0  0  0  0
   11.8380   65.2584    6.2196 N   0  0  0  0  0  0
   12.0733   66.1181    7.2315 C   0  0  0  0  0  0
   13.3357   66.5880    7.5742 C   0  0  0  0  0  0
   12.8939   64.8569    5.4728 C   0  0  0  0  0  0
   14.2260   65.3115    5.7293 C   0  0  0  0  0  0
   15.2570   64.8614    4.8804 C   0  0  0  0  0  0
   14.9756   64.0540    3.7858 C   0  0  0  0  0  0
   13.6873   63.5815    3.5709 C   0  0  0  0  0  0
   12.6470   63.9611    4.4101 C   0  0  0  0  0  0
   19.4662   68.1522    9.3692 H   0  0  0  0  0  0
   18.4870   67.2970   10.4940 H   0  0  0  0  0  0
   18.9507   68.6165    5.1599 H   0  0  0  0  0  0
   18.9685   69.2984    2.7859 H   0  0  0  0  0  0
   16.9316   68.9435    1.3934 H   0  0  0  0  0  0
   14.9321   67.8789    2.4527 H   0  0  0  0  0  0
   11.1986   66.4161    7.7913 H   0  0  0  0  0  0
   13.4458   67.2640    8.4099 H   0  0  0  0  0  0
   16.2597   65.2159    5.0550 H   0  0  0  0  0  0
   15.7736   63.7504    3.1253 H   0  0  0  0  0  0
   13.4893   62.9312    2.7299 H   0  0  0  0  0  0
   11.6407   63.6117    4.2231 H   0  0  0  0  0  0
  1  2  1  0  0  0
  1  5  1  0  0  0
  2  3  2  0  0  0
  2 13  1  0  0  0
  3  7  1  0  0  0
  3  4  1  0  0  0
  4  5  2  0  0  0
  5  6  1  0  0  0
  6 23  1  0  0  0
  6 24  1  0  0  0
  7 12  1  0  0  0
  7  8  2  0  0  0
  8  9  1  0  0  0
  8 25  1  0  0  0
  9 10  2  0  0  0
  9 26  1  0  0  0
 10 11  1  0  0  0
 10 27  1  0  0  0
 11 12  2  0  0  0
 11 28  1  0  0  0
 13 18  2  0  0  0
 13 16  1  0  0  0
 14 17  2  0  0  0
 14 15  1  0  0  0
 15 16  2  0  0  0
 15 29  1  0  0  0
 16 30  1  0  0  0
 17 18  1  0  0  0
 17 22  1  0  0  0
 18 19  1  0  0  0
 19 20  2  0  0  0
 19 31  1  0  0  0
 20 21  1  0  0  0
 20 32  1  0  0  0
 21 22  2  0  0  0
 21 33  1  0  0  0
 22 34  1  0  0  0
M  END
> <s_m_entry_id>
34762

> <s_m_entry_name>
dock_pv.505

> <s_m_Source_Path>
/home/csk/Desktop/cluster/DUD-E-result/tgfr1

> <s_m_Source_File>
dock_pv.maegz

> <i_m_Source_File_Index>
505

> <chembl_id>
CHEMBL181640

> <chembl_pref_name>
None

> <i_lp_mmshare_version>
53161

> <r_lp_tautomer_probability>
1

> <s_lp_Force_Field>
OPLS_2005

> <r_lp_Energy>
18.315563

> <b_lp_Chiralities_Consistent>
1

> <s_lp_Variant>
CHEMBL4439_lig67-1

> <s_i_glide_gridfile>
glide-grid_3hmm

> <i_i_glide_lignum>
103

> <i_i_glide_rotatable_bonds>
2

> <r_i_docking_score>
-7.04394293802544

> <r_i_glide_ligand_efficiency>
-0.320179224455702

> <r_i_glide_ligand_efficiency_sa>
-0.897154778859234

> <r_i_glide_ligand_efficiency_ln>
-1.72179658811487

> <r_i_glide_gscore>
-7.04394293802544

> <r_i_glide_lipo>
-3.70539704798082

> <r_i_glide_hbond>
0

> <r_i_glide_metal>
0

> <r_i_glide_rewards>
-1.76419227476433

> <r_i_glide_evdw>
-40.2923469543457

> <r_i_glide_ecoul>
0.280949890613556

> <r_i_glide_erotb>
0.398121248844959

> <r_i_glide_esite>
0

> <r_i_glide_emodel>
-56.4885383037857

> <r_i_glide_energy>
-40.0113970637321

> <r_i_glide_einternal>
0.752016305923462

> <i_i_glide_confnum>
7

> <i_i_glide_posenum>
293

> <r_i_glide_eff_state_penalty>
0

> <s_user_duplicate_titles>
CHEMBL4439_lig67,306922

> <i_f3d_flags>
0

> <s_m_subgroup_title>
dock_pv

> <s_m_subgroupid>
dock_pv

> <b_m_subgroup_collapsed>
1

$$$$
CHEMBL4439_lig68
                    3D
 Schrodinger Suite 2021-1.
 34 37  0  0  1  0            999 V2000
   15.7824   67.0388    5.7155 C   0  0  0  0  0  0
   16.7786   67.4398    6.6315 C   0  0  0  0  0  0
   17.8175   68.0585    6.0910 N   0  0  0  0  0  0
   14.4691   66.3311    5.9278 C   0  0  0  0  0  0
   11.9088   65.2120    6.4320 N   0  0  0  0  0  0
   12.4342   66.1701    7.2191 C   0  0  0  0  0  0
   13.6759   66.7554    7.0005 C   0  0  0  0  0  0
   16.2303   67.6417    4.1293 S   0  0  0  0  0  0
   17.6948   68.2406    4.8059 C   0  0  0  0  0  0
   12.6544   64.7536    5.3998 C   0  0  0  0  0  0
   13.9670   65.2555    5.1185 C   0  0  0  0  0  0
   14.6926   64.6509    4.0589 C   0  0  0  0  0  0
   14.1102   63.6572    3.2828 C   0  0  0  0  0  0
   12.8263   63.2079    3.5467 C   0  0  0  0  0  0
   12.0955   63.7309    4.6026 C   0  0  0  0  0  0
   16.7599   67.2536    8.1154 C   0  0  0  0  0  0
   17.2077   68.2601    8.9832 C   0  0  0  0  0  0
   17.1540   68.0646   10.3635 C   0  0  0  0  0  0
   16.6471   66.8611   10.8443 C   0  0  0  0  0  0
   16.2137   65.8658   10.0313 N   0  0  0  0  0  0
   16.2807   66.0719    8.6912 C   0  0  0  0  0  0
   18.6176   68.8540    4.0129 N   0  0  0  0  0  0
   11.8023   66.4584    8.0400 H   0  0  0  0  0  0
   14.0101   67.5496    7.6540 H   0  0  0  0  0  0
   15.6984   64.9651    3.8376 H   0  0  0  0  0  0
   14.6588   63.2399    2.4559 H   0  0  0  0  0  0
   12.3863   62.4581    2.9095 H   0  0  0  0  0  0
   11.0992   63.3693    4.8127 H   0  0  0  0  0  0
   17.5821   69.1966    8.5955 H   0  0  0  0  0  0
   17.4826   68.8423   11.0374 H   0  0  0  0  0  0
   16.5655   66.6859   11.9067 H   0  0  0  0  0  0
   15.9485   65.2595    8.0648 H   0  0  0  0  0  0
   19.4896   69.1959    4.3899 H   0  0  0  0  0  0
   18.4781   68.9719    3.0186 H   0  0  0  0  0  0
  1  4  1  0  0  0
  1  8  1  0  0  0
  1  2  2  0  0  0
  2  3  1  0  0  0
  2 16  1  0  0  0
  3  9  2  0  0  0
  4  7  1  0  0  0
  4 11  2  0  0  0
  5 10  2  0  0  0
  5  6  1  0  0  0
  6  7  2  0  0  0
  6 23  1  0  0  0
  7 24  1  0  0  0
  8  9  1  0  0  0
  9 22  1  0  0  0
 10 11  1  0  0  0
 10 15  1  0  0  0
 11 12  1  0  0  0
 12 13  2  0  0  0
 12 25  1  0  0  0
 13 14  1  0  0  0
 13 26  1  0  0  0
 14 15  2  0  0  0
 14 27  1  0  0  0
 15 28  1  0  0  0
 16 17  2  0  0  0
 16 21  1  0  0  0
 17 18  1  0  0  0
 17 29  1  0  0  0
 18 19  2  0  0  0
 18 30  1  0  0  0
 19 20  1  0  0  0
 19 31  1  0  0  0
 20 21  2  0  0  0
 21 32  1  0  0  0
 22 33  1  0  0  0
 22 34  1  0  0  0
M  END
> <s_m_entry_id>
34764

> <s_m_entry_name>
dock_pv.507

> <s_m_Source_Path>
/home/csk/Desktop/cluster/DUD-E-result/tgfr1

> <s_m_Source_File>
dock_pv.maegz

> <i_m_Source_File_Index>
507

> <chembl_id>
CHEMBL359724

> <chembl_pref_name>
None

> <i_lp_mmshare_version>
53161

> <r_lp_tautomer_probability>
1

> <s_lp_Force_Field>
OPLS_2005

> <r_lp_Energy>
20.304296

> <b_lp_Chiralities_Consistent>
1

> <s_lp_Variant>
CHEMBL4439_lig68-1

> <s_i_glide_gridfile>
glide-grid_3hmm

> <i_i_glide_lignum>
104

> <i_i_glide_rotatable_bonds>
2

> <r_i_docking_score>
-7.03868748152618

> <r_i_glide_ligand_efficiency>
-0.319940340069372

> <r_i_glide_ligand_efficiency_sa>
-0.896485415413948

> <r_i_glide_ligand_efficiency_ln>
-1.72051196284902

> <r_i_glide_gscore>
-7.03868748152618

> <r_i_glide_lipo>
-3.58779462953337

> <r_i_glide_hbond>
0

> <r_i_glide_metal>
0

> <r_i_glide_rewards>
-1.78301001231676

> <r_i_glide_evdw>
-43.129035949707

> <r_i_glide_ecoul>
0.602984726428986

> <r_i_glide_erotb>
0.398121248844959

> <r_i_glide_esite>
0

> <r_i_glide_emodel>
-57.7547967496415

> <r_i_glide_energy>
-42.526051223278

> <r_i_glide_einternal>
3.8965311050415

> <i_i_glide_confnum>
8

> <i_i_glide_posenum>
187

> <r_i_glide_eff_state_penalty>
0

> <s_user_duplicate_titles>
CHEMBL4439_lig68

> <i_f3d_flags>
0

> <s_m_subgroup_title>
dock_pv

> <s_m_subgroupid>
dock_pv

> <b_m_subgroup_collapsed>
1

$$$$
CHEMBL4439_lig210
                    3D
 Schrodinger Suite 2021-1.
 53 57  0  0  1  0            999 V2000
   17.2527   67.9802    6.8298 C   0  0  0  0  0  0
   16.0951   67.2302    7.1516 C   0  0  0  0  0  0
   15.8202   67.3021    8.4451 N   0  0  0  0  0  0
   16.7490   68.0563    8.9609 C   0  0  0  0  0  0
   17.6786   68.4885    8.0494 N   0  0  0  0  0  0
   17.8972   68.2927    5.5024 C   0  0  0  0  0  0
   19.2847   68.3700    5.3294 C   0  0  0  0  0  0
   19.8212   68.7796    4.1098 C   0  0  0  0  0  0
   18.9720   69.0800    3.0475 C   0  0  0  0  0  0
   17.5978   68.9384    3.1810 C   0  0  0  0  0  0
   17.0675   68.5438    4.4054 C   0  0  0  0  0  0
   15.2406   66.3704    6.2620 C   0  0  0  0  0  0
   15.7860   65.8075    5.1069 C   0  0  0  0  0  0
   15.0266   64.8754    4.4121 C   0  0  0  0  0  0
   13.7827   64.5454    4.8061 N   0  0  0  0  0  0
   13.2711   65.1962    5.8863 C   0  0  0  0  0  0
   13.9605   66.0869    6.6522 N   0  0  0  0  0  0
   19.4830   69.4962    1.8687 F   0  0  0  0  0  0
   18.7846   69.4007    8.3446 C   0  0  0  0  0  0
   19.8966   68.8418    9.2396 C   0  0  0  0  0  0
   19.6722   68.6357   10.6083 C   0  0  0  0  0  0
   20.7008   68.2313   11.4704 C   0  0  0  0  0  0
   21.9773   68.0148   10.9260 C   0  0  0  0  0  0
   22.2094   68.2010    9.5645 C   0  0  0  0  0  0
   21.1760   68.6170    8.7249 C   0  0  0  0  0  0
   11.9407   64.9332    6.2575 N   0  0  0  0  0  0
   20.4238   68.0727   12.9501 C   0  0  0  0  0  0
   21.2280   67.2573   13.6322 N   0  0  0  0  0  0
   19.5122   68.6736   13.5166 O   0  0  0  0  0  0
   11.2239   63.7942    5.6926 C   0  0  0  0  0  0
    9.8652   64.0569    5.0963 C   0  0  0  0  0  0
   11.0172   63.7618    4.1929 C   0  0  0  0  0  0
   16.8127   68.3568    9.9956 H   0  0  0  0  0  0
   19.9503   68.1183    6.1387 H   0  0  0  0  0  0
   20.8919   68.8567    3.9825 H   0  0  0  0  0  0
   16.9470   69.1514    2.3470 H   0  0  0  0  0  0
   15.9961   68.4568    4.5053 H   0  0  0  0  0  0
   16.7716   66.0558    4.7681 H   0  0  0  0  0  0
   15.4119   64.3746    3.5362 H   0  0  0  0  0  0
   18.3440   70.2692    8.8219 H   0  0  0  0  0  0
   19.1960   69.8065    7.4233 H   0  0  0  0  0  0
   18.6953   68.8481   11.0158 H   0  0  0  0  0  0
   22.8081   67.7222   11.5516 H   0  0  0  0  0  0
   23.1986   68.0484    9.1581 H   0  0  0  0  0  0
   21.3913   68.7920    7.6816 H   0  0  0  0  0  0
   11.5410   65.3946    7.0617 H   0  0  0  0  0  0
   21.0801   67.1331   14.6209 H   0  0  0  0  0  0
   21.8075   66.6083   13.1232 H   0  0  0  0  0  0
   11.3909   62.8544    6.2174 H   0  0  0  0  0  0
    9.0851   63.3071    5.2398 H   0  0  0  0  0  0
    9.4702   65.0678    5.0398 H   0  0  0  0  0  0
   11.4660   64.5751    3.6321 H   0  0  0  0  0  0
   11.0642   62.8194    3.6575 H   0  0  0  0  0  0
  1  6  1  0  0  0
  1  2  2  0  0  0
  1  5  1  0  0  0
  2 12  1  0  0  0
  2  3  1  0  0  0
  3  4  2  0  0  0
  4  5  1  0  0  0
  4 33  1  0  0  0
  5 19  1  0  0  0
  6 11  1  0  0  0
  6  7  2  0  0  0
  7  8  1  0  0  0
  7 34  1  0  0  0
  8  9  2  0  0  0
  8 35  1  0  0  0
  9 10  1  0  0  0
  9 18  1  0  0  0
 10 11  2  0  0  0
 10 36  1  0  0  0
 11 37  1  0  0  0
 12 13  2  0  0  0
 12 17  1  0  0  0
 13 14  1  0  0  0
 13 38  1  0  0  0
 14 15  2  0  0  0
 14 39  1  0  0  0
 15 16  1  0  0  0
 16 17  2  0  0  0
 16 26  1  0  0  0
 19 20  1  0  0  0
 19 40  1  0  0  0
 19 41  1  0  0  0
 20 21  2  0  0  0
 20 25  1  0  0  0
 21 22  1  0  0  0
 21 42  1  0  0  0
 22 23  2  0  0  0
 22 27  1  0  0  0
 23 24  1  0  0  0
 23 43  1  0  0  0
 24 25  2  0  0  0
 24 44  1  0  0  0
 25 45  1  0  0  0
 26 30  1  0  0  0
 26 46  1  0  0  0
 27 28  1  0  0  0
 27 29  2  0  0  0
 28 47  1  0  0  0
 28 48  1  0  0  0
 30 31  1  0  0  0
 30 32  1  0  0  0
 30 49  1  0  0  0
 31 32  1  0  0  0
 31 50  1  0  0  0
 31 51  1  0  0  0
 32 52  1  0  0  0
 32 53  1  0  0  0
M  END
> <s_m_entry_id>
34765

> <s_m_entry_name>
dock_pv.508

> <s_m_Source_Path>
/home/csk/Desktop/cluster/DUD-E-result/tgfr1

> <s_m_Source_File>
dock_pv.maegz

> <i_m_Source_File_Index>
508

> <chembl_id>
CHEMBL520919

> <chembl_pref_name>
None

> <i_lp_mmshare_version>
53161

> <r_lp_tautomer_probability>
0.999999987636

> <s_lp_Force_Field>
OPLS_2005

> <r_lp_Energy>
23.13652

> <b_lp_Chiralities_Consistent>
1

> <s_lp_Variant>
CHEMBL4439_lig210-1

> <s_i_glide_gridfile>
glide-grid_3hmm

> <i_i_glide_lignum>
311

> <i_i_glide_rotatable_bonds>
7

> <r_i_docking_score>
-7.03693081314895

> <r_i_glide_ligand_efficiency>
-0.219904087910905

> <r_i_glide_ligand_efficiency_sa>
-0.698151960157218

> <r_i_glide_ligand_efficiency_ln>
-1.57576062855335

> <r_i_glide_gscore>
-7.03693081314895

> <r_i_glide_lipo>
-3.38966470266032

> <r_i_glide_hbond>
-0.00147305225266823

> <r_i_glide_metal>
0

> <r_i_glide_rewards>
-1.20867215235993

> <r_i_glide_evdw>
-46.9260368347168

> <r_i_glide_ecoul>
-4.57792711257935

> <r_i_glide_erotb>
0.649220311648184

> <r_i_glide_esite>
-0.0533503089014635

> <r_i_glide_emodel>
-74.7889611979508

> <r_i_glide_energy>
-51.5039639472961

> <r_i_glide_einternal>
4.80491971969604

> <i_i_glide_confnum>
54

> <i_i_glide_posenum>
45

> <r_i_glide_eff_state_penalty>
0

> <s_user_duplicate_titles>
CHEMBL4439_lig210

> <i_f3d_flags>
0

> <s_m_subgroup_title>
dock_pv

> <s_m_subgroupid>
dock_pv

> <b_m_subgroup_collapsed>
1

$$$$
CHEMBL4439_lig736
                    3D
 Schrodinger Suite 2021-1.
 48 52  0  0  1  0            999 V2000
   19.2707   67.9218   10.4833 C   0  0  0  0  0  0
   17.9020   67.8013   10.2259 C   0  0  0  0  0  0
   17.0260   67.7419   11.3282 C   0  0  0  0  0  0
   17.4698   67.8111   12.6486 C   0  0  0  0  0  0
   19.6969   68.0335   11.7787 N   0  0  0  0  0  0
   18.8446   67.9651   12.8788 C   0  0  0  0  0  0
   19.5850   68.0575   14.0119 N   0  0  0  0  0  0
   20.8075   68.1695   13.5236 C   0  0  0  0  0  0
   20.9663   68.1798   12.2122 N   0  0  0  0  0  0
   17.3372   67.6967    8.8349 C   0  0  0  0  0  0
   17.7466   68.0137    7.5086 C   0  0  0  0  0  0
   16.8049   67.6576    6.6328 N   0  0  0  0  0  0
   15.8004   67.1765    7.3167 C   0  0  0  0  0  0
   16.0749   67.1911    8.6476 N   0  0  0  0  0  0
   19.0007   68.6598    6.9662 C   0  0  0  0  0  0
   19.3248   68.6363    5.6005 C   0  0  0  0  0  0
   20.5055   69.2405    5.1653 C   0  0  0  0  0  0
   21.3547   69.8399    6.0943 C   0  0  0  0  0  0
   20.9717   69.8383    7.4351 C   0  0  0  0  0  0
   19.8089   69.2863    7.8599 N   0  0  0  0  0  0
   21.8511   70.4475    8.5103 C   0  0  0  0  0  0
   14.4910   66.6757    6.7528 C   0  0  0  0  0  0
   14.6835   65.5733    5.8218 N   0  0  0  0  0  0
   13.5985   64.8850    5.2556 C   0  0  0  0  0  0
   12.2786   65.0324    5.7055 C   0  0  0  0  0  0
   11.2543   64.3005    5.1140 C   0  0  0  0  0  0
   11.5481   63.4181    4.0773 C   0  0  0  0  0  0
   12.8566   63.2571    3.6314 C   0  0  0  0  0  0
   13.8780   64.0017    4.2142 C   0  0  0  0  0  0
   20.8278   69.2374    3.8514 F   0  0  0  0  0  0
   20.0449   67.9081    9.7390 H   0  0  0  0  0  0
   15.9590   67.6470   11.1759 H   0  0  0  0  0  0
   16.7673   67.7435   13.4637 H   0  0  0  0  0  0
   21.6627   68.2535   14.1787 H   0  0  0  0  0  0
   15.4621   66.8655    9.3795 H   0  0  0  0  0  0
   18.6820   68.1521    4.8786 H   0  0  0  0  0  0
   22.2878   70.2866    5.7775 H   0  0  0  0  0  0
   22.5844   71.1359    8.0860 H   0  0  0  0  0  0
   21.2572   70.9932    9.2455 H   0  0  0  0  0  0
   22.3932   69.6605    9.0361 H   0  0  0  0  0  0
   13.9502   67.4833    6.2575 H   0  0  0  0  0  0
   13.8591   66.3329    7.5733 H   0  0  0  0  0  0
   15.5412   65.5864    5.2878 H   0  0  0  0  0  0
   12.0298   65.7070    6.5085 H   0  0  0  0  0  0
   10.2368   64.4205    5.4551 H   0  0  0  0  0  0
   10.7522   62.8603    3.6067 H   0  0  0  0  0  0
   13.0765   62.5741    2.8236 H   0  0  0  0  0  0
   14.8895   63.8743    3.8540 H   0  0  0  0  0  0
  1  5  1  0  0  0
  1  2  2  0  0  0
  1 31  1  0  0  0
  2  3  1  0  0  0
  2 10  1  0  0  0
  3  4  2  0  0  0
  3 32  1  0  0  0
  4  6  1  0  0  0
  4 33  1  0  0  0
  5  6  1  0  0  0
  5  9  1  0  0  0
  6  7  2  0  0  0
  7  8  1  0  0  0
  8  9  2  0  0  0
  8 34  1  0  0  0
 10 11  2  0  0  0
 10 14  1  0  0  0
 11 15  1  0  0  0
 11 12  1  0  0  0
 12 13  2  0  0  0
 13 14  1  0  0  0
 13 22  1  0  0  0
 14 35  1  0  0  0
 15 16  2  0  0  0
 15 20  1  0  0  0
 16 17  1  0  0  0
 16 36  1  0  0  0
 17 18  2  0  0  0
 17 30  1  0  0  0
 18 19  1  0  0  0
 18 37  1  0  0  0
 19 20  2  0  0  0
 19 21  1  0  0  0
 21 38  1  0  0  0
 21 39  1  0  0  0
 21 40  1  0  0  0
 22 23  1  0  0  0
 22 41  1  0  0  0
 22 42  1  0  0  0
 23 24  1  0  0  0
 23 43  1  0  0  0
 24 25  2  0  0  0
 24 29  1  0  0  0
 25 26  1  0  0  0
 25 44  1  0  0  0
 26 27  2  0  0  0
 26 45  1  0  0  0
 27 28  1  0  0  0
 27 46  1  0  0  0
 28 29  2  0  0  0
 28 47  1  0  0  0
 29 48  1  0  0  0
M  END
> <s_m_entry_id>
34766

> <s_m_entry_name>
dock_pv.509

> <s_m_Source_Path>
/home/csk/Desktop/cluster/DUD-E-result/tgfr1

> <s_m_Source_File>
dock_pv.maegz

> <i_m_Source_File_Index>
509

> <chembl_id>
CHEMBL3634709

> <chembl_pref_name>
None

> <i_lp_mmshare_version>
53161

> <r_lp_tautomer_probability>
0.499999999999999

> <s_lp_Force_Field>
OPLS_2005

> <r_lp_Energy>
16.187239

> <b_lp_Chiralities_Consistent>
1

> <s_lp_Variant>
CHEMBL4439_lig736-2

> <s_i_glide_gridfile>
glide-grid_3hmm

> <i_i_glide_lignum>
1045

> <i_i_glide_rotatable_bonds>
5

> <r_i_docking_score>
-7.0299195898332

> <r_i_glide_ligand_efficiency>
-0.23433065299444

> <r_i_glide_ligand_efficiency_sa>
-0.728119821300225

> <r_i_glide_ligand_efficiency_ln>
-1.59727432791898

> <r_i_glide_gscore>
-7.0299195898332

> <r_i_glide_lipo>
-3.25118007264167

> <r_i_glide_hbond>
0

> <r_i_glide_metal>
0

> <r_i_glide_rewards>
-1.53935431376975

> <r_i_glide_evdw>
-54.8487319946289

> <r_i_glide_ecoul>
-0.0770587399601936

> <r_i_glide_erotb>
0.614091747577904

> <r_i_glide_esite>
-0.0994815402742005

> <r_i_glide_emodel>
-78.828381259294

> <r_i_glide_energy>
-54.9257907345891

> <r_i_glide_einternal>
1.73349142074585

> <i_i_glide_confnum>
14

> <i_i_glide_posenum>
103

> <r_i_glide_eff_state_penalty>
0

> <s_user_duplicate_titles>
CHEMBL4439_lig736

> <i_f3d_flags>
0

> <s_m_subgroup_title>
dock_pv

> <s_m_subgroupid>
dock_pv

> <b_m_subgroup_collapsed>
1

$$$$
CHEMBL4439_lig73
                    3D
 Schrodinger Suite 2021-1.
 33 36  0  0  1  0            999 V2000
   15.7280   66.7415    7.0198 C   0  0  0  0  0  0
   16.7293   67.4490    6.3014 C   0  0  0  0  0  0
   17.7667   67.8036    7.0516 N   0  0  0  0  0  0
   17.6809   67.4246    8.2945 C   0  0  0  0  0  0
   16.2622   66.5395    8.6794 S   0  0  0  0  0  0
   14.3820   66.1778    6.6645 C   0  0  0  0  0  0
   14.1069   65.2793    5.5858 C   0  0  0  0  0  0
   12.7713   64.7909    5.4258 C   0  0  0  0  0  0
   16.7578   67.8685    4.8478 C   0  0  0  0  0  0
   11.7560   65.1837    6.2328 N   0  0  0  0  0  0
   12.4233   63.8874    4.4692 N   0  0  0  0  0  0
   15.6225   67.6578    4.1275 N   0  0  0  0  0  0
   18.6229   67.6671    9.2502 N   0  0  0  0  0  0
   12.0367   66.0574    7.2243 C   0  0  0  0  0  0
   13.3092   66.5504    7.4777 C   0  0  0  0  0  0
   15.0666   64.8329    4.6494 C   0  0  0  0  0  0
   13.3808   63.4894    3.5997 C   0  0  0  0  0  0
   15.5852   68.0569    2.8314 C   0  0  0  0  0  0
   17.8903   68.4598    4.2587 C   0  0  0  0  0  0
   14.6875   63.9630    3.6326 C   0  0  0  0  0  0
   16.6667   68.6671    2.1959 C   0  0  0  0  0  0
   17.8396   68.8617    2.9229 C   0  0  0  0  0  0
   19.4533   68.2024    9.0412 H   0  0  0  0  0  0
   18.5072   67.3641   10.2057 H   0  0  0  0  0  0
   11.1939   66.3586    7.8291 H   0  0  0  0  0  0
   13.4533   67.2450    8.2936 H   0  0  0  0  0  0
   16.0747   65.2084    4.7074 H   0  0  0  0  0  0
   13.0668   62.8013    2.8270 H   0  0  0  0  0  0
   14.6605   67.8822    2.3001 H   0  0  0  0  0  0
   18.7970   68.6203    4.8233 H   0  0  0  0  0  0
   15.4052   63.6549    2.8885 H   0  0  0  0  0  0
   16.5942   68.9764    1.1639 H   0  0  0  0  0  0
   18.6982   69.3263    2.4594 H   0  0  0  0  0  0
  1  2  2  0  0  0
  1  5  1  0  0  0
  1  6  1  0  0  0
  2  3  1  0  0  0
  2  9  1  0  0  0
  3  4  2  0  0  0
  4  5  1  0  0  0
  4 13  1  0  0  0
  6  7  1  0  0  0
  6 15  2  0  0  0
  7  8  1  0  0  0
  7 16  2  0  0  0
  8 11  2  0  0  0
  8 10  1  0  0  0
  9 12  1  0  0  0
  9 19  2  0  0  0
 10 14  2  0  0  0
 11 17  1  0  0  0
 12 18  2  0  0  0
 13 23  1  0  0  0
 13 24  1  0  0  0
 14 15  1  0  0  0
 14 25  1  0  0  0
 15 26  1  0  0  0
 16 20  1  0  0  0
 16 27  1  0  0  0
 17 20  2  0  0  0
 17 28  1  0  0  0
 18 21  1  0  0  0
 18 29  1  0  0  0
 19 22  1  0  0  0
 19 30  1  0  0  0
 20 31  1  0  0  0
 21 22  2  0  0  0
 21 32  1  0  0  0
 22 33  1  0  0  0
M  END
> <s_m_entry_id>
34767

> <s_m_entry_name>
dock_pv.510

> <s_m_Source_Path>
/home/csk/Desktop/cluster/DUD-E-result/tgfr1

> <s_m_Source_File>
dock_pv.maegz

> <i_m_Source_File_Index>
510

> <chembl_id>
CHEMBL181958

> <chembl_pref_name>
None

> <i_lp_mmshare_version>
53161

> <r_lp_tautomer_probability>
1

> <s_lp_Force_Field>
OPLS_2005

> <r_lp_Energy>
15.822118

> <b_lp_Chiralities_Consistent>
1

> <s_lp_Variant>
CHEMBL4439_lig73-1

> <s_i_glide_gridfile>
glide-grid_3hmm

> <i_i_glide_lignum>
109

> <i_i_glide_rotatable_bonds>
2

> <r_i_docking_score>
-7.02519248872336

> <r_i_glide_ligand_efficiency>
-0.319326931305607

> <r_i_glide_ligand_efficiency_sa>
-0.894766619933882

> <r_i_glide_ligand_efficiency_ln>
-1.71721329436619

> <r_i_glide_gscore>
-7.02519248872336

> <r_i_glide_lipo>
-3.46020256771506

> <r_i_glide_hbond>
0

> <r_i_glide_metal>
0

> <r_i_glide_rewards>
-1.90286942415753

> <r_i_glide_evdw>
-41.9469604492188

> <r_i_glide_ecoul>
0.262411832809448

> <r_i_glide_erotb>
0.395865750688737

> <r_i_glide_esite>
0

> <r_i_glide_emodel>
-58.3176280310942

> <r_i_glide_energy>
-41.6845486164093

> <r_i_glide_einternal>
0.73967581987381

> <i_i_glide_confnum>
7

> <i_i_glide_posenum>
344

> <r_i_glide_eff_state_penalty>
0

> <s_user_duplicate_titles>
CHEMBL4439_lig73

> <i_f3d_flags>
0

> <s_m_subgroup_title>
dock_pv

> <s_m_subgroupid>
dock_pv

> <b_m_subgroup_collapsed>
1

$$$$
CHEMBL4439_lig696
                    3D
 Schrodinger Suite 2021-1.
 48 52  0  0  1  0            999 V2000
   19.3850   68.9673    4.8178 C   0  0  0  0  0  0
   18.1522   68.4571    5.2437 C   0  0  0  0  0  0
   17.1651   68.2332    4.2565 C   0  0  0  0  0  0
   17.3726   68.4819    2.9011 C   0  0  0  0  0  0
   19.5835   69.2081    3.4890 N   0  0  0  0  0  0
   18.6199   68.9695    2.5110 C   0  0  0  0  0  0
   19.1453   69.2570    1.3050 N   0  0  0  0  0  0
   20.3645   69.6573    1.6307 C   0  0  0  0  0  0
   20.7120   69.6570    2.9054 N   0  0  0  0  0  0
   17.8203   68.0847    6.6749 C   0  0  0  0  0  0
   18.4399   67.9629    7.9622 C   0  0  0  0  0  0
   17.5821   67.4350    8.8385 N   0  0  0  0  0  0
   16.4616   67.2295    8.2125 C   0  0  0  0  0  0
   16.5427   67.6717    6.9400 N   0  0  0  0  0  0
   19.8217   68.2707    8.4950 C   0  0  0  0  0  0
   20.2368   67.8621    9.7780 C   0  0  0  0  0  0
   21.5274   68.1657   10.2182 C   0  0  0  0  0  0
   22.3859   68.8739    9.3793 C   0  0  0  0  0  0
   21.9138   69.2570    8.1216 C   0  0  0  0  0  0
   20.6564   68.9729    7.6903 N   0  0  0  0  0  0
   22.8019   69.9872    7.1343 C   0  0  0  0  0  0
   15.2573   66.5129    8.7720 C   0  0  0  0  0  0
   14.0100   66.7374    8.0340 N   0  0  0  0  0  0
   13.6445   65.9741    6.9112 C   0  0  0  0  0  0
   14.5634   65.2811    6.1102 C   0  0  0  0  0  0
   14.1122   64.4808    5.0628 C   0  0  0  0  0  0
   12.7452   64.3348    4.8496 C   0  0  0  0  0  0
   11.8260   65.0270    5.6307 C   0  0  0  0  0  0
   12.2799   65.8552    6.6521 C   0  0  0  0  0  0
   12.1842   63.2572    3.6325 Cl  0  0  0  0  0  0
   20.2377   69.1753    5.4275 H   0  0  0  0  0  0
   16.1948   67.8346    4.5129 H   0  0  0  0  0  0
   16.6029   68.2867    2.1687 H   0  0  0  0  0  0
   21.0554   69.9950    0.8700 H   0  0  0  0  0  0
   15.7904   67.6132    6.2697 H   0  0  0  0  0  0
   19.5817   67.3025   10.4311 H   0  0  0  0  0  0
   21.8573   67.8447   11.1964 H   0  0  0  0  0  0
   23.3916   69.1121    9.6937 H   0  0  0  0  0  0
   23.6553   70.4568    7.6325 H   0  0  0  0  0  0
   23.1809   69.2835    6.3912 H   0  0  0  0  0  0
   22.2579   70.7765    6.6139 H   0  0  0  0  0  0
   15.0968   66.8615    9.7917 H   0  0  0  0  0  0
   15.4664   65.4464    8.8370 H   0  0  0  0  0  0
   13.2404   67.0926    8.5861 H   0  0  0  0  0  0
   15.6239   65.3286    6.2945 H   0  0  0  0  0  0
   14.8176   63.9482    4.4401 H   0  0  0  0  0  0
   10.7648   64.9147    5.4576 H   0  0  0  0  0  0
   11.5498   66.3673    7.2620 H   0  0  0  0  0  0
  1  5  1  0  0  0
  1  2  2  0  0  0
  1 31  1  0  0  0
  2  3  1  0  0  0
  2 10  1  0  0  0
  3  4  2  0  0  0
  3 32  1  0  0  0
  4  6  1  0  0  0
  4 33  1  0  0  0
  5  6  1  0  0  0
  5  9  1  0  0  0
  6  7  2  0  0  0
  7  8  1  0  0  0
  8  9  2  0  0  0
  8 34  1  0  0  0
 10 11  2  0  0  0
 10 14  1  0  0  0
 11 15  1  0  0  0
 11 12  1  0  0  0
 12 13  2  0  0  0
 13 14  1  0  0  0
 13 22  1  0  0  0
 14 35  1  0  0  0
 15 16  2  0  0  0
 15 20  1  0  0  0
 16 17  1  0  0  0
 16 36  1  0  0  0
 17 18  2  0  0  0
 17 37  1  0  0  0
 18 19  1  0  0  0
 18 38  1  0  0  0
 19 20  2  0  0  0
 19 21  1  0  0  0
 21 39  1  0  0  0
 21 40  1  0  0  0
 21 41  1  0  0  0
 22 23  1  0  0  0
 22 42  1  0  0  0
 22 43  1  0  0  0
 23 24  1  0  0  0
 23 44  1  0  0  0
 24 25  2  0  0  0
 24 29  1  0  0  0
 25 26  1  0  0  0
 25 45  1  0  0  0
 26 27  2  0  0  0
 26 46  1  0  0  0
 27 28  1  0  0  0
 27 30  1  0  0  0
 28 29  2  0  0  0
 28 47  1  0  0  0
 29 48  1  0  0  0
M  END
> <s_m_entry_id>
34768

> <s_m_entry_name>
dock_pv.511

> <s_m_Source_Path>
/home/csk/Desktop/cluster/DUD-E-result/tgfr1

> <s_m_Source_File>
dock_pv.maegz

> <i_m_Source_File_Index>
511

> <chembl_id>
CHEMBL3260599

> <chembl_pref_name>
None

> <i_lp_mmshare_version>
53161

> <r_lp_tautomer_probability>
0.499999999999999

> <s_lp_Force_Field>
OPLS_2005

> <r_lp_Energy>
16.094544

> <b_lp_Chiralities_Consistent>
1

> <s_lp_Variant>
CHEMBL4439_lig696-2

> <s_i_glide_gridfile>
glide-grid_3hmm

> <i_i_glide_lignum>
981

> <i_i_glide_rotatable_bonds>
5

> <r_i_docking_score>
-7.02375107762072

> <r_i_glide_ligand_efficiency>
-0.234125035920691

> <r_i_glide_ligand_efficiency_sa>
-0.727480921245617

> <r_i_glide_ligand_efficiency_ln>
-1.59587277473298

> <r_i_glide_gscore>
-7.02375107762072

> <r_i_glide_lipo>
-3.05271322206605

> <r_i_glide_hbond>
0

> <r_i_glide_metal>
0

> <r_i_glide_rewards>
-2.00420440655577

> <r_i_glide_evdw>
-48.5022659301758

> <r_i_glide_ecoul>
-0.751355290412903

> <r_i_glide_erotb>
0.570983141071822

> <r_i_glide_esite>
0

> <r_i_glide_emodel>
-68.0732933697855

> <r_i_glide_energy>
-49.2536212205887

> <r_i_glide_einternal>
4.64019203186035

> <i_i_glide_confnum>
27

> <i_i_glide_posenum>
219

> <r_i_glide_eff_state_penalty>
0

> <s_user_duplicate_titles>
CHEMBL4439_lig696

> <i_f3d_flags>
0

> <s_m_subgroup_title>
dock_pv

> <s_m_subgroupid>
dock_pv

> <b_m_subgroup_collapsed>
1

$$$$
CHEMBL4439_lig250
                    3D
 Schrodinger Suite 2021-1.
 48 51  0  0  1  0            999 V2000
   17.0666   68.6055    2.9367 C   0  0  0  0  0  0
   18.1070   69.2760    2.2959 C   0  0  0  0  0  0
   19.2829   69.5513    2.9094 N   0  0  0  0  0  0
   19.4636   69.1359    4.1860 C   0  0  0  0  0  0
   18.4984   68.3757    4.8494 C   0  0  0  0  0  0
   17.2423   68.1711    4.2520 C   0  0  0  0  0  0
   20.6758   69.5177    4.7799 N   0  0  0  0  0  0
   21.1086   69.5949    6.1176 C   0  0  0  0  0  0
   22.4811   69.6570    6.3599 C   0  0  0  0  0  0
   22.9726   69.6903    7.6630 C   0  0  0  0  0  0
   22.0863   69.6952    8.7348 C   0  0  0  0  0  0
   20.7141   69.6795    8.5089 C   0  0  0  0  0  0
   20.2275   69.6513    7.2030 C   0  0  0  0  0  0
   16.1556   67.5627    4.8609 O   0  0  0  0  0  0
   16.0246   67.3581    6.2263 C   0  0  0  0  0  0
   16.6232   68.1822    7.1898 C   0  0  0  0  0  0
   16.5421   67.8951    8.5475 C   0  0  0  0  0  0
   15.7672   66.8011    8.9301 C   0  0  0  0  0  0
   15.0711   66.0570    8.0315 N   0  0  0  0  0  0
   15.1935   66.3281    6.7007 C   0  0  0  0  0  0
   15.6965   66.3535   10.3802 C   0  0  0  0  0  0
   14.3663   65.4666    5.8079 C   0  0  0  0  0  0
   12.9995   65.2563    6.0458 C   0  0  0  0  0  0
   12.2888   64.3908    5.2116 C   0  0  0  0  0  0
   12.9469   63.7686    4.1498 C   0  0  0  0  0  0
   14.2966   64.0571    3.9469 C   0  0  0  0  0  0
   15.0080   64.8788    4.7602 N   0  0  0  0  0  0
   17.3050   68.7481    9.5467 C   0  0  0  0  0  0
   22.5579   69.7324   10.0022 F   0  0  0  0  0  0
   16.1266   68.4379    2.4306 H   0  0  0  0  0  0
   18.0024   69.6312    1.2812 H   0  0  0  0  0  0
   18.7262   67.9601    5.8149 H   0  0  0  0  0  0
   21.3817   69.7562    4.0995 H   0  0  0  0  0  0
   23.1837   69.6563    5.5387 H   0  0  0  0  0  0
   24.0382   69.7348    7.8376 H   0  0  0  0  0  0
   20.0365   69.7204    9.3476 H   0  0  0  0  0  0
   19.1660   69.6971    7.0495 H   0  0  0  0  0  0
   17.1886   69.0416    6.8931 H   0  0  0  0  0  0
   15.5450   67.2016   11.0463 H   0  0  0  0  0  0
   14.8837   65.6582   10.5727 H   0  0  0  0  0  0
   16.6383   65.8786   10.6524 H   0  0  0  0  0  0
   12.4983   65.7401    6.8719 H   0  0  0  0  0  0
   11.2380   64.2087    5.3846 H   0  0  0  0  0  0
   12.4183   63.1056    3.4801 H   0  0  0  0  0  0
   14.8344   63.6161    3.1208 H   0  0  0  0  0  0
   17.6851   69.6567    9.0835 H   0  0  0  0  0  0
   16.6666   69.0590   10.3702 H   0  0  0  0  0  0
   18.1389   68.1873    9.9692 H   0  0  0  0  0  0
  1  6  1  0  0  0
  1  2  2  0  0  0
  1 30  1  0  0  0
  2  3  1  0  0  0
  2 31  1  0  0  0
  3  4  2  0  0  0
  4  7  1  0  0  0
  4  5  1  0  0  0
  5  6  2  0  0  0
  5 32  1  0  0  0
  6 14  1  0  0  0
  7  8  1  0  0  0
  7 33  1  0  0  0
  8  9  2  0  0  0
  8 13  1  0  0  0
  9 10  1  0  0  0
  9 34  1  0  0  0
 10 11  2  0  0  0
 10 35  1  0  0  0
 11 12  1  0  0  0
 11 29  1  0  0  0
 12 13  2  0  0  0
 12 36  1  0  0  0
 13 37  1  0  0  0
 14 15  1  0  0  0
 15 16  2  0  0  0
 15 20  1  0  0  0
 16 17  1  0  0  0
 16 38  1  0  0  0
 17 18  2  0  0  0
 17 28  1  0  0  0
 18 19  1  0  0  0
 18 21  1  0  0  0
 19 20  2  0  0  0
 20 22  1  0  0  0
 21 39  1  0  0  0
 21 40  1  0  0  0
 21 41  1  0  0  0
 22 23  2  0  0  0
 22 27  1  0  0  0
 23 24  1  0  0  0
 23 42  1  0  0  0
 24 25  2  0  0  0
 24 43  1  0  0  0
 25 26  1  0  0  0
 25 44  1  0  0  0
 26 27  2  0  0  0
 26 45  1  0  0  0
 28 46  1  0  0  0
 28 47  1  0  0  0
 28 48  1  0  0  0
M  END
> <s_m_entry_id>
34769

> <s_m_entry_name>
dock_pv.512

> <s_m_Source_Path>
/home/csk/Desktop/cluster/DUD-E-result/tgfr1

> <s_m_Source_File>
dock_pv.maegz

> <i_m_Source_File_Index>
512

> <chembl_id>
CHEMBL574199

> <chembl_pref_name>
None

> <i_lp_mmshare_version>
53161

> <r_lp_tautomer_probability>
0.999999586418856

> <s_lp_Force_Field>
OPLS_2005

> <r_lp_Energy>
20.913691

> <b_lp_Chiralities_Consistent>
1

> <s_lp_Variant>
CHEMBL4439_lig250-1

> <s_i_glide_gridfile>
glide-grid_3hmm

> <i_i_glide_lignum>
356

> <i_i_glide_rotatable_bonds>
5

> <r_i_docking_score>
-7.01942618956483

> <r_i_glide_ligand_efficiency>
-0.242049178950511

> <r_i_glide_ligand_efficiency_sa>
-0.743651764298402

> <r_i_glide_ligand_efficiency_ln>
-1.60727060012021

> <r_i_glide_gscore>
-7.01942618956483

> <r_i_glide_lipo>
-3.66054185704887

> <r_i_glide_hbond>
-0.16

> <r_i_glide_metal>
0

> <r_i_glide_rewards>
-1.09861150229206

> <r_i_glide_evdw>
-47.9612998962402

> <r_i_glide_ecoul>
-2.35952758789062

> <r_i_glide_erotb>
0.651721302771698

> <r_i_glide_esite>
0

> <r_i_glide_emodel>
-64.103820854799

> <r_i_glide_energy>
-50.3208274841309

> <r_i_glide_einternal>
15.2305526733398

> <i_i_glide_confnum>
84

> <i_i_glide_posenum>
3

> <r_i_glide_eff_state_penalty>
0

> <s_user_duplicate_titles>
CHEMBL4439_lig250,572921

> <i_f3d_flags>
0

> <s_m_subgroup_title>
dock_pv

> <s_m_subgroupid>
dock_pv

> <b_m_subgroup_collapsed>
1

$$$$
CHEMBL4439_lig386
                    3D
 Schrodinger Suite 2021-1.
 43 46  0  0  1  0            999 V2000
   12.0884   65.5680    6.4317 C   0  0  0  0  0  0
   13.1412   66.2136    7.0760 C   0  0  0  0  0  0
   14.7708   65.2313    5.5818 C   0  0  0  0  0  0
   16.7280   67.2268    6.8004 C   0  0  0  0  0  0
   12.3830   64.7086    5.3660 C   0  0  0  0  0  0
   14.4762   66.0560    6.6786 C   0  0  0  0  0  0
   13.7348   64.5401    4.9349 C   0  0  0  0  0  0
   15.5797   66.7253    7.4296 C   0  0  0  0  0  0
   17.7228   67.8129    7.6041 C   0  0  0  0  0  0
   11.6490   63.8689    4.4944 C   0  0  0  0  0  0
   16.4221   67.4025    9.4756 C   0  0  0  0  0  0
   18.9748   68.7547    5.6547 C   0  0  0  0  0  0
   19.8596   70.0022    5.4813 C   0  0  0  0  0  0
   21.2126   69.3319    7.2973 C   0  0  0  0  0  0
   20.2686   68.1315    7.5907 C   0  0  1  0  0  0
   20.4535   67.6607    9.0504 C   0  0  0  0  0  0
   15.4227   66.8142    8.7803 N   0  0  0  0  0  0
   17.5590   67.9049    8.9497 N   0  0  0  0  0  0
   12.5808   63.2689    3.6836 N   0  0  0  0  0  0
   13.8506   63.6570    3.8955 N   0  0  0  0  0  0
   18.8902   68.3681    7.0731 N   0  0  0  0  0  0
   10.3007   63.6571    4.4398 N   0  0  0  0  0  0
   16.2904   67.4943   10.8525 N   0  0  0  0  0  0
   21.1700   69.7259    5.9325 O   0  0  0  0  0  0
   11.0706   65.7099    6.7668 H   0  0  0  0  0  0
   12.9069   66.8566    7.9112 H   0  0  0  0  0  0
   15.7921   65.0886    5.2622 H   0  0  0  0  0  0
   16.8436   67.1541    5.7293 H   0  0  0  0  0  0
   17.9879   69.0103    5.2707 H   0  0  0  0  0  0
   19.3464   67.9225    5.0532 H   0  0  0  0  0  0
   19.4427   70.8566    6.0168 H   0  0  0  0  0  0
   19.9072   70.2806    4.4311 H   0  0  0  0  0  0
   20.9918   70.1787    7.9505 H   0  0  0  0  0  0
   22.2467   69.0459    7.4974 H   0  0  0  0  0  0
   20.6441   67.2751    7.0250 H   0  0  0  0  0  0
   21.5019   67.4562    9.2698 H   0  0  0  0  0  0
   19.9047   66.7384    9.2521 H   0  0  0  0  0  0
   20.1175   68.4213    9.7584 H   0  0  0  0  0  0
   12.3493   62.6148    2.9518 H   0  0  0  0  0  0
    9.6867   64.0504    5.1389 H   0  0  0  0  0  0
    9.8727   63.0896    3.7219 H   0  0  0  0  0  0
   15.4261   67.2390   11.3121 H   0  0  0  0  0  0
   17.0097   67.9918   11.3537 H   0  0  0  0  0  0
  1  2  2  0  0  0
  1  5  1  0  0  0
  1 25  1  0  0  0
  2  6  1  0  0  0
  2 26  1  0  0  0
  3  6  2  0  0  0
  3  7  1  0  0  0
  3 27  1  0  0  0
  4  9  2  0  0  0
  4  8  1  0  0  0
  4 28  1  0  0  0
  5  7  1  0  0  0
  5 10  2  0  0  0
  6  8  1  0  0  0
  7 20  2  0  0  0
  8 17  2  0  0  0
  9 18  1  0  0  0
  9 21  1  0  0  0
 10 19  1  0  0  0
 10 22  1  0  0  0
 11 23  1  0  0  0
 11 18  2  0  0  0
 11 17  1  0  0  0
 12 13  1  0  0  0
 12 21  1  0  0  0
 12 29  1  0  0  0
 12 30  1  0  0  0
 13 24  1  0  0  0
 13 31  1  0  0  0
 13 32  1  0  0  0
 14 24  1  0  0  0
 14 15  1  0  0  0
 14 33  1  0  0  0
 14 34  1  0  0  0
 15 21  1  0  0  0
 15 16  1  0  0  0
 15 35  1  0  0  0
 16 36  1  0  0  0
 16 37  1  0  0  0
 16 38  1  0  0  0
 19 20  1  0  0  0
 19 39  1  0  0  0
 22 40  1  0  0  0
 22 41  1  0  0  0
 23 42  1  0  0  0
 23 43  1  0  0  0
M  END
> <s_m_entry_id>
34770

> <s_m_entry_name>
dock_pv.513

> <s_m_Source_Path>
/home/csk/Desktop/cluster/DUD-E-result/tgfr1

> <s_m_Source_File>
dock_pv.maegz

> <i_m_Source_File_Index>
513

> <chembl_id>
CHEMBL1614773

> <chembl_pref_name>
None

> <i_lp_mmshare_version>
53161

> <r_lp_tautomer_probability>
0.999999648617923

> <s_lp_Force_Field>
OPLS_2005

> <r_lp_Energy>
34.1261

> <b_lp_Chiralities_Consistent>
1

> <s_lp_Variant>
CHEMBL4439_lig386-1

> <s_i_glide_gridfile>
glide-grid_3hmm

> <i_i_glide_lignum>
524

> <i_i_glide_rotatable_bonds>
2

> <r_i_docking_score>
-7.01304349611554

> <r_i_glide_ligand_efficiency>
-0.292210145671481

> <r_i_glide_ligand_efficiency_sa>
-0.842879913175411

> <r_i_glide_ligand_efficiency_ln>
-1.67854311621722

> <r_i_glide_gscore>
-7.01304349611554

> <r_i_glide_lipo>
-2.79448174880746

> <r_i_glide_hbond>
-0.0317162544848685

> <r_i_glide_metal>
0

> <r_i_glide_rewards>
-2.01099326320809

> <r_i_glide_evdw>
-49.713695526123

> <r_i_glide_ecoul>
-0.294734001159668

> <r_i_glide_erotb>
0.354042646864986

> <r_i_glide_esite>
0

> <r_i_glide_emodel>
-69.8925710338717

> <r_i_glide_energy>
-50.0084295272827

> <r_i_glide_einternal>
3.21175909042358

> <i_i_glide_confnum>
6

> <i_i_glide_posenum>
16

> <r_i_glide_eff_state_penalty>
0

> <s_user_duplicate_titles>
CHEMBL4439_lig386

> <i_f3d_flags>
0

> <s_m_subgroup_title>
dock_pv

> <s_m_subgroupid>
dock_pv

> <b_m_subgroup_collapsed>
1

$$$$
CHEMBL4439_lig952 
                    3D
 Schrodinger Suite 2021-1.
 50 54  0  0  1  0            999 V2000
   17.4781   67.7542   12.6823 C   0  0  0  0  0  0
   18.8564   67.9678   12.7224 C   0  0  0  0  0  0
   19.5468   68.0579   11.5116 C   0  0  0  0  0  0
   18.9351   67.9289   10.3067 N   0  0  0  0  0  0
   17.5875   67.7642   10.2673 C   0  0  0  0  0  0
   16.8370   67.6576   11.4472 C   0  0  0  0  0  0
   19.0084   68.4556    5.7377 C   0  0  0  0  0  0
   18.6680   68.7270    7.0736 C   0  0  0  0  0  0
   19.4936   69.5638    7.8372 C   0  0  0  0  0  0
   20.7088   70.0566    7.3545 C   0  0  0  0  0  0
   20.1825   69.0103    5.2206 C   0  0  0  0  0  0
   21.0345   69.7796    6.0250 C   0  0  0  0  0  0
   22.1567   70.2190    5.4169 N   0  0  0  0  0  0
   22.0411   69.6570    3.8477 S   0  0  0  0  0  0
   20.5799   68.8563    3.9410 N   0  0  0  0  0  0
   17.4143   68.1090    7.6298 C   0  0  0  0  0  0
   16.9445   67.7003    8.9053 C   0  0  0  0  0  0
   15.7330   67.1515    8.8071 N   0  0  0  0  0  0
   15.4116   67.1644    7.5417 C   0  0  0  0  0  0
   16.3732   67.7791    6.8000 N   0  0  0  0  0  0
   14.1877   66.5214    6.9281 C   0  0  0  0  0  0
   14.5843   65.5025    5.9644 N   0  0  0  0  0  0
   13.6496   64.7651    5.2266 C   0  0  0  0  0  0
   14.1256   64.0563    4.1203 C   0  0  0  0  0  0
   13.2657   63.2581    3.3671 C   0  0  0  0  0  0
   11.9134   63.2096    3.6918 C   0  0  0  0  0  0
   11.4216   63.9092    4.7924 C   0  0  0  0  0  0
   12.2898   64.6895    5.5604 C   0  0  0  0  0  0
   21.0422   68.3010   11.4627 C   0  0  0  0  0  0
    9.9569   63.8026    5.1590 C   0  0  0  0  0  0
   16.9009   67.6699   13.5918 H   0  0  0  0  0  0
   19.3767   68.0507   13.6636 H   0  0  0  0  0  0
   15.7686   67.5147   11.4156 H   0  0  0  0  0  0
   18.3883   67.8339    5.1110 H   0  0  0  0  0  0
   19.2005   69.8481    8.8336 H   0  0  0  0  0  0
   21.3535   70.6616    7.9762 H   0  0  0  0  0  0
   16.3461   67.9161    5.8004 H   0  0  0  0  0  0
   13.5449   67.2571    6.4466 H   0  0  0  0  0  0
   13.5831   66.0606    7.7090 H   0  0  0  0  0  0
   15.5039   65.5934    5.5592 H   0  0  0  0  0  0
   15.1699   64.0988    3.8477 H   0  0  0  0  0  0
   13.6353   62.7110    2.5122 H   0  0  0  0  0  0
   11.2484   62.6090    3.0895 H   0  0  0  0  0  0
   11.8984   65.2217    6.4146 H   0  0  0  0  0  0
   21.4668   68.4181   12.4602 H   0  0  0  0  0  0
   21.5431   67.4623   10.9784 H   0  0  0  0  0  0
   21.2606   69.2054   10.8927 H   0  0  0  0  0  0
    9.4688   62.9537    4.6797 H   0  0  0  0  0  0
    9.4440   64.7171    4.8620 H   0  0  0  0  0  0
    9.8499   63.6572    6.2345 H   0  0  0  0  0  0
  1  2  2  0  0  0
  1  6  1  0  0  0
  1 31  1  0  0  0
  2  3  1  0  0  0
  2 32  1  0  0  0
  3  4  2  0  0  0
  3 29  1  0  0  0
  4  5  1  0  0  0
  5  6  2  0  0  0
  5 17  1  0  0  0
  6 33  1  0  0  0
  7 11  1  0  0  0
  7  8  2  0  0  0
  7 34  1  0  0  0
  8  9  1  0  0  0
  8 16  1  0  0  0
  9 10  2  0  0  0
  9 35  1  0  0  0
 10 12  1  0  0  0
 10 36  1  0  0  0
 11 12  1  0  0  0
 11 15  2  0  0  0
 12 13  2  0  0  0
 13 14  1  0  0  0
 14 15  1  0  0  0
 16 17  2  0  0  0
 16 20  1  0  0  0
 17 18  1  0  0  0
 18 19  2  0  0  0
 19 20  1  0  0  0
 19 21  1  0  0  0
 20 37  1  0  0  0
 21 22  1  0  0  0
 21 38  1  0  0  0
 21 39  1  0  0  0
 22 23  1  0  0  0
 22 40  1  0  0  0
 23 24  2  0  0  0
 23 28  1  0  0  0
 24 25  1  0  0  0
 24 41  1  0  0  0
 25 26  2  0  0  0
 25 42  1  0  0  0
 26 27  1  0  0  0
 26 43  1  0  0  0
 27 28  2  0  0  0
 27 30  1  0  0  0
 28 44  1  0  0  0
 29 45  1  0  0  0
 29 46  1  0  0  0
 29 47  1  0  0  0
 30 48  1  0  0  0
 30 49  1  0  0  0
 30 50  1  0  0  0
M  END
> <s_m_entry_id>
34772

> <s_m_entry_name>
dock_pv.515

> <s_m_Source_Path>
/home/csk/Desktop/cluster/DUD-E-result/tgfr1

> <s_m_Source_File>
dock_pv.maegz

> <i_m_Source_File_Index>
515

> <chembl_id>
CHEMBL4574187

> <chembl_pref_name>
None

> <i_lp_mmshare_version>
53161

> <r_lp_tautomer_probability>
0.499999999999999

> <s_lp_Force_Field>
OPLS_2005

> <r_lp_Energy>
18.410888

> <b_lp_Chiralities_Consistent>
1

> <s_lp_Variant>
CHEMBL4439_lig952 -2

> <s_i_glide_gridfile>
glide-grid_3hmm

> <i_i_glide_lignum>
1292

> <i_i_glide_rotatable_bonds>
5

> <r_i_docking_score>
-6.99753717926342

> <r_i_glide_ligand_efficiency>
-0.233251239308781

> <r_i_glide_ligand_efficiency_sa>
-0.724765832012575

> <r_i_glide_ligand_efficiency_ln>
-1.5899166914029

> <r_i_glide_gscore>
-6.99753717926342

> <r_i_glide_lipo>
-3.75701500257106

> <r_i_glide_hbond>
0

> <r_i_glide_metal>
0

> <r_i_glide_rewards>
-1.20350286627854

> <r_i_glide_evdw>
-55.7899017333984

> <r_i_glide_ecoul>
1.15367233753204

> <r_i_glide_erotb>
0.5794249256263

> <r_i_glide_esite>
0

> <r_i_glide_emodel>
-74.6790776054105

> <r_i_glide_energy>
-54.6362293958664

> <r_i_glide_einternal>
4.57779502868652

> <i_i_glide_confnum>
101

> <i_i_glide_posenum>
161

> <r_i_glide_eff_state_penalty>
0

> <s_user_duplicate_titles>
CHEMBL4439_lig952 ,CHEMBL4439_lig952 

> <i_f3d_flags>
0

> <s_m_subgroup_title>
dock_pv

> <s_m_subgroupid>
dock_pv

> <b_m_subgroup_collapsed>
1

$$$$
CHEMBL4439_lig827
                    3D
 Schrodinger Suite 2021-1.
 57 61  0  0  1  0            999 V2000
   16.6667   67.5772    6.4501 C   0  0  0  0  0  0
   15.4997   66.8438    4.0242 N   0  0  0  0  0  0
   15.0565   66.4229    5.2341 C   0  0  0  0  0  0
   15.5735   66.7771    6.4353 N   0  0  0  0  0  0
   16.5749   67.6431    4.0855 N   0  0  0  0  0  0
   17.2474   68.0564    5.2539 C   0  0  0  0  0  0
   18.3680   68.8568    4.8569 C   0  0  0  0  0  0
   18.2969   68.9220    3.4690 C   0  0  0  0  0  0
   17.2067   68.2010    3.0057 C   0  0  0  0  0  0
   13.9203   65.4541    5.2252 C   0  0  0  0  0  0
   12.9305   65.6590    6.1405 N   0  0  0  0  0  0
   11.8403   64.8520    6.1032 C   0  0  0  0  0  0
   11.7014   63.8021    5.1961 C   0  0  0  0  0  0
   12.7282   63.5771    4.2807 C   0  0  0  0  0  0
   13.8482   64.4119    4.2880 C   0  0  0  0  0  0
   17.2556   67.9403    7.6690 N   0  0  0  0  0  0
   17.0619   67.6425    9.0305 C   0  0  0  0  0  0
   17.7609   68.4569    9.9199 C   0  0  0  0  0  0
   17.6841   68.2383   11.2922 C   0  0  0  0  0  0
   16.9290   67.2572   11.8280 N   0  0  0  0  0  0
   16.2597   66.4568   10.9646 C   0  0  0  0  0  0
   16.3195   66.5813    9.5759 C   0  0  0  0  0  0
   15.6901   65.6574    8.8216 F   0  0  0  0  0  0
   19.3789   69.5413    5.7534 C   0  0  0  0  0  0
   20.0441   68.5651    6.6004 N   0  0  1  0  0  0
   20.7101   69.1334    7.7641 C   0  0  2  0  0  0
   22.0461   69.8416    7.4483 C   0  0  0  0  0  0
   22.7085   70.4168    8.7212 C   0  0  0  0  0  0
   22.9189   69.3737    9.8455 C   0  0  1  0  0  0
   21.5863   68.6371   10.1188 C   0  0  0  0  0  0
   20.9217   68.0627    8.8510 C   0  0  0  0  0  0
   23.9785   68.4427    9.5017 N   0  0  0  0  0  0
   18.9900   69.4679    2.8439 H   0  0  0  0  0  0
   16.8461   68.0527    2.0009 H   0  0  0  0  0  0
   11.0678   65.0573    6.8305 H   0  0  0  0  0  0
   10.8159   63.1837    5.2035 H   0  0  0  0  0  0
   12.6478   62.7774    3.5589 H   0  0  0  0  0  0
   14.6323   64.2642    3.5587 H   0  0  0  0  0  0
   17.9649   68.6458    7.5272 H   0  0  0  0  0  0
   18.3797   69.2573    9.5549 H   0  0  0  0  0  0
   18.2232   68.8700   11.9815 H   0  0  0  0  0  0
   15.6713   65.6727   11.4180 H   0  0  0  0  0  0
   18.8852   70.3005    6.3618 H   0  0  0  0  0  0
   20.1343   70.0612    5.1630 H   0  0  0  0  0  0
   19.4703   67.7639    6.8173 H   0  0  0  0  0  0
   20.0720   69.8961    8.2145 H   0  0  0  0  0  0
   21.8940   70.6411    6.7245 H   0  0  0  0  0  0
   22.7293   69.1364    6.9721 H   0  0  0  0  0  0
   23.6706   70.8568    8.4476 H   0  0  0  0  0  0
   22.1306   71.2565    9.1095 H   0  0  0  0  0  0
   23.1500   69.9360   10.7522 H   0  0  0  0  0  0
   21.7544   67.8263   10.8288 H   0  0  0  0  0  0
   20.9002   69.3117   10.6340 H   0  0  0  0  0  0
   21.5146   67.2582    8.4451 H   0  0  0  0  0  0
   19.9890   67.5751    9.1162 H   0  0  0  0  0  0
   24.0036   67.6751   10.1543 H   0  0  0  0  0  0
   23.8036   68.0540    8.5846 H   0  0  0  0  0  0
  1  6  1  0  0  0
  1  4  2  0  0  0
  1 16  1  0  0  0
  2  5  1  0  0  0
  2  3  2  0  0  0
  3  4  1  0  0  0
  3 10  1  0  0  0
  5  6  1  0  0  0
  5  9  1  0  0  0
  6  7  2  0  0  0
  7  8  1  0  0  0
  7 24  1  0  0  0
  8  9  2  0  0  0
  8 33  1  0  0  0
  9 34  1  0  0  0
 10 11  2  0  0  0
 10 15  1  0  0  0
 11 12  1  0  0  0
 12 13  2  0  0  0
 12 35  1  0  0  0
 13 14  1  0  0  0
 13 36  1  0  0  0
 14 15  2  0  0  0
 14 37  1  0  0  0
 15 38  1  0  0  0
 16 17  1  0  0  0
 16 39  1  0  0  0
 17 18  2  0  0  0
 17 22  1  0  0  0
 18 19  1  0  0  0
 18 40  1  0  0  0
 19 20  2  0  0  0
 19 41  1  0  0  0
 20 21  1  0  0  0
 21 22  2  0  0  0
 21 42  1  0  0  0
 22 23  1  0  0  0
 24 25  1  0  0  0
 24 43  1  0  0  0
 24 44  1  0  0  0
 25 26  1  0  0  0
 25 45  1  0  0  0
 26 27  1  0  0  0
 26 31  1  0  0  0
 26 46  1  0  0  0
 27 28  1  0  0  0
 27 47  1  0  0  0
 27 48  1  0  0  0
 28 29  1  0  0  0
 28 49  1  0  0  0
 28 50  1  0  0  0
 29 30  1  0  0  0
 29 32  1  0  0  0
 29 51  1  0  0  0
 30 31  1  0  0  0
 30 52  1  0  0  0
 30 53  1  0  0  0
 31 54  1  0  0  0
 31 55  1  0  0  0
 32 56  1  0  0  0
 32 57  1  0  0  0
M  END
> <s_m_entry_id>
34773

> <s_m_entry_name>
dock_pv.516

> <s_m_Source_Path>
/home/csk/Desktop/cluster/DUD-E-result/tgfr1

> <s_m_Source_File>
dock_pv.maegz

> <i_m_Source_File_Index>
516

> <chembl_id>
CHEMBL4214470

> <chembl_pref_name>
None

> <i_lp_mmshare_version>
53161

> <r_lp_tautomer_probability>
0.999999106000799

> <s_lp_Force_Field>
OPLS_2005

> <r_lp_Energy>
41.840386

> <b_lp_Chiralities_Consistent>
1

> <s_lp_Variant>
CHEMBL4439_lig827-1

> <s_i_glide_gridfile>
glide-grid_3hmm

> <i_i_glide_lignum>
1145

> <i_i_glide_rotatable_bonds>
6

> <r_i_docking_score>
-6.99133342284328

> <r_i_glide_ligand_efficiency>
-0.218479169463852

> <r_i_glide_ligand_efficiency_sa>
-0.693628126078805

> <r_i_glide_ligand_efficiency_ln>
-1.56555012992599

> <r_i_glide_gscore>
-6.99133342284328

> <r_i_glide_lipo>
-3.19562512793395

> <r_i_glide_hbond>
0

> <r_i_glide_metal>
0

> <r_i_glide_rewards>
-1.57575143234911

> <r_i_glide_evdw>
-51.4472770690918

> <r_i_glide_ecoul>
-1.47944319248199

> <r_i_glide_erotb>
0.638289635531298

> <r_i_glide_esite>
-0.0639661657646288

> <r_i_glide_emodel>
-70.5974572341157

> <r_i_glide_energy>
-52.9267202615738

> <r_i_glide_einternal>
10.3348426818848

> <i_i_glide_confnum>
57

> <i_i_glide_posenum>
139

> <r_i_glide_eff_state_penalty>
0

> <s_user_duplicate_titles>
CHEMBL4439_lig827

> <i_f3d_flags>
0

> <s_m_subgroup_title>
dock_pv

> <s_m_subgroupid>
dock_pv

> <b_m_subgroup_collapsed>
1

$$$$
CHEMBL4439_lig125
                    3D
 Schrodinger Suite 2021-1.
 41 44  0  0  1  0            999 V2000
   11.4955   64.3316    6.0627 C   0  0  0  0  0  0
   12.2661   65.2570    6.8251 O   0  0  0  0  0  0
   13.4196   65.7779    6.2817 C   0  0  0  0  0  0
   13.9644   65.3835    5.0525 C   0  0  0  0  0  0
   15.1135   66.0019    4.5702 C   0  0  0  0  0  0
   15.7359   67.0237    5.2900 C   0  0  0  0  0  0
   15.2037   67.3860    6.5320 C   0  0  0  0  0  0
   14.0608   66.7655    7.0251 C   0  0  0  0  0  0
   16.9303   67.7364    4.7546 C   0  0  0  0  0  0
   18.0086   68.0570    5.5835 C   0  0  0  0  0  0
   19.0545   68.8575    5.1136 C   0  0  0  0  0  0
   19.0118   69.2506    3.7681 C   0  0  0  0  0  0
   17.9390   68.8448    2.9701 C   0  0  0  0  0  0
   16.9058   68.1031    3.4445 N   0  0  0  0  0  0
   20.1773   69.2929    6.0147 C   0  0  0  0  0  0
   21.3962   69.8132    5.5930 C   0  0  0  0  0  0
   22.1192   70.0773    6.7182 N   0  0  0  0  0  0
   21.4662   69.7560    7.8321 N   0  0  0  0  0  0
   20.2947   69.2872    7.4384 C   0  0  0  0  0  0
   19.2970   68.8677    8.4793 C   0  0  0  0  0  0
   17.9591   69.2764    8.4318 C   0  0  0  0  0  0
   17.0681   68.8139    9.4020 C   0  0  0  0  0  0
   17.5385   67.9882   10.4231 C   0  0  0  0  0  0
   18.8928   67.6520   10.4318 C   0  0  0  0  0  0
   19.7665   68.0713    9.4808 N   0  0  0  0  0  0
   10.6652   63.9750    6.6692 H   0  0  0  0  0  0
   12.0725   63.4543    5.7697 H   0  0  0  0  0  0
   11.0820   64.8008    5.1689 H   0  0  0  0  0  0
   13.5045   64.6163    4.4489 H   0  0  0  0  0  0
   15.5274   65.6816    3.6320 H   0  0  0  0  0  0
   15.6570   68.1800    7.1047 H   0  0  0  0  0  0
   13.6481   67.0780    7.9732 H   0  0  0  0  0  0
   18.0189   67.6569    6.5811 H   0  0  0  0  0  0
   19.7976   69.8527    3.3391 H   0  0  0  0  0  0
   17.8901   69.1259    1.9286 H   0  0  0  0  0  0
   21.8101   70.0098    4.6144 H   0  0  0  0  0  0
   23.0466   70.4908    6.7333 H   0  0  0  0  0  0
   17.6179   69.9339    7.6472 H   0  0  0  0  0  0
   16.0306   69.1112    9.3764 H   0  0  0  0  0  0
   16.8721   67.6294   11.1934 H   0  0  0  0  0  0
   19.2998   67.0210   11.2089 H   0  0  0  0  0  0
  1  2  1  0  0  0
  1 26  1  0  0  0
  1 27  1  0  0  0
  1 28  1  0  0  0
  2  3  1  0  0  0
  3  4  2  0  0  0
  3  8  1  0  0  0
  4  5  1  0  0  0
  4 29  1  0  0  0
  5  6  2  0  0  0
  5 30  1  0  0  0
  6  7  1  0  0  0
  6  9  1  0  0  0
  7  8  2  0  0  0
  7 31  1  0  0  0
  8 32  1  0  0  0
  9 10  2  0  0  0
  9 14  1  0  0  0
 10 11  1  0  0  0
 10 33  1  0  0  0
 11 12  2  0  0  0
 11 15  1  0  0  0
 12 13  1  0  0  0
 12 34  1  0  0  0
 13 14  2  0  0  0
 13 35  1  0  0  0
 15 16  2  0  0  0
 15 19  1  0  0  0
 16 17  1  0  0  0
 16 36  1  0  0  0
 17 18  1  0  0  0
 17 37  1  0  0  0
 18 19  2  0  0  0
 19 20  1  0  0  0
 20 21  2  0  0  0
 20 25  1  0  0  0
 21 22  1  0  0  0
 21 38  1  0  0  0
 22 23  2  0  0  0
 22 39  1  0  0  0
 23 24  1  0  0  0
 23 40  1  0  0  0
 24 25  2  0  0  0
 24 41  1  0  0  0
M  END
> <s_m_entry_id>
34775

> <s_m_entry_name>
dock_pv.518

> <s_m_Source_Path>
/home/csk/Desktop/cluster/DUD-E-result/tgfr1

> <s_m_Source_File>
dock_pv.maegz

> <i_m_Source_File_Index>
518

> <chembl_id>
CHEMBL202891

> <chembl_pref_name>
GW679410X

> <i_lp_mmshare_version>
53161

> <r_lp_tautomer_probability>
0.5

> <s_lp_Force_Field>
OPLS_2005

> <r_lp_Energy>
24.936042

> <b_lp_Chiralities_Consistent>
1

> <s_lp_Variant>
CHEMBL4439_lig125-1

> <s_i_glide_gridfile>
glide-grid_3hmm

> <i_i_glide_lignum>
186

> <i_i_glide_rotatable_bonds>
4

> <r_i_docking_score>
-6.98328114420812

> <r_i_glide_ligand_efficiency>
-0.279331245768325

> <r_i_glide_ligand_efficiency_sa>
-0.81676951658732

> <r_i_glide_ligand_efficiency_ln>
-1.655246903226

> <r_i_glide_gscore>
-6.98328114420812

> <r_i_glide_lipo>
-3.75792733509526

> <r_i_glide_hbond>
-0.0285804188682166

> <r_i_glide_metal>
0

> <r_i_glide_rewards>
-1.23671520281158

> <r_i_glide_evdw>
-43.6996803283691

> <r_i_glide_ecoul>
-1.98402810096741

> <r_i_glide_erotb>
0.522530044130503

> <r_i_glide_esite>
0

> <r_i_glide_emodel>
-66.0149892891752

> <r_i_glide_energy>
-45.6837084293365

> <r_i_glide_einternal>
1.02777850627899

> <i_i_glide_confnum>
17

> <i_i_glide_posenum>
38

> <r_i_glide_eff_state_penalty>
0

> <s_user_duplicate_titles>
CHEMBL4439_lig125,342905

> <i_f3d_flags>
0

> <s_m_subgroup_title>
dock_pv

> <s_m_subgroupid>
dock_pv

> <b_m_subgroup_collapsed>
1

$$$$
CHEMBL4439_lig905 
                    3D
 Schrodinger Suite 2021-1.
 50 54  0  0  1  0            999 V2000
   16.6836   67.5697    6.8470 C   0  0  0  0  0  0
   17.9705   68.2392    7.0104 C   0  0  0  0  0  0
   18.8633   68.8436    6.0843 C   0  0  0  0  0  0
   19.8936   69.3865    6.7188 N   0  0  0  0  0  0
   19.7324   69.1274    8.0212 N   0  0  0  0  0  0
   18.5733   68.4344    8.2410 C   0  0  0  0  0  0
   18.7472   68.9724    4.5845 C   0  0  0  0  0  0
   17.5313   68.8614    3.8927 C   0  0  0  0  0  0
   17.5073   69.0177    2.5070 C   0  0  0  0  0  0
   18.6920   69.3031    1.8334 C   0  0  0  0  0  0
   19.8641   69.4329    2.5797 C   0  0  0  0  0  0
   19.9052   69.2561    3.9243 N   0  0  0  0  0  0
   21.1976   69.7414    1.9159 C   0  0  0  0  0  0
   20.6781   69.7009    8.9960 C   0  0  0  0  0  0
   20.9552   68.8563   10.2400 C   0  0  0  0  0  0
   19.8670   68.8568   11.0704 N   0  0  0  0  0  0
   22.4054   68.0546   10.4280 S   0  0  0  0  0  0
   19.5411   68.1936   12.2669 C   0  0  0  0  0  0
   18.1765   67.9646   12.4813 C   0  0  0  0  0  0
   17.7419   67.2740   13.6124 C   0  0  0  0  0  0
   18.6707   66.8400   14.5578 C   0  0  0  0  0  0
   20.0297   67.0903   14.3704 C   0  0  0  0  0  0
   20.4662   67.7689   13.2328 C   0  0  0  0  0  0
   16.2667   66.7121    5.8454 C   0  0  0  0  0  0
   15.4328   67.8272    8.0476 S   0  0  0  0  0  0
   14.3343   66.7824    7.1750 C   0  0  0  0  0  0
   14.9344   66.2608    5.9982 C   0  0  0  0  0  0
   14.1452   65.4142    5.2024 C   0  0  0  0  0  0
   12.8616   65.1059    5.5111 N   0  0  0  0  0  0
   12.3248   65.6290    6.6384 C   0  0  0  0  0  0
   13.0179   66.4563    7.5199 C   0  0  0  0  0  0
   20.9234   66.6882   15.3004 F   0  0  0  0  0  0
   18.2504   68.1585    9.2312 H   0  0  0  0  0  0
   16.5989   68.7190    4.4097 H   0  0  0  0  0  0
   16.5753   68.9387    1.9673 H   0  0  0  0  0  0
   18.7025   69.4402    0.7623 H   0  0  0  0  0  0
   21.0642   70.1002    0.8927 H   0  0  0  0  0  0
   21.7365   70.5105    2.4693 H   0  0  0  0  0  0
   21.8425   68.8595    1.8856 H   0  0  0  0  0  0
   20.2793   70.6693    9.3052 H   0  0  0  0  0  0
   21.6166   69.9248    8.4802 H   0  0  0  0  0  0
   19.0918   69.4058   10.7216 H   0  0  0  0  0  0
   17.4422   68.2919   11.7569 H   0  0  0  0  0  0
   16.6848   67.0830   13.7520 H   0  0  0  0  0  0
   18.3414   66.2999   15.4337 H   0  0  0  0  0  0
   21.5227   67.9540   13.1246 H   0  0  0  0  0  0
   16.8856   66.4374    5.0077 H   0  0  0  0  0  0
   14.5334   64.9861    4.2910 H   0  0  0  0  0  0
   11.3019   65.3468    6.8457 H   0  0  0  0  0  0
   12.5740   66.8306    8.4285 H   0  0  0  0  0  0
  1  2  1  0  0  0
  1 24  2  0  0  0
  1 25  1  0  0  0
  2  3  1  0  0  0
  2  6  2  0  0  0
  3  4  2  0  0  0
  3  7  1  0  0  0
  4  5  1  0  0  0
  5  6  1  0  0  0
  5 14  1  0  0  0
  6 33  1  0  0  0
  7  8  2  0  0  0
  7 12  1  0  0  0
  8  9  1  0  0  0
  8 34  1  0  0  0
  9 10  2  0  0  0
  9 35  1  0  0  0
 10 11  1  0  0  0
 10 36  1  0  0  0
 11 12  2  0  0  0
 11 13  1  0  0  0
 13 37  1  0  0  0
 13 38  1  0  0  0
 13 39  1  0  0  0
 14 15  1  0  0  0
 14 40  1  0  0  0
 14 41  1  0  0  0
 15 16  1  0  0  0
 15 17  2  0  0  0
 16 18  1  0  0  0
 16 42  1  0  0  0
 18 19  2  0  0  0
 18 23  1  0  0  0
 19 20  1  0  0  0
 19 43  1  0  0  0
 20 21  2  0  0  0
 20 44  1  0  0  0
 21 22  1  0  0  0
 21 45  1  0  0  0
 22 23  2  0  0  0
 22 32  1  0  0  0
 23 46  1  0  0  0
 24 27  1  0  0  0
 24 47  1  0  0  0
 25 26  1  0  0  0
 26 27  2  0  0  0
 26 31  1  0  0  0
 27 28  1  0  0  0
 28 29  2  0  0  0
 28 48  1  0  0  0
 29 30  1  0  0  0
 30 31  2  0  0  0
 30 49  1  0  0  0
 31 50  1  0  0  0
M  END
> <s_m_entry_id>
34779

> <s_m_entry_name>
dock_pv.522

> <s_m_Source_Path>
/home/csk/Desktop/cluster/DUD-E-result/tgfr1

> <s_m_Source_File>
dock_pv.maegz

> <i_m_Source_File_Index>
522

> <chembl_id>
CHEMBL4570292

> <chembl_pref_name>
None

> <i_lp_mmshare_version>
53161

> <r_lp_tautomer_probability>
1

> <s_lp_Force_Field>
OPLS_2005

> <r_lp_Energy>
31.517771

> <b_lp_Chiralities_Consistent>
1

> <s_lp_Variant>
CHEMBL4439_lig905 -1

> <s_i_glide_gridfile>
glide-grid_3hmm

> <i_i_glide_lignum>
1240

> <i_i_glide_rotatable_bonds>
6

> <r_i_docking_score>
-6.95661295499248

> <r_i_glide_ligand_efficiency>
-0.217394154843515

> <r_i_glide_ligand_efficiency_sa>
-0.690183419383336

> <r_i_glide_ligand_efficiency_ln>
-1.55777527072999

> <r_i_glide_gscore>
-6.95661295499248

> <r_i_glide_lipo>
-3.51229861256268

> <r_i_glide_hbond>
-0.280624686549177

> <r_i_glide_metal>
0

> <r_i_glide_rewards>
-0.626633011008414

> <r_i_glide_evdw>
-51.5660285949707

> <r_i_glide_ecoul>
-2.8806414604187

> <r_i_glide_erotb>
0.476366234711906

> <r_i_glide_esite>
-0.00302523077277233

> <r_i_glide_emodel>
-74.6939144373763

> <r_i_glide_energy>
-54.4466700553894

> <r_i_glide_einternal>
5.47233915328979

> <i_i_glide_confnum>
14

> <i_i_glide_posenum>
120

> <r_i_glide_eff_state_penalty>
0

> <s_user_duplicate_titles>
CHEMBL4439_lig905 

> <i_f3d_flags>
0

> <s_m_subgroup_title>
dock_pv

> <s_m_subgroupid>
dock_pv

> <b_m_subgroup_collapsed>
1

$$$$
CHEMBL4439_lig390
                    3D
 Schrodinger Suite 2021-1.
 45 48  0  0  1  0            999 V2000
   17.7764   67.8472    7.6225 C   0  0  0  0  0  0
   17.5973   67.9508    8.9659 N   0  0  0  0  0  0
   16.4602   67.4456    9.4883 C   0  0  0  0  0  0
   15.4666   66.8494    8.7902 N   0  0  0  0  0  0
   15.6359   66.7534    7.4402 C   0  0  0  0  0  0
   16.7875   67.2575    6.8169 C   0  0  0  0  0  0
   14.5410   66.0731    6.6805 C   0  0  0  0  0  0
   14.8505   65.2622    5.5765 C   0  0  0  0  0  0
   12.1585   65.5647    6.4318 C   0  0  0  0  0  0
   13.2046   66.2211    7.0781 C   0  0  0  0  0  0
   12.4598   64.7152    5.3597 C   0  0  0  0  0  0
   13.8043   64.5817    4.9454 C   0  0  0  0  0  0
   13.7743   63.6848    3.8935 N   0  0  0  0  0  0
   12.5260   63.2565    3.6324 N   0  0  0  0  0  0
   11.7327   63.8541    4.4814 C   0  0  0  0  0  0
   10.3839   63.6584    4.5072 N   0  0  0  0  0  0
   16.3243   67.5324   10.8651 N   0  0  0  0  0  0
   18.9588   68.3841    7.1032 N   0  0  0  0  0  0
   20.3209   68.0839    7.6376 C   0  0  1  0  0  0
   21.3171   69.2555    7.4214 C   0  0  0  0  0  0
   21.3481   69.7775    5.9811 C   0  0  0  0  0  0
   19.9293   69.9882    5.4558 C   0  0  0  0  0  0
   19.0502   68.7485    5.6748 C   0  0  0  0  0  0
   20.4630   67.5383    9.0748 C   0  0  0  0  0  0
   16.9091   67.1767    5.7486 H   0  0  0  0  0  0
   15.8667   65.1385    5.2480 H   0  0  0  0  0  0
   11.1403   65.6911    6.7655 H   0  0  0  0  0  0
   12.9708   66.8564    7.9202 H   0  0  0  0  0  0
   14.5492   63.3547    3.3376 H   0  0  0  0  0  0
    9.7704   64.2597    5.0432 H   0  0  0  0  0  0
    9.9431   63.0259    3.8547 H   0  0  0  0  0  0
   15.4653   67.2564   11.3205 H   0  0  0  0  0  0
   17.0344   68.0371   11.3702 H   0  0  0  0  0  0
   20.6452   67.2518    7.0098 H   0  0  0  0  0  0
   21.0666   70.0755    8.0974 H   0  0  0  0  0  0
   22.3291   68.9310    7.6664 H   0  0  0  0  0  0
   21.9257   70.7022    5.9188 H   0  0  0  0  0  0
   21.8640   69.0549    5.3467 H   0  0  0  0  0  0
   19.4623   70.8567    5.9194 H   0  0  0  0  0  0
   19.9730   70.2072    4.3913 H   0  0  0  0  0  0
   18.0608   68.9953    5.2867 H   0  0  0  0  0  0
   19.4178   67.8954    5.1013 H   0  0  0  0  0  0
   21.4982   67.2736    9.2915 H   0  0  0  0  0  0
   19.8736   66.6321    9.2276 H   0  0  0  0  0  0
   20.1531   68.2780    9.8150 H   0  0  0  0  0  0
  1  6  1  0  0  0
  1  2  2  0  0  0
  1 18  1  0  0  0
  2  3  1  0  0  0
  3  4  2  0  0  0
  3 17  1  0  0  0
  4  5  1  0  0  0
  5  6  2  0  0  0
  5  7  1  0  0  0
  6 25  1  0  0  0
  7  8  2  0  0  0
  7 10  1  0  0  0
  8 12  1  0  0  0
  8 26  1  0  0  0
  9 11  1  0  0  0
  9 10  2  0  0  0
  9 27  1  0  0  0
 10 28  1  0  0  0
 11 15  1  0  0  0
 11 12  2  0  0  0
 12 13  1  0  0  0
 13 14  1  0  0  0
 13 29  1  0  0  0
 14 15  2  0  0  0
 15 16  1  0  0  0
 16 30  1  0  0  0
 16 31  1  0  0  0
 17 32  1  0  0  0
 17 33  1  0  0  0
 18 19  1  0  0  0
 18 23  1  0  0  0
 19 20  1  0  0  0
 19 24  1  0  0  0
 19 34  1  0  0  0
 20 21  1  0  0  0
 20 35  1  0  0  0
 20 36  1  0  0  0
 21 22  1  0  0  0
 21 37  1  0  0  0
 21 38  1  0  0  0
 22 23  1  0  0  0
 22 39  1  0  0  0
 22 40  1  0  0  0
 23 41  1  0  0  0
 23 42  1  0  0  0
 24 43  1  0  0  0
 24 44  1  0  0  0
 24 45  1  0  0  0
M  END
> <s_m_entry_id>
34781

> <s_m_entry_name>
dock_pv.524

> <s_m_Source_Path>
/home/csk/Desktop/cluster/DUD-E-result/tgfr1

> <s_m_Source_File>
dock_pv.maegz

> <i_m_Source_File_Index>
524

> <chembl_id>
CHEMBL1765730

> <chembl_pref_name>
None

> <i_lp_mmshare_version>
53161

> <r_lp_tautomer_probability>
0.999999648617923

> <s_lp_Force_Field>
OPLS_2005

> <r_lp_Energy>
15.981293

> <b_lp_Chiralities_Consistent>
1

> <s_lp_Variant>
CHEMBL4439_lig390-1

> <s_i_glide_gridfile>
glide-grid_3hmm

> <i_i_glide_lignum>
528

> <i_i_glide_rotatable_bonds>
2

> <r_i_docking_score>
-6.94450403813162

> <r_i_glide_ligand_efficiency>
-0.289354334922151

> <r_i_glide_ligand_efficiency_sa>
-0.834642329531936

> <r_i_glide_ligand_efficiency_ln>
-1.66213847885088

> <r_i_glide_gscore>
-6.94450403813162

> <r_i_glide_lipo>
-2.73444695447014

> <r_i_glide_hbond>
-0.025979655732305

> <r_i_glide_metal>
0

> <r_i_glide_rewards>
-1.96392842801874

> <r_i_glide_evdw>
-50.517635345459

> <r_i_glide_ecoul>
-0.347529262304306

> <r_i_glide_erotb>
0.357862156708167

> <r_i_glide_esite>
0

> <r_i_glide_emodel>
-71.3685144428095

> <r_i_glide_energy>
-50.8651646077633

> <r_i_glide_einternal>
2.04194664955139

> <i_i_glide_confnum>
6

> <i_i_glide_posenum>
131

> <r_i_glide_eff_state_penalty>
0

> <s_user_duplicate_titles>
CHEMBL4439_lig390

> <i_f3d_flags>
0

> <s_m_subgroup_title>
dock_pv

> <s_m_subgroupid>
dock_pv

> <b_m_subgroup_collapsed>
1

$$$$
CHEMBL4439_lig970
                    3D
 Schrodinger Suite 2021-1.
 40 43  0  0  1  0            999 V2000
   13.5865   65.8408    5.7528 C   0  0  0  0  0  0
   14.7844   65.6605    5.0657 C   0  0  0  0  0  0
   14.9154   64.5692    4.1888 C   0  0  0  0  0  0
   13.8680   63.6729    3.9578 C   0  0  0  0  0  0
   15.8677   66.6811    5.1209 C   0  0  0  0  0  0
   16.2505   67.1610    3.9449 N   0  0  0  0  0  0
   17.2563   67.9470    4.1726 C   0  0  0  0  0  0
   17.4993   68.0570    5.5098 N   0  0  0  0  0  0
   16.6076   67.2580    6.1823 C   0  0  0  0  0  0
   17.9968   68.5255    3.1676 N   0  0  0  0  0  0
   19.1132   69.2560    3.3232 C   0  0  0  0  0  0
   19.7617   69.6597    2.0180 C   0  0  0  0  0  0
   19.6068   69.5987    4.3991 O   0  0  0  0  0  0
   16.6671   67.1409    7.6789 C   0  0  0  0  0  0
   17.7267   67.7739    8.2636 N   0  0  0  0  0  0
   17.8562   67.7374    9.6133 C   0  0  0  0  0  0
   16.9385   67.0875   10.4351 C   0  0  0  0  0  0
   15.8641   66.4346    9.8358 C   0  0  0  0  0  0
   15.7213   66.4544    8.4445 C   0  0  0  0  0  0
   19.0768   68.4284   10.1886 C   0  0  0  0  0  0
   12.5656   64.9656    5.5093 N   0  0  0  0  0  0
   12.6560   63.8919    4.6220 C   0  0  0  0  0  0
   11.4649   63.2573    4.5926 N   0  0  0  0  0  0
   10.7556   63.9725    5.4441 C   0  0  0  0  0  0
   11.3331   65.0029    6.0325 N   0  0  0  0  0  0
   13.3755   66.6762    6.4032 H   0  0  0  0  0  0
   15.8386   64.4342    3.6422 H   0  0  0  0  0  0
   13.9691   62.8584    3.2561 H   0  0  0  0  0  0
   17.6946   68.3260    2.2267 H   0  0  0  0  0  0
   19.7570   68.8623    1.2747 H   0  0  0  0  0  0
   19.1462   70.4583    1.6321 H   0  0  0  0  0  0
   18.2405   68.6051    5.9254 H   0  0  0  0  0  0
   20.7783   70.0306    2.1610 H   0  0  0  0  0  0
   17.0531   67.0823   11.5092 H   0  0  0  0  0  0
   15.1367   65.9354   10.4582 H   0  0  0  0  0  0
   14.8918   65.9554    7.9783 H   0  0  0  0  0  0
   18.8746   68.8150   11.1882 H   0  0  0  0  0  0
   19.3897   69.2677    9.5663 H   0  0  0  0  0  0
   19.9073   67.7247   10.2544 H   0  0  0  0  0  0
    9.7250   63.7180    5.6533 H   0  0  0  0  0  0
  1 21  1  0  0  0
  1  2  2  0  0  0
  1 26  1  0  0  0
  2  3  1  0  0  0
  2  5  1  0  0  0
  3  4  2  0  0  0
  3 27  1  0  0  0
  4 22  1  0  0  0
  4 28  1  0  0  0
  5  9  2  0  0  0
  5  6  1  0  0  0
  6  7  2  0  0  0
  7  8  1  0  0  0
  7 10  1  0  0  0
  8  9  1  0  0  0
  8 32  1  0  0  0
  9 14  1  0  0  0
 10 11  1  0  0  0
 10 29  1  0  0  0
 11 13  2  0  0  0
 11 12  1  0  0  0
 12 31  1  0  0  0
 12 33  1  0  0  0
 12 30  1  0  0  0
 14 15  2  0  0  0
 14 19  1  0  0  0
 15 16  1  0  0  0
 16 17  2  0  0  0
 16 20  1  0  0  0
 17 18  1  0  0  0
 17 34  1  0  0  0
 18 19  2  0  0  0
 18 35  1  0  0  0
 19 36  1  0  0  0
 20 37  1  0  0  0
 20 38  1  0  0  0
 20 39  1  0  0  0
 21 22  1  0  0  0
 21 25  1  0  0  0
 22 23  2  0  0  0
 23 24  1  0  0  0
 24 25  2  0  0  0
 24 40  1  0  0  0
M  END
> <s_m_entry_id>
34782

> <s_m_entry_name>
dock_pv.525

> <s_m_Source_Path>
/home/csk/Desktop/cluster/DUD-E-result/tgfr1

> <s_m_Source_File>
dock_pv.maegz

> <i_m_Source_File_Index>
525

> <chembl_id>
CHEMBL450161

> <chembl_pref_name>
None

> <i_lp_mmshare_version>
53161

> <r_lp_tautomer_probability>
0.495688062951706

> <s_lp_Force_Field>
OPLS_2005

> <r_lp_Energy>
15.116639

> <b_lp_Chiralities_Consistent>
1

> <s_lp_Variant>
CHEMBL4439_lig970-2

> <s_i_glide_gridfile>
glide-grid_3hmm

> <i_i_glide_lignum>
1323

> <i_i_glide_rotatable_bonds>
4

> <r_i_docking_score>
-6.94438375870732

> <r_i_glide_ligand_efficiency>
-0.277775350348293

> <r_i_glide_ligand_efficiency_sa>
-0.812220050785223

> <r_i_glide_ligand_efficiency_ln>
-1.64602705720173

> <r_i_glide_gscore>
-6.94438375870732

> <r_i_glide_lipo>
-2.09254474525565

> <r_i_glide_hbond>
0

> <r_i_glide_metal>
0

> <r_i_glide_rewards>
-3.02765110368369

> <r_i_glide_evdw>
-48.4141387939453

> <r_i_glide_ecoul>
0.584737300872803

> <r_i_glide_erotb>
0.508808434798361

> <r_i_glide_esite>
0

> <r_i_glide_emodel>
-69.0922478941363

> <r_i_glide_energy>
-47.8294014930725

> <r_i_glide_einternal>
2.04778909683228

> <i_i_glide_confnum>
4

> <i_i_glide_posenum>
6

> <r_i_glide_eff_state_penalty>
0

> <s_user_duplicate_titles>
CHEMBL4439_lig970,473890

> <i_f3d_flags>
0

> <s_m_subgroup_title>
dock_pv

> <s_m_subgroupid>
dock_pv

> <b_m_subgroup_collapsed>
1

$$$$
CHEMBL4439_lig556
                    3D
 Schrodinger Suite 2021-1.
 47 51  0  0  1  0            999 V2000
   21.2056   70.2424    7.2313 C   0  0  0  0  0  0
   21.6969   70.1448    5.9332 C   0  0  0  0  0  0
   20.9371   69.4493    4.9973 C   0  0  0  0  0  0
   19.7822   68.8146    5.3150 N   0  0  0  0  0  0
   19.3048   68.8937    6.5918 C   0  0  0  0  0  0
   19.9790   69.6541    7.5545 C   0  0  0  0  0  0
   18.0402   68.1066    6.8687 C   0  0  0  0  0  0
   19.3550   67.7166    9.8507 C   0  0  0  0  0  0
   17.9945   67.7323    9.5297 C   0  0  0  0  0  0
   17.0659   67.8904   10.5706 C   0  0  0  0  0  0
   17.4602   68.0722   11.9019 C   0  0  0  0  0  0
   19.7321   67.9853   11.1386 N   0  0  0  0  0  0
   18.8290   68.1654   12.1860 C   0  0  0  0  0  0
   19.5246   68.4114   13.3247 N   0  0  0  0  0  0
   20.7722   68.3587   12.8883 C   0  0  0  0  0  0
   20.9869   68.1229   11.6073 N   0  0  0  0  0  0
   17.5311   67.6202    8.1036 C   0  0  0  0  0  0
   17.2798   67.8019    5.8227 N   0  0  0  0  0  0
   16.2783   67.0233    6.0936 C   0  0  0  0  0  0
   16.0964   66.6626    7.7689 S   0  0  0  0  0  0
   21.3493   69.4003    3.5424 C   0  0  0  0  0  0
   15.4421   66.5051    5.1426 N   0  0  0  0  0  0
   15.2359   65.0780    4.9186 C   0  0  0  0  0  0
   13.7639   64.6858    4.9337 C   0  0  0  0  0  0
   12.8822   65.2593    5.8543 C   0  0  0  0  0  0
   11.5624   64.8337    5.9239 C   0  0  0  0  0  0
   11.1230   63.8130    5.0873 C   0  0  0  0  0  0
   11.9920   63.2387    4.1601 C   0  0  0  0  0  0
   13.3174   63.6586    4.0974 C   0  0  0  0  0  0
    9.5004   63.2507    5.2235 Cl  0  0  0  0  0  0
   21.7551   70.7988    7.9754 H   0  0  0  0  0  0
   22.6399   70.5978    5.6617 H   0  0  0  0  0  0
   19.5707   69.8067    8.5388 H   0  0  0  0  0  0
   20.1476   67.5656    9.1345 H   0  0  0  0  0  0
   16.0082   67.8976   10.3481 H   0  0  0  0  0  0
   16.7228   68.1964   12.6802 H   0  0  0  0  0  0
   21.6031   68.5073   13.5625 H   0  0  0  0  0  0
   22.3032   68.8787    3.4432 H   0  0  0  0  0  0
   20.5980   68.8794    2.9402 H   0  0  0  0  0  0
   21.4729   70.4207    3.1630 H   0  0  0  0  0  0
   15.2551   67.0392    4.3055 H   0  0  0  0  0  0
   15.7419   64.4994    5.6926 H   0  0  0  0  0  0
   15.6937   64.8087    3.9658 H   0  0  0  0  0  0
   13.2168   66.0350    6.5292 H   0  0  0  0  0  0
   10.8960   65.2885    6.6382 H   0  0  0  0  0  0
   11.6476   62.4589    3.4991 H   0  0  0  0  0  0
   13.9844   63.1951    3.3828 H   0  0  0  0  0  0
  1  6  1  0  0  0
  1  2  2  0  0  0
  1 31  1  0  0  0
  2  3  1  0  0  0
  2 32  1  0  0  0
  3 21  1  0  0  0
  3  4  2  0  0  0
  4  5  1  0  0  0
  5  6  2  0  0  0
  5  7  1  0  0  0
  6 33  1  0  0  0
  7 17  2  0  0  0
  7 18  1  0  0  0
  8 12  1  0  0  0
  8  9  2  0  0  0
  8 34  1  0  0  0
  9 17  1  0  0  0
  9 10  1  0  0  0
 10 11  2  0  0  0
 10 35  1  0  0  0
 11 13  1  0  0  0
 11 36  1  0  0  0
 12 16  1  0  0  0
 12 13  1  0  0  0
 13 14  2  0  0  0
 14 15  1  0  0  0
 15 16  2  0  0  0
 15 37  1  0  0  0
 17 20  1  0  0  0
 18 19  2  0  0  0
 19 20  1  0  0  0
 19 22  1  0  0  0
 21 38  1  0  0  0
 21 39  1  0  0  0
 21 40  1  0  0  0
 22 23  1  0  0  0
 22 41  1  0  0  0
 23 24  1  0  0  0
 23 42  1  0  0  0
 23 43  1  0  0  0
 24 25  2  0  0  0
 24 29  1  0  0  0
 25 26  1  0  0  0
 25 44  1  0  0  0
 26 27  2  0  0  0
 26 45  1  0  0  0
 27 28  1  0  0  0
 27 30  1  0  0  0
 28 29  2  0  0  0
 28 46  1  0  0  0
 29 47  1  0  0  0
M  END
> <s_m_entry_id>
34783

> <s_m_entry_name>
dock_pv.526

> <s_m_Source_Path>
/home/csk/Desktop/cluster/DUD-E-result/tgfr1

> <s_m_Source_File>
dock_pv.maegz

> <i_m_Source_File_Index>
526

> <chembl_id>
CHEMBL2087973

> <chembl_pref_name>
None

> <i_lp_mmshare_version>
53161

> <r_lp_tautomer_probability>
1

> <s_lp_Force_Field>
OPLS_2005

> <r_lp_Energy>
11.375856

> <b_lp_Chiralities_Consistent>
1

> <s_lp_Variant>
CHEMBL4439_lig556-1

> <s_i_glide_gridfile>
glide-grid_3hmm

> <i_i_glide_lignum>
735

> <i_i_glide_rotatable_bonds>
5

> <r_i_docking_score>
-6.94378843369772

> <r_i_glide_ligand_efficiency>
-0.231459614456591

> <r_i_glide_ligand_efficiency_sa>
-0.719198837039687

> <r_i_glide_ligand_efficiency_ln>
-1.57770439077089

> <r_i_glide_gscore>
-6.94378843369772

> <r_i_glide_lipo>
-3.55044475979745

> <r_i_glide_hbond>
0

> <r_i_glide_metal>
0

> <r_i_glide_rewards>
-0.934092814169657

> <r_i_glide_evdw>
-54.8061676025391

> <r_i_glide_ecoul>
-1.34855711460114

> <r_i_glide_erotb>
0.530945015271024

> <r_i_glide_esite>
-0.0476039276845169

> <r_i_glide_emodel>
-78.9875023481662

> <r_i_glide_energy>
-56.1547247171402

> <r_i_glide_einternal>
6.37901210784912

> <i_i_glide_confnum>
127

> <i_i_glide_posenum>
59

> <r_i_glide_eff_state_penalty>
0

> <s_user_duplicate_titles>
CHEMBL4439_lig556

> <i_f3d_flags>
0

> <s_m_subgroup_title>
dock_pv

> <s_m_subgroupid>
dock_pv

> <b_m_subgroup_collapsed>
1

$$$$
CHEMBL4439_lig301
                    3D
 Schrodinger Suite 2021-1.
 41 44  0  0  1  0            999 V2000
   19.0950   68.7280    4.1000 C   0  0  0  0  0  0
   19.1140   68.2588    5.4085 C   0  0  0  0  0  0
   17.9755   67.6570    5.9456 C   0  0  0  0  0  0
   16.7734   67.5599    5.2211 C   0  0  0  0  0  0
   16.7773   68.0592    3.9113 C   0  0  0  0  0  0
   17.9294   68.6032    3.3453 C   0  0  0  0  0  0
   15.5368   66.9233    5.7865 C   0  0  0  0  0  0
   15.1211   66.8407    7.0774 C   0  0  0  0  0  0
   13.9793   66.0570    7.1113 N   0  0  0  0  0  0
   13.6817   65.7143    5.8068 N   0  0  0  0  0  0
   14.6234   66.1488    4.9559 C   0  0  0  0  0  0
   14.6670   65.9259    3.7479 O   0  0  0  0  0  0
   15.7577   67.3826    8.3078 C   0  0  0  0  0  0
   16.5146   68.5544    8.2751 C   0  0  0  0  0  0
   17.4077   68.8570    9.2930 C   0  0  0  0  0  0
   15.6907   66.6706    9.5094 C   0  0  0  0  0  0
   16.4382   67.0782   10.6323 C   0  0  0  0  0  0
   17.3846   68.1294   10.4939 C   0  0  0  0  0  0
   18.2264   68.4570   11.5150 N   0  0  0  0  0  0
   18.0566   67.8180   12.6941 C   0  0  0  0  0  0
   17.0670   66.8570   12.8566 C   0  0  0  0  0  0
   16.2670   66.4570   11.8260 N   0  0  0  0  0  0
   17.9150   68.9751    1.9480 C   0  0  0  0  0  0
   17.9001   69.2570    0.8320 N   0  0  0  0  0  0
   12.5313   64.8802    5.4258 C   0  0  0  0  0  0
   12.7971   66.4874    7.8496 C   0  0  0  0  0  0
   19.9960   69.1481    3.6733 H   0  0  0  0  0  0
   20.0246   68.3119    5.9879 H   0  0  0  0  0  0
   18.0703   67.2095    6.9211 H   0  0  0  0  0  0
   15.8795   68.0031    3.3112 H   0  0  0  0  0  0
   16.5188   69.1705    7.3897 H   0  0  0  0  0  0
   18.1166   69.6572    9.1857 H   0  0  0  0  0  0
   15.0726   65.7990    9.6058 H   0  0  0  0  0  0
   18.7192   68.0935   13.4999 H   0  0  0  0  0  0
   16.9116   66.3655   13.8056 H   0  0  0  0  0  0
   12.5623   64.5682    4.3794 H   0  0  0  0  0  0
   12.4814   63.9786    6.0319 H   0  0  0  0  0  0
   11.6003   65.4309    5.5650 H   0  0  0  0  0  0
   13.0671   66.8715    8.8317 H   0  0  0  0  0  0
   12.2495   67.2564    7.3089 H   0  0  0  0  0  0
   12.1153   65.6570    8.0051 H   0  0  0  0  0  0
  1  6  1  0  0  0
  1  2  2  0  0  0
  1 27  1  0  0  0
  2  3  1  0  0  0
  2 28  1  0  0  0
  3  4  2  0  0  0
  3 29  1  0  0  0
  4  5  1  0  0  0
  4  7  1  0  0  0
  5  6  2  0  0  0
  5 30  1  0  0  0
  6 23  1  0  0  0
  7  8  2  0  0  0
  7 11  1  0  0  0
  8 13  1  0  0  0
  8  9  1  0  0  0
  9 10  1  0  0  0
  9 26  1  0  0  0
 10 11  1  0  0  0
 10 25  1  0  0  0
 11 12  2  0  0  0
 13 14  2  0  0  0
 13 16  1  0  0  0
 14 15  1  0  0  0
 14 31  1  0  0  0
 15 18  2  0  0  0
 15 32  1  0  0  0
 16 17  2  0  0  0
 16 33  1  0  0  0
 17 18  1  0  0  0
 17 22  1  0  0  0
 18 19  1  0  0  0
 19 20  2  0  0  0
 20 21  1  0  0  0
 20 34  1  0  0  0
 21 22  2  0  0  0
 21 35  1  0  0  0
 23 24  3  0  0  0
 25 36  1  0  0  0
 25 37  1  0  0  0
 25 38  1  0  0  0
 26 39  1  0  0  0
 26 40  1  0  0  0
 26 41  1  0  0  0
M  END
> <s_m_entry_id>
34786

> <s_m_entry_name>
dock_pv.529

> <s_m_Source_Path>
/home/csk/Desktop/cluster/DUD-E-result/tgfr1

> <s_m_Source_File>
dock_pv.maegz

> <i_m_Source_File_Index>
529

> <chembl_id>
CHEMBL605942

> <chembl_pref_name>
None

> <i_lp_mmshare_version>
53161

> <r_lp_tautomer_probability>
1

> <s_lp_Force_Field>
OPLS_2005

> <r_lp_Energy>
43.3714

> <b_lp_Chiralities_Consistent>
1

> <s_lp_Variant>
CHEMBL4439_lig301-1

> <s_i_glide_gridfile>
glide-grid_3hmm

> <i_i_glide_lignum>
433

> <i_i_glide_rotatable_bonds>
2

> <r_i_docking_score>
-6.93483741875644

> <r_i_glide_ligand_efficiency>
-0.266724516106017

> <r_i_glide_ligand_efficiency_sa>
-0.790170329453783

> <r_i_glide_ligand_efficiency_ln>
-1.62862381273739

> <r_i_glide_gscore>
-6.93483741875644

> <r_i_glide_lipo>
-3.39178470875496

> <r_i_glide_hbond>
-0.32

> <r_i_glide_metal>
0

> <r_i_glide_rewards>
-1.83736741727999

> <r_i_glide_evdw>
-34.4300308227539

> <r_i_glide_ecoul>
0.0706431716680527

> <r_i_glide_erotb>
0.325219772666

> <r_i_glide_esite>
0

> <r_i_glide_emodel>
-45.6093978580305

> <r_i_glide_energy>
-34.3593876510859

> <r_i_glide_einternal>
2.48676037788391

> <i_i_glide_confnum>
1

> <i_i_glide_posenum>
1

> <r_i_glide_eff_state_penalty>
0

> <s_user_duplicate_titles>
CHEMBL4439_lig301

> <i_f3d_flags>
0

> <s_m_subgroup_title>
dock_pv

> <s_m_subgroupid>
dock_pv

> <b_m_subgroup_collapsed>
1

$$$$
CHEMBL4439_lig186
                    3D
 Schrodinger Suite 2021-1.
 48 51  0  0  1  0            999 V2000
   17.0496   67.8827    7.2717 C   0  0  0  0  0  0
   17.0454   67.5414    8.6443 C   0  0  0  0  0  0
   15.8676   67.0251    8.9934 N   0  0  0  0  0  0
   15.1172   67.0198    7.9239 C   0  0  0  0  0  0
   15.7824   67.5526    6.8595 N   0  0  0  0  0  0
   18.0628   68.4346    6.3149 C   0  0  0  0  0  0
   19.0704   69.3090    6.7351 C   0  0  0  0  0  0
   20.0607   69.7202    5.8453 C   0  0  0  0  0  0
   20.0243   69.2861    4.5227 C   0  0  0  0  0  0
   18.9863   68.4771    4.0742 C   0  0  0  0  0  0
   18.0053   68.0575    4.9666 C   0  0  0  0  0  0
   18.1300   67.6733    9.6837 C   0  0  0  0  0  0
   19.4972   67.6592    9.3783 C   0  0  0  0  0  0
   20.3941   67.9041   10.4213 C   0  0  0  0  0  0
   19.9928   68.0717   11.7081 N   0  0  0  0  0  0
   18.6592   67.9844   11.9332 C   0  0  0  0  0  0
   17.7044   67.8123   10.9732 N   0  0  0  0  0  0
   20.9991   69.6569    3.6638 F   0  0  0  0  0  0
   13.6518   66.6220    7.9166 C   0  0  0  0  0  0
   13.0988   65.8288    6.7272 C   0  0  0  0  0  0
   11.7161   65.6668    6.6383 C   0  0  0  0  0  0
   11.1377   64.9016    5.6313 C   0  0  0  0  0  0
   11.9410   64.2876    4.6870 C   0  0  0  0  0  0
   13.3313   64.4325    4.7359 C   0  0  0  0  0  0
   13.9057   65.1984    5.7706 C   0  0  0  0  0  0
   14.1573   63.7475    3.6806 C   0  0  0  0  0  0
   15.4509   64.0570    3.6321 N   0  0  0  0  0  0
   13.6653   62.9197    2.9185 O   0  0  0  0  0  0
   18.2982   68.0275   13.2683 O   0  0  0  0  0  0
   16.9556   67.7042   13.6187 C   0  0  0  0  0  0
   15.4045   67.6880    5.9332 H   0  0  0  0  0  0
   19.0997   69.6621    7.7555 H   0  0  0  0  0  0
   20.8620   70.3626    6.1796 H   0  0  0  0  0  0
   18.9566   68.1594    3.0427 H   0  0  0  0  0  0
   17.2285   67.3998    4.6063 H   0  0  0  0  0  0
   19.8565   67.4860    8.3762 H   0  0  0  0  0  0
   21.4585   67.9391   10.2412 H   0  0  0  0  0  0
   13.0657   67.5295    8.0326 H   0  0  0  0  0  0
   13.3874   66.0624    8.8115 H   0  0  0  0  0  0
   11.0699   66.1244    7.3732 H   0  0  0  0  0  0
   10.0676   64.7792    5.5776 H   0  0  0  0  0  0
   11.4679   63.7051    3.9074 H   0  0  0  0  0  0
   14.9781   65.2792    5.8523 H   0  0  0  0  0  0
   16.0351   63.5888    2.9564 H   0  0  0  0  0  0
   15.8315   64.7732    4.2271 H   0  0  0  0  0  0
   16.8456   67.6591   14.7013 H   0  0  0  0  0  0
   16.2670   68.4596   13.2408 H   0  0  0  0  0  0
   16.6652   66.7282   13.2260 H   0  0  0  0  0  0
  1  2  2  0  0  0
  1  6  1  0  0  0
  1  5  1  0  0  0
  2 12  1  0  0  0
  2  3  1  0  0  0
  3  4  2  0  0  0
  4  5  1  0  0  0
  4 19  1  0  0  0
  5 31  1  0  0  0
  6 11  1  0  0  0
  6  7  2  0  0  0
  7  8  1  0  0  0
  7 32  1  0  0  0
  8  9  2  0  0  0
  8 33  1  0  0  0
  9 18  1  0  0  0
  9 10  1  0  0  0
 10 11  2  0  0  0
 10 34  1  0  0  0
 11 35  1  0  0  0
 12 17  1  0  0  0
 12 13  2  0  0  0
 13 14  1  0  0  0
 13 36  1  0  0  0
 14 15  2  0  0  0
 14 37  1  0  0  0
 15 16  1  0  0  0
 16 17  2  0  0  0
 16 29  1  0  0  0
 19 20  1  0  0  0
 19 38  1  0  0  0
 19 39  1  0  0  0
 20 21  2  0  0  0
 20 25  1  0  0  0
 21 22  1  0  0  0
 21 40  1  0  0  0
 22 23  2  0  0  0
 22 41  1  0  0  0
 23 24  1  0  0  0
 23 42  1  0  0  0
 24 25  2  0  0  0
 24 26  1  0  0  0
 25 43  1  0  0  0
 26 27  1  0  0  0
 26 28  2  0  0  0
 27 44  1  0  0  0
 27 45  1  0  0  0
 29 30  1  0  0  0
 30 46  1  0  0  0
 30 47  1  0  0  0
 30 48  1  0  0  0
M  END
> <s_m_entry_id>
34787

> <s_m_entry_name>
dock_pv.530

> <s_m_Source_Path>
/home/csk/Desktop/cluster/DUD-E-result/tgfr1

> <s_m_Source_File>
dock_pv.maegz

> <i_m_Source_File_Index>
530

> <chembl_id>
CHEMBL479987

> <chembl_pref_name>
None

> <i_lp_mmshare_version>
53161

> <r_lp_tautomer_probability>
0.499999999999999

> <s_lp_Force_Field>
OPLS_2005

> <r_lp_Energy>
17.348971

> <b_lp_Chiralities_Consistent>
1

> <s_lp_Variant>
CHEMBL4439_lig186-2

> <s_i_glide_gridfile>
glide-grid_3hmm

> <i_i_glide_lignum>
280

> <i_i_glide_rotatable_bonds>
6

> <r_i_docking_score>
-6.93310144341303

> <r_i_glide_ligand_efficiency>
-0.231103381447101

> <r_i_glide_ligand_efficiency_sa>
-0.718091938254162

> <r_i_glide_ligand_efficiency_ln>
-1.57527619013412

> <r_i_glide_gscore>
-6.93310144341303

> <r_i_glide_lipo>
-3.54994964446387

> <r_i_glide_hbond>
0

> <r_i_glide_metal>
0

> <r_i_glide_rewards>
-1.82531111384122

> <r_i_glide_evdw>
-48.8240509033203

> <r_i_glide_ecoul>
2.67195200920105

> <r_i_glide_erotb>
0.48256905867792

> <r_i_glide_esite>
0

> <r_i_glide_emodel>
-51.6346474213557

> <r_i_glide_energy>
-46.1520988941193

> <r_i_glide_einternal>
7.65744829177856

> <i_i_glide_confnum>
1

> <i_i_glide_posenum>
6

> <r_i_glide_eff_state_penalty>
0

> <s_user_duplicate_titles>
CHEMBL4439_lig186

> <i_f3d_flags>
0

> <s_m_subgroup_title>
dock_pv

> <s_m_subgroupid>
dock_pv

> <b_m_subgroup_collapsed>
1

$$$$
CHEMBL4439_lig563
                    3D
 Schrodinger Suite 2021-1.
 47 51  0  0  1  0            999 V2000
   20.9555   67.6353    9.2343 C   0  0  0  0  0  0
   20.1997   67.8473   10.3865 C   0  0  0  0  0  0
   18.8288   68.0710   10.2494 C   0  0  0  0  0  0
   18.2151   68.1506    9.0405 N   0  0  0  0  0  0
   18.9685   67.9724    7.9164 C   0  0  0  0  0  0
   20.3288   67.6570    7.9887 C   0  0  0  0  0  0
   18.2512   68.0939    6.6032 C   0  0  0  0  0  0
   20.4325   69.2524    3.6252 C   0  0  0  0  0  0
   20.0389   69.2630    4.9688 C   0  0  0  0  0  0
   20.9358   69.7995    5.9050 C   0  0  0  0  0  0
   22.2483   70.1487    5.5634 C   0  0  0  0  0  0
   21.6983   69.6442    3.2875 N   0  0  0  0  0  0
   22.6454   70.0568    4.2199 C   0  0  0  0  0  0
   23.7977   70.3295    3.5617 N   0  0  0  0  0  0
   23.4658   70.0786    2.3071 C   0  0  0  0  0  0
   22.2400   69.6620    2.0531 N   0  0  0  0  0  0
   18.7235   68.6397    5.3778 C   0  0  0  0  0  0
   17.0279   67.5892    6.5459 N   0  0  0  0  0  0
   16.4840   67.6488    5.3644 C   0  0  0  0  0  0
   17.4602   68.4189    4.1730 S   0  0  0  0  0  0
   17.9426   68.2541   11.4644 C   0  0  0  0  0  0
   15.2687   67.1129    5.0229 N   0  0  0  0  0  0
   14.3667   66.4097    5.9320 C   0  0  0  0  0  0
   13.5972   65.2874    5.2403 C   0  0  0  0  0  0
   14.1974   64.4789    4.2616 C   0  0  0  0  0  0
   13.4647   63.4709    3.6358 C   0  0  0  0  0  0
   12.1379   63.2524    4.0005 C   0  0  0  0  0  0
   11.5472   64.0142    5.0041 C   0  0  0  0  0  0
   12.2779   65.0235    5.6308 C   0  0  0  0  0  0
   10.2670   63.7714    5.3649 F   0  0  0  0  0  0
   22.0156   67.4394    9.3075 H   0  0  0  0  0  0
   20.6623   67.8025   11.3614 H   0  0  0  0  0  0
   20.8990   67.4659    7.0914 H   0  0  0  0  0  0
   19.8218   68.8882    2.8148 H   0  0  0  0  0  0
   20.6370   69.9069    6.9354 H   0  0  0  0  0  0
   22.9576   70.4677    6.3141 H   0  0  0  0  0  0
   24.1847   70.2127    1.5099 H   0  0  0  0  0  0
   18.4821   68.7583   12.2665 H   0  0  0  0  0  0
   17.0677   68.8560   11.2223 H   0  0  0  0  0  0
   17.6034   67.2827   11.8256 H   0  0  0  0  0  0
   14.8449   67.3255    4.1303 H   0  0  0  0  0  0
   13.6697   67.1404    6.3480 H   0  0  0  0  0  0
   14.9211   65.9919    6.7734 H   0  0  0  0  0  0
   15.2246   64.6439    3.9667 H   0  0  0  0  0  0
   13.9170   62.8708    2.8593 H   0  0  0  0  0  0
   11.5671   62.4790    3.5065 H   0  0  0  0  0  0
   11.8004   65.6111    6.4011 H   0  0  0  0  0  0
  1  6  1  0  0  0
  1  2  2  0  0  0
  1 31  1  0  0  0
  2  3  1  0  0  0
  2 32  1  0  0  0
  3 21  1  0  0  0
  3  4  2  0  0  0
  4  5  1  0  0  0
  5  6  2  0  0  0
  5  7  1  0  0  0
  6 33  1  0  0  0
  7 17  2  0  0  0
  7 18  1  0  0  0
  8 12  1  0  0  0
  8  9  2  0  0  0
  8 34  1  0  0  0
  9 17  1  0  0  0
  9 10  1  0  0  0
 10 11  2  0  0  0
 10 35  1  0  0  0
 11 13  1  0  0  0
 11 36  1  0  0  0
 12 16  1  0  0  0
 12 13  1  0  0  0
 13 14  2  0  0  0
 14 15  1  0  0  0
 15 16  2  0  0  0
 15 37  1  0  0  0
 17 20  1  0  0  0
 18 19  2  0  0  0
 19 20  1  0  0  0
 19 22  1  0  0  0
 21 38  1  0  0  0
 21 39  1  0  0  0
 21 40  1  0  0  0
 22 23  1  0  0  0
 22 41  1  0  0  0
 23 24  1  0  0  0
 23 42  1  0  0  0
 23 43  1  0  0  0
 24 25  2  0  0  0
 24 29  1  0  0  0
 25 26  1  0  0  0
 25 44  1  0  0  0
 26 27  2  0  0  0
 26 45  1  0  0  0
 27 28  1  0  0  0
 27 46  1  0  0  0
 28 29  2  0  0  0
 28 30  1  0  0  0
 29 47  1  0  0  0
M  END
> <s_m_entry_id>
34788

> <s_m_entry_name>
dock_pv.531

> <s_m_Source_Path>
/home/csk/Desktop/cluster/DUD-E-result/tgfr1

> <s_m_Source_File>
dock_pv.maegz

> <i_m_Source_File_Index>
531

> <chembl_id>
CHEMBL2087966

> <chembl_pref_name>
None

> <i_lp_mmshare_version>
53161

> <r_lp_tautomer_probability>
1

> <s_lp_Force_Field>
OPLS_2005

> <r_lp_Energy>
11.852853

> <b_lp_Chiralities_Consistent>
1

> <s_lp_Variant>
CHEMBL4439_lig563-1

> <s_i_glide_gridfile>
glide-grid_3hmm

> <i_i_glide_lignum>
742

> <i_i_glide_rotatable_bonds>
5

> <r_i_docking_score>
-6.93048780902125

> <r_i_glide_ligand_efficiency>
-0.231016260300708

> <r_i_glide_ligand_efficiency_sa>
-0.717821232596442

> <r_i_glide_ligand_efficiency_ln>
-1.57468234392248

> <r_i_glide_gscore>
-6.93048780902125

> <r_i_glide_lipo>
-3.56927708852458

> <r_i_glide_hbond>
0

> <r_i_glide_metal>
0

> <r_i_glide_rewards>
-1.38766990410732

> <r_i_glide_evdw>
-54.9196510314941

> <r_i_glide_ecoul>
1.35290861129761

> <r_i_glide_erotb>
0.569505443490713

> <r_i_glide_esite>
0

> <r_i_glide_emodel>
-74.3890498599204

> <r_i_glide_energy>
-53.5667424201965

> <r_i_glide_einternal>
3.53218698501587

> <i_i_glide_confnum>
124

> <i_i_glide_posenum>
289

> <r_i_glide_eff_state_penalty>
0

> <s_user_duplicate_titles>
CHEMBL4439_lig563

> <i_f3d_flags>
0

> <s_m_subgroup_title>
dock_pv

> <s_m_subgroupid>
dock_pv

> <b_m_subgroup_collapsed>
1

$$$$
CHEMBL4439_lig518
                    3D
 Schrodinger Suite 2021-1.
 45 47  0  0  1  0            999 V2000
   19.7756   68.9099    4.7649 C   0  0  0  0  0  0
   18.6264   68.4236    5.6393 C   0  0  0  0  0  0
   17.4329   67.9721    5.1519 N   0  0  0  0  0  0
   16.7027   67.4934    6.2149 C   0  0  0  0  0  0
   17.5060   67.7952    7.3349 C   0  0  0  0  0  0
   18.6513   68.3406    6.9442 N   0  0  0  0  0  0
   17.2872   67.5745    8.8083 C   0  0  0  0  0  0
   17.9988   68.3539    9.7332 C   0  0  0  0  0  0
   16.1963   66.4570   10.6607 C   0  0  0  0  0  0
   16.4073   66.6001    9.2901 C   0  0  0  0  0  0
   16.8947   67.2570   11.5623 C   0  0  0  0  0  0
   17.8178   68.1836   11.1015 C   0  0  0  0  0  0
   15.4137   66.8310    6.0012 C   0  0  0  0  0  0
   14.3877   66.9384    6.8097 N   0  0  0  0  0  0
   13.3707   66.1766    6.4439 C   0  0  0  0  0  0
   13.5751   65.4092    5.3029 C   0  0  0  0  0  0
   15.1546   65.7348    4.6741 S   0  0  0  0  0  0
   12.1258   66.2515    7.2907 C   0  0  0  0  0  0
   21.0670   68.8350    5.4579 N   0  0  0  0  0  0
   21.5656   69.7732    6.2770 C   0  0  0  0  0  0
   22.8515   69.4383    7.0480 C   0  0  0  0  0  0
   21.0205   70.8570    6.4320 O   0  0  0  0  0  0
   23.0253   70.1801    8.3971 C   0  0  0  0  0  0
   21.9451   69.8665    9.4490 C   0  0  0  0  0  0
   16.6670   67.1455   12.9091 O   0  0  0  0  0  0
   19.5880   69.9154    4.3820 H   0  0  0  0  0  0
   19.8670   68.2776    3.8811 H   0  0  0  0  0  0
   17.1681   67.9175    4.1789 H   0  0  0  0  0  0
   18.6921   69.1132    9.4005 H   0  0  0  0  0  0
   15.4916   65.7253   11.0266 H   0  0  0  0  0  0
   15.8845   65.9495    8.6093 H   0  0  0  0  0  0
   18.3639   68.8046   11.7956 H   0  0  0  0  0  0
   12.8973   64.7322    4.8026 H   0  0  0  0  0  0
   11.3784   65.5245    6.9728 H   0  0  0  0  0  0
   12.3312   66.0570    8.3424 H   0  0  0  0  0  0
   11.6508   67.2293    7.2321 H   0  0  0  0  0  0
   21.6482   68.0233    5.2831 H   0  0  0  0  0  0
   23.6903   69.6859    6.3964 H   0  0  0  0  0  0
   22.9071   68.3663    7.2320 H   0  0  0  0  0  0
   23.0669   71.2570    8.2283 H   0  0  0  0  0  0
   24.0015   69.9227    8.8099 H   0  0  0  0  0  0
   22.1623   70.3730   10.3896 H   0  0  0  0  0  0
   21.8870   68.7969    9.6523 H   0  0  0  0  0  0
   20.9590   70.1996    9.1235 H   0  0  0  0  0  0
   15.7094   67.1199   13.1120 H   0  0  0  0  0  0
  1 19  1  0  0  0
  1 26  1  0  0  0
  1 27  1  0  0  0
  1  2  1  0  0  0
  2  3  1  0  0  0
  2  6  2  0  0  0
  3  4  1  0  0  0
  3 28  1  0  0  0
  4  5  2  0  0  0
  4 13  1  0  0  0
  5  7  1  0  0  0
  5  6  1  0  0  0
  7  8  2  0  0  0
  7 10  1  0  0  0
  8 12  1  0  0  0
  8 29  1  0  0  0
  9 11  1  0  0  0
  9 10  2  0  0  0
  9 30  1  0  0  0
 10 31  1  0  0  0
 11 12  2  0  0  0
 11 25  1  0  0  0
 12 32  1  0  0  0
 13 14  2  0  0  0
 13 17  1  0  0  0
 14 15  1  0  0  0
 15 16  2  0  0  0
 15 18  1  0  0  0
 16 17  1  0  0  0
 16 33  1  0  0  0
 18 34  1  0  0  0
 18 35  1  0  0  0
 18 36  1  0  0  0
 19 20  1  0  0  0
 19 37  1  0  0  0
 20 21  1  0  0  0
 20 22  2  0  0  0
 21 23  1  0  0  0
 21 38  1  0  0  0
 21 39  1  0  0  0
 23 24  1  0  0  0
 23 40  1  0  0  0
 23 41  1  0  0  0
 24 42  1  0  0  0
 24 43  1  0  0  0
 24 44  1  0  0  0
 25 45  1  0  0  0
M  END
> <s_m_entry_id>
34789

> <s_m_entry_name>
dock_pv.532

> <s_m_Source_Path>
/home/csk/Desktop/cluster/DUD-E-result/tgfr1

> <s_m_Source_File>
dock_pv.maegz

> <i_m_Source_File_Index>
532

> <chembl_id>
CHEMBL1957673

> <chembl_pref_name>
None

> <i_lp_mmshare_version>
53161

> <r_lp_tautomer_probability>
0.49999999999934

> <s_lp_Force_Field>
OPLS_2005

> <r_lp_Energy>
4.807504

> <b_lp_Chiralities_Consistent>
1

> <s_lp_Variant>
CHEMBL4439_lig518-2

> <s_i_glide_gridfile>
glide-grid_3hmm

> <i_i_glide_lignum>
691

> <i_i_glide_rotatable_bonds>
8

> <r_i_docking_score>
-6.91645963033512

> <r_i_glide_ligand_efficiency>
-0.276658385213405

> <r_i_glide_ligand_efficiency_sa>
-0.808954024921349

> <r_i_glide_ligand_efficiency_ln>
-1.63940820195892

> <r_i_glide_gscore>
-6.91645963033512

> <r_i_glide_lipo>
-2.08736165125574

> <r_i_glide_hbond>
-0.685546131543539

> <r_i_glide_metal>
0

> <r_i_glide_rewards>
-1.31176732641498

> <r_i_glide_evdw>
-37.6699409484863

> <r_i_glide_ecoul>
-12.3454236984253

> <r_i_glide_erotb>
0.903526081067248

> <r_i_glide_esite>
0

> <r_i_glide_emodel>
-70.436158431396

> <r_i_glide_energy>
-50.0153646469116

> <r_i_glide_einternal>
3.35114789009094

> <i_i_glide_confnum>
65

> <i_i_glide_posenum>
352

> <r_i_glide_eff_state_penalty>
0

> <s_user_duplicate_titles>
CHEMBL4439_lig518

> <i_f3d_flags>
0

> <s_m_subgroup_title>
dock_pv

> <s_m_subgroupid>
dock_pv

> <b_m_subgroup_collapsed>
1

$$$$
CHEMBL4439_lig967
                    3D
 Schrodinger Suite 2021-1.
 40 43  0  0  1  0            999 V2000
   13.3811   65.6818    5.6633 C   0  0  0  0  0  0
   14.6093   65.5184    5.0271 C   0  0  0  0  0  0
   14.7850   64.4583    4.1258 C   0  0  0  0  0  0
   13.7351   63.6023    3.7845 C   0  0  0  0  0  0
   15.6616   66.5615    5.0750 C   0  0  0  0  0  0
   15.9718   67.1651    3.8900 N   0  0  0  0  0  0
   16.9703   68.0463    4.1196 C   0  0  0  0  0  0
   17.3067   68.0613    5.3836 N   0  0  0  0  0  0
   16.5019   67.2048    6.0145 C   0  0  0  0  0  0
   17.5292   68.6991    3.0473 N   0  0  0  0  0  0
   18.7887   69.1558    2.9835 C   0  0  0  0  0  0
   19.1814   69.6571    1.6111 C   0  0  0  0  0  0
   19.6006   69.1726    3.9075 O   0  0  0  0  0  0
   16.6334   67.0603    7.5081 C   0  0  0  0  0  0
   17.7662   67.5938    8.0601 N   0  0  0  0  0  0
   17.9241   67.5712    9.4070 C   0  0  0  0  0  0
   16.9557   67.0395   10.2603 C   0  0  0  0  0  0
   15.8204   66.4635    9.6951 C   0  0  0  0  0  0
   15.6506   66.4661    8.3072 C   0  0  0  0  0  0
   19.2206   68.1668    9.9289 C   0  0  0  0  0  0
   17.0956   67.0888   11.6047 F   0  0  0  0  0  0
   12.3543   64.8530    5.3047 N   0  0  0  0  0  0
   12.4807   63.8271    4.3674 C   0  0  0  0  0  0
   11.2685   63.2572    4.1909 N   0  0  0  0  0  0
   10.5176   63.9485    5.0262 C   0  0  0  0  0  0
   11.0773   64.9219    5.7156 N   0  0  0  0  0  0
   13.1365   66.5052    6.3177 H   0  0  0  0  0  0
   15.7369   64.3313    3.6299 H   0  0  0  0  0  0
   13.8661   62.8236    3.0486 H   0  0  0  0  0  0
   15.5479   66.9617    2.9973 H   0  0  0  0  0  0
   16.9883   68.7219    2.1968 H   0  0  0  0  0  0
   19.3319   68.8284    0.9213 H   0  0  0  0  0  0
   18.3675   70.2758    1.2324 H   0  0  0  0  0  0
   20.1003   70.2424    1.6400 H   0  0  0  0  0  0
   15.0607   66.0633   10.3489 H   0  0  0  0  0  0
   14.7583   66.0524    7.8690 H   0  0  0  0  0  0
   19.4180   67.8552   10.9557 H   0  0  0  0  0  0
   20.0668   67.8455    9.3199 H   0  0  0  0  0  0
   19.1776   69.2564    9.9034 H   0  0  0  0  0  0
    9.4659   63.7292    5.1396 H   0  0  0  0  0  0
  1 22  1  0  0  0
  1  2  2  0  0  0
  1 27  1  0  0  0
  2  3  1  0  0  0
  2  5  1  0  0  0
  3  4  2  0  0  0
  3 28  1  0  0  0
  4 23  1  0  0  0
  4 29  1  0  0  0
  5  9  2  0  0  0
  5  6  1  0  0  0
  6  7  1  0  0  0
  6 30  1  0  0  0
  7  8  2  0  0  0
  7 10  1  0  0  0
  8  9  1  0  0  0
  9 14  1  0  0  0
 10 11  1  0  0  0
 10 31  1  0  0  0
 11 12  1  0  0  0
 11 13  2  0  0  0
 12 32  1  0  0  0
 12 33  1  0  0  0
 12 34  1  0  0  0
 14 15  2  0  0  0
 14 19  1  0  0  0
 15 16  1  0  0  0
 16 17  2  0  0  0
 16 20  1  0  0  0
 17 18  1  0  0  0
 17 21  1  0  0  0
 18 19  2  0  0  0
 18 35  1  0  0  0
 19 36  1  0  0  0
 20 37  1  0  0  0
 20 38  1  0  0  0
 20 39  1  0  0  0
 22 23  1  0  0  0
 22 26  1  0  0  0
 23 24  2  0  0  0
 24 25  1  0  0  0
 25 26  2  0  0  0
 25 40  1  0  0  0
M  END
> <s_m_entry_id>
34791

> <s_m_entry_name>
dock_pv.534

> <s_m_Source_Path>
/home/csk/Desktop/cluster/DUD-E-result/tgfr1

> <s_m_Source_File>
dock_pv.maegz

> <i_m_Source_File_Index>
534

> <chembl_id>
CHEMBL517068

> <chembl_pref_name>
None

> <i_lp_mmshare_version>
53161

> <r_lp_tautomer_probability>
0.501079232216438

> <s_lp_Force_Field>
OPLS_2005

> <r_lp_Energy>
18.936701

> <b_lp_Chiralities_Consistent>
1

> <s_lp_Variant>
CHEMBL4439_lig967-1

> <s_i_glide_gridfile>
glide-grid_3hmm

> <i_i_glide_lignum>
1316

> <i_i_glide_rotatable_bonds>
4

> <r_i_docking_score>
-6.8989687911114

> <r_i_glide_ligand_efficiency>
-0.265344953504284

> <r_i_glide_ligand_efficiency_sa>
-0.786083380674467

> <r_i_glide_ligand_efficiency_ln>
-1.62020018322952

> <r_i_glide_gscore>
-6.8989687911114

> <r_i_glide_lipo>
-2.13846359851534

> <r_i_glide_hbond>
0

> <r_i_glide_metal>
0

> <r_i_glide_rewards>
-2.87708717863302

> <r_i_glide_evdw>
-49.7492752075195

> <r_i_glide_ecoul>
0.936892688274384

> <r_i_glide_erotb>
0.46351184317179

> <r_i_glide_esite>
0

> <r_i_glide_emodel>
-47.6796379059153

> <r_i_glide_energy>
-48.8123825192451

> <r_i_glide_einternal>
4.80158567428589

> <i_i_glide_confnum>
3

> <i_i_glide_posenum>
2

> <r_i_glide_eff_state_penalty>
0

> <s_user_duplicate_titles>
CHEMBL4439_lig967,CHEMBL4439_lig967,473891

> <i_f3d_flags>
0

> <s_m_subgroup_title>
dock_pv

> <s_m_subgroupid>
dock_pv

> <b_m_subgroup_collapsed>
1

$$$$
CHEMBL4439_lig189
                    3D
 Schrodinger Suite 2021-1.
 45 48  0  0  1  0            999 V2000
   15.7611   66.7349    5.2207 C   0  0  0  0  0  0
   16.5978   67.2721    6.2202 C   0  0  0  0  0  0
   17.4815   68.0875    5.6650 N   0  0  0  0  0  0
   17.2655   68.1349    4.3821 C   0  0  0  0  0  0
   16.2336   67.2987    4.0560 N   0  0  0  0  0  0
   14.5806   65.8234    5.2202 C   0  0  0  0  0  0
   13.5041   66.0652    6.0786 C   0  0  0  0  0  0
   12.3756   65.2505    6.0346 C   0  0  0  0  0  0
   12.3310   64.1819    5.1428 C   0  0  0  0  0  0
   13.4037   63.9249    4.2924 C   0  0  0  0  0  0
   14.5256   64.7504    4.3250 C   0  0  0  0  0  0
   16.6498   67.0737    7.7170 C   0  0  0  0  0  0
   15.8804   66.1266    8.4033 C   0  0  0  0  0  0
   16.0220   66.0667    9.7939 C   0  0  0  0  0  0
   16.8833   66.8560   10.4776 N   0  0  0  0  0  0
   17.6353   67.7060    9.7301 C   0  0  0  0  0  0
   17.5404   67.8641    8.3894 N   0  0  0  0  0  0
   11.2406   63.3846    5.1066 F   0  0  0  0  0  0
   17.9588   69.0888    3.4038 C   0  0  0  0  0  0
   19.4638   69.3642    3.5827 C   0  0  0  0  0  0
   20.0908   69.3872    4.8400 C   0  0  0  0  0  0
   21.4669   69.5612    4.9510 C   0  0  0  0  0  0
   22.2455   69.7076    3.8086 C   0  0  0  0  0  0
   21.6352   69.7699    2.5552 C   0  0  0  0  0  0
   20.2426   69.6570    2.4494 C   0  0  0  0  0  0
   22.4593   69.9351    1.3708 C   0  0  0  0  0  0
   23.1205   70.0566    0.4321 N   0  0  0  0  0  0
   18.6276   68.4554   10.3267 O   0  0  0  0  0  0
   18.8267   68.3585   11.7338 C   0  0  0  0  0  0
   15.8392   67.1727    3.1351 H   0  0  0  0  0  0
   13.5298   66.9033    6.7597 H   0  0  0  0  0  0
   11.5350   65.4416    6.6873 H   0  0  0  0  0  0
   13.3568   63.0976    3.5990 H   0  0  0  0  0  0
   15.3480   64.5515    3.6530 H   0  0  0  0  0  0
   15.2211   65.4584    7.8798 H   0  0  0  0  0  0
   15.4658   65.3671   10.3969 H   0  0  0  0  0  0
   17.4631   70.0568    3.4421 H   0  0  0  0  0  0
   17.7993   68.7360    2.3839 H   0  0  0  0  0  0
   19.5472   69.2680    5.7605 H   0  0  0  0  0  0
   21.9410   69.5448    5.9221 H   0  0  0  0  0  0
   23.3188   69.7983    3.9151 H   0  0  0  0  0  0
   19.7733   69.6981    1.4754 H   0  0  0  0  0  0
   19.6452   69.0151   12.0280 H   0  0  0  0  0  0
   17.9363   68.6709   12.2814 H   0  0  0  0  0  0
   19.0906   67.3417   12.0299 H   0  0  0  0  0  0
  1  2  2  0  0  0
  1  6  1  0  0  0
  1  5  1  0  0  0
  2 12  1  0  0  0
  2  3  1  0  0  0
  3  4  2  0  0  0
  4  5  1  0  0  0
  4 19  1  0  0  0
  5 30  1  0  0  0
  6 11  1  0  0  0
  6  7  2  0  0  0
  7  8  1  0  0  0
  7 31  1  0  0  0
  8  9  2  0  0  0
  8 32  1  0  0  0
  9 18  1  0  0  0
  9 10  1  0  0  0
 10 11  2  0  0  0
 10 33  1  0  0  0
 11 34  1  0  0  0
 12 17  1  0  0  0
 12 13  2  0  0  0
 13 14  1  0  0  0
 13 35  1  0  0  0
 14 15  2  0  0  0
 14 36  1  0  0  0
 15 16  1  0  0  0
 16 17  2  0  0  0
 16 28  1  0  0  0
 19 20  1  0  0  0
 19 37  1  0  0  0
 19 38  1  0  0  0
 20 21  2  0  0  0
 20 25  1  0  0  0
 21 22  1  0  0  0
 21 39  1  0  0  0
 22 23  2  0  0  0
 22 40  1  0  0  0
 23 24  1  0  0  0
 23 41  1  0  0  0
 24 25  2  0  0  0
 24 26  1  0  0  0
 25 42  1  0  0  0
 26 27  3  0  0  0
 28 29  1  0  0  0
 29 43  1  0  0  0
 29 44  1  0  0  0
 29 45  1  0  0  0
M  END
> <s_m_entry_id>
34792

> <s_m_entry_name>
dock_pv.535

> <s_m_Source_Path>
/home/csk/Desktop/cluster/DUD-E-result/tgfr1

> <s_m_Source_File>
dock_pv.maegz

> <i_m_Source_File_Index>
535

> <chembl_id>
CHEMBL480787

> <chembl_pref_name>
None

> <i_lp_mmshare_version>
53161

> <r_lp_tautomer_probability>
0.499999999999999

> <s_lp_Force_Field>
OPLS_2005

> <r_lp_Energy>
18.171246

> <b_lp_Chiralities_Consistent>
1

> <s_lp_Variant>
CHEMBL4439_lig189-2

> <s_i_glide_gridfile>
glide-grid_3hmm

> <i_i_glide_lignum>
286

> <i_i_glide_rotatable_bonds>
5

> <r_i_docking_score>
-6.89584789234515

> <r_i_glide_ligand_efficiency>
-0.237787858356729

> <r_i_glide_ligand_efficiency_sa>
-0.730559637353179

> <r_i_glide_ligand_efficiency_ln>
-1.57897430373213

> <r_i_glide_gscore>
-6.89584789234515

> <r_i_glide_lipo>
-2.65761180832788

> <r_i_glide_hbond>
-0.220217744734962

> <r_i_glide_metal>
0

> <r_i_glide_rewards>
-2.18189821528262

> <r_i_glide_evdw>
-48.451488494873

> <r_i_glide_ecoul>
0.417198807001114

> <r_i_glide_erotb>
0.523874479693801

> <r_i_glide_esite>
0

> <r_i_glide_emodel>
-63.1712897287761

> <r_i_glide_energy>
-48.0342896878719

> <r_i_glide_einternal>
10.4381799697876

> <i_i_glide_confnum>
5

> <i_i_glide_posenum>
32

> <r_i_glide_eff_state_penalty>
0

> <s_user_duplicate_titles>
CHEMBL4439_lig189

> <i_f3d_flags>
0

> <s_m_subgroup_title>
dock_pv

> <s_m_subgroupid>
dock_pv

> <b_m_subgroup_collapsed>
1

$$$$
CHEMBL4439_lig540
                    3D
 Schrodinger Suite 2021-1.
 53 57  0  0  1  0            999 V2000
   21.3168   67.6579   10.0403 C   0  0  0  0  0  0
   22.0447   68.7417    9.5529 C   0  0  0  0  0  0
   21.4749   69.5215    8.5473 C   0  0  0  0  0  0
   20.2329   69.2864    8.0483 N   0  0  0  0  0  0
   19.5556   68.1865    8.4770 C   0  0  0  0  0  0
   20.0675   67.3626    9.4898 C   0  0  0  0  0  0
   18.2343   67.9056    7.8128 C   0  0  0  0  0  0
   19.9554   68.5733    5.1368 C   0  0  0  0  0  0
   18.5581   68.5315    5.1953 C   0  0  0  0  0  0
   17.8435   68.8568    4.0232 C   0  0  0  0  0  0
   18.4722   69.2315    2.8348 C   0  0  0  0  0  0
   20.5583   69.0226    3.9996 N   0  0  0  0  0  0
   19.8670   69.3238    2.8315 C   0  0  0  0  0  0
   20.7665   69.6651    1.8772 N   0  0  0  0  0  0
   21.8991   69.6570    2.5532 C   0  0  0  0  0  0
   21.8673   69.2586    3.8099 N   0  0  0  0  0  0
   17.8418   68.1253    6.4631 C   0  0  0  0  0  0
   17.2924   67.3535    8.5703 N   0  0  0  0  0  0
   16.1524   67.1906    7.9605 C   0  0  0  0  0  0
   16.1180   67.8464    6.3767 S   0  0  0  0  0  0
   22.2630   70.6436    7.9041 C   0  0  0  0  0  0
   15.0666   66.5581    8.5143 N   0  0  0  0  0  0
   13.6880   66.5020    8.0144 C   0  0  0  0  0  0
   13.3998   65.6570    6.7587 C   0  0  0  0  0  0
   14.3969   65.1486    5.9106 C   0  0  0  0  0  0
   14.0656   64.4793    4.7312 C   0  0  0  0  0  0
   12.7304   64.2041    4.4444 C   0  0  0  0  0  0
   11.7241   64.6519    5.2987 C   0  0  0  0  0  0
   12.0614   65.4004    6.4319 C   0  0  0  0  0  0
   10.2736   64.3376    4.9860 C   0  0  0  0  0  0
   15.1462   64.1203    3.7303 C   0  0  0  0  0  0
   21.7282   67.0388   10.8241 H   0  0  0  0  0  0
   23.0317   68.9607    9.9330 H   0  0  0  0  0  0
   19.5137   66.5029    9.8402 H   0  0  0  0  0  0
   20.6284   68.2829    5.9240 H   0  0  0  0  0  0
   16.7650   68.8306    4.0045 H   0  0  0  0  0  0
   17.9046   69.4730    1.9495 H   0  0  0  0  0  0
   22.8328   69.9287    2.0803 H   0  0  0  0  0  0
   22.7103   71.2855    8.6647 H   0  0  0  0  0  0
   23.0692   70.2297    7.2972 H   0  0  0  0  0  0
   21.6417   71.2547    7.2482 H   0  0  0  0  0  0
   15.0991   66.4568    9.5190 H   0  0  0  0  0  0
   13.3613   67.5252    7.8478 H   0  0  0  0  0  0
   13.0561   66.1322    8.8207 H   0  0  0  0  0  0
   15.4420   65.2805    6.1356 H   0  0  0  0  0  0
   12.4742   63.6743    3.5372 H   0  0  0  0  0  0
   11.2724   65.7674    7.0741 H   0  0  0  0  0  0
    9.7113   65.2597    4.8314 H   0  0  0  0  0  0
   10.1702   63.7155    4.0963 H   0  0  0  0  0  0
    9.8246   63.8027    5.8228 H   0  0  0  0  0  0
   14.7210   63.9381    2.7438 H   0  0  0  0  0  0
   15.7275   63.2554    4.0319 H   0  0  0  0  0  0
   15.8410   64.9544    3.6338 H   0  0  0  0  0  0
  1  6  1  0  0  0
  1  2  2  0  0  0
  1 32  1  0  0  0
  2  3  1  0  0  0
  2 33  1  0  0  0
  3 21  1  0  0  0
  3  4  2  0  0  0
  4  5  1  0  0  0
  5  6  2  0  0  0
  5  7  1  0  0  0
  6 34  1  0  0  0
  7 17  2  0  0  0
  7 18  1  0  0  0
  8 12  1  0  0  0
  8  9  2  0  0  0
  8 35  1  0  0  0
  9 17  1  0  0  0
  9 10  1  0  0  0
 10 11  2  0  0  0
 10 36  1  0  0  0
 11 13  1  0  0  0
 11 37  1  0  0  0
 12 16  1  0  0  0
 12 13  1  0  0  0
 13 14  2  0  0  0
 14 15  1  0  0  0
 15 16  2  0  0  0
 15 38  1  0  0  0
 17 20  1  0  0  0
 18 19  2  0  0  0
 19 20  1  0  0  0
 19 22  1  0  0  0
 21 39  1  0  0  0
 21 40  1  0  0  0
 21 41  1  0  0  0
 22 23  1  0  0  0
 22 42  1  0  0  0
 23 24  1  0  0  0
 23 43  1  0  0  0
 23 44  1  0  0  0
 24 25  2  0  0  0
 24 29  1  0  0  0
 25 26  1  0  0  0
 25 45  1  0  0  0
 26 27  2  0  0  0
 26 31  1  0  0  0
 27 28  1  0  0  0
 27 46  1  0  0  0
 28 29  2  0  0  0
 28 30  1  0  0  0
 29 47  1  0  0  0
 30 48  1  0  0  0
 30 49  1  0  0  0
 30 50  1  0  0  0
 31 51  1  0  0  0
 31 52  1  0  0  0
 31 53  1  0  0  0
M  END
> <s_m_entry_id>
34793

> <s_m_entry_name>
dock_pv.536

> <s_m_Source_Path>
/home/csk/Desktop/cluster/DUD-E-result/tgfr1

> <s_m_Source_File>
dock_pv.maegz

> <i_m_Source_File_Index>
536

> <chembl_id>
CHEMBL2088215

> <chembl_pref_name>
None

> <i_lp_mmshare_version>
53161

> <r_lp_tautomer_probability>
1

> <s_lp_Force_Field>
OPLS_2005

> <r_lp_Energy>
11.812733

> <b_lp_Chiralities_Consistent>
1

> <s_lp_Variant>
CHEMBL4439_lig540-1

> <s_i_glide_gridfile>
glide-grid_3hmm

> <i_i_glide_lignum>
719

> <i_i_glide_rotatable_bonds>
5

> <r_i_docking_score>
-6.89267595367607

> <r_i_glide_ligand_efficiency>
-0.222344385602454

> <r_i_glide_ligand_efficiency_sa>
-0.698468350299889

> <r_i_glide_ligand_efficiency_ln>
-1.55450966270355

> <r_i_glide_gscore>
-6.89267595367607

> <r_i_glide_lipo>
-3.91610564886493

> <r_i_glide_hbond>
0

> <r_i_glide_metal>
0

> <r_i_glide_rewards>
-1.18009783786519

> <r_i_glide_evdw>
-50.4967002868652

> <r_i_glide_ecoul>
1.54973268508911

> <r_i_glide_erotb>
0.545442821870997

> <r_i_glide_esite>
-0.0495401772370432

> <r_i_glide_emodel>
-67.0852869213255

> <r_i_glide_energy>
-48.9469676017761

> <r_i_glide_einternal>
4.34943246841431

> <i_i_glide_confnum>
165

> <i_i_glide_posenum>
13

> <r_i_glide_eff_state_penalty>
0

> <s_user_duplicate_titles>
CHEMBL4439_lig540

> <i_f3d_flags>
0

> <s_m_subgroup_title>
dock_pv

> <s_m_subgroupid>
dock_pv

> <b_m_subgroup_collapsed>
1

$$$$
CHEMBL4439_lig80
                    3D
 Schrodinger Suite 2021-1.
 31 34  0  0  1  0            999 V2000
   15.5946   66.7567    6.9991 C   0  0  0  0  0  0
   16.5977   67.4553    6.2834 C   0  0  0  0  0  0
   17.6261   67.8393    7.0267 N   0  0  0  0  0  0
   14.2675   66.1676    6.6120 C   0  0  0  0  0  0
   11.6679   65.1574    6.0757 N   0  0  0  0  0  0
   11.9021   66.0569    7.0555 C   0  0  0  0  0  0
   13.1604   66.5465    7.3700 C   0  0  0  0  0  0
   16.1017   66.6107    8.6704 S   0  0  0  0  0  0
   17.5240   67.4933    8.2788 C   0  0  0  0  0  0
   12.7209   64.7449    5.3280 C   0  0  0  0  0  0
   14.0451   65.2512    5.5352 C   0  0  0  0  0  0
   15.0658   64.8144    4.6631 C   0  0  0  0  0  0
   14.7840   63.9296    3.6320 C   0  0  0  0  0  0
   13.5141   63.3853    3.4804 C   0  0  0  0  0  0
   12.4797   63.7819    4.3202 C   0  0  0  0  0  0
   18.4487   67.7717    9.2413 N   0  0  0  0  0  0
   16.5986   67.8047    4.8442 C   0  0  0  0  0  0
   17.9977   68.4568    4.0195 S   0  0  0  0  0  0
   17.0657   68.5262    2.5605 C   0  0  0  0  0  0
   15.7860   68.0572    2.8318 C   0  0  0  0  0  0
   15.5546   67.6574    4.0635 N   0  0  0  0  0  0
   11.0416   66.3538    7.6317 H   0  0  0  0  0  0
   13.2668   67.2487    8.1846 H   0  0  0  0  0  0
   16.0619   65.2049    4.7802 H   0  0  0  0  0  0
   15.5741   63.6554    2.9510 H   0  0  0  0  0  0
   13.3224   62.6828    2.6814 H   0  0  0  0  0  0
   11.4819   63.3923    4.1772 H   0  0  0  0  0  0
   19.2793   68.3059    9.0307 H   0  0  0  0  0  0
   18.3131   67.5101   10.2074 H   0  0  0  0  0  0
   17.4794   68.9015    1.6363 H   0  0  0  0  0  0
   14.9844   67.9990    2.1086 H   0  0  0  0  0  0
  1  4  1  0  0  0
  1  8  1  0  0  0
  1  2  2  0  0  0
  2  3  1  0  0  0
  2 17  1  0  0  0
  3  9  2  0  0  0
  4 11  2  0  0  0
  4  7  1  0  0  0
  5 10  2  0  0  0
  5  6  1  0  0  0
  6  7  2  0  0  0
  6 22  1  0  0  0
  7 23  1  0  0  0
  8  9  1  0  0  0
  9 16  1  0  0  0
 10 11  1  0  0  0
 10 15  1  0  0  0
 11 12  1  0  0  0
 12 13  2  0  0  0
 12 24  1  0  0  0
 13 14  1  0  0  0
 13 25  1  0  0  0
 14 15  2  0  0  0
 14 26  1  0  0  0
 15 27  1  0  0  0
 16 28  1  0  0  0
 16 29  1  0  0  0
 17 18  1  0  0  0
 17 21  2  0  0  0
 18 19  1  0  0  0
 19 20  2  0  0  0
 19 30  1  0  0  0
 20 21  1  0  0  0
 20 31  1  0  0  0
M  END
> <s_m_entry_id>
34797

> <s_m_entry_name>
dock_pv.540

> <s_m_Source_Path>
/home/csk/Desktop/cluster/DUD-E-result/tgfr1

> <s_m_Source_File>
dock_pv.maegz

> <i_m_Source_File_Index>
540

> <chembl_id>
CHEMBL362710

> <chembl_pref_name>
None

> <i_lp_mmshare_version>
53161

> <r_lp_tautomer_probability>
1

> <s_lp_Force_Field>
OPLS_2005

> <r_lp_Energy>
14.302056

> <b_lp_Chiralities_Consistent>
1

> <s_lp_Variant>
CHEMBL4439_lig80-1

> <s_i_glide_gridfile>
glide-grid_3hmm

> <i_i_glide_lignum>
117

> <i_i_glide_rotatable_bonds>
2

> <r_i_docking_score>
-6.88259436319303

> <r_i_glide_ligand_efficiency>
-0.327742588723478

> <r_i_glide_ligand_efficiency_sa>
-0.904216950741301

> <r_i_glide_ligand_efficiency_ln>
-1.70170754870805

> <r_i_glide_gscore>
-6.88259436319303

> <r_i_glide_lipo>
-3.57906138878439

> <r_i_glide_hbond>
0

> <r_i_glide_metal>
0

> <r_i_glide_rewards>
-1.66922649459961

> <r_i_glide_evdw>
-41.3351821899414

> <r_i_glide_ecoul>
0.318657785654068

> <r_i_glide_erotb>
0.384653961839925

> <r_i_glide_esite>
0

> <r_i_glide_emodel>
-57.4068826214368

> <r_i_glide_energy>
-41.0165244042873

> <r_i_glide_einternal>
0.286561995744705

> <i_i_glide_confnum>
4

> <i_i_glide_posenum>
378

> <r_i_glide_eff_state_penalty>
0

> <s_user_duplicate_titles>
CHEMBL4439_lig80

> <i_f3d_flags>
0

> <s_m_subgroup_title>
dock_pv

> <s_m_subgroupid>
dock_pv

> <b_m_subgroup_collapsed>
1

$$$$
CHEMBL4439_lig278
                    3D
 Schrodinger Suite 2021-1.
 55 59  0  0  1  0            999 V2000
   16.6319   67.5438    8.6238 C   0  0  0  0  0  0
   15.3970   67.0475    8.6877 N   0  0  0  0  0  0
   14.9201   67.0596    7.4775 C   0  0  0  0  0  0
   15.8156   67.5749    6.5998 N   0  0  0  0  0  0
   16.9675   67.8795    7.2764 C   0  0  0  0  0  0
   13.5857   66.5305    7.0359 C   0  0  0  0  0  0
   13.7470   65.2571    6.3489 N   0  0  0  0  0  0
   12.6991   64.7047    5.5993 C   0  0  0  0  0  0
   12.9524   63.5637    4.8416 C   0  0  0  0  0  0
   11.9629   62.9699    4.0798 C   0  0  0  0  0  0
   10.7165   63.5701    3.9948 C   0  0  0  0  0  0
   10.5024   64.7941    4.6092 C   0  0  0  0  0  0
   11.4336   65.2838    5.5175 C   0  0  0  0  0  0
    9.4468   65.6572    4.1211 C   0  0  0  0  0  0
    8.6672   66.4569    3.6317 C   0  0  0  0  0  0
   17.3871   67.6291    9.9288 C   0  0  0  0  0  0
   16.7239   67.6487   11.1674 C   0  0  0  0  0  0
   17.4654   67.7659   12.3440 C   0  0  0  0  0  0
   18.8525   67.8801   12.2690 C   0  0  0  0  0  0
   19.4523   67.8465   11.0083 C   0  0  0  0  0  0
   18.7406   67.6849    9.8628 N   0  0  0  0  0  0
   18.1482   68.4165    6.5044 C   0  0  0  0  0  0
   18.1604   68.3173    5.1007 C   0  0  0  0  0  0
   19.2373   68.7551    4.3338 C   0  0  0  0  0  0
   19.2435   69.0111    7.1310 C   0  0  0  0  0  0
   20.3932   69.3641    6.3969 C   0  0  0  0  0  0
   20.3829   69.2655    4.9728 C   0  0  0  0  0  0
   21.4635   69.6522    4.2358 N   0  0  0  0  0  0
   22.5630   70.0565    4.9208 C   0  0  0  0  0  0
   22.5966   70.0572    6.3143 C   0  0  0  0  0  0
   21.5062   69.7725    7.0632 N   0  0  0  0  0  0
   20.9529   68.0218   10.8435 C   0  0  0  0  0  0
   21.3641   69.4973   10.7243 C   0  0  0  0  0  0
   15.6688   67.6779    5.6069 H   0  0  0  0  0  0
   13.1087   67.2556    6.3758 H   0  0  0  0  0  0
   12.9126   66.3983    7.8850 H   0  0  0  0  0  0
   14.6816   65.0236    6.0416 H   0  0  0  0  0  0
   13.9051   63.0968    4.8316 H   0  0  0  0  0  0
   12.1814   62.0647    3.5357 H   0  0  0  0  0  0
    9.9895   63.1581    3.3081 H   0  0  0  0  0  0
   11.2139   66.1954    6.0475 H   0  0  0  0  0  0
    8.0440   67.2107    3.2261 H   0  0  0  0  0  0
   15.6475   67.5923   11.2282 H   0  0  0  0  0  0
   16.9575   67.7830   13.2966 H   0  0  0  0  0  0
   19.4480   67.9948   13.1620 H   0  0  0  0  0  0
   17.3273   67.8807    4.5701 H   0  0  0  0  0  0
   19.2227   68.6705    3.2566 H   0  0  0  0  0  0
   19.2574   69.2061    8.1860 H   0  0  0  0  0  0
   23.4318   70.3425    4.3456 H   0  0  0  0  0  0
   23.4829   70.3713    6.8465 H   0  0  0  0  0  0
   21.4630   67.5613   11.6897 H   0  0  0  0  0  0
   21.2901   67.4690    9.9654 H   0  0  0  0  0  0
   22.4398   69.5939   10.5784 H   0  0  0  0  0  0
   20.8738   69.9798    9.8798 H   0  0  0  0  0  0
   21.0989   70.0563   11.6211 H   0  0  0  0  0  0
  1 16  1  0  0  0
  1  5  2  0  0  0
  1  2  1  0  0  0
  2  3  2  0  0  0
  3  4  1  0  0  0
  3  6  1  0  0  0
  4  5  1  0  0  0
  4 34  1  0  0  0
  5 22  1  0  0  0
  6  7  1  0  0  0
  6 35  1  0  0  0
  6 36  1  0  0  0
  7  8  1  0  0  0
  7 37  1  0  0  0
  8  9  2  0  0  0
  8 13  1  0  0  0
  9 10  1  0  0  0
  9 38  1  0  0  0
 10 11  2  0  0  0
 10 39  1  0  0  0
 11 12  1  0  0  0
 11 40  1  0  0  0
 12 13  2  0  0  0
 12 14  1  0  0  0
 13 41  1  0  0  0
 14 15  3  0  0  0
 15 42  1  0  0  0
 16 17  2  0  0  0
 16 21  1  0  0  0
 17 18  1  0  0  0
 17 43  1  0  0  0
 18 19  2  0  0  0
 18 44  1  0  0  0
 19 20  1  0  0  0
 19 45  1  0  0  0
 20 21  2  0  0  0
 20 32  1  0  0  0
 22 23  1  0  0  0
 22 25  2  0  0  0
 23 24  2  0  0  0
 23 46  1  0  0  0
 24 27  1  0  0  0
 24 47  1  0  0  0
 25 26  1  0  0  0
 25 48  1  0  0  0
 26 27  2  0  0  0
 26 31  1  0  0  0
 27 28  1  0  0  0
 28 29  2  0  0  0
 29 30  1  0  0  0
 29 49  1  0  0  0
 30 31  2  0  0  0
 30 50  1  0  0  0
 32 33  1  0  0  0
 32 51  1  0  0  0
 32 52  1  0  0  0
 33 53  1  0  0  0
 33 54  1  0  0  0
 33 55  1  0  0  0
M  END
> <s_m_entry_id>
34799

> <s_m_entry_name>
dock_pv.542

> <s_m_Source_Path>
/home/csk/Desktop/cluster/DUD-E-result/tgfr1

> <s_m_Source_File>
dock_pv.maegz

> <i_m_Source_File_Index>
542

> <chembl_id>
CHEMBL3707019

> <chembl_pref_name>
None

> <i_lp_mmshare_version>
53161

> <r_lp_tautomer_probability>
0.499999999999999

> <s_lp_Force_Field>
OPLS_2005

> <r_lp_Energy>
24.267415

> <b_lp_Chiralities_Consistent>
1

> <s_lp_Variant>
CHEMBL4439_lig278-2

> <s_i_glide_gridfile>
glide-grid_3hmm

> <i_i_glide_lignum>
393

> <i_i_glide_rotatable_bonds>
7

> <r_i_docking_score>
-6.87777447188097

> <r_i_glide_ligand_efficiency>
-0.208417408238817

> <r_i_glide_ligand_efficiency_sa>
-0.668505991115616

> <r_i_glide_ligand_efficiency_ln>
-1.52958143133598

> <r_i_glide_gscore>
-6.87777447188097

> <r_i_glide_lipo>
-3.97518270731466

> <r_i_glide_hbond>
0

> <r_i_glide_metal>
0

> <r_i_glide_rewards>
-0.858420569949036

> <r_i_glide_evdw>
-47.6628379821777

> <r_i_glide_ecoul>
-2.03121614456177

> <r_i_glide_erotb>
0.643653126175884

> <r_i_glide_esite>
0

> <r_i_glide_emodel>
-69.5791619109073

> <r_i_glide_energy>
-49.6940541267395

> <r_i_glide_einternal>
5.34622001647949

> <i_i_glide_confnum>
22

> <i_i_glide_posenum>
205

> <r_i_glide_eff_state_penalty>
0

> <s_user_duplicate_titles>
CHEMBL4439_lig278

> <i_f3d_flags>
0

> <s_m_subgroup_title>
dock_pv

> <s_m_subgroupid>
dock_pv

> <b_m_subgroup_collapsed>
1

$$$$
CHEMBL4439_lig639
                    3D
 Schrodinger Suite 2021-1.
 48 52  0  0  1  0            999 V2000
   19.0568   67.7215   10.1478 C   0  0  0  0  0  0
   17.9524   67.8375    9.2956 C   0  0  0  0  0  0
   16.6684   67.7828    9.8561 C   0  0  0  0  0  0
   16.4700   67.6571   11.2318 C   0  0  0  0  0  0
   18.8506   67.6826   11.4986 N   0  0  0  0  0  0
   17.5864   67.6491   12.0826 C   0  0  0  0  0  0
   17.7381   67.5968   13.4311 N   0  0  0  0  0  0
   19.0528   67.5948   13.5556 C   0  0  0  0  0  0
   19.7878   67.6828   12.4673 N   0  0  0  0  0  0
   18.1075   68.0495    7.8171 C   0  0  0  0  0  0
   19.1629   68.6467    7.0995 C   0  0  0  0  0  0
   18.7418   68.5766    5.7976 N   0  0  0  0  0  0
   17.5119   67.9885    5.7841 C   0  0  0  0  0  0
   17.1389   67.6579    6.9929 N   0  0  0  0  0  0
   20.4809   69.2489    7.4570 C   0  0  0  0  0  0
   21.5633   69.1770    6.5770 C   0  0  0  0  0  0
   22.8046   69.6571    6.9937 C   0  0  0  0  0  0
   22.9339   70.2222    8.2617 C   0  0  0  0  0  0
   21.8012   70.2949    9.0711 C   0  0  0  0  0  0
   20.5897   69.8231    8.6828 N   0  0  0  0  0  0
   21.8526   70.9245   10.4438 C   0  0  0  0  0  0
   16.7161   67.8085    4.5052 C   0  0  0  0  0  0
   16.2669   66.4552    4.2230 N   0  0  0  0  0  0
   15.0699   65.9178    4.7262 C   0  0  0  0  0  0
   14.5773   64.7723    4.0991 C   0  0  0  0  0  0
   13.3554   64.2192    4.4790 C   0  0  0  0  0  0
   12.6286   64.7868    5.5318 C   0  0  0  0  0  0
   13.1313   65.9102    6.1887 C   0  0  0  0  0  0
   14.3367   66.4831    5.7787 C   0  0  0  0  0  0
   12.7568   62.8569    3.6056 Cl  0  0  0  0  0  0
   11.1113   64.1243    6.0322 Cl  0  0  0  0  0  0
   20.0844   67.7020    9.8232 H   0  0  0  0  0  0
   15.7986   67.8593    9.2189 H   0  0  0  0  0  0
   15.4685   67.6328   11.6319 H   0  0  0  0  0  0
   19.5231   67.5261   14.5260 H   0  0  0  0  0  0
   19.2466   68.9197    4.9936 H   0  0  0  0  0  0
   21.4682   68.7146    5.6058 H   0  0  0  0  0  0
   23.6608   69.5982    6.3367 H   0  0  0  0  0  0
   23.8852   70.6225    8.5841 H   0  0  0  0  0  0
   22.7999   71.4376   10.6134 H   0  0  0  0  0  0
   21.0535   71.6569   10.5437 H   0  0  0  0  0  0
   21.7233   70.1653   11.2157 H   0  0  0  0  0  0
   17.3402   68.1084    3.6618 H   0  0  0  0  0  0
   15.8513   68.4570    4.4744 H   0  0  0  0  0  0
   16.5792   66.0721    3.3431 H   0  0  0  0  0  0
   15.1187   64.3218    3.2801 H   0  0  0  0  0  0
   12.5672   66.3579    6.9938 H   0  0  0  0  0  0
   14.6765   67.3788    6.2726 H   0  0  0  0  0  0
  1  5  1  0  0  0
  1  2  2  0  0  0
  1 32  1  0  0  0
  2  3  1  0  0  0
  2 10  1  0  0  0
  3  4  2  0  0  0
  3 33  1  0  0  0
  4  6  1  0  0  0
  4 34  1  0  0  0
  5  6  1  0  0  0
  5  9  1  0  0  0
  6  7  2  0  0  0
  7  8  1  0  0  0
  8  9  2  0  0  0
  8 35  1  0  0  0
 10 11  2  0  0  0
 10 14  1  0  0  0
 11 12  1  0  0  0
 11 15  1  0  0  0
 12 13  1  0  0  0
 12 36  1  0  0  0
 13 14  2  0  0  0
 13 22  1  0  0  0
 15 16  2  0  0  0
 15 20  1  0  0  0
 16 17  1  0  0  0
 16 37  1  0  0  0
 17 18  2  0  0  0
 17 38  1  0  0  0
 18 19  1  0  0  0
 18 39  1  0  0  0
 19 20  2  0  0  0
 19 21  1  0  0  0
 21 40  1  0  0  0
 21 41  1  0  0  0
 21 42  1  0  0  0
 22 23  1  0  0  0
 22 43  1  0  0  0
 22 44  1  0  0  0
 23 24  1  0  0  0
 23 45  1  0  0  0
 24 25  2  0  0  0
 24 29  1  0  0  0
 25 26  1  0  0  0
 25 46  1  0  0  0
 26 27  2  0  0  0
 26 30  1  0  0  0
 27 28  1  0  0  0
 27 31  1  0  0  0
 28 29  2  0  0  0
 28 47  1  0  0  0
 29 48  1  0  0  0
M  END
> <s_m_entry_id>
34800

> <s_m_entry_name>
dock_pv.543

> <s_m_Source_Path>
/home/csk/Desktop/cluster/DUD-E-result/tgfr1

> <s_m_Source_File>
dock_pv.maegz

> <i_m_Source_File_Index>
543

> <chembl_id>
CHEMBL3260620

> <chembl_pref_name>
None

> <i_lp_mmshare_version>
53161

> <r_lp_tautomer_probability>
0.499999999999999

> <s_lp_Force_Field>
OPLS_2005

> <r_lp_Energy>
15.045284

> <b_lp_Chiralities_Consistent>
1

> <s_lp_Variant>
CHEMBL4439_lig639-1

> <s_i_glide_gridfile>
glide-grid_3hmm

> <i_i_glide_lignum>
866

> <i_i_glide_rotatable_bonds>
5

> <r_i_docking_score>
-6.87719998221901

> <r_i_glide_ligand_efficiency>
-0.221845160716742

> <r_i_glide_ligand_efficiency_sa>
-0.696900094904518

> <r_i_glide_ligand_efficiency_ln>
-1.55101935685842

> <r_i_glide_gscore>
-6.87719998221901

> <r_i_glide_lipo>
-3.32056573291822

> <r_i_glide_hbond>
0

> <r_i_glide_metal>
0

> <r_i_glide_rewards>
-1.32691989339544

> <r_i_glide_evdw>
-52.0809783935547

> <r_i_glide_ecoul>
-0.38331937789917

> <r_i_glide_erotb>
0.494304833326002

> <r_i_glide_esite>
-0.062472362868735

> <r_i_glide_emodel>
-72.4804442101582

> <r_i_glide_energy>
-52.4642977714539

> <r_i_glide_einternal>
4.72489929199219

> <i_i_glide_confnum>
48

> <i_i_glide_posenum>
169

> <r_i_glide_eff_state_penalty>
0

> <s_user_duplicate_titles>
CHEMBL4439_lig639

> <i_f3d_flags>
0

> <s_m_subgroup_title>
dock_pv

> <s_m_subgroupid>
dock_pv

> <b_m_subgroup_collapsed>
1

$$$$
CHEMBL4439_lig787
                    3D
 Schrodinger Suite 2021-1.
 47 50  0  0  1  0            999 V2000
   20.2263   68.1154   11.9930 C   0  0  0  0  0  0
   21.4947   68.4048   11.5137 C   0  0  0  0  0  0
   21.7001   68.6383   10.1622 C   0  0  0  0  0  0
   20.6492   68.5824    9.2324 C   0  0  0  0  0  0
   19.1291   68.0569   11.1089 C   0  0  0  0  0  0
   19.3207   68.2800    9.7038 C   0  0  0  0  0  0
   18.1505   68.1982    8.8662 C   0  0  0  0  0  0
   16.9059   68.0053    9.4774 C   0  0  0  0  0  0
   16.8333   67.7944   10.8468 C   0  0  0  0  0  0
   17.9114   67.7983   11.6577 N   0  0  0  0  0  0
   20.8478   68.8255    7.8812 O   0  0  0  0  0  0
   22.1350   69.2100    7.4039 C   0  0  0  0  0  0
   18.2525   68.3620    7.4729 N   0  0  0  0  0  0
   17.4774   67.9966    6.3566 C   0  0  0  0  0  0
   17.8555   68.4530    5.0768 C   0  0  0  0  0  0
   17.0853   68.0574    3.9784 C   0  0  0  0  0  0
   15.9988   67.2551    4.0791 N   0  0  0  0  0  0
   15.6470   66.7961    5.3106 C   0  0  0  0  0  0
   16.3701   67.1423    6.4567 C   0  0  0  0  0  0
   14.4485   65.9115    5.3808 C   0  0  0  0  0  0
   14.3549   64.9404    4.4310 N   0  0  0  0  0  0
   13.2645   64.1338    4.4307 C   0  0  0  0  0  0
   12.2234   64.2664    5.3534 C   0  0  0  0  0  0
   12.3296   65.2568    6.3332 C   0  0  0  0  0  0
   13.4594   66.0780    6.3619 C   0  0  0  0  0  0
   13.2310   63.0822    3.3413 C   0  0  0  0  0  0
   19.0804   69.3324    4.8506 C   0  0  0  0  0  0
   20.0731   67.9274   13.0452 H   0  0  0  0  0  0
   22.3313   68.4446   12.1954 H   0  0  0  0  0  0
   22.7065   68.8681    9.8528 H   0  0  0  0  0  0
   15.9868   68.0482    8.9194 H   0  0  0  0  0  0
   15.8757   67.6398   11.3305 H   0  0  0  0  0  0
   22.0998   69.3355    6.3235 H   0  0  0  0  0  0
   22.4559   70.1609    7.8336 H   0  0  0  0  0  0
   22.8941   68.4544    7.6126 H   0  0  0  0  0  0
   19.1726   68.7078    7.2226 H   0  0  0  0  0  0
   17.3348   68.3823    2.9784 H   0  0  0  0  0  0
   16.0849   66.6964    7.3926 H   0  0  0  0  0  0
   11.3558   63.6214    5.3158 H   0  0  0  0  0  0
   11.5416   65.3831    7.0636 H   0  0  0  0  0  0
   13.5412   66.8573    7.1056 H   0  0  0  0  0  0
   12.7297   62.1767    3.6896 H   0  0  0  0  0  0
   14.2412   62.8125    3.0274 H   0  0  0  0  0  0
   12.6996   63.4487    2.4600 H   0  0  0  0  0  0
   19.9887   68.7693    5.0722 H   0  0  0  0  0  0
   19.1398   69.7072    3.8281 H   0  0  0  0  0  0
   19.0658   70.1983    5.5140 H   0  0  0  0  0  0
  1  2  2  0  0  0
  1  5  1  0  0  0
  1 28  1  0  0  0
  2  3  1  0  0  0
  2 29  1  0  0  0
  3  4  2  0  0  0
  3 30  1  0  0  0
  4  6  1  0  0  0
  4 11  1  0  0  0
  5  6  1  0  0  0
  5 10  2  0  0  0
  6  7  2  0  0  0
  7  8  1  0  0  0
  7 13  1  0  0  0
  8  9  2  0  0  0
  8 31  1  0  0  0
  9 10  1  0  0  0
  9 32  1  0  0  0
 11 12  1  0  0  0
 12 33  1  0  0  0
 12 34  1  0  0  0
 12 35  1  0  0  0
 13 14  1  0  0  0
 13 36  1  0  0  0
 14 15  2  0  0  0
 14 19  1  0  0  0
 15 16  1  0  0  0
 15 27  1  0  0  0
 16 17  2  0  0  0
 16 37  1  0  0  0
 17 18  1  0  0  0
 18 19  2  0  0  0
 18 20  1  0  0  0
 19 38  1  0  0  0
 20 21  2  0  0  0
 20 25  1  0  0  0
 21 22  1  0  0  0
 22 23  2  0  0  0
 22 26  1  0  0  0
 23 24  1  0  0  0
 23 39  1  0  0  0
 24 25  2  0  0  0
 24 40  1  0  0  0
 25 41  1  0  0  0
 26 42  1  0  0  0
 26 43  1  0  0  0
 26 44  1  0  0  0
 27 45  1  0  0  0
 27 46  1  0  0  0
 27 47  1  0  0  0
M  END
> <s_m_entry_id>
34801

> <s_m_entry_name>
dock_pv.544

> <s_m_Source_Path>
/home/csk/Desktop/cluster/DUD-E-result/tgfr1

> <s_m_Source_File>
dock_pv.maegz

> <i_m_Source_File_Index>
544

> <chembl_id>
CHEMBL4074485

> <chembl_pref_name>
None

> <i_lp_mmshare_version>
53161

> <r_lp_tautomer_probability>
0.999999106000799

> <s_lp_Force_Field>
OPLS_2005

> <r_lp_Energy>
30.016942

> <b_lp_Chiralities_Consistent>
1

> <s_lp_Variant>
CHEMBL4439_lig787-1

> <s_i_glide_gridfile>
glide-grid_3hmm

> <i_i_glide_lignum>
1101

> <i_i_glide_rotatable_bonds>
4

> <r_i_docking_score>
-6.87689031202912

> <r_i_glide_ligand_efficiency>
-0.254699641186264

> <r_i_glide_ligand_efficiency_sa>
-0.764098922719343

> <r_i_glide_ligand_efficiency_ln>
-1.60082669024289

> <r_i_glide_gscore>
-6.87689031202912

> <r_i_glide_lipo>
-3.56912481477127

> <r_i_glide_hbond>
0

> <r_i_glide_metal>
0

> <r_i_glide_rewards>
-1.2830076663773

> <r_i_glide_evdw>
-48.495491027832

> <r_i_glide_ecoul>
-0.34531557559967

> <r_i_glide_erotb>
0.451814056851003

> <r_i_glide_esite>
0

> <r_i_glide_emodel>
-68.5203571847764

> <r_i_glide_energy>
-48.8408066034317

> <r_i_glide_einternal>
2.41934537887573

> <i_i_glide_confnum>
6

> <i_i_glide_posenum>
109

> <r_i_glide_eff_state_penalty>
0

> <s_user_duplicate_titles>
CHEMBL4439_lig787

> <i_f3d_flags>
0

> <s_m_subgroup_title>
dock_pv

> <s_m_subgroupid>
dock_pv

> <b_m_subgroup_collapsed>
1

$$$$
CHEMBL4439_lig541
                    3D
 Schrodinger Suite 2021-1.
 53 57  0  0  1  0            999 V2000
   21.2658   67.6573    9.7577 C   0  0  0  0  0  0
   22.0551   68.7593    9.4391 C   0  0  0  0  0  0
   21.6392   69.5932    8.4013 C   0  0  0  0  0  0
   20.4873   69.3946    7.7061 N   0  0  0  0  0  0
   19.7476   68.2886    7.9863 C   0  0  0  0  0  0
   20.1100   67.4059    9.0183 C   0  0  0  0  0  0
   18.5151   68.0501    7.1552 C   0  0  0  0  0  0
   20.4981   68.8760    4.6814 C   0  0  0  0  0  0
   19.1008   68.7770    4.6021 C   0  0  0  0  0  0
   18.4912   69.1316    3.3802 C   0  0  0  0  0  0
   19.2218   69.5414    2.2612 C   0  0  0  0  0  0
   21.1983   69.3582    3.6095 N   0  0  0  0  0  0
   20.6146   69.6570    2.3805 C   0  0  0  0  0  0
   21.5866   70.0570    1.5254 N   0  0  0  0  0  0
   22.6536   70.0549    2.3029 C   0  0  0  0  0  0
   22.5124   69.6570    3.5533 N   0  0  0  0  0  0
   18.2664   68.2829    5.7702 C   0  0  0  0  0  0
   17.4974   67.5077    7.8105 N   0  0  0  0  0  0
   16.4554   67.2485    7.0806 C   0  0  0  0  0  0
   16.6083   67.7822    5.4529 S   0  0  0  0  0  0
   22.5074   70.7487    7.9579 C   0  0  0  0  0  0
   15.3544   66.5951    7.5808 N   0  0  0  0  0  0
   14.0292   66.3638    7.0027 C   0  0  0  0  0  0
   13.8880   65.3426    5.8582 C   0  0  0  0  0  0
   14.9983   64.8877    5.1360 C   0  0  0  0  0  0
   14.8497   64.0570    4.0320 C   0  0  0  0  0  0
   13.5937   63.5769    3.6883 C   0  0  0  0  0  0
   12.4742   63.9494    4.4318 C   0  0  0  0  0  0
   12.6096   64.8619    5.4958 C   0  0  0  0  0  0
   11.3544   65.3067    6.2396 C   0  0  0  0  0  0
   11.1265   63.3433    4.0643 C   0  0  0  0  0  0
   21.5554   66.9950   10.5596 H   0  0  0  0  0  0
   22.9738   68.9537    9.9732 H   0  0  0  0  0  0
   19.5103   66.5369    9.2472 H   0  0  0  0  0  0
   21.1000   68.5951    5.5285 H   0  0  0  0  0  0
   17.4187   69.0865    3.2662 H   0  0  0  0  0  0
   18.7338   69.8007    1.3339 H   0  0  0  0  0  0
   23.6188   70.3630    1.9244 H   0  0  0  0  0  0
   22.6671   71.4548    8.7741 H   0  0  0  0  0  0
   23.4837   70.3813    7.6396 H   0  0  0  0  0  0
   22.0726   71.2716    7.1075 H   0  0  0  0  0  0
   15.3189   66.5424    8.5878 H   0  0  0  0  0  0
   13.6180   67.3100    6.6621 H   0  0  0  0  0  0
   13.4018   66.0461    7.8341 H   0  0  0  0  0  0
   15.9960   65.1790    5.4094 H   0  0  0  0  0  0
   15.7168   63.7429    3.4695 H   0  0  0  0  0  0
   13.4965   62.9016    2.8497 H   0  0  0  0  0  0
   11.4775   66.1758    6.8817 H   0  0  0  0  0  0
   10.5786   65.5868    5.5278 H   0  0  0  0  0  0
   10.9784   64.4734    6.8316 H   0  0  0  0  0  0
   10.7003   62.8579    4.9418 H   0  0  0  0  0  0
   10.4202   64.1086    3.7522 H   0  0  0  0  0  0
   11.2039   62.6077    3.2625 H   0  0  0  0  0  0
  1  6  1  0  0  0
  1  2  2  0  0  0
  1 32  1  0  0  0
  2  3  1  0  0  0
  2 33  1  0  0  0
  3 21  1  0  0  0
  3  4  2  0  0  0
  4  5  1  0  0  0
  5  6  2  0  0  0
  5  7  1  0  0  0
  6 34  1  0  0  0
  7 17  2  0  0  0
  7 18  1  0  0  0
  8 12  1  0  0  0
  8  9  2  0  0  0
  8 35  1  0  0  0
  9 17  1  0  0  0
  9 10  1  0  0  0
 10 11  2  0  0  0
 10 36  1  0  0  0
 11 13  1  0  0  0
 11 37  1  0  0  0
 12 16  1  0  0  0
 12 13  1  0  0  0
 13 14  2  0  0  0
 14 15  1  0  0  0
 15 16  2  0  0  0
 15 38  1  0  0  0
 17 20  1  0  0  0
 18 19  2  0  0  0
 19 20  1  0  0  0
 19 22  1  0  0  0
 21 39  1  0  0  0
 21 40  1  0  0  0
 21 41  1  0  0  0
 22 23  1  0  0  0
 22 42  1  0  0  0
 23 24  1  0  0  0
 23 43  1  0  0  0
 23 44  1  0  0  0
 24 25  2  0  0  0
 24 29  1  0  0  0
 25 26  1  0  0  0
 25 45  1  0  0  0
 26 27  2  0  0  0
 26 46  1  0  0  0
 27 28  1  0  0  0
 27 47  1  0  0  0
 28 29  2  0  0  0
 28 31  1  0  0  0
 29 30  1  0  0  0
 30 48  1  0  0  0
 30 49  1  0  0  0
 30 50  1  0  0  0
 31 51  1  0  0  0
 31 52  1  0  0  0
 31 53  1  0  0  0
M  END
> <s_m_entry_id>
34803

> <s_m_entry_name>
dock_pv.546

> <s_m_Source_Path>
/home/csk/Desktop/cluster/DUD-E-result/tgfr1

> <s_m_Source_File>
dock_pv.maegz

> <i_m_Source_File_Index>
546

> <chembl_id>
CHEMBL2088214

> <chembl_pref_name>
None

> <i_lp_mmshare_version>
53161

> <r_lp_tautomer_probability>
1

> <s_lp_Force_Field>
OPLS_2005

> <r_lp_Energy>
16.755562

> <b_lp_Chiralities_Consistent>
1

> <s_lp_Variant>
CHEMBL4439_lig541-1

> <s_i_glide_gridfile>
glide-grid_3hmm

> <i_i_glide_lignum>
720

> <i_i_glide_rotatable_bonds>
5

> <r_i_docking_score>
-6.86642596359844

> <r_i_glide_ligand_efficiency>
-0.221497611728982

> <r_i_glide_ligand_efficiency_sa>
-0.695808311239859

> <r_i_glide_ligand_efficiency_ln>
-1.54858948547546

> <r_i_glide_gscore>
-6.86642596359844

> <r_i_glide_lipo>
-3.88513275536532

> <r_i_glide_hbond>
0

> <r_i_glide_metal>
0

> <r_i_glide_rewards>
-1.11898694944616

> <r_i_glide_evdw>
-53.1818504333496

> <r_i_glide_ecoul>
1.67562294006348

> <r_i_glide_erotb>
0.545442821870997

> <r_i_glide_esite>
0

> <r_i_glide_emodel>
-69.5822744009141

> <r_i_glide_energy>
-51.5062274932861

> <r_i_glide_einternal>
2.82573747634888

> <i_i_glide_confnum>
24

> <i_i_glide_posenum>
175

> <r_i_glide_eff_state_penalty>
0

> <s_user_duplicate_titles>
CHEMBL4439_lig541

> <i_f3d_flags>
0

> <s_m_subgroup_title>
dock_pv

> <s_m_subgroupid>
dock_pv

> <b_m_subgroup_collapsed>
1

$$$$
CHEMBL4439_lig6
                    3D
 Schrodinger Suite 2021-1.
 51 55  0  0  1  0            999 V2000
   21.0670   70.8570    6.3407 O   0  0  0  0  0  0
   22.0259   70.1154    6.1459 C   0  0  0  0  0  0
   22.8156   69.6570    7.1283 N   0  0  0  0  0  0
   22.9069   70.2928    8.4406 C   0  0  0  0  0  0
   21.7239   70.2293    9.3831 C   0  0  0  0  0  0
   22.9683   69.4162    9.6676 C   0  0  0  0  0  0
   22.3950   69.6570    4.9404 N   0  0  0  0  0  0
   21.6129   69.6734    3.8027 C   0  0  0  0  0  0
   22.0837   70.0519    2.5393 C   0  0  0  0  0  0
   21.1431   70.0570    1.6320 N   0  0  0  0  0  0
   20.0518   69.6570    2.2920 N   0  0  0  0  0  0
   20.2659   69.3203    3.6118 C   0  0  0  0  0  0
   19.2213   68.7774    4.4930 C   0  0  0  0  0  0
   17.9130   68.5371    4.1196 N   0  0  0  0  0  0
   17.2456   68.0570    5.2277 C   0  0  0  0  0  0
   15.9347   67.6359    5.4754 C   0  0  0  0  0  0
   15.6481   67.1850    6.7758 C   0  0  0  0  0  0
   14.2640   66.6584    7.1531 C   0  0  0  0  0  0
   13.5302   65.9551    6.0913 N   0  0  0  0  0  0
   12.1784   65.6188    6.5676 C   0  0  0  0  0  0
   11.3921   64.7485    5.5627 C   0  0  0  0  0  0
   12.1454   63.5886    5.2297 O   0  0  0  0  0  0
   13.3821   63.9272    4.6142 C   0  0  0  0  0  0
   14.2471   64.7711    5.5818 C   0  0  0  0  0  0
   16.6172   67.2232    7.7847 C   0  0  0  0  0  0
   17.9171   67.6570    7.5378 C   0  0  0  0  0  0
   18.2360   68.0570    6.2371 C   0  0  0  0  0  0
   19.4403   68.4570    5.7428 N   0  0  0  0  0  0
   23.5966   69.0786    6.8577 H   0  0  0  0  0  0
   23.4898   71.2174    8.4321 H   0  0  0  0  0  0
   20.8165   69.7272    9.0442 H   0  0  0  0  0  0
   21.5053   71.1130    9.9835 H   0  0  0  0  0  0
   23.6299   69.7189   10.4794 H   0  0  0  0  0  0
   22.9373   68.3339    9.5388 H   0  0  0  0  0  0
   23.2274   69.0866    4.8896 H   0  0  0  0  0  0
   23.0911   70.3654    2.3067 H   0  0  0  0  0  0
   19.1641   69.5752    1.8205 H   0  0  0  0  0  0
   17.5513   68.7072    3.1946 H   0  0  0  0  0  0
   15.1807   67.6297    4.7016 H   0  0  0  0  0  0
   14.3650   65.9987    8.0149 H   0  0  0  0  0  0
   13.6855   67.5121    7.5028 H   0  0  0  0  0  0
   12.2599   65.0755    7.5088 H   0  0  0  0  0  0
   11.6233   66.5278    6.8022 H   0  0  0  0  0  0
   11.1393   65.3170    4.6652 H   0  0  0  0  0  0
   10.4490   64.4283    6.0038 H   0  0  0  0  0  0
   13.2127   64.4570    3.6754 H   0  0  0  0  0  0
   13.8928   63.0033    4.3474 H   0  0  0  0  0  0
   15.1717   65.0725    5.0895 H   0  0  0  0  0  0
   14.5595   64.1501    6.4213 H   0  0  0  0  0  0
   16.3665   66.8979    8.7843 H   0  0  0  0  0  0
   18.6629   67.6664    8.3193 H   0  0  0  0  0  0
  1  2  2  0  0  0
  2  3  1  0  0  0
  2  7  1  0  0  0
  3  4  1  0  0  0
  3 29  1  0  0  0
  4  6  1  0  0  0
  4  5  1  0  0  0
  4 30  1  0  0  0
  5  6  1  0  0  0
  5 31  1  0  0  0
  5 32  1  0  0  0
  6 33  1  0  0  0
  6 34  1  0  0  0
  7 35  1  0  0  0
  7  8  1  0  0  0
  8 12  2  0  0  0
  8  9  1  0  0  0
  9 36  1  0  0  0
  9 10  2  0  0  0
 10 11  1  0  0  0
 11 37  1  0  0  0
 11 12  1  0  0  0
 12 13  1  0  0  0
 13 28  2  0  0  0
 13 14  1  0  0  0
 14 15  1  0  0  0
 14 38  1  0  0  0
 15 27  1  0  0  0
 15 16  2  0  0  0
 16 17  1  0  0  0
 16 39  1  0  0  0
 17 25  2  0  0  0
 17 18  1  0  0  0
 18 19  1  0  0  0
 18 40  1  0  0  0
 18 41  1  0  0  0
 19 24  1  0  0  0
 19 20  1  0  0  0
 20 21  1  0  0  0
 20 42  1  0  0  0
 20 43  1  0  0  0
 21 22  1  0  0  0
 21 44  1  0  0  0
 21 45  1  0  0  0
 22 23  1  0  0  0
 23 24  1  0  0  0
 23 46  1  0  0  0
 23 47  1  0  0  0
 24 48  1  0  0  0
 24 49  1  0  0  0
 25 26  1  0  0  0
 25 50  1  0  0  0
 26 27  2  0  0  0
 26 51  1  0  0  0
 27 28  1  0  0  0
M  END
> <s_m_entry_id>
34805

> <s_m_entry_name>
dock_pv.548

> <s_m_Source_Path>
/home/csk/Desktop/cluster/DUD-E-result/tgfr1

> <s_m_Source_File>
dock_pv.maegz

> <i_m_Source_File_Index>
548

> <chembl_id>
CHEMBL495727

> <chembl_pref_name>
AT-9283

> <i_lp_mmshare_version>
53161

> <r_lp_tautomer_probability>
0.5

> <s_lp_Force_Field>
OPLS_2005

> <r_lp_Energy>
41.144451

> <b_lp_Chiralities_Consistent>
1

> <s_lp_Variant>
CHEMBL4439_lig6-2

> <s_i_glide_gridfile>
glide-grid_3hmm

> <i_i_glide_lignum>
9

> <i_i_glide_rotatable_bonds>
7

> <r_i_docking_score>
-6.84955920767778

> <r_i_glide_ligand_efficiency>
-0.244627114559921

> <r_i_glide_ligand_efficiency_sa>
-0.74283199746933

> <r_i_glide_ligand_efficiency_ln>
-1.58107937692922

> <r_i_glide_gscore>
-6.84955920767778

> <r_i_glide_lipo>
-2.6272153874598

> <r_i_glide_hbond>
-0.464952047434358

> <r_i_glide_metal>
0

> <r_i_glide_rewards>
-1.30821502088471

> <r_i_glide_evdw>
-40.3120040893555

> <r_i_glide_ecoul>
-8.2108325958252

> <r_i_glide_erotb>
0.800508654151878

> <r_i_glide_esite>
-0.00246031220923885

> <r_i_glide_emodel>
-65.5874520413849

> <r_i_glide_energy>
-48.5228366851807

> <r_i_glide_einternal>
3.66369915008545

> <i_i_glide_confnum>
23

> <i_i_glide_posenum>
188

> <r_i_glide_eff_state_penalty>
0

> <s_user_duplicate_titles>
CHEMBL4439_lig6

> <i_f3d_flags>
0

> <s_m_subgroup_title>
dock_pv

> <s_m_subgroupid>
dock_pv

> <b_m_subgroup_collapsed>
1

$$$$
CHEMBL4439_lig291
                    3D
 Schrodinger Suite 2021-1.
 45 48  0  0  1  0            999 V2000
   17.1677   68.3348    9.3345 C   0  0  2  0  0  0
   15.8591   67.8838    8.8833 N   0  0  0  0  0  0
   15.9741   67.1446    7.7231 C   0  0  0  0  0  0
   17.1717   67.0285    7.3326 N   0  0  0  0  0  0
   18.0584   67.6553    8.2851 C   0  0  1  0  0  0
   14.8381   66.5482    6.9834 C   0  0  0  0  0  0
   13.5648   66.4611    7.5590 C   0  0  0  0  0  0
   12.5286   65.8236    6.8799 C   0  0  0  0  0  0
   12.7541   65.2567    5.6297 C   0  0  0  0  0  0
   14.0046   65.3754    5.0220 C   0  0  0  0  0  0
   15.0385   66.0143    5.6986 C   0  0  0  0  0  0
   19.1101   68.5372    7.5947 C   0  0  0  0  0  0
   18.8561   69.1371    6.3549 C   0  0  0  0  0  0
   19.7966   69.9759    5.7727 C   0  0  0  0  0  0
   20.9989   70.2152    6.4240 C   0  0  0  0  0  0
   21.2927   69.5880    7.6300 C   0  0  0  0  0  0
   20.3518   68.7400    8.2087 C   0  0  0  0  0  0
   17.5253   68.0015   10.7944 C   0  0  0  0  0  0
   18.7366   68.4566   11.3335 C   0  0  0  0  0  0
   19.0592   68.1567   12.6569 C   0  0  0  0  0  0
   18.2407   67.4470   13.4710 N   0  0  0  0  0  0
   17.0678   67.0129   12.9477 C   0  0  0  0  0  0
   16.6789   67.2589   11.6271 C   0  0  0  0  0  0
   21.8672   71.0954    5.8875 F   0  0  0  0  0  0
   11.3513   64.3917    4.8321 S   0  0  1  0  0  0
   12.2837   63.1490    3.8166 C   0  0  0  0  0  0
   10.6621   63.5992    5.9435 O   0  0  0  0  0  0
   17.2153   69.4202    9.2235 H   0  0  0  0  0  0
   15.1971   68.6258    9.0542 H   0  0  0  0  0  0
   18.6128   66.8388    8.7537 H   0  0  0  0  0  0
   13.3700   66.8669    8.5411 H   0  0  0  0  0  0
   11.5502   65.7451    7.3349 H   0  0  0  0  0  0
   14.1947   64.9820    4.0357 H   0  0  0  0  0  0
   16.0042   66.0734    5.2153 H   0  0  0  0  0  0
   17.9210   68.9685    5.8420 H   0  0  0  0  0  0
   19.5843   70.4576    4.8305 H   0  0  0  0  0  0
   22.2408   69.7720    8.1137 H   0  0  0  0  0  0
   20.5921   68.2474    9.1380 H   0  0  0  0  0  0
   19.4096   69.0639   10.7499 H   0  0  0  0  0  0
   19.9910   68.4963   13.0840 H   0  0  0  0  0  0
   16.4165   66.4603   13.6107 H   0  0  0  0  0  0
   15.7320   66.8840   11.2691 H   0  0  0  0  0  0
   12.8372   63.6236    3.0067 H   0  0  0  0  0  0
   11.5740   62.4601    3.3595 H   0  0  0  0  0  0
   12.9622   62.5586    4.4335 H   0  0  0  0  0  0
  1  5  1  0  0  0
  1 18  1  0  0  0
  1  2  1  0  0  0
  1 28  1  0  0  0
  2  3  1  0  0  0
  2 29  1  0  0  0
  3  4  2  0  0  0
  3  6  1  0  0  0
  4  5  1  0  0  0
  5 12  1  0  0  0
  5 30  1  0  0  0
  6  7  2  0  0  0
  6 11  1  0  0  0
  7  8  1  0  0  0
  7 31  1  0  0  0
  8  9  2  0  0  0
  8 32  1  0  0  0
  9 10  1  0  0  0
  9 25  1  0  0  0
 10 11  2  0  0  0
 10 33  1  0  0  0
 11 34  1  0  0  0
 12 17  2  0  0  0
 12 13  1  0  0  0
 13 14  2  0  0  0
 13 35  1  0  0  0
 14 15  1  0  0  0
 14 36  1  0  0  0
 15 16  2  0  0  0
 15 24  1  0  0  0
 16 17  1  0  0  0
 16 37  1  0  0  0
 17 38  1  0  0  0
 18 19  2  0  0  0
 18 23  1  0  0  0
 19 20  1  0  0  0
 19 39  1  0  0  0
 20 21  2  0  0  0
 20 40  1  0  0  0
 21 22  1  0  0  0
 22 23  2  0  0  0
 22 41  1  0  0  0
 23 42  1  0  0  0
 25 26  1  0  0  0
 25 27  2  0  0  0
 26 43  1  0  0  0
 26 44  1  0  0  0
 26 45  1  0  0  0
M  END
> <s_m_entry_id>
34806

> <s_m_entry_name>
dock_pv.549

> <s_m_Source_Path>
/home/csk/Desktop/cluster/DUD-E-result/tgfr1

> <s_m_Source_File>
dock_pv.maegz

> <i_m_Source_File_Index>
549

> <chembl_id>
CHEMBL566254

> <chembl_pref_name>
None

> <i_lp_mmshare_version>
53161

> <r_lp_tautomer_probability>
0.499999999998415

> <s_lp_Force_Field>
OPLS_2005

> <r_lp_Energy>
27.556595

> <b_lp_Chiralities_Consistent>
1

> <s_lp_Variant>
CHEMBL4439_lig291-1

> <s_i_glide_gridfile>
glide-grid_3hmm

> <i_i_glide_lignum>
408

> <i_i_glide_rotatable_bonds>
4

> <r_i_docking_score>
-6.84487508555492

> <r_i_glide_ligand_efficiency>
-0.25351389205759

> <r_i_glide_ligand_efficiency_sa>
-0.760541675337228

> <r_i_glide_ligand_efficiency_ln>
-1.59337407333196

> <r_i_glide_gscore>
-6.84487508555492

> <r_i_glide_lipo>
-2.61899548314411

> <r_i_glide_hbond>
0

> <r_i_glide_metal>
0

> <r_i_glide_rewards>
-1.72658193877791

> <r_i_glide_evdw>
-49.5262413024902

> <r_i_glide_ecoul>
-2.84660148620605

> <r_i_glide_erotb>
0.404004624422521

> <r_i_glide_esite>
0

> <r_i_glide_emodel>
-67.4086650004988

> <r_i_glide_energy>
-52.3728427886963

> <r_i_glide_einternal>
4.79913282394409

> <i_i_glide_confnum>
4

> <i_i_glide_posenum>
34

> <r_i_glide_eff_state_penalty>
0

> <s_user_duplicate_titles>
CHEMBL4439_lig291

> <i_f3d_flags>
0

> <s_m_subgroup_title>
dock_pv

> <s_m_subgroupid>
dock_pv

> <b_m_subgroup_collapsed>
1

$$$$
CHEMBL4439_lig463
                    3D
 Schrodinger Suite 2021-1.
 53 57  0  0  1  0            999 V2000
   20.3199   69.2497    4.1027 C   0  0  0  0  0  0
   20.6371   69.2411    5.4702 C   0  0  0  0  0  0
   21.9246   69.6567    5.8421 C   0  0  0  0  0  0
   22.8846   70.0613    4.9071 C   0  0  0  0  0  0
   21.2693   69.6420    3.1955 N   0  0  0  0  0  0
   22.5535   70.0530    3.5476 C   0  0  0  0  0  0
   23.2253   70.3818    2.4184 N   0  0  0  0  0  0
   22.3177   70.1597    1.4857 C   0  0  0  0  0  0
   21.1393   69.6946    1.8546 N   0  0  0  0  0  0
   19.6208   68.7470    6.4738 C   0  0  0  0  0  0
   19.6953   68.5513    7.8832 C   0  0  0  0  0  0
   18.5887   68.0290    8.3598 N   0  0  0  0  0  0
   17.7502   67.8329    7.3312 N   0  0  0  0  0  0
   18.3356   68.2901    6.1686 C   0  0  0  0  0  0
   16.4959   67.1947    7.5311 C   0  0  0  0  0  0
   15.8726   66.8548    9.0637 S   0  0  0  0  0  0
   15.9230   66.8300    6.3363 N   0  0  0  0  0  0
   14.7195   66.1507    6.0547 C   0  0  0  0  0  0
   13.5194   66.3923    6.7365 C   0  0  0  0  0  0
   12.3752   65.6572    6.4314 C   0  0  0  0  0  0
   12.4027   64.6869    5.4252 C   0  0  0  0  0  0
   13.5966   64.4576    4.7184 C   0  0  0  0  0  0
   14.7394   65.2029    5.0299 C   0  0  0  0  0  0
   20.7808   68.7765    8.8811 C   0  0  0  0  0  0
   21.2379   67.7111    9.6666 C   0  0  0  0  0  0
   22.2360   67.9465   10.6120 C   0  0  0  0  0  0
   22.7535   69.2335   10.7529 C   0  0  0  0  0  0
   22.2373   70.2504    9.9458 C   0  0  0  0  0  0
   21.2513   70.0450    9.0316 N   0  0  0  0  0  0
   22.7753   71.6608   10.0339 C   0  0  0  0  0  0
   13.6775   63.4001    3.6247 C   0  0  0  0  0  0
   11.1329   63.9070    5.1158 C   0  0  0  0  0  0
   19.3705   68.9443    3.6933 H   0  0  0  0  0  0
   22.2410   69.6357    6.8667 H   0  0  0  0  0  0
   23.8672   70.3791    5.2304 H   0  0  0  0  0  0
   22.5349   70.3629    0.4475 H   0  0  0  0  0  0
   17.8195   68.2302    5.2232 H   0  0  0  0  0  0
   16.4946   66.9830    5.5197 H   0  0  0  0  0  0
   13.4611   67.1474    7.5040 H   0  0  0  0  0  0
   11.4622   65.8497    6.9760 H   0  0  0  0  0  0
   15.6545   65.0216    4.4860 H   0  0  0  0  0  0
   20.8137   66.7241    9.5534 H   0  0  0  0  0  0
   22.6027   67.1388   11.2293 H   0  0  0  0  0  0
   23.5370   69.4322   11.4685 H   0  0  0  0  0  0
   23.6539   71.7189   10.6762 H   0  0  0  0  0  0
   23.0677   72.0159    9.0462 H   0  0  0  0  0  0
   22.0161   72.3352   10.4313 H   0  0  0  0  0  0
   14.6879   63.2802    3.2351 H   0  0  0  0  0  0
   13.0188   63.6564    2.7954 H   0  0  0  0  0  0
   13.3570   62.4318    4.0096 H   0  0  0  0  0  0
   10.2627   64.3205    5.6264 H   0  0  0  0  0  0
   10.9223   63.9290    4.0462 H   0  0  0  0  0  0
   11.2470   62.8649    5.4128 H   0  0  0  0  0  0
  1  2  2  0  0  0
  1  5  1  0  0  0
  1 33  1  0  0  0
  2 10  1  0  0  0
  2  3  1  0  0  0
  3  4  2  0  0  0
  3 34  1  0  0  0
  4  6  1  0  0  0
  4 35  1  0  0  0
  5  9  1  0  0  0
  5  6  1  0  0  0
  6  7  2  0  0  0
  7  8  1  0  0  0
  8  9  2  0  0  0
  8 36  1  0  0  0
 10 11  1  0  0  0
 10 14  2  0  0  0
 11 12  2  0  0  0
 11 24  1  0  0  0
 12 13  1  0  0  0
 13 15  1  0  0  0
 13 14  1  0  0  0
 14 37  1  0  0  0
 15 16  2  0  0  0
 15 17  1  0  0  0
 17 18  1  0  0  0
 17 38  1  0  0  0
 18 19  2  0  0  0
 18 23  1  0  0  0
 19 20  1  0  0  0
 19 39  1  0  0  0
 20 21  2  0  0  0
 20 40  1  0  0  0
 21 22  1  0  0  0
 21 32  1  0  0  0
 22 23  2  0  0  0
 22 31  1  0  0  0
 23 41  1  0  0  0
 24 25  2  0  0  0
 24 29  1  0  0  0
 25 26  1  0  0  0
 25 42  1  0  0  0
 26 27  2  0  0  0
 26 43  1  0  0  0
 27 28  1  0  0  0
 27 44  1  0  0  0
 28 29  2  0  0  0
 28 30  1  0  0  0
 30 45  1  0  0  0
 30 46  1  0  0  0
 30 47  1  0  0  0
 31 48  1  0  0  0
 31 49  1  0  0  0
 31 50  1  0  0  0
 32 51  1  0  0  0
 32 52  1  0  0  0
 32 53  1  0  0  0
M  END
> <s_m_entry_id>
34807

> <s_m_entry_name>
dock_pv.550

> <s_m_Source_Path>
/home/csk/Desktop/cluster/DUD-E-result/tgfr1

> <s_m_Source_File>
dock_pv.maegz

> <i_m_Source_File_Index>
550

> <chembl_id>
CHEMBL1835626

> <chembl_pref_name>
None

> <i_lp_mmshare_version>
53161

> <r_lp_tautomer_probability>
1

> <s_lp_Force_Field>
OPLS_2005

> <r_lp_Energy>
30.047876

> <b_lp_Chiralities_Consistent>
1

> <s_lp_Variant>
CHEMBL4439_lig463-1

> <s_i_glide_gridfile>
glide-grid_3hmm

> <i_i_glide_lignum>
609

> <i_i_glide_rotatable_bonds>
5

> <r_i_docking_score>
-6.83575752264431

> <r_i_glide_ligand_efficiency>
-0.213617422582635

> <r_i_glide_ligand_efficiency_sa>
-0.67819304186934

> <r_i_glide_ligand_efficiency_ln>
-1.53071244503257

> <r_i_glide_gscore>
-6.83575752264431

> <r_i_glide_lipo>
-2.9426927178344

> <r_i_glide_hbond>
0

> <r_i_glide_metal>
0

> <r_i_glide_rewards>
-1.33237857129171

> <r_i_glide_evdw>
-59.4997329711914

> <r_i_glide_ecoul>
-0.681727766990662

> <r_i_glide_erotb>
0.516559580089974

> <r_i_glide_esite>
0

> <r_i_glide_emodel>
-80.8858341961738

> <r_i_glide_energy>
-60.1814607381821

> <r_i_glide_einternal>
5.59982919692993

> <i_i_glide_confnum>
16

> <i_i_glide_posenum>
148

> <r_i_glide_eff_state_penalty>
0

> <s_user_duplicate_titles>
CHEMBL4439_lig463

> <i_f3d_flags>
0

> <s_m_subgroup_title>
dock_pv

> <s_m_subgroupid>
dock_pv

> <b_m_subgroup_collapsed>
1

$$$$
CHEMBL4439_lig479
                    3D
 Schrodinger Suite 2021-1.
 47 51  0  0  1  0            999 V2000
   19.4235   67.7785   10.5163 C   0  0  0  0  0  0
   18.1040   67.7964   10.0559 C   0  0  0  0  0  0
   17.0672   67.8404   11.0006 C   0  0  0  0  0  0
   17.3192   67.9001   12.3773 C   0  0  0  0  0  0
   19.6615   67.9302   11.8521 N   0  0  0  0  0  0
   18.6532   67.9663   12.8109 C   0  0  0  0  0  0
   19.2342   68.0571   14.0319 N   0  0  0  0  0  0
   20.5194   68.0935   13.7253 C   0  0  0  0  0  0
   20.8611   68.0567   12.4541 N   0  0  0  0  0  0
   17.7851   67.7800    8.5896 C   0  0  0  0  0  0
   18.4820   68.2900    7.4547 C   0  0  0  0  0  0
   17.8213   68.0419    6.3420 N   0  0  0  0  0  0
   16.7103   67.3609    6.6700 N   0  0  0  0  0  0
   16.6499   67.2044    8.0395 C   0  0  0  0  0  0
   15.8194   66.8814    5.6757 C   0  0  0  0  0  0
   15.9470   67.2572    4.0336 S   0  0  0  0  0  0
   14.8452   66.0981    6.2395 N   0  0  0  0  0  0
   13.8156   65.3639    5.6398 C   0  0  0  0  0  0
   14.0688   64.4568    4.6055 C   0  0  0  0  0  0
   13.0146   63.7520    4.0319 C   0  0  0  0  0  0
   11.7132   63.9904    4.4675 C   0  0  0  0  0  0
   11.4668   64.8567    5.5287 C   0  0  0  0  0  0
   12.5207   65.5348    6.1299 C   0  0  0  0  0  0
   19.7884   69.0229    7.3449 C   0  0  0  0  0  0
   20.5527   69.0301    6.1671 C   0  0  0  0  0  0
   21.8002   69.6571    6.1733 C   0  0  0  0  0  0
   22.2670   70.2357    7.3514 C   0  0  0  0  0  0
   21.4486   70.2187    8.4766 C   0  0  0  0  0  0
   20.2161   69.6569    8.4648 N   0  0  0  0  0  0
   21.8722   70.8581    9.7823 C   0  0  0  0  0  0
   10.3857   63.2570    3.6515 Cl  0  0  0  0  0  0
   20.2932   67.6862    9.8868 H   0  0  0  0  0  0
   16.0381   67.8413   10.6695 H   0  0  0  0  0  0
   16.5019   67.9193   13.0839 H   0  0  0  0  0  0
   21.2751   68.1572   14.4957 H   0  0  0  0  0  0
   15.8357   66.6894    8.5237 H   0  0  0  0  0  0
   14.8242   66.0912    7.2458 H   0  0  0  0  0  0
   15.0728   64.2977    4.2389 H   0  0  0  0  0  0
   13.1982   63.0757    3.2097 H   0  0  0  0  0  0
   10.4548   65.0266    5.8582 H   0  0  0  0  0  0
   12.3155   66.2215    6.9387 H   0  0  0  0  0  0
   20.2084   68.5337    5.2723 H   0  0  0  0  0  0
   22.4211   69.6557    5.2884 H   0  0  0  0  0  0
   23.2444   70.6888    7.3905 H   0  0  0  0  0  0
   22.8698   71.2921    9.7105 H   0  0  0  0  0  0
   21.1786   71.6563   10.0471 H   0  0  0  0  0  0
   21.8752   70.1222   10.5863 H   0  0  0  0  0  0
  1  2  2  0  0  0
  1  5  1  0  0  0
  1 32  1  0  0  0
  2 10  1  0  0  0
  2  3  1  0  0  0
  3  4  2  0  0  0
  3 33  1  0  0  0
  4  6  1  0  0  0
  4 34  1  0  0  0
  5  9  1  0  0  0
  5  6  1  0  0  0
  6  7  2  0  0  0
  7  8  1  0  0  0
  8  9  2  0  0  0
  8 35  1  0  0  0
 10 11  1  0  0  0
 10 14  2  0  0  0
 11 12  2  0  0  0
 11 24  1  0  0  0
 12 13  1  0  0  0
 13 15  1  0  0  0
 13 14  1  0  0  0
 14 36  1  0  0  0
 15 16  2  0  0  0
 15 17  1  0  0  0
 17 18  1  0  0  0
 17 37  1  0  0  0
 18 19  2  0  0  0
 18 23  1  0  0  0
 19 20  1  0  0  0
 19 38  1  0  0  0
 20 21  2  0  0  0
 20 39  1  0  0  0
 21 22  1  0  0  0
 21 31  1  0  0  0
 22 23  2  0  0  0
 22 40  1  0  0  0
 23 41  1  0  0  0
 24 25  2  0  0  0
 24 29  1  0  0  0
 25 26  1  0  0  0
 25 42  1  0  0  0
 26 27  2  0  0  0
 26 43  1  0  0  0
 27 28  1  0  0  0
 27 44  1  0  0  0
 28 29  2  0  0  0
 28 30  1  0  0  0
 30 45  1  0  0  0
 30 46  1  0  0  0
 30 47  1  0  0  0
M  END
> <s_m_entry_id>
34808

> <s_m_entry_name>
dock_pv.551

> <s_m_Source_Path>
/home/csk/Desktop/cluster/DUD-E-result/tgfr1

> <s_m_Source_File>
dock_pv.maegz

> <i_m_Source_File_Index>
551

> <chembl_id>
CHEMBL1835527

> <chembl_pref_name>
None

> <i_lp_mmshare_version>
53161

> <r_lp_tautomer_probability>
1

> <s_lp_Force_Field>
OPLS_2005

> <r_lp_Energy>
29.418242

> <b_lp_Chiralities_Consistent>
1

> <s_lp_Variant>
CHEMBL4439_lig479-1

> <s_i_glide_gridfile>
glide-grid_3hmm

> <i_i_glide_lignum>
625

> <i_i_glide_rotatable_bonds>
5

> <r_i_docking_score>
-6.83309752662563

> <r_i_glide_ligand_efficiency>
-0.220422500858891

> <r_i_glide_ligand_efficiency_sa>
-0.692430978757246

> <r_i_glide_ligand_efficiency_ln>
-1.54107290154417

> <r_i_glide_gscore>
-6.83309752662563

> <r_i_glide_lipo>
-2.82822125747973

> <r_i_glide_hbond>
-0.0430005715733891

> <r_i_glide_metal>
0

> <r_i_glide_rewards>
-1.31951234574245

> <r_i_glide_evdw>
-55.1837577819824

> <r_i_glide_ecoul>
-1.95260000228882

> <r_i_glide_erotb>
0.503194523535322

> <r_i_glide_esite>
-0.0934799859229344

> <r_i_glide_emodel>
-79.3395553748731

> <r_i_glide_energy>
-57.1363577842712

> <r_i_glide_einternal>
2.82763886451721

> <i_i_glide_confnum>
17

> <i_i_glide_posenum>
142

> <r_i_glide_eff_state_penalty>
0

> <s_user_duplicate_titles>
CHEMBL4439_lig479

> <i_f3d_flags>
0

> <s_m_subgroup_title>
dock_pv

> <s_m_subgroupid>
dock_pv

> <b_m_subgroup_collapsed>
1

$$$$
CHEMBL4439_lig608
                    3D
 Schrodinger Suite 2021-1.
 45 49  0  0  1  0            999 V2000
   13.6217   65.4072    5.8562 C   0  0  0  0  0  0
   13.6457   66.2524    6.9717 C   0  0  0  0  0  0
   14.7724   67.0183    7.2562 C   0  0  0  0  0  0
   15.8971   66.9642    6.4252 C   0  0  0  0  0  0
   15.8373   66.1750    5.2723 C   0  0  0  0  0  0
   14.7197   65.3975    4.9944 C   0  0  0  0  0  0
   17.1462   67.6950    6.7767 C   0  0  0  0  0  0
   17.5583   67.8389    8.1101 C   0  0  0  0  0  0
   18.7031   68.4547    8.5091 N   0  0  0  0  0  0
   17.9877   68.2400    5.7993 C   0  0  0  0  0  0
   19.1427   68.8582    6.1971 N   0  0  0  0  0  0
   19.4945   68.9585    7.5524 C   0  0  0  0  0  0
   20.7370   69.6432    7.5623 C   0  0  0  0  0  0
   21.0018   69.8569    6.2023 C   0  0  0  0  0  0
   20.0631   69.4201    5.3848 N   0  0  0  0  0  0
   21.5492   70.0374    8.6963 C   0  0  0  0  0  0
   12.5331   64.5758    5.6292 N   0  0  0  0  0  0
   11.1424   64.9517    5.9091 C   0  0  0  0  0  0
   10.2869   64.9594    4.6293 C   0  0  0  0  0  0
   10.2742   63.6348    4.0321 N   0  0  0  0  0  0
   11.6412   63.2571    3.6840 C   0  0  0  0  0  0
   12.5679   63.2897    4.9095 C   0  0  0  0  0  0
   22.8188   70.5824    8.6845 C   0  0  0  0  0  0
   23.1382   70.8301    9.9894 N   0  0  0  0  0  0
   22.1798   70.4569   10.8411 N   0  0  0  0  0  0
   21.2297   69.9859   10.0628 C   0  0  0  0  0  0
   12.8046   66.2898    7.6508 H   0  0  0  0  0  0
   14.7675   67.6424    8.1373 H   0  0  0  0  0  0
   16.6674   66.1268    4.5888 H   0  0  0  0  0  0
   14.7190   64.7909    4.1012 H   0  0  0  0  0  0
   16.9672   67.4293    8.9164 H   0  0  0  0  0  0
   17.7914   68.2084    4.7367 H   0  0  0  0  0  0
   21.8859   70.3431    5.8140 H   0  0  0  0  0  0
   10.7339   64.2729    6.6601 H   0  0  0  0  0  0
   11.0871   65.9456    6.3515 H   0  0  0  0  0  0
   10.6691   65.6994    3.9267 H   0  0  0  0  0  0
    9.2593   65.2566    4.8320 H   0  0  0  0  0  0
    9.7109   63.6264    3.1928 H   0  0  0  0  0  0
   12.0322   63.9025    2.9043 H   0  0  0  0  0  0
   11.6269   62.2692    3.2346 H   0  0  0  0  0  0
   13.5788   63.0410    4.5924 H   0  0  0  0  0  0
   12.2860   62.5014    5.6101 H   0  0  0  0  0  0
   23.4936   70.8566    7.8855 H   0  0  0  0  0  0
   23.9985   71.2651   10.2956 H   0  0  0  0  0  0
   20.2965   69.6261   10.4719 H   0  0  0  0  0  0
  1  2  2  0  0  0
  1  6  1  0  0  0
  1 17  1  0  0  0
  2  3  1  0  0  0
  2 27  1  0  0  0
  3  4  2  0  0  0
  3 28  1  0  0  0
  4  5  1  0  0  0
  4  7  1  0  0  0
  5  6  2  0  0  0
  5 29  1  0  0  0
  6 30  1  0  0  0
  7  8  1  0  0  0
  7 10  2  0  0  0
  8  9  2  0  0  0
  8 31  1  0  0  0
  9 12  1  0  0  0
 10 11  1  0  0  0
 10 32  1  0  0  0
 11 12  1  0  0  0
 11 15  1  0  0  0
 12 13  2  0  0  0
 13 14  1  0  0  0
 13 16  1  0  0  0
 14 15  2  0  0  0
 14 33  1  0  0  0
 16 23  2  0  0  0
 16 26  1  0  0  0
 17 18  1  0  0  0
 17 22  1  0  0  0
 18 19  1  0  0  0
 18 34  1  0  0  0
 18 35  1  0  0  0
 19 20  1  0  0  0
 19 36  1  0  0  0
 19 37  1  0  0  0
 20 21  1  0  0  0
 20 38  1  0  0  0
 21 22  1  0  0  0
 21 39  1  0  0  0
 21 40  1  0  0  0
 22 41  1  0  0  0
 22 42  1  0  0  0
 23 24  1  0  0  0
 23 43  1  0  0  0
 24 25  1  0  0  0
 24 44  1  0  0  0
 25 26  2  0  0  0
 26 45  1  0  0  0
M  END
> <s_m_entry_id>
34809

> <s_m_entry_name>
dock_pv.552

> <s_m_Source_Path>
/home/csk/Desktop/cluster/DUD-E-result/tgfr1

> <s_m_Source_File>
dock_pv.maegz

> <i_m_Source_File_Index>
552

> <chembl_id>
CHEMBL2385586

> <chembl_pref_name>
None

> <i_lp_mmshare_version>
53161

> <r_lp_tautomer_probability>
0.5

> <s_lp_Force_Field>
OPLS_2005

> <r_lp_Energy>
41.864843

> <b_lp_Chiralities_Consistent>
1

> <s_lp_Variant>
CHEMBL4439_lig608-1

> <s_i_glide_gridfile>
glide-grid_3hmm

> <i_i_glide_lignum>
824

> <i_i_glide_rotatable_bonds>
3

> <r_i_docking_score>
-6.82926888696896

> <r_i_glide_ligand_efficiency>
-0.262664187960345

> <r_i_glide_ligand_efficiency_sa>
-0.778141623298849

> <r_i_glide_ligand_efficiency_ln>
-1.60383138944571

> <r_i_glide_gscore>
-6.82926888696896

> <r_i_glide_lipo>
-2.98953572238333

> <r_i_glide_hbond>
0

> <r_i_glide_metal>
0

> <r_i_glide_rewards>
-1.87088380689551

> <r_i_glide_evdw>
-41.8907928466797

> <r_i_glide_ecoul>
-2.3471508026123

> <r_i_glide_erotb>
0.47776290503571

> <r_i_glide_esite>
0

> <r_i_glide_emodel>
-61.4354103236888

> <r_i_glide_energy>
-44.237943649292

> <r_i_glide_einternal>
1.04923164844513

> <i_i_glide_confnum>
15

> <i_i_glide_posenum>
175

> <r_i_glide_eff_state_penalty>
0

> <s_user_duplicate_titles>
CHEMBL4439_lig608

> <i_f3d_flags>
0

> <s_m_subgroup_title>
dock_pv

> <s_m_subgroupid>
dock_pv

> <b_m_subgroup_collapsed>
1

$$$$
CHEMBL4439_lig488
                    3D
 Schrodinger Suite 2021-1.
 47 51  0  0  1  0            999 V2000
   20.2032   69.2568    3.7555 C   0  0  0  0  0  0
   20.4218   69.1968    5.1414 C   0  0  0  0  0  0
   21.6851   69.6028    5.6063 C   0  0  0  0  0  0
   22.7020   70.0569    4.7592 C   0  0  0  0  0  0
   21.2193   69.6570    2.9277 N   0  0  0  0  0  0
   22.4737   70.0570    3.3797 C   0  0  0  0  0  0
   23.2264   70.4125    2.3112 N   0  0  0  0  0  0
   22.3873   70.2208    1.3107 C   0  0  0  0  0  0
   21.1839   69.7523    1.5842 N   0  0  0  0  0  0
   19.3156   68.6654    6.0375 C   0  0  0  0  0  0
   19.2052   68.4802    7.4558 C   0  0  0  0  0  0
   18.0361   67.9621    7.7751 N   0  0  0  0  0  0
   17.3472   67.7396    6.6460 N   0  0  0  0  0  0
   18.0911   68.1620    5.5680 C   0  0  0  0  0  0
   16.0671   67.1247    6.6850 C   0  0  0  0  0  0
   15.0668   67.2572    8.0321 S   0  0  0  0  0  0
   15.8297   66.3914    5.5438 N   0  0  0  0  0  0
   14.7696   65.5396    5.1255 C   0  0  0  0  0  0
   13.4692   65.5089    5.6648 C   0  0  0  0  0  0
   12.5275   64.5821    5.2139 C   0  0  0  0  0  0
   12.8586   63.6782    4.2084 C   0  0  0  0  0  0
   14.1244   63.7241    3.6319 C   0  0  0  0  0  0
   15.0667   64.6488    4.0863 C   0  0  0  0  0  0
   20.1339   68.7254    8.6191 C   0  0  0  0  0  0
   20.2152   67.7960    9.6685 C   0  0  0  0  0  0
   21.0834   68.0414   10.7333 C   0  0  0  0  0  0
   21.8846   69.1785   10.7187 C   0  0  0  0  0  0
   21.7627   70.0557    9.6429 C   0  0  0  0  0  0
   20.8684   69.8704    8.6336 N   0  0  0  0  0  0
   22.6759   71.2569    9.5340 C   0  0  0  0  0  0
   11.2886   64.5622    5.7527 F   0  0  0  0  0  0
   19.2839   68.9769    3.2663 H   0  0  0  0  0  0
   21.9618   69.5095    6.6346 H   0  0  0  0  0  0
   23.6598   70.3630    5.1587 H   0  0  0  0  0  0
   22.6768   70.4561    0.2961 H   0  0  0  0  0  0
   17.6973   68.0743    4.5670 H   0  0  0  0  0  0
   16.5962   66.3906    4.8876 H   0  0  0  0  0  0
   13.1368   66.1987    6.4196 H   0  0  0  0  0  0
   12.1263   62.9666    3.8564 H   0  0  0  0  0  0
   14.3710   63.0428    2.8319 H   0  0  0  0  0  0
   16.0451   64.6505    3.6319 H   0  0  0  0  0  0
   19.6186   66.8955    9.6651 H   0  0  0  0  0  0
   21.1557   67.3332   11.5459 H   0  0  0  0  0  0
   22.5954   69.3619   11.5108 H   0  0  0  0  0  0
   23.6418   71.0662   10.0034 H   0  0  0  0  0  0
   22.8750   71.5227    8.4945 H   0  0  0  0  0  0
   22.2191   72.1051   10.0358 H   0  0  0  0  0  0
  1  2  2  0  0  0
  1  5  1  0  0  0
  1 32  1  0  0  0
  2 10  1  0  0  0
  2  3  1  0  0  0
  3  4  2  0  0  0
  3 33  1  0  0  0
  4  6  1  0  0  0
  4 34  1  0  0  0
  5  9  1  0  0  0
  5  6  1  0  0  0
  6  7  2  0  0  0
  7  8  1  0  0  0
  8  9  2  0  0  0
  8 35  1  0  0  0
 10 11  1  0  0  0
 10 14  2  0  0  0
 11 12  2  0  0  0
 11 24  1  0  0  0
 12 13  1  0  0  0
 13 15  1  0  0  0
 13 14  1  0  0  0
 14 36  1  0  0  0
 15 16  2  0  0  0
 15 17  1  0  0  0
 17 18  1  0  0  0
 17 37  1  0  0  0
 18 19  2  0  0  0
 18 23  1  0  0  0
 19 20  1  0  0  0
 19 38  1  0  0  0
 20 21  2  0  0  0
 20 31  1  0  0  0
 21 22  1  0  0  0
 21 39  1  0  0  0
 22 23  2  0  0  0
 22 40  1  0  0  0
 23 41  1  0  0  0
 24 25  2  0  0  0
 24 29  1  0  0  0
 25 26  1  0  0  0
 25 42  1  0  0  0
 26 27  2  0  0  0
 26 43  1  0  0  0
 27 28  1  0  0  0
 27 44  1  0  0  0
 28 29  2  0  0  0
 28 30  1  0  0  0
 30 45  1  0  0  0
 30 46  1  0  0  0
 30 47  1  0  0  0
M  END
> <s_m_entry_id>
34810

> <s_m_entry_name>
dock_pv.553

> <s_m_Source_Path>
/home/csk/Desktop/cluster/DUD-E-result/tgfr1

> <s_m_Source_File>
dock_pv.maegz

> <i_m_Source_File_Index>
553

> <chembl_id>
CHEMBL1835518

> <chembl_pref_name>
None

> <i_lp_mmshare_version>
53161

> <r_lp_tautomer_probability>
1

> <s_lp_Force_Field>
OPLS_2005

> <r_lp_Energy>
30.348141

> <b_lp_Chiralities_Consistent>
1

> <s_lp_Variant>
CHEMBL4439_lig488-1

> <s_i_glide_gridfile>
glide-grid_3hmm

> <i_i_glide_lignum>
634

> <i_i_glide_rotatable_bonds>
5

> <r_i_docking_score>
-6.82771932845781

> <r_i_glide_ligand_efficiency>
-0.220249010595413

> <r_i_glide_ligand_efficiency_sa>
-0.691885979800802

> <r_i_glide_ligand_efficiency_ln>
-1.53985995303534

> <r_i_glide_gscore>
-6.82771932845781

> <r_i_glide_lipo>
-2.46646942242868

> <r_i_glide_hbond>
0

> <r_i_glide_metal>
0

> <r_i_glide_rewards>
-1.98999097118188

> <r_i_glide_evdw>
-55.0166320800781

> <r_i_glide_ecoul>
-1.06091558933258

> <r_i_glide_erotb>
0.538710007556539

> <r_i_glide_esite>
0

> <r_i_glide_emodel>
-77.487598497957

> <r_i_glide_energy>
-56.0775476694107

> <r_i_glide_einternal>
3.85032248497009

> <i_i_glide_confnum>
12

> <i_i_glide_posenum>
329

> <r_i_glide_eff_state_penalty>
0

> <s_user_duplicate_titles>
CHEMBL4439_lig488

> <i_f3d_flags>
0

> <s_m_subgroup_title>
dock_pv

> <s_m_subgroupid>
dock_pv

> <b_m_subgroup_collapsed>
1

$$$$
CHEMBL4439_lig416
                    3D
 Schrodinger Suite 2021-1.
 27 29  0  0  1  0            999 V2000
   13.5313   66.4569    7.0154 C   0  0  0  0  0  0
   14.7447   66.3541    6.3164 C   0  0  0  0  0  0
   14.8497   65.4547    5.2402 C   0  0  0  0  0  0
   12.3981   65.7244    6.6614 C   0  0  0  0  0  0
   12.4935   64.8199    5.5958 C   0  0  0  0  0  0
   13.7251   64.6927    4.9116 C   0  0  0  0  0  0
   13.5138   63.7188    3.9556 N   0  0  0  0  0  0
   12.2537   63.2532    3.9823 N   0  0  0  0  0  0
   11.6319   63.8941    4.9344 C   0  0  0  0  0  0
   10.3214   63.6747    5.2315 N   0  0  0  0  0  0
   15.9212   67.1952    6.7140 C   0  0  0  0  0  0
   16.9219   67.5689    5.8032 C   0  0  0  0  0  0
   17.9910   68.3263    6.2855 C   0  0  0  0  0  0
   18.0671   68.7417    7.5737 N   0  0  0  0  0  0
   17.0426   68.3730    8.3783 C   0  0  0  0  0  0
   15.9782   67.6121    8.0150 N   0  0  0  0  0  0
   17.0663   68.8367    9.6846 N   0  0  0  0  0  0
   13.4567   67.1390    7.8480 H   0  0  0  0  0  0
   15.7706   65.3379    4.6893 H   0  0  0  0  0  0
   11.4671   65.8494    7.1954 H   0  0  0  0  0  0
   14.1612   63.3782    3.2606 H   0  0  0  0  0  0
    9.8506   64.1840    5.9659 H   0  0  0  0  0  0
    9.7690   63.0172    4.7023 H   0  0  0  0  0  0
   16.8869   67.2812    4.7611 H   0  0  0  0  0  0
   18.7980   68.6267    5.6329 H   0  0  0  0  0  0
   16.2870   68.6185   10.2857 H   0  0  0  0  0  0
   17.7629   69.5270    9.9579 H   0  0  0  0  0  0
  1  4  1  0  0  0
  1  2  2  0  0  0
  1 18  1  0  0  0
  2  3  1  0  0  0
  2 11  1  0  0  0
  3  6  2  0  0  0
  3 19  1  0  0  0
  4  5  2  0  0  0
  4 20  1  0  0  0
  5  9  1  0  0  0
  5  6  1  0  0  0
  6  7  1  0  0  0
  7  8  1  0  0  0
  7 21  1  0  0  0
  8  9  2  0  0  0
  9 10  1  0  0  0
 10 22  1  0  0  0
 10 23  1  0  0  0
 11 12  2  0  0  0
 11 16  1  0  0  0
 12 13  1  0  0  0
 12 24  1  0  0  0
 13 14  2  0  0  0
 13 25  1  0  0  0
 14 15  1  0  0  0
 15 16  2  0  0  0
 15 17  1  0  0  0
 17 26  1  0  0  0
 17 27  1  0  0  0
M  END
> <s_m_entry_id>
34814

> <s_m_entry_name>
dock_pv.557

> <s_m_Source_Path>
/home/csk/Desktop/cluster/DUD-E-result/tgfr1

> <s_m_Source_File>
dock_pv.maegz

> <i_m_Source_File_Index>
557

> <chembl_id>
CHEMBL1688215

> <chembl_pref_name>
None

> <i_lp_mmshare_version>
53161

> <r_lp_tautomer_probability>
0.999999987636

> <s_lp_Force_Field>
OPLS_2005

> <r_lp_Energy>
0.711046

> <b_lp_Chiralities_Consistent>
1

> <s_lp_Variant>
CHEMBL4439_lig416-1

> <s_i_glide_gridfile>
glide-grid_3hmm

> <i_i_glide_lignum>
556

> <i_i_glide_rotatable_bonds>
1

> <r_i_docking_score>
-6.80272436764442

> <r_i_glide_ligand_efficiency>
-0.40016025692026

> <r_i_glide_ligand_efficiency_sa>
-1.02892470096041

> <r_i_glide_ligand_efficiency_ln>
-1.77467929829492

> <r_i_glide_gscore>
-6.80272436764442

> <r_i_glide_lipo>
-2.27149813673461

> <r_i_glide_hbond>
-0.32

> <r_i_glide_metal>
0

> <r_i_glide_rewards>
-2.33178995706657

> <r_i_glide_evdw>
-35.9743728637695

> <r_i_glide_ecoul>
-2.75109505653381

> <r_i_glide_erotb>
0.331946627825303

> <r_i_glide_esite>
0

> <r_i_glide_emodel>
-54.6845438276176

> <r_i_glide_energy>
-38.7254679203033

> <r_i_glide_einternal>
0.792114496231079

> <i_i_glide_confnum>
2

> <i_i_glide_posenum>
245

> <r_i_glide_eff_state_penalty>
0

> <s_user_duplicate_titles>
CHEMBL4439_lig416

> <i_f3d_flags>
0

> <s_m_subgroup_title>
dock_pv

> <s_m_subgroupid>
dock_pv

> <b_m_subgroup_collapsed>
1

$$$$
428896
                    3D
 Schrodinger Suite 2021-1.
 49 53  0  0  1  0            999 V2000
   10.4537   63.9190    4.8499 C   0  0  0  0  0  0
   11.9240   64.0077    4.4817 C   0  0  0  0  0  0
   12.4983   63.1923    3.5140 C   0  0  0  0  0  0
   13.8565   63.3419    3.2247 C   0  0  0  0  0  0
   14.6108   64.3212    3.8725 C   0  0  0  0  0  0
   13.9708   65.0903    4.8373 C   0  0  0  0  0  0
   12.6448   64.9390    5.1408 N   0  0  0  0  0  0
   14.6821   66.0392    5.7214 C   0  0  0  0  0  0
   15.5836   67.1232    5.4937 C   0  0  0  0  0  0
   15.6010   67.7514    6.7266 C   0  0  0  0  0  0
   14.9427   66.9318    7.5693 N   0  0  0  0  0  0
   14.4266   65.8805    6.9974 N   0  0  0  0  0  0
   14.6722   67.4745    8.8324 C   0  0  0  0  0  0
   15.5955   68.6891    8.8940 C   0  0  0  0  0  0
   16.0274   68.9835    7.4751 C   0  0  0  0  0  0
   16.2491   67.6751    4.2799 C   0  0  0  0  0  0
   15.4841   67.8849    3.1361 C   0  0  0  0  0  0
   16.0585   68.5054    2.0343 C   0  0  0  0  0  0
   17.3415   68.9260    1.9882 N   0  0  0  0  0  0
   18.1078   68.7661    3.0999 C   0  0  0  0  0  0
   17.6068   68.1455    4.2857 C   0  0  0  0  0  0
   18.4744   68.0603    5.4113 C   0  0  0  0  0  0
   19.7518   68.6277    5.4032 C   0  0  0  0  0  0
   20.2231   69.2113    4.2241 C   0  0  0  0  0  0
   19.4310   69.2588    3.0784 C   0  0  0  0  0  0
   20.5806   68.6836    6.6513 C   0  0  0  0  0  0
   21.5452   69.4413    6.7861 O   0  0  0  0  0  0
   20.1785   67.8000    7.6024 O   0  0  0  0  0  0
   20.7918   67.7793    8.8845 C   0  0  0  0  0  0
    9.9101   63.2473    4.1868 H   0  0  0  0  0  0
   10.3445   63.5639    5.8730 H   0  0  0  0  0  0
    9.9834   64.9033    4.7875 H   0  0  0  0  0  0
   11.9115   62.4576    2.9824 H   0  0  0  0  0  0
   14.2889   62.7485    2.4441 H   0  0  0  0  0  0
   15.6573   64.4538    3.6398 H   0  0  0  0  0  0
   13.6238   67.7702    8.8315 H   0  0  0  0  0  0
   14.8788   66.7368    9.6119 H   0  0  0  0  0  0
   15.0561   69.5667    9.2398 H   0  0  0  0  0  0
   16.4537   68.5138    9.5446 H   0  0  0  0  0  0
   17.0906   69.2215    7.4340 H   0  0  0  0  0  0
   15.4666   69.8629    7.1624 H   0  0  0  0  0  0
   14.4443   67.5880    3.1037 H   0  0  0  0  0  0
   15.4719   68.6884    1.1503 H   0  0  0  0  0  0
   18.1167   67.5691    6.3022 H   0  0  0  0  0  0
   21.2161   69.6444    4.1895 H   0  0  0  0  0  0
   19.8094   69.7183    2.1763 H   0  0  0  0  0  0
   20.4017   66.9494    9.4723 H   0  0  0  0  0  0
   21.8725   67.6627    8.8230 H   0  0  0  0  0  0
   20.5741   68.7012    9.4267 H   0  0  0  0  0  0
  1  2  1  0  0  0
  1 30  1  0  0  0
  1 31  1  0  0  0
  1 32  1  0  0  0
  2  7  1  0  0  0
  2  3  2  0  0  0
  3  4  1  0  0  0
  3 33  1  0  0  0
  4  5  2  0  0  0
  4 34  1  0  0  0
  5  6  1  0  0  0
  5 35  1  0  0  0
  6  7  2  0  0  0
  6  8  1  0  0  0
  8 12  2  0  0  0
  8  9  1  0  0  0
  9 10  2  0  0  0
  9 16  1  0  0  0
 10 15  1  0  0  0
 10 11  1  0  0  0
 11 12  1  0  0  0
 11 13  1  0  0  0
 13 14  1  0  0  0
 13 36  1  0  0  0
 13 37  1  0  0  0
 14 15  1  0  0  0
 14 38  1  0  0  0
 14 39  1  0  0  0
 15 40  1  0  0  0
 15 41  1  0  0  0
 16 21  1  0  0  0
 16 17  2  0  0  0
 17 18  1  0  0  0
 17 42  1  0  0  0
 18 19  2  0  0  0
 18 43  1  0  0  0
 19 20  1  0  0  0
 20 25  2  0  0  0
 20 21  1  0  0  0
 21 22  2  0  0  0
 22 23  1  0  0  0
 22 44  1  0  0  0
 23 24  2  0  0  0
 23 26  1  0  0  0
 24 25  1  0  0  0
 24 45  1  0  0  0
 25 46  1  0  0  0
 26 27  2  0  0  0
 26 28  1  0  0  0
 28 29  1  0  0  0
 29 47  1  0  0  0
 29 48  1  0  0  0
 29 49  1  0  0  0
M  END
> <s_m_entry_id>
34992

> <s_m_entry_name>
ligand_docking-pose.33

> <s_m_Source_Path>
/home/csk/Desktop/cluster/DUD-E-result/tgfr1

> <s_m_Source_File>
ligand_docking-pose.sdf

> <i_m_Source_File_Index>
33

> <i_lp_mmshare_version>
53161

> <i_f3d_flags>
0

> <r_lp_tautomer_probability>
1

> <s_lp_Force_Field>
OPLS_2005

> <r_lp_Energy>
42.676565

> <b_lp_Chiralities_Consistent>
1

> <s_lp_Variant>
428896-1

> <s_i_glide_gridfile>
glide-grid_3hmm

> <i_i_glide_lignum>
128

> <i_i_glide_rotatable_bonds>
4

> <r_i_docking_score>
-8.55266406474898

> <r_i_glide_ligand_efficiency>
-0.294919450508585

> <r_i_glide_ligand_efficiency_sa>
-0.906085989002532

> <r_i_glide_ligand_efficiency_ln>
-1.95834319397948

> <r_i_glide_gscore>
-8.55266406474898

> <r_i_glide_lipo>
-5.11268633746318

> <r_i_glide_hbond>
0

> <r_i_glide_metal>
0

> <r_i_glide_rewards>
-1.62153234129656

> <r_i_glide_evdw>
-45.3716697692871

> <r_i_glide_ecoul>
0.369763672351837

> <r_i_glide_erotb>
0.394673551622348

> <r_i_glide_esite>
0

> <r_i_glide_emodel>
-67.402791819741

> <r_i_glide_energy>
-45.0019060969353

> <r_i_glide_einternal>
1.72000372409821

> <i_i_glide_confnum>
20

> <i_i_glide_posenum>
19

> <r_i_glide_eff_state_penalty>
0

> <s_user_duplicate_titles>
428896

> <s_m_subgroup_title>
dock_pv

> <s_m_subgroupid>
dock_pv1

> <b_m_subgroup_collapsed>
0

$$$$
582136
                    3D
 Schrodinger Suite 2021-1.
 58 62  0  0  1  0            999 V2000
   20.7378   69.2764    4.8119 C   0  0  0  0  0  0
   19.2919   68.8495    4.6457 C   0  0  0  0  0  0
   18.6666   68.8629    3.3971 C   0  0  0  0  0  0
   17.3341   68.4591    3.3180 C   0  0  0  0  0  0
   16.6669   68.0599    4.4771 C   0  0  0  0  0  0
   17.3552   68.0539    5.6973 C   0  0  0  0  0  0
   18.6561   68.4571    5.7804 N   0  0  0  0  0  0
   16.7195   67.6364    6.9958 C   0  0  0  0  0  0
   15.5531   66.9278    7.3610 C   0  0  0  0  0  0
   15.4308   66.8375    8.6815 N   0  0  0  0  0  0
   16.4747   67.4258    9.1980 C   0  0  0  0  0  0
   17.2876   67.9203    8.2146 N   0  0  0  0  0  0
   16.7510   67.4830   10.6905 C   0  0  0  0  0  0
   18.0142   68.1357   11.0200 N   0  0  0  0  0  0
   18.7094   67.9054   12.2156 C   0  0  0  0  0  0
   18.2471   67.0650   13.2346 C   0  0  0  0  0  0
   19.0154   66.8628   14.3795 C   0  0  0  0  0  0
   20.2393   67.5326   14.5362 C   0  0  0  0  0  0
   20.6894   68.3747   13.5140 C   0  0  0  0  0  0
   19.9318   68.5536   12.3630 C   0  0  0  0  0  0
   21.0658   67.3951   15.7905 C   0  0  0  0  0  0
   21.8110   68.2984   16.1661 O   0  0  0  0  0  0
   20.9456   66.2605   16.4780 N   0  0  0  0  0  0
   14.5403   66.3093    6.5071 C   0  0  0  0  0  0
   14.8829   65.5596    5.4327 C   0  0  0  0  0  0
   13.8282   64.9234    4.5273 C   0  0  2  0  0  0
   12.5662   64.5347    5.3829 C   0  0  1  0  0  0
   12.1741   65.6569    6.3375 C   0  0  0  0  0  0
   13.1300   66.4424    6.8699 C   0  0  0  0  0  0
   11.4602   63.9321    4.6606 N   0  0  0  0  0  0
   11.7918   63.2569    3.6321 C   0  0  0  0  0  0
   13.2019   63.1499    3.0023 C   0  0  0  0  0  0
   14.2689   63.7084    3.8501 N   0  0  1  0  0  0
   18.1637   68.4018    8.3555 H   0  0  0  0  0  0
   21.1843   69.5743    3.8624 H   0  0  0  0  0  0
   20.8119   70.1203    5.4980 H   0  0  0  0  0  0
   21.3327   68.4568    5.2167 H   0  0  0  0  0  0
   19.1956   69.1838    2.5115 H   0  0  0  0  0  0
   16.8177   68.4707    2.3694 H   0  0  0  0  0  0
   15.6254   67.7895    4.4149 H   0  0  0  0  0  0
   15.9480   67.9940   11.2251 H   0  0  0  0  0  0
   16.7832   66.4572   11.0529 H   0  0  0  0  0  0
   18.2671   68.9713   10.5047 H   0  0  0  0  0  0
   17.2979   66.5585   13.1515 H   0  0  0  0  0  0
   18.6314   66.2041   15.1451 H   0  0  0  0  0  0
   21.6367   68.8878   13.5973 H   0  0  0  0  0  0
   20.3044   69.2021   11.5827 H   0  0  0  0  0  0
   21.4798   66.1443   17.3257 H   0  0  0  0  0  0
   20.4280   65.4844   16.0969 H   0  0  0  0  0  0
   15.9268   65.4429    5.1842 H   0  0  0  0  0  0
   13.5599   65.6579    3.7683 H   0  0  0  0  0  0
   12.8930   63.7339    6.0278 H   0  0  0  0  0  0
   11.1425   65.7913    6.6336 H   0  0  0  0  0  0
   12.8419   67.2061    7.5773 H   0  0  0  0  0  0
   13.1939   63.6564    2.0376 H   0  0  0  0  0  0
   10.9846   62.7420    3.1186 H   0  0  0  0  0  0
   13.4433   62.1090    2.8023 H   0  0  0  0  0  0
   15.0829   63.8943    3.2813 H   0  0  0  0  0  0
  1  2  1  0  0  0
  1 35  1  0  0  0
  1 36  1  0  0  0
  1 37  1  0  0  0
  2  7  1  0  0  0
  2  3  2  0  0  0
  3  4  1  0  0  0
  3 38  1  0  0  0
  4  5  2  0  0  0
  4 39  1  0  0  0
  5  6  1  0  0  0
  5 40  1  0  0  0
  6  7  2  0  0  0
  6  8  1  0  0  0
  8 12  1  0  0  0
  8  9  2  0  0  0
  9 10  1  0  0  0
  9 24  1  0  0  0
 10 11  2  0  0  0
 11 12  1  0  0  0
 11 13  1  0  0  0
 12 34  1  0  0  0
 13 14  1  0  0  0
 13 41  1  0  0  0
 13 42  1  0  0  0
 14 15  1  0  0  0
 14 43  1  0  0  0
 15 20  1  0  0  0
 15 16  2  0  0  0
 16 17  1  0  0  0
 16 44  1  0  0  0
 17 18  2  0  0  0
 17 45  1  0  0  0
 18 19  1  0  0  0
 18 21  1  0  0  0
 19 20  2  0  0  0
 19 46  1  0  0  0
 20 47  1  0  0  0
 21 22  2  0  0  0
 21 23  1  0  0  0
 23 48  1  0  0  0
 23 49  1  0  0  0
 24 29  1  0  0  0
 24 25  2  0  0  0
 25 26  1  0  0  0
 25 50  1  0  0  0
 26 33  1  0  0  0
 26 27  1  0  0  0
 26 51  1  0  0  0
 27 28  1  0  0  0
 27 52  1  0  0  0
 27 30  1  0  0  0
 28 29  2  0  0  0
 28 53  1  0  0  0
 29 54  1  0  0  0
 30 31  2  0  0  0
 31 32  1  0  0  0
 31 56  1  0  0  0
 32 33  1  0  0  0
 32 57  1  0  0  0
 32 55  1  0  0  0
 33 58  1  0  0  0
M  END
> <s_m_entry_id>
35036

> <s_m_entry_name>
ligand_docking-pose.77

> <s_m_Source_Path>
/home/csk/Desktop/cluster/DUD-E-result/tgfr1

> <s_m_Source_File>
ligand_docking-pose.sdf

> <i_m_Source_File_Index>
77

> <i_lp_mmshare_version>
53161

> <i_f3d_flags>
0

> <r_lp_tautomer_probability>
0.4999964999755

> <s_lp_Force_Field>
OPLS_2005

> <r_lp_Energy>
35.686602

> <b_lp_Chiralities_Consistent>
1

> <s_lp_Variant>
582136-3

> <s_i_glide_gridfile>
glide-grid_3hmm

> <i_i_glide_lignum>
178

> <i_i_glide_rotatable_bonds>
6

> <r_i_docking_score>
-7.87758031532991

> <r_i_glide_ligand_efficiency>
-0.238714555009997

> <r_i_glide_ligand_efficiency_sa>
-0.765685129371836

> <r_i_glide_ligand_efficiency_ln>
-1.75193307420142

> <r_i_glide_gscore>
-7.87758031532991

> <r_i_glide_lipo>
-3.61592101030742

> <r_i_glide_hbond>
-0.153772786171787

> <r_i_glide_metal>
0

> <r_i_glide_rewards>
-1.16860938518932

> <r_i_glide_evdw>
-54.6963157653809

> <r_i_glide_ecoul>
-4.8071494102478

> <r_i_glide_erotb>
0.516611066144828

> <r_i_glide_esite>
0

> <r_i_glide_emodel>
-84.3556371076904

> <r_i_glide_energy>
-59.5034651756287

> <r_i_glide_einternal>
6.42920351028442

> <i_i_glide_confnum>
4

> <i_i_glide_posenum>
6

> <r_i_glide_eff_state_penalty>
0

> <s_user_duplicate_titles>
582136

> <s_m_subgroup_title>
dock_pv

> <s_m_subgroupid>
dock_pv1

> <b_m_subgroup_collapsed>
0

$$$$
582032
                    3D
 Schrodinger Suite 2021-1.
 59 63  0  0  1  0            999 V2000
   20.3516   70.0205    8.5521 C   0  0  0  0  0  0
   20.2432   68.6808    9.2882 C   0  0  0  0  0  0
   18.8456   68.3446    9.7954 C   0  0  0  0  0  0
   18.6241   68.0563   11.1422 C   0  0  0  0  0  0
   17.3700   67.5808   11.5162 C   0  0  0  0  0  0
   16.3981   67.3664   10.5380 C   0  0  0  0  0  0
   16.6652   67.6990    9.1985 C   0  0  0  0  0  0
   17.8640   68.2379    8.8592 N   0  0  0  0  0  0
   15.6602   67.4159    8.0912 C   0  0  0  0  0  0
   15.5718   67.3864    6.6677 C   0  0  0  0  0  0
   14.3240   67.0929    6.2761 N   0  0  0  0  0  0
   13.6578   66.7467    7.3376 C   0  0  0  0  0  0
   14.4099   66.9852    8.4320 N   0  0  0  0  0  0
   12.2626   66.1459    7.4889 C   0  0  0  0  0  0
   11.4670   65.7194    6.3476 N   0  0  0  0  0  0
   11.8181   64.7295    5.4289 C   0  0  0  0  0  0
   10.8063   64.1257    4.6778 C   0  0  0  0  0  0
   11.1314   63.2570    3.6343 C   0  0  0  0  0  0
   12.4680   63.0471    3.2997 C   0  0  0  0  0  0
   13.4664   63.6569    4.0493 C   0  0  0  0  0  0
   13.1436   64.4086    5.1647 C   0  0  0  0  0  0
   14.8395   63.6700    3.6167 C   0  0  0  0  0  0
   15.9738   63.8803    3.2320 C   0  0  0  0  0  0
   16.6082   67.5864    5.6336 C   0  0  0  0  0  0
   16.2674   67.6569    4.3233 C   0  0  0  0  0  0
   17.2741   67.7939    3.1844 C   0  0  2  0  0  0
   18.6525   68.4190    3.6697 C   0  0  2  0  0  0
   18.9686   68.0571    5.1079 C   0  0  0  0  0  0
   18.0184   67.6571    5.9682 C   0  0  0  0  0  0
   18.6670   69.8557    3.4887 N   0  0  2  0  0  0
   18.3572   70.2236    2.1049 C   0  0  0  0  0  0
   17.0729   69.5528    1.6320 C   0  0  0  0  0  0
   16.5982   68.4598    2.0717 N   0  0  0  0  0  0
   14.0942   66.8575    9.3819 H   0  0  0  0  0  0
   21.3502   70.1540    8.1339 H   0  0  0  0  0  0
   19.6398   70.0732    7.7274 H   0  0  0  0  0  0
   20.1727   70.8532    9.2320 H   0  0  0  0  0  0
   20.5518   67.8782    8.6164 H   0  0  0  0  0  0
   20.9552   68.6659   10.1144 H   0  0  0  0  0  0
   19.4137   68.1565   11.8718 H   0  0  0  0  0  0
   17.1662   67.3273   12.5459 H   0  0  0  0  0  0
   15.4670   66.9248   10.8435 H   0  0  0  0  0  0
   12.3033   65.2570    8.0871 H   0  0  0  0  0  0
   11.6391   66.8563    8.0216 H   0  0  0  0  0  0
   10.4820   65.9463    6.4059 H   0  0  0  0  0  0
    9.7690   64.3529    4.8756 H   0  0  0  0  0  0
   10.3476   62.8105    3.0404 H   0  0  0  0  0  0
   12.7190   62.4572    2.4313 H   0  0  0  0  0  0
   13.9496   64.8097    5.7459 H   0  0  0  0  0  0
   16.9478   64.0568    2.8320 H   0  0  0  0  0  0
   15.2262   67.5896    4.0406 H   0  0  0  0  0  0
   17.4838   66.7757    2.8554 H   0  0  0  0  0  0
   19.4607   68.0321    3.0613 H   0  0  0  0  0  0
   20.0003   68.0314    5.4285 H   0  0  0  0  0  0
   18.3824   67.2294    6.8782 H   0  0  0  0  0  0
   19.5783   70.2054    3.7470 H   0  0  0  0  0  0
   19.1786   69.9296    1.4504 H   0  0  0  0  0  0
   16.5186   70.0316    0.8321 H   0  0  0  0  0  0
   18.2485   71.3054    2.0320 H   0  0  0  0  0  0
  1  2  1  0  0  0
  1 35  1  0  0  0
  1 36  1  0  0  0
  1 37  1  0  0  0
  2  3  1  0  0  0
  2 38  1  0  0  0
  2 39  1  0  0  0
  3  8  1  0  0  0
  3  4  2  0  0  0
  4  5  1  0  0  0
  4 40  1  0  0  0
  5  6  2  0  0  0
  5 41  1  0  0  0
  6  7  1  0  0  0
  6 42  1  0  0  0
  7  8  2  0  0  0
  7  9  1  0  0  0
  9 13  1  0  0  0
  9 10  2  0  0  0
 10 11  1  0  0  0
 10 24  1  0  0  0
 11 12  2  0  0  0
 12 13  1  0  0  0
 12 14  1  0  0  0
 13 34  1  0  0  0
 14 15  1  0  0  0
 14 43  1  0  0  0
 14 44  1  0  0  0
 15 16  1  0  0  0
 15 45  1  0  0  0
 16 21  1  0  0  0
 16 17  2  0  0  0
 17 18  1  0  0  0
 17 46  1  0  0  0
 18 19  2  0  0  0
 18 47  1  0  0  0
 19 20  1  0  0  0
 19 48  1  0  0  0
 20 21  2  0  0  0
 20 22  1  0  0  0
 21 49  1  0  0  0
 22 23  3  0  0  0
 23 50  1  0  0  0
 24 29  1  0  0  0
 24 25  2  0  0  0
 25 26  1  0  0  0
 25 51  1  0  0  0
 26 27  1  0  0  0
 26 52  1  0  0  0
 26 33  1  0  0  0
 27 28  1  0  0  0
 27 30  1  0  0  0
 27 53  1  0  0  0
 28 29  2  0  0  0
 28 54  1  0  0  0
 29 55  1  0  0  0
 30 56  1  0  0  0
 30 31  1  0  0  0
 31 57  1  0  0  0
 31 59  1  0  0  0
 31 32  1  0  0  0
 32 58  1  0  0  0
 32 33  2  0  0  0
M  END
> <s_m_entry_id>
35056

> <s_m_entry_name>
ligand_docking-pose.97

> <s_m_Source_Path>
/home/csk/Desktop/cluster/DUD-E-result/tgfr1

> <s_m_Source_File>
ligand_docking-pose.sdf

> <i_m_Source_File_Index>
97

> <i_lp_mmshare_version>
53161

> <i_f3d_flags>
0

> <r_lp_tautomer_probability>
0.4999964999755

> <s_lp_Force_Field>
OPLS_2005

> <r_lp_Energy>
33.486223

> <b_lp_Chiralities_Consistent>
1

> <s_lp_Variant>
582032-5

> <s_i_glide_gridfile>
glide-grid_3hmm

> <i_i_glide_lignum>
265

> <i_i_glide_rotatable_bonds>
7

> <r_i_docking_score>
-7.43273709271559

> <r_i_glide_ligand_efficiency>
-0.225234457355018

> <r_i_glide_ligand_efficiency_sa>
-0.722447253422187

> <r_i_glide_ligand_efficiency_ln>
-1.65300224476694

> <r_i_glide_gscore>
-7.43273709271559

> <r_i_glide_lipo>
-4.82024106679625

> <r_i_glide_hbond>
-0.148404598153457

> <r_i_glide_metal>
0

> <r_i_glide_rewards>
-1.58265745859832

> <r_i_glide_evdw>
-38.2710037231445

> <r_i_glide_ecoul>
2.76383662223816

> <r_i_glide_erotb>
0.632871365803229

> <r_i_glide_esite>
-0.0153306421492925

> <r_i_glide_emodel>
-39.1409724128885

> <r_i_glide_energy>
-35.5071671009064

> <r_i_glide_einternal>
13.0609865188599

> <i_i_glide_confnum>
25

> <i_i_glide_posenum>
84

> <r_i_glide_eff_state_penalty>
0

> <s_user_duplicate_titles>
582032

> <s_m_subgroup_title>
dock_pv

> <s_m_subgroupid>
dock_pv1

> <b_m_subgroup_collapsed>
0

$$$$
