CHEMBL3972_lig82
                    3D
 Schrodinger Suite 2021-1.
 61 62  0  0  1  0            999 V2000
   71.1211   20.3538   28.6497 C   0  0  0  0  0  0
   71.5972   19.3972   27.7473 C   0  0  0  0  0  0
   70.7827   18.3740   27.2910 C   0  0  0  0  0  0
   69.4784   18.2184   27.7664 C   0  0  0  0  0  0
   68.9766   19.1896   28.6424 C   0  0  0  0  0  0
   69.7770   20.2491   29.0602 C   0  0  0  0  0  0
   72.1432   21.4112   29.1587 C   0  0  1  0  0  0
   68.6799   16.9914   27.3735 C   0  0  0  0  0  0
   69.0823   16.2291   26.4910 O   0  0  0  0  0  0
   67.5916   16.7187   28.1152 N   0  0  0  0  0  0
   66.7225   15.5433   27.9992 C   0  0  2  0  0  0
   65.2908   15.9858   28.3702 C   0  0  0  0  0  0
   64.9604   16.2501   29.5080 O   0  0  0  0  0  0
   64.4575   15.9909   27.2910 O   0  0  0  0  0  0
   72.8129   22.1874   27.9822 C   0  0  0  0  0  0
   71.6238   22.3409   30.2858 C   0  0  0  0  0  0
   74.0734   23.0451   28.2493 C   0  0  0  0  0  0
   74.9856   23.2190   27.0153 C   0  0  0  0  0  0
   76.1681   24.1739   27.2745 C   0  0  0  0  0  0
   76.0720   25.5538   27.0199 C   0  0  0  0  0  0
   77.1079   26.3910   27.2910 N   0  0  0  0  0  0
   78.2443   25.8531   27.7843 C   0  0  0  0  0  0
   78.4415   24.5451   28.0458 N   0  0  0  0  0  0
   77.3966   23.7239   27.7888 C   0  0  0  0  0  0
   79.2861   26.7269   28.0669 N   0  0  0  0  0  0
   77.5999   22.3876   28.0910 N   0  0  0  0  0  0
   74.8888   25.9909   26.4909 O   0  0  0  0  0  0
   72.6025   22.7235   31.3983 C   0  0  0  0  0  0
   70.4908   22.8158   30.2686 O   0  0  0  0  0  0
   73.2556   21.6458   31.8362 F   0  0  0  0  0  0
   73.4538   23.5910   30.8910 F   0  0  0  0  0  0
   71.9798   23.3143   32.4171 F   0  0  0  0  0  0
   67.1997   14.4162   28.9712 C   0  0  0  0  0  0
   68.6164   13.8296   28.7820 C   0  0  0  0  0  0
   68.7559   12.9076   27.5703 C   0  0  0  0  0  0
   68.4369   11.7188   27.5698 O   0  0  0  0  0  0
   69.2891   13.5441   26.4910 O   0  0  0  0  0  0
   72.6193   19.4124   27.3981 H   0  0  0  0  0  0
   71.2021   17.6674   26.5923 H   0  0  0  0  0  0
   67.9697   19.1386   29.0301 H   0  0  0  0  0  0
   69.3156   20.9298   29.7535 H   0  0  0  0  0  0
   72.9263   20.8038   29.6141 H   0  0  0  0  0  0
   67.3010   17.3866   28.8121 H   0  0  0  0  0  0
   66.7302   15.1712   26.9716 H   0  0  0  0  0  0
   64.8511   15.9113   26.3991 H   0  0  0  0  0  0
   72.0628   22.7908   27.4702 H   0  0  0  0  0  0
   73.1486   21.4369   27.2828 H   0  0  0  0  0  0
   74.6678   22.5903   29.0418 H   0  0  0  0  0  0
   73.7615   24.0318   28.5937 H   0  0  0  0  0  0
   74.3997   23.5643   26.1632 H   0  0  0  0  0  0
   75.3572   22.2429   26.7005 H   0  0  0  0  0  0
   80.1648   26.3910   28.4486 H   0  0  0  0  0  0
   79.1225   27.7152   27.9252 H   0  0  0  0  0  0
   76.8283   21.7483   27.9840 H   0  0  0  0  0  0
   78.4481   22.1016   28.5612 H   0  0  0  0  0  0
   74.2629   25.2620   26.4635 H   0  0  0  0  0  0
   67.1464   14.7839   29.9984 H   0  0  0  0  0  0
   66.4893   13.5911   28.9305 H   0  0  0  0  0  0
   69.3745   14.6114   28.7684 H   0  0  0  0  0  0
   68.8521   13.2220   29.6557 H   0  0  0  0  0  0
   69.4012   14.4990   26.6184 H   0  0  0  0  0  0
  1  6  1  0  0  0
  1  2  2  0  0  0
  1  7  1  0  0  0
  2  3  1  0  0  0
  2 38  1  0  0  0
  3  4  2  0  0  0
  3 39  1  0  0  0
  4  5  1  0  0  0
  4  8  1  0  0  0
  5  6  2  0  0  0
  5 40  1  0  0  0
  6 41  1  0  0  0
  7 15  1  0  0  0
  7 16  1  0  0  0
  7 42  1  0  0  0
  8  9  2  0  0  0
  8 10  1  0  0  0
 10 11  1  0  0  0
 10 43  1  0  0  0
 11 12  1  0  0  0
 11 33  1  0  0  0
 11 44  1  0  0  0
 12 13  2  0  0  0
 12 14  1  0  0  0
 14 45  1  0  0  0
 15 17  1  0  0  0
 15 46  1  0  0  0
 15 47  1  0  0  0
 16 28  1  0  0  0
 16 29  2  0  0  0
 17 18  1  0  0  0
 17 48  1  0  0  0
 17 49  1  0  0  0
 18 19  1  0  0  0
 18 50  1  0  0  0
 18 51  1  0  0  0
 19 20  1  0  0  0
 19 24  2  0  0  0
 20 21  2  0  0  0
 20 27  1  0  0  0
 21 22  1  0  0  0
 22 23  2  0  0  0
 22 25  1  0  0  0
 23 24  1  0  0  0
 24 26  1  0  0  0
 25 52  1  0  0  0
 25 53  1  0  0  0
 26 54  1  0  0  0
 26 55  1  0  0  0
 27 56  1  0  0  0
 28 30  1  0  0  0
 28 31  1  0  0  0
 28 32  1  0  0  0
 33 34  1  0  0  0
 33 57  1  0  0  0
 33 58  1  0  0  0
 34 35  1  0  0  0
 34 59  1  0  0  0
 34 60  1  0  0  0
 35 36  2  0  0  0
 35 37  1  0  0  0
 37 61  1  0  0  0
M  END
> <s_m_entry_id>
24849

> <s_m_entry_name>
dock_pv.2

> <s_m_Source_Path>
/home/csk/Desktop/cluster/DUD-E-result/pur2

> <s_m_Source_File>
dock_pv.maegz

> <i_m_Source_File_Index>
2

> <chembl_id>
CHEMBL379094

> <chembl_pref_name>
None

> <i_lp_mmshare_version>
53161

> <r_lp_tautomer_probability>
0.0160304617775627

> <s_lp_Force_Field>
OPLS_2005

> <r_lp_Energy>
10.72159

> <b_lp_Chiralities_Consistent>
1

> <s_lp_Variant>
CHEMBL3972_lig82-6

> <s_i_glide_gridfile>
glide-grid_1njs

> <i_i_glide_lignum>
206

> <i_i_glide_rotatable_bonds>
17

> <r_i_docking_score>
-13.4206167313837

> <r_i_glide_ligand_efficiency>
-0.362719371118478

> <r_i_glide_ligand_efficiency_sa>
-1.20866141300148

> <r_i_glide_ligand_efficiency_ln>
-2.91061714514179

> <r_i_glide_gscore>
-13.4206167313837

> <r_i_glide_lipo>
-2.7203008528762

> <r_i_glide_hbond>
-1.23112741876044

> <r_i_glide_metal>
0

> <r_i_glide_rewards>
-3.19673535231496

> <r_i_glide_evdw>
-62.9011650085449

> <r_i_glide_ecoul>
-25.0241298675537

> <r_i_glide_erotb>
0.673668662720421

> <r_i_glide_esite>
-0.0474440395922013

> <r_i_glide_emodel>
-146.323980289769

> <r_i_glide_energy>
-87.9252948760986

> <r_i_glide_einternal>
14.371600151062

> <i_i_glide_confnum>
38

> <i_i_glide_posenum>
195

> <r_i_glide_eff_state_penalty>
0

> <s_user_duplicate_titles>
CHEMBL3972_lig82,CHEMBL3972_lig87,CHEMBL3972_lig82,CHEMBL3972_lig87,451383,346347

> <i_f3d_flags>
0

> <s_m_subgroup_title>
dock_pv

> <s_m_subgroupid>
dock_pv

> <b_m_subgroup_collapsed>
1

$$$$
CHEMBL3972_lig88
                    3D
 Schrodinger Suite 2021-1.
 65 67  0  0  1  0            999 V2000
   72.4614   21.7879   29.9824 C   0  0  0  0  0  0
   71.4178   23.1910   30.4909 S   0  0  0  0  0  0
   72.5670   24.1308   31.5254 C   0  0  0  0  0  0
   72.9746   23.3706   32.7930 C   0  0  0  0  0  0
   73.7390   22.0587   32.5287 C   0  0  0  0  0  0
   72.8894   20.8450   31.4698 S   0  0  0  0  0  0
   71.6371   20.8150   29.0898 C   0  0  0  0  0  0
   72.2654   19.9986   28.1388 C   0  0  0  0  0  0
   71.5616   19.0127   27.4646 C   0  0  0  0  0  0
   70.1998   18.8067   27.7149 C   0  0  0  0  0  0
   69.5421   19.6692   28.5985 C   0  0  0  0  0  0
   70.2543   20.6450   29.2870 C   0  0  0  0  0  0
   73.7808   22.2779   29.2806 C   0  0  0  0  0  0
   73.5712   23.1358   28.0102 C   0  0  0  0  0  0
   74.7617   23.1244   27.0343 C   0  0  0  0  0  0
   75.9444   24.0410   27.3774 C   0  0  0  0  0  0
   75.8580   25.4348   26.9558 C   0  0  0  0  0  0
   76.9859   26.1403   27.1820 N   0  0  0  0  0  0
   78.1316   25.6558   27.7214 C   0  0  0  0  0  0
   78.2022   24.4301   28.0910 N   0  0  0  0  0  0
   77.1066   23.6332   27.9467 C   0  0  0  0  0  0
   74.8890   25.9889   26.4425 O   0  0  0  0  0  0
   79.2195   26.5288   27.8729 N   0  0  0  0  0  0
   77.2887   22.3909   28.4623 N   0  0  0  0  0  0
   69.5078   17.6305   27.0726 C   0  0  0  0  0  0
   70.0893   16.9969   26.1966 O   0  0  0  0  0  0
   68.3152   17.2541   27.5684 N   0  0  0  0  0  0
   67.5413   16.0689   27.1691 C   0  0  2  0  0  0
   66.2536   16.0068   28.0262 C   0  0  0  0  0  0
   65.1868   15.5659   27.2911 O   0  0  0  0  0  0
   66.2288   16.2698   29.2116 O   0  0  0  0  0  0
   68.4348   14.7945   27.3156 C   0  0  0  0  0  0
   67.7225   13.4341   27.3446 C   0  0  0  0  0  0
   68.7188   12.2800   27.2908 C   0  0  0  0  0  0
   69.3729   12.0929   28.4714 O   0  0  0  0  0  0
   68.8890   11.5858   26.2929 O   0  0  0  0  0  0
   73.4172   24.3915   30.9045 H   0  0  0  0  0  0
   72.0896   25.0736   31.7832 H   0  0  0  0  0  0
   73.5929   24.0219   33.4127 H   0  0  0  0  0  0
   72.0903   23.1903   33.3972 H   0  0  0  0  0  0
   74.7126   22.2444   32.0843 H   0  0  0  0  0  0
   73.9320   21.5526   33.4751 H   0  0  0  0  0  0
   73.3171   20.0681   27.9227 H   0  0  0  0  0  0
   72.1021   18.3931   26.7638 H   0  0  0  0  0  0
   68.4900   19.5645   28.8169 H   0  0  0  0  0  0
   69.7146   21.2368   30.0099 H   0  0  0  0  0  0
   74.4254   22.8343   29.9517 H   0  0  0  0  0  0
   74.4052   21.4148   29.0499 H   0  0  0  0  0  0
   72.7027   22.7574   27.4732 H   0  0  0  0  0  0
   73.3052   24.1580   28.2800 H   0  0  0  0  0  0
   75.1069   22.0990   26.8896 H   0  0  0  0  0  0
   74.3924   23.4131   26.0482 H   0  0  0  0  0  0
   76.9506   27.0922   26.8547 H   0  0  0  0  0  0
   80.0409   26.2479   28.3896 H   0  0  0  0  0  0
   79.1091   27.5266   27.7693 H   0  0  0  0  0  0
   76.5306   21.7288   28.4497 H   0  0  0  0  0  0
   78.1371   22.1466   28.9558 H   0  0  0  0  0  0
   67.8908   17.8053   28.2998 H   0  0  0  0  0  0
   67.2667   16.2066   26.1196 H   0  0  0  0  0  0
   65.2874   15.5897   26.3167 H   0  0  0  0  0  0
   69.0437   14.8860   28.2189 H   0  0  0  0  0  0
   69.1455   14.7653   26.4910 H   0  0  0  0  0  0
   67.0422   13.3473   26.4928 H   0  0  0  0  0  0
   67.1302   13.3530   28.2561 H   0  0  0  0  0  0
   69.1481   12.7487   29.1347 H   0  0  0  0  0  0
  1  7  1  0  0  0
  1 13  1  0  0  0
  1  2  1  0  0  0
  1  6  1  0  0  0
  2  3  1  0  0  0
  3  4  1  0  0  0
  3 37  1  0  0  0
  3 38  1  0  0  0
  4  5  1  0  0  0
  4 39  1  0  0  0
  4 40  1  0  0  0
  5  6  1  0  0  0
  5 41  1  0  0  0
  5 42  1  0  0  0
  7 12  1  0  0  0
  7  8  2  0  0  0
  8  9  1  0  0  0
  8 43  1  0  0  0
  9 10  2  0  0  0
  9 44  1  0  0  0
 10 11  1  0  0  0
 10 25  1  0  0  0
 11 12  2  0  0  0
 11 45  1  0  0  0
 12 46  1  0  0  0
 13 14  1  0  0  0
 13 47  1  0  0  0
 13 48  1  0  0  0
 14 15  1  0  0  0
 14 49  1  0  0  0
 14 50  1  0  0  0
 15 16  1  0  0  0
 15 51  1  0  0  0
 15 52  1  0  0  0
 16 21  2  0  0  0
 16 17  1  0  0  0
 17 18  1  0  0  0
 17 22  2  0  0  0
 18 19  1  0  0  0
 18 53  1  0  0  0
 19 20  2  0  0  0
 19 23  1  0  0  0
 20 21  1  0  0  0
 21 24  1  0  0  0
 23 54  1  0  0  0
 23 55  1  0  0  0
 24 56  1  0  0  0
 24 57  1  0  0  0
 25 26  2  0  0  0
 25 27  1  0  0  0
 27 28  1  0  0  0
 27 58  1  0  0  0
 28 29  1  0  0  0
 28 32  1  0  0  0
 28 59  1  0  0  0
 29 30  1  0  0  0
 29 31  2  0  0  0
 30 60  1  0  0  0
 32 33  1  0  0  0
 32 61  1  0  0  0
 32 62  1  0  0  0
 33 34  1  0  0  0
 33 63  1  0  0  0
 33 64  1  0  0  0
 34 35  1  0  0  0
 34 36  2  0  0  0
 35 65  1  0  0  0
M  END
> <s_m_entry_id>
24850

> <s_m_entry_name>
dock_pv.3

> <s_m_Source_Path>
/home/csk/Desktop/cluster/DUD-E-result/pur2

> <s_m_Source_File>
dock_pv.maegz

> <i_m_Source_File_Index>
3

> <chembl_id>
CHEMBL452837

> <chembl_pref_name>
None

> <i_lp_mmshare_version>
53161

> <r_lp_tautomer_probability>
0.982528302960407

> <s_lp_Force_Field>
OPLS_2005

> <r_lp_Energy>
23.417857

> <b_lp_Chiralities_Consistent>
1

> <s_lp_Variant>
CHEMBL3972_lig88-1

> <s_i_glide_gridfile>
glide-grid_1njs

> <i_i_glide_lignum>
228

> <i_i_glide_rotatable_bonds>
14

> <r_i_docking_score>
-13.3341009151644

> <r_i_glide_ligand_efficiency>
-0.370391692087899

> <r_i_glide_ligand_efficiency_sa>
-1.22300641940833

> <r_i_glide_ligand_efficiency_ln>
-2.90914057391367

> <r_i_glide_gscore>
-13.3341009151644

> <r_i_glide_lipo>
-2.96867066774157

> <r_i_glide_hbond>
-1.87743258341776

> <r_i_glide_metal>
0

> <r_i_glide_rewards>
-2.01832003124534

> <r_i_glide_evdw>
-59.541576385498

> <r_i_glide_ecoul>
-28.3127212524414

> <r_i_glide_erotb>
0.604454687287609

> <r_i_glide_esite>
-0.0970535007724104

> <r_i_glide_emodel>
-146.137516952914

> <r_i_glide_energy>
-87.8542976379395

> <r_i_glide_einternal>
9.81820487976074

> <i_i_glide_confnum>
53

> <i_i_glide_posenum>
144

> <r_i_glide_eff_state_penalty>
0

> <s_user_duplicate_titles>
CHEMBL3972_lig88,CHEMBL3972_lig88

> <i_f3d_flags>
0

> <s_m_subgroup_title>
dock_pv

> <s_m_subgroupid>
dock_pv

> <b_m_subgroup_collapsed>
1

$$$$
CHEMBL3972_lig62 
                    3D
 Schrodinger Suite 2021-1.
 53 55  0  0  1  0            999 V2000
   79.2849   26.8450   27.7905 N   0  0  0  0  0  0
   78.1710   26.0150   27.6143 C   0  0  0  0  0  0
   77.0756   26.5085   26.9188 N   0  0  0  0  0  0
   78.1732   24.8115   28.0901 N   0  0  0  0  0  0
   77.0142   24.1183   27.9364 C   0  0  0  0  0  0
   76.7595   22.8724   28.4303 N   0  0  0  0  0  0
   75.4527   22.5080   28.1531 C   0  0  0  0  0  0
   74.8832   21.1972   28.6354 C   0  0  0  0  0  0
   73.7177   21.3534   29.6460 C   0  0  0  0  0  0
   72.1094   22.0146   29.0992 S   0  0  0  0  0  0
   71.0902   20.6438   28.6389 C   0  0  0  0  0  0
   69.7917   20.5068   29.1326 C   0  0  0  0  0  0
   69.0067   19.3927   28.7789 C   0  0  0  0  0  0
   69.5072   18.4206   27.8767 C   0  0  0  0  0  0
   68.7049   17.1902   27.4148 C   0  0  0  0  0  0
   67.5147   16.9026   27.9954 N   0  0  0  0  0  0
   66.6724   15.7617   27.5876 C   0  0  1  0  0  0
   67.2115   14.4367   28.1986 C   0  0  0  0  0  0
   68.5466   13.8948   27.6447 C   0  0  0  0  0  0
   68.6856   12.3701   27.8286 C   0  0  0  0  0  0
   68.9785   12.0046   29.1214 O   0  0  0  0  0  0
   68.5171   11.5433   26.9243 O   0  0  0  0  0  0
   65.1841   15.9966   27.9629 C   0  0  0  0  0  0
   64.2984   15.9764   26.8925 O   0  0  0  0  0  0
   64.8763   16.1718   29.1215 O   0  0  0  0  0  0
   69.1812   16.4925   26.5111 O   0  0  0  0  0  0
   70.8169   18.6021   27.3908 C   0  0  0  0  0  0
   71.6148   19.6936   27.7676 C   0  0  0  0  0  0
   74.9009   23.5493   27.4015 C   0  0  0  0  0  0
   75.8557   24.5690   27.2955 C   0  0  0  0  0  0
   75.8749   25.8899   26.6819 C   0  0  0  0  0  0
   74.9818   26.4179   26.0200 O   0  0  0  0  0  0
   80.1328   26.5501   28.2422 H   0  0  0  0  0  0
   79.3401   27.7922   27.4149 H   0  0  0  0  0  0
   77.1658   27.4176   26.4749 H   0  0  0  0  0  0
   77.4314   22.3203   28.9441 H   0  0  0  0  0  0
   75.6951   20.6661   29.1410 H   0  0  0  0  0  0
   74.5880   20.5520   27.8030 H   0  0  0  0  0  0
   74.0463   21.9949   30.4632 H   0  0  0  0  0  0
   73.5097   20.3906   30.1123 H   0  0  0  0  0  0
   69.3776   21.2728   29.7982 H   0  0  0  0  0  0
   68.0070   19.3329   29.1895 H   0  0  0  0  0  0
   67.1985   17.4400   28.7835 H   0  0  0  0  0  0
   66.7038   15.7088   26.5021 H   0  0  0  0  0  0
   66.4885   13.6511   28.0577 H   0  0  0  0  0  0
   67.2856   14.5262   29.2941 H   0  0  0  0  0  0
   69.3968   14.3696   28.1436 H   0  0  0  0  0  0
   68.6310   14.1233   26.5831 H   0  0  0  0  0  0
   69.1124   11.0521   29.1996 H   0  0  0  0  0  0
   64.7160   15.8631   25.9694 H   0  0  0  0  0  0
   71.2358   17.9145   26.6741 H   0  0  0  0  0  0
   72.6018   19.8190   27.3417 H   0  0  0  0  0  0
   73.8919   23.5933   27.0092 H   0  0  0  0  0  0
  1  2  1  0  0  0
  1 33  1  0  0  0
  1 34  1  0  0  0
  2  3  1  0  0  0
  2  4  2  0  0  0
  3 31  1  0  0  0
  3 35  1  0  0  0
  4  5  1  0  0  0
  5  6  1  0  0  0
  5 30  2  0  0  0
  6  7  1  0  0  0
  6 36  1  0  0  0
  7  8  1  0  0  0
  7 29  2  0  0  0
  8  9  1  0  0  0
  8 37  1  0  0  0
  8 38  1  0  0  0
  9 10  1  0  0  0
  9 39  1  0  0  0
  9 40  1  0  0  0
 10 11  1  0  0  0
 11 12  2  0  0  0
 11 28  1  0  0  0
 12 13  1  0  0  0
 12 41  1  0  0  0
 13 14  2  0  0  0
 13 42  1  0  0  0
 14 15  1  0  0  0
 14 27  1  0  0  0
 15 16  1  0  0  0
 15 26  2  0  0  0
 16 17  1  0  0  0
 16 43  1  0  0  0
 17 18  1  0  0  0
 17 23  1  0  0  0
 17 44  1  0  0  0
 18 19  1  0  0  0
 18 45  1  0  0  0
 18 46  1  0  0  0
 19 20  1  0  0  0
 19 47  1  0  0  0
 19 48  1  0  0  0
 20 21  1  0  0  0
 20 22  2  0  0  0
 21 49  1  0  0  0
 23 24  1  0  0  0
 23 25  2  0  0  0
 24 50  1  0  0  0
 27 28  2  0  0  0
 27 51  1  0  0  0
 28 52  1  0  0  0
 29 30  1  0  0  0
 29 53  1  0  0  0
 30 31  1  0  0  0
 31 32  2  0  0  0
M  END
> <s_m_entry_id>
24851

> <s_m_entry_name>
dock_pv.4

> <s_m_Source_Path>
/home/csk/Desktop/cluster/DUD-E-result/pur2

> <s_m_Source_File>
dock_pv.maegz

> <i_m_Source_File_Index>
4

> <chembl_id>
CHEMBL4467936

> <chembl_pref_name>
None

> <i_lp_mmshare_version>
53161

> <r_lp_tautomer_probability>
1

> <s_lp_Force_Field>
OPLS_2005

> <r_lp_Energy>
16.645114

> <b_lp_Chiralities_Consistent>
1

> <s_lp_Variant>
CHEMBL3972_lig62 -1

> <s_i_glide_gridfile>
glide-grid_1njs

> <i_i_glide_lignum>
132

> <i_i_glide_rotatable_bonds>
13

> <r_i_docking_score>
-13.3086647156307

> <r_i_glide_ligand_efficiency>
-0.41589577236346

> <r_i_glide_ligand_efficiency_sa>
-1.32038677159239

> <r_i_glide_ligand_efficiency_ln>
-2.98017281032831

> <r_i_glide_gscore>
-13.3086647156307

> <r_i_glide_lipo>
-2.24578901656508

> <r_i_glide_hbond>
-1.32521132899211

> <r_i_glide_metal>
0

> <r_i_glide_rewards>
-3.29319557211823

> <r_i_glide_evdw>
-61.7942695617676

> <r_i_glide_ecoul>
-42.1344795227051

> <r_i_glide_erotb>
0.733856955730911

> <r_i_glide_esite>
-0.088612275597812

> <r_i_glide_emodel>
-179.837516207041

> <r_i_glide_energy>
-103.928749084473

> <r_i_glide_einternal>
9.32196712493896

> <i_i_glide_confnum>
182

> <i_i_glide_posenum>
144

> <r_i_glide_eff_state_penalty>
0

> <s_user_duplicate_titles>
CHEMBL3972_lig62 

> <i_f3d_flags>
0

> <s_m_subgroup_title>
dock_pv

> <s_m_subgroupid>
dock_pv

> <b_m_subgroup_collapsed>
1

$$$$
CHEMBL3972_lig51
                    3D
 Schrodinger Suite 2021-1.
 57 59  0  0  1  0            999 V2000
   70.6109   20.4132   28.4914 C   0  0  0  0  0  0
   71.0907   19.5640   27.4934 C   0  0  0  0  0  0
   70.4421   18.3684   27.2108 C   0  0  0  0  0  0
   69.2837   18.0304   27.9167 C   0  0  0  0  0  0
   68.7976   18.8482   28.8956 N   0  0  0  0  0  0
   69.4507   20.0098   29.1656 C   0  0  0  0  0  0
   68.5601   16.7368   27.6050 C   0  0  0  0  0  0
   67.5113   16.4256   28.3861 N   0  0  0  0  0  0
   68.9599   15.9863   26.7107 O   0  0  0  0  0  0
   66.6957   15.2099   28.3041 C   0  0  1  0  0  0
   67.2956   14.0895   29.2121 C   0  0  0  0  0  0
   68.6663   13.4996   28.8115 C   0  0  0  0  0  0
   68.6341   12.6566   27.5354 C   0  0  0  0  0  0
   69.2885   13.2490   26.4947 O   0  0  0  0  0  0
   68.0901   11.5536   27.4589 O   0  0  0  0  0  0
   65.2697   15.5912   28.7442 C   0  0  0  0  0  0
   64.5077   15.9909   27.6867 O   0  0  0  0  0  0
   64.8904   15.5137   29.8951 O   0  0  0  0  0  0
   71.2902   21.7560   28.7791 C   0  0  0  0  0  0
   72.7486   21.6844   29.2976 C   0  0  0  0  0  0
   73.7552   21.0554   28.3102 C   0  0  0  0  0  0
   75.2459   21.2363   28.6540 C   0  0  0  0  0  0
   75.7765   22.5869   28.2344 C   0  0  0  0  0  0
   75.1828   23.6367   27.5362 C   0  0  0  0  0  0
   77.0783   22.9559   28.4899 N   0  0  0  0  0  0
   77.3007   24.2145   27.9944 C   0  0  0  0  0  0
   76.1166   24.6615   27.4224 C   0  0  0  0  0  0
   76.0884   25.9677   26.7976 C   0  0  0  0  0  0
   77.2604   26.6373   27.0525 N   0  0  0  0  0  0
   78.3888   26.1665   27.6913 C   0  0  0  0  0  0
   78.4538   24.9379   28.0946 N   0  0  0  0  0  0
   75.2010   26.4404   26.0907 O   0  0  0  0  0  0
   79.4556   27.0622   27.8826 N   0  0  0  0  0  0
   71.9385   19.8358   26.8900 H   0  0  0  0  0  0
   70.8161   17.7454   26.4117 H   0  0  0  0  0  0
   69.0180   20.6289   29.9387 H   0  0  0  0  0  0
   67.2189   17.0951   29.0831 H   0  0  0  0  0  0
   66.6497   14.8502   27.2712 H   0  0  0  0  0  0
   66.5875   13.2661   29.2931 H   0  0  0  0  0  0
   67.3946   14.4732   30.2294 H   0  0  0  0  0  0
   69.0001   12.8385   29.6106 H   0  0  0  0  0  0
   69.4231   14.2774   28.7516 H   0  0  0  0  0  0
   69.5415   14.1630   26.6855 H   0  0  0  0  0  0
   64.9353   15.9904   26.8186 H   0  0  0  0  0  0
   71.2692   22.3544   27.8671 H   0  0  0  0  0  0
   70.6932   22.3096   29.5041 H   0  0  0  0  0  0
   73.0714   22.7022   29.5286 H   0  0  0  0  0  0
   72.7782   21.1412   30.2452 H   0  0  0  0  0  0
   73.5654   19.9894   28.2729 H   0  0  0  0  0  0
   73.5680   21.4089   27.2965 H   0  0  0  0  0  0
   75.3997   21.0654   29.7201 H   0  0  0  0  0  0
   75.8121   20.4538   28.1447 H   0  0  0  0  0  0
   74.1665   23.6692   27.1636 H   0  0  0  0  0  0
   77.7627   22.3929   28.9759 H   0  0  0  0  0  0
   77.3138   27.5510   26.6208 H   0  0  0  0  0  0
   80.2337   26.7722   28.4659 H   0  0  0  0  0  0
   79.2656   28.0518   27.9808 H   0  0  0  0  0  0
  1  2  2  0  0  0
  1  6  1  0  0  0
  1 19  1  0  0  0
  2  3  1  0  0  0
  2 34  1  0  0  0
  3  4  2  0  0  0
  3 35  1  0  0  0
  4  5  1  0  0  0
  4  7  1  0  0  0
  5  6  2  0  0  0
  6 36  1  0  0  0
  7  8  1  0  0  0
  7  9  2  0  0  0
  8 10  1  0  0  0
  8 37  1  0  0  0
 10 11  1  0  0  0
 10 16  1  0  0  0
 10 38  1  0  0  0
 11 12  1  0  0  0
 11 39  1  0  0  0
 11 40  1  0  0  0
 12 13  1  0  0  0
 12 41  1  0  0  0
 12 42  1  0  0  0
 13 14  1  0  0  0
 13 15  2  0  0  0
 14 43  1  0  0  0
 16 17  1  0  0  0
 16 18  2  0  0  0
 17 44  1  0  0  0
 19 20  1  0  0  0
 19 45  1  0  0  0
 19 46  1  0  0  0
 20 21  1  0  0  0
 20 47  1  0  0  0
 20 48  1  0  0  0
 21 22  1  0  0  0
 21 49  1  0  0  0
 21 50  1  0  0  0
 22 23  1  0  0  0
 22 51  1  0  0  0
 22 52  1  0  0  0
 23 24  2  0  0  0
 23 25  1  0  0  0
 24 27  1  0  0  0
 24 53  1  0  0  0
 25 26  1  0  0  0
 25 54  1  0  0  0
 26 27  2  0  0  0
 26 31  1  0  0  0
 27 28  1  0  0  0
 28 29  1  0  0  0
 28 32  2  0  0  0
 29 30  1  0  0  0
 29 55  1  0  0  0
 30 31  2  0  0  0
 30 33  1  0  0  0
 33 56  1  0  0  0
 33 57  1  0  0  0
M  END
> <s_m_entry_id>
24853

> <s_m_entry_name>
dock_pv.6

> <s_m_Source_Path>
/home/csk/Desktop/cluster/DUD-E-result/pur2

> <s_m_Source_File>
dock_pv.maegz

> <i_m_Source_File_Index>
6

> <chembl_id>
CHEMBL4214638

> <chembl_pref_name>
None

> <i_lp_mmshare_version>
53161

> <r_lp_tautomer_probability>
1

> <s_lp_Force_Field>
OPLS_2005

> <r_lp_Energy>
17.707273

> <b_lp_Chiralities_Consistent>
1

> <s_lp_Variant>
CHEMBL3972_lig51-1

> <s_i_glide_gridfile>
glide-grid_1njs

> <i_i_glide_lignum>
121

> <i_i_glide_rotatable_bonds>
14

> <r_i_docking_score>
-13.069479419889

> <r_i_glide_ligand_efficiency>
-0.396044830905727

> <r_i_glide_ligand_efficiency_sa>
-1.27032738986694

> <r_i_glide_ligand_efficiency_ln>
-2.9065845528405

> <r_i_glide_gscore>
-13.069479419889

> <r_i_glide_lipo>
-2.10610981191097

> <r_i_glide_hbond>
-1.88611489731036

> <r_i_glide_metal>
0

> <r_i_glide_rewards>
-3.22950071344662

> <r_i_glide_evdw>
-59.4708480834961

> <r_i_glide_ecoul>
-24.1589908599854

> <r_i_glide_erotb>
0.810256998468574

> <r_i_glide_esite>
-0.0606199625170045

> <r_i_glide_emodel>
-149.197763418133

> <r_i_glide_energy>
-83.6298389434814

> <r_i_glide_einternal>
6.23645639419556

> <i_i_glide_confnum>
220

> <i_i_glide_posenum>
244

> <r_i_glide_eff_state_penalty>
0

> <s_user_duplicate_titles>
CHEMBL3972_lig51

> <i_f3d_flags>
0

> <s_m_subgroup_title>
dock_pv

> <s_m_subgroupid>
dock_pv

> <b_m_subgroup_collapsed>
1

$$$$
CHEMBL3972_lig50
                    3D
 Schrodinger Suite 2021-1.
 57 59  0  0  1  0            999 V2000
   70.5493   20.9810   28.7244 C   0  0  0  0  0  0
   70.7549   20.0670   27.6909 C   0  0  0  0  0  0
   70.0308   18.8796   27.6909 C   0  0  0  0  0  0
   69.0891   18.6335   28.6947 C   0  0  0  0  0  0
   68.8884   19.6436   29.6545 C   0  0  0  0  0  0
   69.6135   20.7911   29.6909 N   0  0  0  0  0  0
   68.4036   17.2938   28.7642 C   0  0  0  0  0  0
   67.2625   17.2544   29.4687 N   0  0  0  0  0  0
   68.8889   16.3093   28.2059 O   0  0  0  0  0  0
   66.3872   16.0961   29.6832 C   0  0  1  0  0  0
   65.1736   16.5113   30.5705 C   0  0  0  0  0  0
   65.5116   17.2499   31.8929 C   0  0  0  0  0  0
   66.3496   16.4220   32.8714 C   0  0  0  0  0  0
   67.0158   17.1910   33.7812 O   0  0  0  0  0  0
   66.4036   15.1941   32.8539 O   0  0  0  0  0  0
   65.9811   15.4177   28.3531 C   0  0  0  0  0  0
   65.0507   16.1614   27.6910 O   0  0  0  0  0  0
   66.4894   14.3914   27.9527 O   0  0  0  0  0  0
   71.3805   22.2543   28.8157 C   0  0  0  0  0  0
   72.8365   22.0262   29.2814 C   0  0  0  0  0  0
   73.6728   21.1208   28.3441 C   0  0  0  0  0  0
   75.2000   21.2078   28.5450 C   0  0  0  0  0  0
   75.7667   22.5405   28.1035 C   0  0  0  0  0  0
   75.1968   23.5958   27.3903 C   0  0  0  0  0  0
   77.0639   22.9080   28.3908 N   0  0  0  0  0  0
   77.2903   24.1808   27.9330 C   0  0  0  0  0  0
   76.1204   24.6369   27.3396 C   0  0  0  0  0  0
   76.0889   25.9756   26.7800 C   0  0  0  0  0  0
   77.2581   26.6339   27.0683 N   0  0  0  0  0  0
   78.3780   26.1448   27.7102 C   0  0  0  0  0  0
   78.4351   24.9091   28.0921 N   0  0  0  0  0  0
   75.2085   26.4869   26.0911 O   0  0  0  0  0  0
   79.4453   27.0351   27.9269 N   0  0  0  0  0  0
   71.4727   20.2519   26.9054 H   0  0  0  0  0  0
   70.2152   18.1570   26.9078 H   0  0  0  0  0  0
   68.1914   19.5268   30.4713 H   0  0  0  0  0  0
   66.8991   18.1246   29.8186 H   0  0  0  0  0  0
   66.9728   15.3567   30.2318 H   0  0  0  0  0  0
   64.5770   15.6274   30.8045 H   0  0  0  0  0  0
   64.5060   17.1638   30.0054 H   0  0  0  0  0  0
   64.5840   17.5224   32.3980 H   0  0  0  0  0  0
   66.0251   18.1875   31.6797 H   0  0  0  0  0  0
   66.8884   18.1425   33.6908 H   0  0  0  0  0  0
   64.9458   15.8789   26.7707 H   0  0  0  0  0  0
   71.3809   22.7411   27.8401 H   0  0  0  0  0  0
   70.8968   22.9681   29.4864 H   0  0  0  0  0  0
   73.3092   23.0048   29.3710 H   0  0  0  0  0  0
   72.8404   21.6070   30.2887 H   0  0  0  0  0  0
   73.3514   20.0884   28.4837 H   0  0  0  0  0  0
   73.4507   21.3532   27.3018 H   0  0  0  0  0  0
   75.4345   21.0183   29.5936 H   0  0  0  0  0  0
   75.6771   20.4005   27.9875 H   0  0  0  0  0  0
   74.1900   23.6311   26.9960 H   0  0  0  0  0  0
   77.7336   22.3436   28.8944 H   0  0  0  0  0  0
   77.3218   27.5569   26.6586 H   0  0  0  0  0  0
   80.2311   26.7346   28.4919 H   0  0  0  0  0  0
   79.2592   28.0271   28.0184 H   0  0  0  0  0  0
  1  2  2  0  0  0
  1  6  1  0  0  0
  1 19  1  0  0  0
  2  3  1  0  0  0
  2 34  1  0  0  0
  3  4  2  0  0  0
  3 35  1  0  0  0
  4  5  1  0  0  0
  4  7  1  0  0  0
  5  6  2  0  0  0
  5 36  1  0  0  0
  7  8  1  0  0  0
  7  9  2  0  0  0
  8 10  1  0  0  0
  8 37  1  0  0  0
 10 11  1  0  0  0
 10 16  1  0  0  0
 10 38  1  0  0  0
 11 12  1  0  0  0
 11 39  1  0  0  0
 11 40  1  0  0  0
 12 13  1  0  0  0
 12 41  1  0  0  0
 12 42  1  0  0  0
 13 14  1  0  0  0
 13 15  2  0  0  0
 14 43  1  0  0  0
 16 17  1  0  0  0
 16 18  2  0  0  0
 17 44  1  0  0  0
 19 20  1  0  0  0
 19 45  1  0  0  0
 19 46  1  0  0  0
 20 21  1  0  0  0
 20 47  1  0  0  0
 20 48  1  0  0  0
 21 22  1  0  0  0
 21 49  1  0  0  0
 21 50  1  0  0  0
 22 23  1  0  0  0
 22 51  1  0  0  0
 22 52  1  0  0  0
 23 24  2  0  0  0
 23 25  1  0  0  0
 24 27  1  0  0  0
 24 53  1  0  0  0
 25 26  1  0  0  0
 25 54  1  0  0  0
 26 27  2  0  0  0
 26 31  1  0  0  0
 27 28  1  0  0  0
 28 29  1  0  0  0
 28 32  2  0  0  0
 29 30  1  0  0  0
 29 55  1  0  0  0
 30 31  2  0  0  0
 30 33  1  0  0  0
 33 56  1  0  0  0
 33 57  1  0  0  0
M  END
> <s_m_entry_id>
24854

> <s_m_entry_name>
dock_pv.7

> <s_m_Source_Path>
/home/csk/Desktop/cluster/DUD-E-result/pur2

> <s_m_Source_File>
dock_pv.maegz

> <i_m_Source_File_Index>
7

> <chembl_id>
CHEMBL4205344

> <chembl_pref_name>
None

> <i_lp_mmshare_version>
53161

> <r_lp_tautomer_probability>
1

> <s_lp_Force_Field>
OPLS_2005

> <r_lp_Energy>
13.775292

> <b_lp_Chiralities_Consistent>
1

> <s_lp_Variant>
CHEMBL3972_lig50-1

> <s_i_glide_gridfile>
glide-grid_1njs

> <i_i_glide_lignum>
120

> <i_i_glide_rotatable_bonds>
14

> <r_i_docking_score>
-13.0299838628994

> <r_i_glide_ligand_efficiency>
-0.394847995845437

> <r_i_glide_ligand_efficiency_sa>
-1.26648850032819

> <r_i_glide_ligand_efficiency_ln>
-2.89780094546307

> <r_i_glide_gscore>
-13.0299838628994

> <r_i_glide_lipo>
-2.51075974323238

> <r_i_glide_hbond>
-1.51696784299546

> <r_i_glide_metal>
0

> <r_i_glide_rewards>
-3.41266580697371

> <r_i_glide_evdw>
-53.0078735351562

> <r_i_glide_ecoul>
-24.6385936737061

> <r_i_glide_erotb>
0.810256998468574

> <r_i_glide_esite>
-0.0536647403527207

> <r_i_glide_emodel>
-150.041908761743

> <r_i_glide_energy>
-77.6464672088623

> <r_i_glide_einternal>
8.40992546081543

> <i_i_glide_confnum>
52

> <i_i_glide_posenum>
249

> <r_i_glide_eff_state_penalty>
0

> <s_user_duplicate_titles>
CHEMBL3972_lig50

> <i_f3d_flags>
0

> <s_m_subgroup_title>
dock_pv

> <s_m_subgroupid>
dock_pv

> <b_m_subgroup_collapsed>
1

$$$$
CHEMBL3972_lig52 
                    3D
 Schrodinger Suite 2021-1.
 58 60  0  0  1  0            999 V2000
   77.1252   26.5164   27.0044 N   0  0  0  0  0  0
   78.2271   26.0420   27.6921 C   0  0  0  0  0  0
   78.2633   24.8279   28.1313 N   0  0  0  0  0  0
   75.9469   25.8662   26.7355 C   0  0  0  0  0  0
   75.9748   24.5362   27.3104 C   0  0  0  0  0  0
   77.1223   24.1021   27.9623 C   0  0  0  0  0  0
   76.8695   22.8652   28.4896 N   0  0  0  0  0  0
   75.5886   22.4864   28.1552 C   0  0  0  0  0  0
   75.0505   23.4975   27.3629 C   0  0  0  0  0  0
   79.2897   26.9276   27.9250 N   0  0  0  0  0  0
   75.0439   26.3912   26.0890 O   0  0  0  0  0  0
   74.9958   21.1911   28.6415 C   0  0  0  0  0  0
   74.1337   21.3407   29.9230 C   0  0  0  0  0  0
   73.0340   22.4302   29.9407 C   0  0  0  0  0  0
   71.9689   22.3843   28.8215 C   0  0  0  0  0  0
   71.1525   21.1064   28.7157 C   0  0  0  0  0  0
   69.9403   20.9685   29.3956 C   0  0  0  0  0  0
   69.1435   19.8424   29.1888 C   0  0  0  0  0  0
   69.5729   18.7956   28.3483 C   0  0  0  0  0  0
   70.8066   18.9410   27.6883 C   0  0  0  0  0  0
   71.5692   20.0888   27.8623 C   0  0  0  0  0  0
   68.7565   17.5312   28.1704 C   0  0  0  0  0  0
   69.0106   16.7324   27.2663 O   0  0  0  0  0  0
   67.7888   17.3233   29.0852 N   0  0  0  0  0  0
   66.9152   16.1509   29.2717 C   0  0  1  0  0  0
   65.7318   16.5109   30.2299 C   0  0  0  0  0  0
   66.4533   15.4639   27.9630 C   0  0  0  0  0  0
   66.0666   17.3549   31.4914 C   0  0  0  0  0  0
   67.0928   16.7123   32.4303 C   0  0  0  0  0  0
   67.4040   15.5242   32.3872 O   0  0  0  0  0  0
   67.6173   17.5907   33.3350 O   0  0  0  0  0  0
   66.8861   14.3917   27.5905 O   0  0  0  0  0  0
   65.5690   16.2539   27.2911 O   0  0  0  0  0  0
   71.2935   17.9911   26.8539 F   0  0  0  0  0  0
   77.1866   27.4478   26.6126 H   0  0  0  0  0  0
   77.5172   22.3256   29.0480 H   0  0  0  0  0  0
   74.0687   23.5161   26.9144 H   0  0  0  0  0  0
   80.1688   26.5936   28.3054 H   0  0  0  0  0  0
   79.3621   27.8033   27.4280 H   0  0  0  0  0  0
   75.7969   20.4712   28.8164 H   0  0  0  0  0  0
   74.4076   20.7551   27.8400 H   0  0  0  0  0  0
   74.8015   21.5232   30.7662 H   0  0  0  0  0  0
   73.6515   20.3913   30.1452 H   0  0  0  0  0  0
   73.5114   23.4120   29.9119 H   0  0  0  0  0  0
   72.5220   22.3899   30.9048 H   0  0  0  0  0  0
   72.4199   22.5784   27.8518 H   0  0  0  0  0  0
   71.2788   23.2152   28.9657 H   0  0  0  0  0  0
   69.5993   21.7535   30.0569 H   0  0  0  0  0  0
   68.1973   19.7997   29.7096 H   0  0  0  0  0  0
   72.4782   20.1826   27.2928 H   0  0  0  0  0  0
   67.6540   18.0423   29.7727 H   0  0  0  0  0  0
   67.5379   15.4152   29.7802 H   0  0  0  0  0  0
   65.2366   15.5919   30.5523 H   0  0  0  0  0  0
   64.9661   17.0599   29.6789 H   0  0  0  0  0  0
   65.1526   17.5204   32.0638 H   0  0  0  0  0  0
   66.4197   18.3452   31.1988 H   0  0  0  0  0  0
   67.2894   18.5039   33.3022 H   0  0  0  0  0  0
   65.4067   15.9838   26.3695 H   0  0  0  0  0  0
  1  2  1  0  0  0
  1  4  1  0  0  0
  1 35  1  0  0  0
  2  3  2  0  0  0
  2 10  1  0  0  0
  3  6  1  0  0  0
  4  5  1  0  0  0
  4 11  2  0  0  0
  5  6  2  0  0  0
  5  9  1  0  0  0
  6  7  1  0  0  0
  7  8  1  0  0  0
  7 36  1  0  0  0
  8  9  2  0  0  0
  8 12  1  0  0  0
  9 37  1  0  0  0
 10 38  1  0  0  0
 10 39  1  0  0  0
 12 13  1  0  0  0
 12 40  1  0  0  0
 12 41  1  0  0  0
 13 14  1  0  0  0
 13 42  1  0  0  0
 13 43  1  0  0  0
 14 15  1  0  0  0
 14 44  1  0  0  0
 14 45  1  0  0  0
 15 16  1  0  0  0
 15 46  1  0  0  0
 15 47  1  0  0  0
 16 17  2  0  0  0
 16 21  1  0  0  0
 17 18  1  0  0  0
 17 48  1  0  0  0
 18 19  2  0  0  0
 18 49  1  0  0  0
 19 20  1  0  0  0
 19 22  1  0  0  0
 20 21  2  0  0  0
 20 34  1  0  0  0
 21 50  1  0  0  0
 22 23  2  0  0  0
 22 24  1  0  0  0
 24 25  1  0  0  0
 24 51  1  0  0  0
 25 26  1  0  0  0
 25 27  1  0  0  0
 25 52  1  0  0  0
 26 28  1  0  0  0
 26 53  1  0  0  0
 26 54  1  0  0  0
 27 32  2  0  0  0
 27 33  1  0  0  0
 28 29  1  0  0  0
 28 55  1  0  0  0
 28 56  1  0  0  0
 29 30  2  0  0  0
 29 31  1  0  0  0
 31 57  1  0  0  0
 33 58  1  0  0  0
M  END
> <s_m_entry_id>
24855

> <s_m_entry_name>
dock_pv.8

> <s_m_Source_Path>
/home/csk/Desktop/cluster/DUD-E-result/pur2

> <s_m_Source_File>
dock_pv.maegz

> <i_m_Source_File_Index>
8

> <chembl_id>
CHEMBL4540298

> <chembl_pref_name>
None

> <i_lp_mmshare_version>
53161

> <r_lp_tautomer_probability>
1

> <s_lp_Force_Field>
OPLS_2005

> <r_lp_Energy>
18.906626

> <b_lp_Chiralities_Consistent>
1

> <s_lp_Variant>
CHEMBL3972_lig52 -1

> <s_i_glide_gridfile>
glide-grid_1njs

> <i_i_glide_lignum>
122

> <i_i_glide_rotatable_bonds>
14

> <r_i_docking_score>
-12.9583923568662

> <r_i_glide_ligand_efficiency>
-0.381129186966652

> <r_i_glide_ligand_efficiency_sa>
-1.23471061045711

> <r_i_glide_ligand_efficiency_ln>
-2.86287234222578

> <r_i_glide_gscore>
-12.9583923568662

> <r_i_glide_lipo>
-2.50270534808368

> <r_i_glide_hbond>
-1.17657829215332

> <r_i_glide_metal>
0

> <r_i_glide_rewards>
-3.21875235774091

> <r_i_glide_evdw>
-53.2268562316895

> <r_i_glide_ecoul>
-26.919548034668

> <r_i_glide_erotb>
0.757998861847847

> <r_i_glide_esite>
-0.157012409151649

> <r_i_glide_emodel>
-142.620101517157

> <r_i_glide_energy>
-80.1464042663574

> <r_i_glide_einternal>
7.35939168930054

> <i_i_glide_confnum>
67

> <i_i_glide_posenum>
191

> <r_i_glide_eff_state_penalty>
0

> <s_user_duplicate_titles>
CHEMBL3972_lig52 

> <i_f3d_flags>
0

> <s_m_subgroup_title>
dock_pv

> <s_m_subgroupid>
dock_pv

> <b_m_subgroup_collapsed>
1

$$$$
CHEMBL3972_lig81
                    3D
 Schrodinger Suite 2021-1.
 63 65  0  0  1  0            999 V2000
   71.5076   20.8866   28.8184 C   0  0  0  0  0  0
   71.9874   19.7957   28.0873 C   0  0  0  0  0  0
   71.1261   18.7797   27.6907 C   0  0  0  0  0  0
   69.7857   18.7844   28.0913 C   0  0  0  0  0  0
   69.3086   19.8673   28.8474 C   0  0  0  0  0  0
   70.1619   20.9131   29.1965 C   0  0  0  0  0  0
   72.4295   22.0699   29.1618 C   0  0  2  0  0  0
   68.8892   17.6309   27.7082 C   0  0  0  0  0  0
   69.0423   17.0457   26.6372 O   0  0  0  0  0  0
   67.9615   17.2889   28.6246 N   0  0  0  0  0  0
   66.9256   16.2421   28.5417 C   0  0  1  0  0  0
   67.4319   14.8959   27.9608 C   0  0  0  0  0  0
   66.2815   15.9679   29.9312 C   0  0  0  0  0  0
   65.6717   17.1912   30.6544 C   0  0  0  0  0  0
   65.2364   16.8757   32.0710 C   0  0  0  0  0  0
   68.3576   14.2670   28.4357 O   0  0  0  0  0  0
   66.6762   14.5059   26.8910 O   0  0  0  0  0  0
   73.1106   22.6155   27.8841 C   0  0  0  0  0  0
   73.3927   21.6668   30.3035 C   0  0  0  0  0  0
   74.1683   23.7282   28.0257 C   0  0  0  0  0  0
   75.2631   23.5984   26.9526 C   0  0  0  0  0  0
   76.4446   24.5233   27.2278 C   0  0  0  0  0  0
   76.2749   25.9253   26.8920 C   0  0  0  0  0  0
   77.3134   26.6996   27.2745 N   0  0  0  0  0  0
   78.4802   26.2506   27.8018 C   0  0  0  0  0  0
   78.6530   24.9981   28.0264 N   0  0  0  0  0  0
   77.6337   24.1396   27.7473 C   0  0  0  0  0  0
   79.4780   27.1910   28.0910 N   0  0  0  0  0  0
   77.9057   22.8589   28.0910 N   0  0  0  0  0  0
   75.3123   26.3910   26.2872 O   0  0  0  0  0  0
   72.7919   21.6184   31.7088 C   0  0  0  0  0  0
   74.5946   21.4648   30.1087 O   0  0  0  0  0  0
   72.3875   22.8418   32.0537 F   0  0  0  0  0  0
   71.7498   20.7913   31.6910 F   0  0  0  0  0  0
   73.6894   21.1913   32.5982 F   0  0  0  0  0  0
   64.4645   15.8806   32.4323 N   0  0  0  0  0  0
   65.5953   17.6036   33.1778 N   0  0  0  0  0  0
   65.0582   17.0748   34.2767 N   0  0  0  0  0  0
   64.3494   15.9811   33.8167 N   0  0  0  0  0  0
   73.0253   19.7411   27.7925 H   0  0  0  0  0  0
   71.5204   17.9749   27.0909 H   0  0  0  0  0  0
   68.2745   19.9208   29.1580 H   0  0  0  0  0  0
   69.7739   21.7484   29.7616 H   0  0  0  0  0  0
   71.8107   22.8796   29.5516 H   0  0  0  0  0  0
   67.9765   17.7994   29.4912 H   0  0  0  0  0  0
   66.1547   16.6441   27.8810 H   0  0  0  0  0  0
   65.5005   15.2105   29.8327 H   0  0  0  0  0  0
   67.0371   15.5321   30.5901 H   0  0  0  0  0  0
   66.3894   18.0121   30.6681 H   0  0  0  0  0  0
   64.8115   17.5558   30.0924 H   0  0  0  0  0  0
   66.0768   15.1773   26.5385 H   0  0  0  0  0  0
   72.3045   23.0252   27.2910 H   0  0  0  0  0  0
   73.5264   21.7992   27.2938 H   0  0  0  0  0  0
   74.6432   23.7130   29.0063 H   0  0  0  0  0  0
   73.6887   24.7046   27.9561 H   0  0  0  0  0  0
   74.8448   23.7924   25.9625 H   0  0  0  0  0  0
   75.6163   22.5666   26.9125 H   0  0  0  0  0  0
   80.3272   26.9066   28.5649 H   0  0  0  0  0  0
   79.2898   28.1833   28.1063 H   0  0  0  0  0  0
   77.1797   22.1652   28.0407 H   0  0  0  0  0  0
   78.7792   22.6090   28.5207 H   0  0  0  0  0  0
   77.2396   27.6652   26.9958 H   0  0  0  0  0  0
   66.1816   18.4310   33.1988 H   0  0  0  0  0  0
  1  6  1  0  0  0
  1  2  2  0  0  0
  1  7  1  0  0  0
  2  3  1  0  0  0
  2 40  1  0  0  0
  3  4  2  0  0  0
  3 41  1  0  0  0
  4  5  1  0  0  0
  4  8  1  0  0  0
  5  6  2  0  0  0
  5 42  1  0  0  0
  6 43  1  0  0  0
  7 18  1  0  0  0
  7 19  1  0  0  0
  7 44  1  0  0  0
  8 10  1  0  0  0
  8  9  2  0  0  0
 10 11  1  0  0  0
 10 45  1  0  0  0
 11 12  1  0  0  0
 11 13  1  0  0  0
 11 46  1  0  0  0
 12 16  2  0  0  0
 12 17  1  0  0  0
 13 14  1  0  0  0
 13 47  1  0  0  0
 13 48  1  0  0  0
 14 49  1  0  0  0
 14 50  1  0  0  0
 14 15  1  0  0  0
 15 37  1  0  0  0
 15 36  2  0  0  0
 17 51  1  0  0  0
 18 20  1  0  0  0
 18 52  1  0  0  0
 18 53  1  0  0  0
 19 31  1  0  0  0
 19 32  2  0  0  0
 20 21  1  0  0  0
 20 54  1  0  0  0
 20 55  1  0  0  0
 21 56  1  0  0  0
 21 57  1  0  0  0
 21 22  1  0  0  0
 22 27  2  0  0  0
 22 23  1  0  0  0
 23 24  1  0  0  0
 23 30  2  0  0  0
 24 25  1  0  0  0
 24 62  1  0  0  0
 25 26  2  0  0  0
 25 28  1  0  0  0
 26 27  1  0  0  0
 27 29  1  0  0  0
 28 58  1  0  0  0
 28 59  1  0  0  0
 29 60  1  0  0  0
 29 61  1  0  0  0
 31 33  1  0  0  0
 31 34  1  0  0  0
 31 35  1  0  0  0
 36 39  1  0  0  0
 37 63  1  0  0  0
 37 38  1  0  0  0
 38 39  2  0  0  0
M  END
> <s_m_entry_id>
24856

> <s_m_entry_name>
dock_pv.9

> <s_m_Source_Path>
/home/csk/Desktop/cluster/DUD-E-result/pur2

> <s_m_Source_File>
dock_pv.maegz

> <i_m_Source_File_Index>
9

> <chembl_id>
CHEMBL424683

> <chembl_pref_name>
None

> <i_lp_mmshare_version>
53161

> <r_lp_tautomer_probability>
0.29476015212916

> <s_lp_Force_Field>
OPLS_2005

> <r_lp_Energy>
25.708473

> <b_lp_Chiralities_Consistent>
1

> <s_lp_Variant>
CHEMBL3972_lig81-3

> <s_i_glide_gridfile>
glide-grid_1njs

> <i_i_glide_lignum>
195

> <i_i_glide_rotatable_bonds>
15

> <r_i_docking_score>
-12.8205724688605

> <r_i_glide_ligand_efficiency>
-0.328732627406679

> <r_i_glide_ligand_efficiency_sa>
-1.11480184639226

> <r_i_glide_ligand_efficiency_ln>
-2.74909467091541

> <r_i_glide_gscore>
-12.8205724688605

> <r_i_glide_lipo>
-2.66763554805353

> <r_i_glide_hbond>
-1.5884153265569

> <r_i_glide_metal>
0

> <r_i_glide_rewards>
-3.08964547825312

> <r_i_glide_evdw>
-60.9762763977051

> <r_i_glide_ecoul>
-20.7667903900146

> <r_i_glide_erotb>
0.748102543305564

> <r_i_glide_esite>
-0.0591462809150532

> <r_i_glide_emodel>
-142.984607691873

> <r_i_glide_energy>
-81.7430667877197

> <r_i_glide_einternal>
10.4216928482056

> <i_i_glide_confnum>
4

> <i_i_glide_posenum>
360

> <r_i_glide_eff_state_penalty>
0

> <s_user_duplicate_titles>
CHEMBL3972_lig81,CHEMBL3972_lig81,346335

> <i_f3d_flags>
0

> <s_m_subgroup_title>
dock_pv

> <s_m_subgroupid>
dock_pv

> <b_m_subgroup_collapsed>
1

$$$$
CHEMBL3972_lig81
                    3D
 Schrodinger Suite 2021-1.
 63 65  0  0  1  0            999 V2000
   71.7885   21.7026   29.3699 C   0  0  0  0  0  0
   70.4343   21.5383   29.6907 C   0  0  0  0  0  0
   69.7250   20.4238   29.2324 C   0  0  0  0  0  0
   70.3657   19.4598   28.4391 C   0  0  0  0  0  0
   71.7059   19.6486   28.0908 C   0  0  0  0  0  0
   72.4099   20.7420   28.5640 C   0  0  0  0  0  0
   72.5551   22.9541   29.8536 C   0  0  2  0  0  0
   69.6900   18.1861   27.9945 C   0  0  0  0  0  0
   70.0831   17.6046   26.9788 O   0  0  0  0  0  0
   68.7692   17.6693   28.8336 N   0  0  0  0  0  0
   68.1016   16.3652   28.6813 C   0  0  2  0  0  0
   67.0669   16.3910   27.5380 C   0  0  0  0  0  0
   67.4543   15.8709   30.0094 C   0  0  0  0  0  0
   68.4171   15.6135   31.1912 C   0  0  0  0  0  0
   69.4061   14.4703   31.0018 C   0  0  0  0  0  0
   65.8674   16.3907   27.7135 O   0  0  0  0  0  0
   67.6850   16.3906   26.3231 O   0  0  0  0  0  0
   73.9420   23.1974   29.1922 C   0  0  0  0  0  0
   72.6128   23.0115   31.3930 C   0  0  0  0  0  0
   73.8041   23.5630   27.7062 C   0  0  0  0  0  0
   75.0609   23.2973   26.8597 C   0  0  0  0  0  0
   76.2396   24.2113   27.2025 C   0  0  0  0  0  0
   76.0889   25.6247   26.8909 C   0  0  0  0  0  0
   77.1400   26.3815   27.2628 N   0  0  0  0  0  0
   78.2891   25.9144   27.8107 C   0  0  0  0  0  0
   78.4364   24.6630   28.0603 N   0  0  0  0  0  0
   77.4124   23.8189   27.7537 C   0  0  0  0  0  0
   79.2930   26.8449   28.0923 N   0  0  0  0  0  0
   77.6732   22.5358   28.0911 N   0  0  0  0  0  0
   75.1323   26.1382   26.3143 O   0  0  0  0  0  0
   73.3010   21.8692   32.1607 C   0  0  0  0  0  0
   72.0892   23.9520   31.9924 O   0  0  0  0  0  0
   74.4894   21.5909   31.6286 F   0  0  0  0  0  0
   73.4698   22.2009   33.4422 F   0  0  0  0  0  0
   72.5322   20.7910   32.0909 F   0  0  0  0  0  0
   69.2612   13.4911   30.1217 N   0  0  0  0  0  0
   70.4899   14.3826   31.7413 N   0  0  0  0  0  0
   71.0634   13.2816   31.2491 N   0  0  3  0  0  0
   70.3761   12.6919   30.2706 N   0  0  0  0  0  0
   69.9286   22.2811   30.2898 H   0  0  0  0  0  0
   68.6828   20.3241   29.5048 H   0  0  0  0  0  0
   72.2266   18.9327   27.4703 H   0  0  0  0  0  0
   73.4467   20.8160   28.2764 H   0  0  0  0  0  0
   71.9305   23.8033   29.5651 H   0  0  0  0  0  0
   68.4939   18.2137   29.6359 H   0  0  0  0  0  0
   68.8601   15.6352   28.3904 H   0  0  0  0  0  0
   66.7143   16.6061   30.3353 H   0  0  0  0  0  0
   66.8901   14.9538   29.8284 H   0  0  0  0  0  0
   68.9398   16.5401   31.4285 H   0  0  0  0  0  0
   67.8155   15.4025   32.0756 H   0  0  0  0  0  0
   66.9990   16.5339   25.6570 H   0  0  0  0  0  0
   74.5817   22.3218   29.3045 H   0  0  0  0  0  0
   74.4877   23.9949   29.6932 H   0  0  0  0  0  0
   73.5122   24.6068   27.6230 H   0  0  0  0  0  0
   72.9714   23.0096   27.2861 H   0  0  0  0  0  0
   74.8179   23.4354   25.8037 H   0  0  0  0  0  0
   75.3336   22.2442   26.9420 H   0  0  0  0  0  0
   80.1698   26.5692   28.5191 H   0  0  0  0  0  0
   79.1456   27.8401   28.0170 H   0  0  0  0  0  0
   76.9655   21.8340   27.9621 H   0  0  0  0  0  0
   78.4907   22.3055   28.6312 H   0  0  0  0  0  0
   77.0715   27.3517   27.0024 H   0  0  0  0  0  0
   71.9606   12.9436   31.5696 H   0  0  0  0  0  0
  1  6  1  0  0  0
  1  2  2  0  0  0
  1  7  1  0  0  0
  2  3  1  0  0  0
  2 40  1  0  0  0
  3  4  2  0  0  0
  3 41  1  0  0  0
  4  5  1  0  0  0
  4  8  1  0  0  0
  5  6  2  0  0  0
  5 42  1  0  0  0
  6 43  1  0  0  0
  7 18  1  0  0  0
  7 19  1  0  0  0
  7 44  1  0  0  0
  8 10  1  0  0  0
  8  9  2  0  0  0
 10 11  1  0  0  0
 10 45  1  0  0  0
 11 12  1  0  0  0
 11 13  1  0  0  0
 11 46  1  0  0  0
 12 16  2  0  0  0
 12 17  1  0  0  0
 13 14  1  0  0  0
 13 47  1  0  0  0
 13 48  1  0  0  0
 14 49  1  0  0  0
 14 50  1  0  0  0
 14 15  1  0  0  0
 15 37  2  0  0  0
 15 36  1  0  0  0
 17 51  1  0  0  0
 18 20  1  0  0  0
 18 52  1  0  0  0
 18 53  1  0  0  0
 19 31  1  0  0  0
 19 32  2  0  0  0
 20 21  1  0  0  0
 20 54  1  0  0  0
 20 55  1  0  0  0
 21 56  1  0  0  0
 21 57  1  0  0  0
 21 22  1  0  0  0
 22 27  2  0  0  0
 22 23  1  0  0  0
 23 24  1  0  0  0
 23 30  2  0  0  0
 24 25  1  0  0  0
 24 62  1  0  0  0
 25 26  2  0  0  0
 25 28  1  0  0  0
 26 27  1  0  0  0
 27 29  1  0  0  0
 28 58  1  0  0  0
 28 59  1  0  0  0
 29 60  1  0  0  0
 29 61  1  0  0  0
 31 33  1  0  0  0
 31 34  1  0  0  0
 31 35  1  0  0  0
 36 39  2  0  0  0
 37 38  1  0  0  0
 38 63  1  0  0  0
 38 39  1  0  0  0
M  END
> <s_m_entry_id>
24857

> <s_m_entry_name>
dock_pv.10

> <s_m_Source_Path>
/home/csk/Desktop/cluster/DUD-E-result/pur2

> <s_m_Source_File>
dock_pv.maegz

> <i_m_Source_File_Index>
10

> <chembl_id>
CHEMBL424683

> <chembl_pref_name>
None

> <i_lp_mmshare_version>
53161

> <r_lp_tautomer_probability>
0.196506768086106

> <s_lp_Force_Field>
OPLS_2005

> <r_lp_Energy>
21.279335

> <b_lp_Chiralities_Consistent>
1

> <s_lp_Variant>
CHEMBL3972_lig81-5

> <s_i_glide_gridfile>
glide-grid_1njs

> <i_i_glide_lignum>
197

> <i_i_glide_rotatable_bonds>
15

> <r_i_docking_score>
-12.8084976284033

> <r_i_glide_ligand_efficiency>
-0.328423016112905

> <r_i_glide_ligand_efficiency_sa>
-1.11375188903121

> <r_i_glide_ligand_efficiency_ln>
-2.74650548235666

> <r_i_glide_gscore>
-12.8084976284033

> <r_i_glide_lipo>
-2.42504940237289

> <r_i_glide_hbond>
-1.19202392451479

> <r_i_glide_metal>
0

> <r_i_glide_rewards>
-3.53743586605726

> <r_i_glide_evdw>
-68.0296859741211

> <r_i_glide_ecoul>
-18.0274810791016

> <r_i_glide_erotb>
0.523671780313895

> <r_i_glide_esite>
-0.0720537552009809

> <r_i_glide_emodel>
-149.150564266804

> <r_i_glide_energy>
-86.0571670532227

> <r_i_glide_einternal>
11.5797729492188

> <i_i_glide_confnum>
40

> <i_i_glide_posenum>
31

> <r_i_glide_eff_state_penalty>
0

> <s_user_duplicate_titles>
CHEMBL3972_lig81,CHEMBL3972_lig81

> <i_f3d_flags>
0

> <s_m_subgroup_title>
dock_pv

> <s_m_subgroupid>
dock_pv

> <b_m_subgroup_collapsed>
1

$$$$
CHEMBL3972_lig81
                    3D
 Schrodinger Suite 2021-1.
 63 65  0  0  1  0            999 V2000
   72.3700   21.4074   29.1868 C   0  0  0  0  0  0
   72.9213   20.4970   28.2889 C   0  0  0  0  0  0
   72.1567   19.4928   27.7243 C   0  0  0  0  0  0
   70.8123   19.3594   28.0652 C   0  0  0  0  0  0
   70.2144   20.3258   28.8909 C   0  0  0  0  0  0
   70.9905   21.3490   29.4442 C   0  0  0  0  0  0
   73.3382   22.4263   29.8228 C   0  0  1  0  0  0
   70.0892   18.1327   27.5765 C   0  0  0  0  0  0
   70.4085   17.6071   26.5047 O   0  0  0  0  0  0
   69.2325   17.5625   28.4456 N   0  0  0  0  0  0
   68.5679   16.2697   28.2206 C   0  0  2  0  0  0
   67.3112   16.4811   27.3621 C   0  0  0  0  0  0
   68.3130   15.4999   29.5468 C   0  0  0  0  0  0
   67.7186   14.0714   29.4020 C   0  0  0  0  0  0
   68.5566   13.1457   28.5365 C   0  0  0  0  0  0
   66.1745   16.3912   27.7753 O   0  0  0  0  0  0
   67.6890   16.7852   26.0911 O   0  0  0  0  0  0
   73.5437   23.7261   28.9992 C   0  0  0  0  0  0
   72.9497   22.7424   31.2904 C   0  0  0  0  0  0
   73.6888   23.5914   27.4696 C   0  0  0  0  0  0
   75.0660   23.1965   26.9003 C   0  0  0  0  0  0
   76.2330   24.1443   27.2238 C   0  0  0  0  0  0
   76.0874   25.5577   26.8911 C   0  0  0  0  0  0
   77.1364   26.3174   27.2640 N   0  0  0  0  0  0
   78.2828   25.8585   27.8187 C   0  0  0  0  0  0
   78.4306   24.6102   28.0793 N   0  0  0  0  0  0
   77.4101   23.7608   27.7750 C   0  0  0  0  0  0
   79.2891   26.7915   28.0911 N   0  0  0  0  0  0
   77.6892   22.4764   28.0910 N   0  0  0  0  0  0
   75.1478   26.0770   26.2963 O   0  0  0  0  0  0
   73.5956   21.9041   32.4026 C   0  0  0  0  0  0
   72.1291   23.6222   31.5646 O   0  0  0  0  0  0
   73.5851   22.5734   33.5571 F   0  0  0  0  0  0
   72.8898   20.7910   32.5446 F   0  0  0  0  0  0
   74.8528   21.5910   32.0899 F   0  0  0  0  0  0
   68.2334   12.8377   27.2917 N   0  0  0  0  0  0
   69.6891   12.6269   28.9532 N   0  0  0  0  0  0
   70.1052   11.9845   27.8573 N   0  0  3  0  0  0
   69.2726   12.0627   26.8208 N   0  0  0  0  0  0
   73.9730   20.5318   28.0489 H   0  0  0  0  0  0
   72.6426   18.7905   27.0613 H   0  0  0  0  0  0
   69.1633   20.2743   29.1370 H   0  0  0  0  0  0
   70.5202   22.0744   30.0923 H   0  0  0  0  0  0
   74.3134   21.9391   29.8507 H   0  0  0  0  0  0
   68.9974   18.0496   29.2957 H   0  0  0  0  0  0
   69.2449   15.6462   27.6321 H   0  0  0  0  0  0
   69.2582   15.4220   30.0878 H   0  0  0  0  0  0
   67.6639   16.0932   30.1942 H   0  0  0  0  0  0
   67.6080   13.6408   30.3979 H   0  0  0  0  0  0
   66.6993   14.1338   29.0189 H   0  0  0  0  0  0
   66.9029   17.0181   25.5714 H   0  0  0  0  0  0
   74.4248   24.2434   29.3776 H   0  0  0  0  0  0
   72.6997   24.3911   29.1847 H   0  0  0  0  0  0
   73.3874   24.5269   27.0069 H   0  0  0  0  0  0
   72.9373   22.8950   27.1253 H   0  0  0  0  0  0
   74.9787   23.1495   25.8132 H   0  0  0  0  0  0
   75.2918   22.1765   27.2061 H   0  0  0  0  0  0
   80.1701   26.5178   28.5094 H   0  0  0  0  0  0
   79.1554   27.7854   27.9740 H   0  0  0  0  0  0
   76.9947   21.7637   27.9522 H   0  0  0  0  0  0
   78.5111   22.2509   28.6275 H   0  0  0  0  0  0
   77.0659   27.2856   26.9966 H   0  0  0  0  0  0
   71.0114   11.5434   27.7978 H   0  0  0  0  0  0
  1  6  1  0  0  0
  1  2  2  0  0  0
  1  7  1  0  0  0
  2  3  1  0  0  0
  2 40  1  0  0  0
  3  4  2  0  0  0
  3 41  1  0  0  0
  4  5  1  0  0  0
  4  8  1  0  0  0
  5  6  2  0  0  0
  5 42  1  0  0  0
  6 43  1  0  0  0
  7 18  1  0  0  0
  7 19  1  0  0  0
  7 44  1  0  0  0
  8 10  1  0  0  0
  8  9  2  0  0  0
 10 11  1  0  0  0
 10 45  1  0  0  0
 11 12  1  0  0  0
 11 13  1  0  0  0
 11 46  1  0  0  0
 12 16  2  0  0  0
 12 17  1  0  0  0
 13 14  1  0  0  0
 13 47  1  0  0  0
 13 48  1  0  0  0
 14 49  1  0  0  0
 14 50  1  0  0  0
 14 15  1  0  0  0
 15 37  2  0  0  0
 15 36  1  0  0  0
 17 51  1  0  0  0
 18 20  1  0  0  0
 18 52  1  0  0  0
 18 53  1  0  0  0
 19 31  1  0  0  0
 19 32  2  0  0  0
 20 21  1  0  0  0
 20 54  1  0  0  0
 20 55  1  0  0  0
 21 56  1  0  0  0
 21 57  1  0  0  0
 21 22  1  0  0  0
 22 27  2  0  0  0
 22 23  1  0  0  0
 23 24  1  0  0  0
 23 30  2  0  0  0
 24 25  1  0  0  0
 24 62  1  0  0  0
 25 26  2  0  0  0
 25 28  1  0  0  0
 26 27  1  0  0  0
 27 29  1  0  0  0
 28 58  1  0  0  0
 28 59  1  0  0  0
 29 60  1  0  0  0
 29 61  1  0  0  0
 31 33  1  0  0  0
 31 34  1  0  0  0
 31 35  1  0  0  0
 36 39  2  0  0  0
 37 38  1  0  0  0
 38 63  1  0  0  0
 38 39  1  0  0  0
M  END
> <s_m_entry_id>
24858

> <s_m_entry_name>
dock_pv.11

> <s_m_Source_Path>
/home/csk/Desktop/cluster/DUD-E-result/pur2

> <s_m_Source_File>
dock_pv.maegz

> <i_m_Source_File_Index>
11

> <chembl_id>
CHEMBL424683

> <chembl_pref_name>
None

> <i_lp_mmshare_version>
53161

> <r_lp_tautomer_probability>
0.196506768086106

> <s_lp_Force_Field>
OPLS_2005

> <r_lp_Energy>
22.254433

> <b_lp_Chiralities_Consistent>
1

> <s_lp_Variant>
CHEMBL3972_lig81-6

> <s_i_glide_gridfile>
glide-grid_1njs

> <i_i_glide_lignum>
198

> <i_i_glide_rotatable_bonds>
15

> <r_i_docking_score>
-12.8073008714895

> <r_i_glide_ligand_efficiency>
-0.328392330038191

> <r_i_glide_ligand_efficiency_sa>
-1.11364782606363

> <r_i_glide_ligand_efficiency_ln>
-2.74624886370236

> <r_i_glide_gscore>
-12.8073008714895

> <r_i_glide_lipo>
-2.50325523299655

> <r_i_glide_hbond>
-1.3617920558355

> <r_i_glide_metal>
0

> <r_i_glide_rewards>
-3.15061421289357

> <r_i_glide_evdw>
-66.7246322631836

> <r_i_glide_ecoul>
-18.7417411804199

> <r_i_glide_erotb>
0.523671780313895

> <r_i_glide_esite>
-0.167818359855555

> <r_i_glide_emodel>
-141.324211210582

> <r_i_glide_energy>
-85.4663734436035

> <r_i_glide_einternal>
12.656343460083

> <i_i_glide_confnum>
92

> <i_i_glide_posenum>
241

> <r_i_glide_eff_state_penalty>
0

> <s_user_duplicate_titles>
CHEMBL3972_lig81

> <i_f3d_flags>
0

> <s_m_subgroup_title>
dock_pv

> <s_m_subgroupid>
dock_pv

> <b_m_subgroup_collapsed>
1

$$$$
CHEMBL3972_lig44
                    3D
 Schrodinger Suite 2021-1.
 57 58  0  0  1  0            999 V2000
   77.1115   26.5721   26.9667 N   0  0  0  0  0  0
   78.2428   26.1437   27.6470 C   0  0  0  0  0  0
   78.3299   24.9375   28.0914 N   0  0  0  0  0  0
   75.9421   25.8851   26.7346 C   0  0  0  0  0  0
   76.0182   24.5672   27.3477 C   0  0  0  0  0  0
   77.2070   24.1787   27.9540 C   0  0  0  0  0  0
   77.0187   22.9385   28.4909 N   0  0  0  0  0  0
   75.7213   22.5412   28.2830 C   0  0  0  0  0  0
   75.1138   23.5129   27.4884 C   0  0  0  0  0  0
   79.2898   27.0545   27.8473 N   0  0  0  0  0  0
   75.0191   26.3752   26.0912 O   0  0  0  0  0  0
   75.1958   21.2906   28.9400 C   0  0  0  0  0  0
   74.1002   21.6125   29.9811 C   0  0  0  0  0  0
   72.6872   21.7208   29.3822 C   0  0  0  0  0  0
   72.0646   20.3380   29.1394 C   0  0  0  0  0  0
   70.9820   20.2951   28.0484 C   0  0  0  0  0  0
   70.5675   18.8534   27.6587 C   0  0  0  0  0  0
   69.2045   18.3893   28.2447 C   0  0  0  0  0  0
   68.5969   17.1823   27.5156 C   0  0  0  0  0  0
   67.4973   16.6212   28.0447 N   0  0  0  0  0  0
   69.1155   16.7592   26.4865 O   0  0  0  0  0  0
   66.6772   15.6206   27.3481 C   0  0  1  0  0  0
   67.2583   14.1655   27.4835 C   0  0  0  0  0  0
   65.2113   15.7263   27.8770 C   0  0  0  0  0  0
   68.7779   13.8983   27.4035 C   0  0  0  0  0  0
   69.0944   12.3946   27.3197 C   0  0  0  0  0  0
   70.3609   12.1442   26.8702 O   0  0  0  0  0  0
   68.2934   11.4982   27.5846 O   0  0  0  0  0  0
   64.2762   15.9917   26.8913 O   0  0  0  0  0  0
   64.9501   15.6031   29.0555 O   0  0  0  0  0  0
   77.1475   27.4877   26.5490 H   0  0  0  0  0  0
   77.6998   22.4315   29.0347 H   0  0  0  0  0  0
   74.0978   23.5085   27.1262 H   0  0  0  0  0  0
   80.1303   26.8012   28.3528 H   0  0  0  0  0  0
   79.2351   28.0249   27.5475 H   0  0  0  0  0  0
   76.0156   20.7859   29.4527 H   0  0  0  0  0  0
   74.8313   20.5927   28.1809 H   0  0  0  0  0  0
   74.3503   22.5357   30.5031 H   0  0  0  0  0  0
   74.0980   20.8449   30.7543 H   0  0  0  0  0  0
   72.7189   22.2937   28.4584 H   0  0  0  0  0  0
   72.0427   22.2969   30.0454 H   0  0  0  0  0  0
   71.6558   19.9920   30.0834 H   0  0  0  0  0  0
   72.8462   19.6292   28.8668 H   0  0  0  0  0  0
   71.3733   20.7784   27.1535 H   0  0  0  0  0  0
   70.1133   20.8862   28.3475 H   0  0  0  0  0  0
   71.3391   18.1424   27.9496 H   0  0  0  0  0  0
   70.5463   18.7895   26.5689 H   0  0  0  0  0  0
   68.4888   19.2090   28.1724 H   0  0  0  0  0  0
   69.2898   18.1474   29.3012 H   0  0  0  0  0  0
   67.1082   16.9687   28.9089 H   0  0  0  0  0  0
   66.7116   15.9113   26.3003 H   0  0  0  0  0  0
   66.8841   13.5937   26.6407 H   0  0  0  0  0  0
   66.8815   13.7044   28.3975 H   0  0  0  0  0  0
   69.2887   14.3360   28.2595 H   0  0  0  0  0  0
   69.1834   14.3577   26.5021 H   0  0  0  0  0  0
   70.8799   12.9377   26.7034 H   0  0  0  0  0  0
   64.6537   15.9731   25.9875 H   0  0  0  0  0  0
  1  2  1  0  0  0
  1  4  1  0  0  0
  1 31  1  0  0  0
  2  3  2  0  0  0
  2 10  1  0  0  0
  3  6  1  0  0  0
  4  5  1  0  0  0
  4 11  2  0  0  0
  5  6  2  0  0  0
  5  9  1  0  0  0
  6  7  1  0  0  0
  7  8  1  0  0  0
  7 32  1  0  0  0
  8  9  2  0  0  0
  8 12  1  0  0  0
  9 33  1  0  0  0
 10 34  1  0  0  0
 10 35  1  0  0  0
 12 13  1  0  0  0
 12 36  1  0  0  0
 12 37  1  0  0  0
 13 14  1  0  0  0
 13 38  1  0  0  0
 13 39  1  0  0  0
 14 15  1  0  0  0
 14 40  1  0  0  0
 14 41  1  0  0  0
 15 16  1  0  0  0
 15 42  1  0  0  0
 15 43  1  0  0  0
 16 17  1  0  0  0
 16 44  1  0  0  0
 16 45  1  0  0  0
 17 18  1  0  0  0
 17 46  1  0  0  0
 17 47  1  0  0  0
 18 19  1  0  0  0
 18 48  1  0  0  0
 18 49  1  0  0  0
 19 20  1  0  0  0
 19 21  2  0  0  0
 20 22  1  0  0  0
 20 50  1  0  0  0
 22 23  1  0  0  0
 22 24  1  0  0  0
 22 51  1  0  0  0
 23 25  1  0  0  0
 23 52  1  0  0  0
 23 53  1  0  0  0
 24 29  1  0  0  0
 24 30  2  0  0  0
 25 26  1  0  0  0
 25 54  1  0  0  0
 25 55  1  0  0  0
 26 27  1  0  0  0
 26 28  2  0  0  0
 27 56  1  0  0  0
 29 57  1  0  0  0
M  END
> <s_m_entry_id>
24859

> <s_m_entry_name>
dock_pv.12

> <s_m_Source_Path>
/home/csk/Desktop/cluster/DUD-E-result/pur2

> <s_m_Source_File>
dock_pv.maegz

> <i_m_Source_File_Index>
12

> <chembl_id>
CHEMBL3086866

> <chembl_pref_name>
None

> <i_lp_mmshare_version>
53161

> <r_lp_tautomer_probability>
1

> <s_lp_Force_Field>
OPLS_2005

> <r_lp_Energy>
11.010001

> <b_lp_Chiralities_Consistent>
1

> <s_lp_Variant>
CHEMBL3972_lig44-1

> <s_i_glide_gridfile>
glide-grid_1njs

> <i_i_glide_lignum>
114

> <i_i_glide_rotatable_bonds>
16

> <r_i_docking_score>
-12.7893008776102

> <r_i_glide_ligand_efficiency>
-0.426310029253672

> <r_i_glide_ligand_efficiency_sa>
-1.32464437900936

> <r_i_glide_ligand_efficiency_ln>
-2.9058685099872

> <r_i_glide_gscore>
-12.7893008776102

> <r_i_glide_lipo>
-1.86297671775016

> <r_i_glide_hbond>
-1.54994238863859

> <r_i_glide_metal>
0

> <r_i_glide_rewards>
-3.54384600710129

> <r_i_glide_evdw>
-56.711311340332

> <r_i_glide_ecoul>
-32.9607582092285

> <r_i_glide_erotb>
1.092541491998

> <r_i_glide_esite>
-0.0895116891015275

> <r_i_glide_emodel>
-148.763188719688

> <r_i_glide_energy>
-89.6720695495605

> <r_i_glide_einternal>
14.1117677688599

> <i_i_glide_confnum>
183

> <i_i_glide_posenum>
109

> <r_i_glide_eff_state_penalty>
0

> <s_user_duplicate_titles>
CHEMBL3972_lig44

> <i_f3d_flags>
0

> <s_m_subgroup_title>
dock_pv

> <s_m_subgroupid>
dock_pv

> <b_m_subgroup_collapsed>
1

$$$$
CHEMBL3972_lig35
                    3D
 Schrodinger Suite 2021-1.
 58 60  0  0  1  0            999 V2000
   77.2447   26.6933   27.0421 N   0  0  0  0  0  0
   78.3873   26.2591   27.6908 C   0  0  0  0  0  0
   78.4862   25.0382   28.1051 N   0  0  0  0  0  0
   76.0890   25.9909   26.7924 C   0  0  0  0  0  0
   76.1631   24.6864   27.4181 C   0  0  0  0  0  0
   77.3589   24.2767   27.9926 C   0  0  0  0  0  0
   77.1798   23.0142   28.4900 N   0  0  0  0  0  0
   75.8824   22.6164   28.2619 C   0  0  0  0  0  0
   75.2620   23.6371   27.5427 C   0  0  0  0  0  0
   75.3714   21.2814   28.7410 C   0  0  0  0  0  0
   73.8637   21.1320   28.4796 C   0  0  0  0  0  0
   72.9251   21.8748   29.4622 C   0  0  0  0  0  0
   71.4639   22.0564   28.9702 C   0  0  0  0  0  0
   70.7194   20.7649   28.6329 C   0  0  0  0  0  0
   75.1857   26.4447   26.0910 O   0  0  0  0  0  0
   79.4318   27.1808   27.8863 N   0  0  0  0  0  0
   71.1818   19.9595   27.5977 C   0  0  0  0  0  0
   70.5610   18.7672   27.2916 C   0  0  0  0  0  0
   69.4010   18.3794   27.9617 C   0  0  0  0  0  0
   68.8897   19.2108   28.9738 C   0  0  0  0  0  0
   69.5555   20.3913   29.3123 C   0  0  0  0  0  0
   68.7139   17.1187   27.5013 C   0  0  0  0  0  0
   67.6824   16.6753   28.2353 N   0  0  0  0  0  0
   69.1112   16.5429   26.4913 O   0  0  0  0  0  0
   66.7706   15.5749   27.9003 C   0  0  1  0  0  0
   67.4786   14.2727   27.4108 C   0  0  0  0  0  0
   68.4668   13.5515   28.3571 C   0  0  0  0  0  0
   69.1982   12.3921   27.6686 C   0  0  0  0  0  0
   70.2957   11.9909   28.3673 O   0  0  0  0  0  0
   68.8500   11.8681   26.6096 O   0  0  0  0  0  0
   65.8125   15.3874   29.0886 C   0  0  0  0  0  0
   64.8891   16.3910   29.0825 O   0  0  0  0  0  0
   65.8869   14.4865   29.8991 O   0  0  0  0  0  0
   77.2877   27.6039   26.6006 H   0  0  0  0  0  0
   77.8781   22.4730   28.9801 H   0  0  0  0  0  0
   74.2429   23.6434   27.1785 H   0  0  0  0  0  0
   75.5807   21.1288   29.8015 H   0  0  0  0  0  0
   75.9000   20.4838   28.2161 H   0  0  0  0  0  0
   73.6199   20.0725   28.4908 H   0  0  0  0  0  0
   73.6652   21.4551   27.4567 H   0  0  0  0  0  0
   73.3307   22.8677   29.6667 H   0  0  0  0  0  0
   72.9274   21.3544   30.4210 H   0  0  0  0  0  0
   71.4593   22.6920   28.0834 H   0  0  0  0  0  0
   70.9025   22.6165   29.7197 H   0  0  0  0  0  0
   80.2081   26.9010   28.4741 H   0  0  0  0  0  0
   79.2107   28.1639   28.0055 H   0  0  0  0  0  0
   72.0082   20.2452   26.9731 H   0  0  0  0  0  0
   70.9600   18.1919   26.4680 H   0  0  0  0  0  0
   67.9791   18.9683   29.5038 H   0  0  0  0  0  0
   69.1556   21.0230   30.0920 H   0  0  0  0  0  0
   67.4684   17.1582   29.0935 H   0  0  0  0  0  0
   66.1743   15.9222   27.0515 H   0  0  0  0  0  0
   68.0058   14.4869   26.4911 H   0  0  0  0  0  0
   66.7142   13.5910   27.0602 H   0  0  0  0  0  0
   67.9611   13.1640   29.2400 H   0  0  0  0  0  0
   69.2142   14.2642   28.7073 H   0  0  0  0  0  0
   70.8120   11.3565   27.8679 H   0  0  0  0  0  0
   64.9690   16.9616   28.3153 H   0  0  0  0  0  0
  1  2  1  0  0  0
  1  4  1  0  0  0
  1 34  1  0  0  0
  2 16  1  0  0  0
  2  3  2  0  0  0
  3  6  1  0  0  0
  4  5  1  0  0  0
  4 15  2  0  0  0
  5  9  1  0  0  0
  5  6  2  0  0  0
  6  7  1  0  0  0
  7  8  1  0  0  0
  7 35  1  0  0  0
  8  9  2  0  0  0
  8 10  1  0  0  0
  9 36  1  0  0  0
 10 11  1  0  0  0
 10 37  1  0  0  0
 10 38  1  0  0  0
 11 12  1  0  0  0
 11 39  1  0  0  0
 11 40  1  0  0  0
 12 13  1  0  0  0
 12 41  1  0  0  0
 12 42  1  0  0  0
 13 14  1  0  0  0
 13 43  1  0  0  0
 13 44  1  0  0  0
 14 17  2  0  0  0
 14 21  1  0  0  0
 16 45  1  0  0  0
 16 46  1  0  0  0
 17 18  1  0  0  0
 17 47  1  0  0  0
 18 19  2  0  0  0
 18 48  1  0  0  0
 19 20  1  0  0  0
 19 22  1  0  0  0
 20 21  2  0  0  0
 20 49  1  0  0  0
 21 50  1  0  0  0
 22 23  1  0  0  0
 22 24  2  0  0  0
 23 25  1  0  0  0
 23 51  1  0  0  0
 25 26  1  0  0  0
 25 31  1  0  0  0
 25 52  1  0  0  0
 26 27  1  0  0  0
 26 53  1  0  0  0
 26 54  1  0  0  0
 27 28  1  0  0  0
 27 55  1  0  0  0
 27 56  1  0  0  0
 28 29  1  0  0  0
 28 30  2  0  0  0
 29 57  1  0  0  0
 31 32  1  0  0  0
 31 33  2  0  0  0
 32 58  1  0  0  0
M  END
> <s_m_entry_id>
24860

> <s_m_entry_name>
dock_pv.13

> <s_m_Source_Path>
/home/csk/Desktop/cluster/DUD-E-result/pur2

> <s_m_Source_File>
dock_pv.maegz

> <i_m_Source_File_Index>
13

> <chembl_id>
CHEMBL365307

> <chembl_pref_name>
None

> <i_lp_mmshare_version>
53161

> <r_lp_tautomer_probability>
1

> <s_lp_Force_Field>
OPLS_2005

> <r_lp_Energy>
17.800434

> <b_lp_Chiralities_Consistent>
1

> <s_lp_Variant>
CHEMBL3972_lig35-1

> <s_i_glide_gridfile>
glide-grid_1njs

> <i_i_glide_lignum>
105

> <i_i_glide_rotatable_bonds>
14

> <r_i_docking_score>
-12.6811423614169

> <r_i_glide_ligand_efficiency>
-0.384277041255058

> <r_i_glide_ligand_efficiency_sa>
-1.23258180061824

> <r_i_glide_ligand_efficiency_ln>
-2.82022040173799

> <r_i_glide_gscore>
-12.6811423614169

> <r_i_glide_lipo>
-2.45369742953234

> <r_i_glide_hbond>
-1.78069091172025

> <r_i_glide_metal>
0

> <r_i_glide_rewards>
-3.42139593057015

> <r_i_glide_evdw>
-58.4888343811035

> <r_i_glide_ecoul>
-19.1976451873779

> <r_i_glide_erotb>
0.813459142036901

> <r_i_glide_esite>
-0.0347287344692178

> <r_i_glide_emodel>
-141.520192423995

> <r_i_glide_energy>
-77.6864795684814

> <r_i_glide_einternal>
6.34341812133789

> <i_i_glide_confnum>
18

> <i_i_glide_posenum>
340

> <r_i_glide_eff_state_penalty>
0

> <s_user_duplicate_titles>
CHEMBL3972_lig35,318324

> <i_f3d_flags>
0

> <s_m_subgroup_title>
dock_pv

> <s_m_subgroupid>
dock_pv

> <b_m_subgroup_collapsed>
1

$$$$
CHEMBL3972_lig24
                    3D
 Schrodinger Suite 2021-1.
 55 56  0  0  1  0            999 V2000
   78.5743   24.7906   28.0082 N   0  0  0  0  0  0
   77.6116   23.8692   27.7418 C   0  0  0  0  0  0
   77.1366   26.3929   27.2299 N   0  0  0  0  0  0
   76.3925   24.1706   27.2376 C   0  0  0  0  0  0
   76.1148   25.5631   26.9206 C   0  0  0  0  0  0
   78.3338   26.0251   27.7558 C   0  0  0  0  0  0
   69.2889   18.8197   28.5047 C   0  0  0  0  0  0
   68.4357   17.5872   28.5940 C   0  0  0  0  0  0
   68.0568   17.0406   27.4212 N   0  0  0  0  0  0
   69.0514   19.9575   29.3022 C   0  0  0  0  0  0
   66.0879   15.5792   28.0346 C   0  0  0  0  0  0
   67.4053   15.7345   27.2295 C   0  0  2  0  0  0
   70.4258   18.7899   27.6908 C   0  0  0  0  0  0
   69.9770   21.0007   29.3161 C   0  0  0  0  0  0
   75.0787   25.9911   26.4190 O   0  0  0  0  0  0
   69.0486   12.1454   27.2395 C   0  0  0  0  0  0
   68.2007   17.0895   29.6944 O   0  0  0  0  0  0
   77.9753   22.6150   28.0908 N   0  0  0  0  0  0
   66.0272   15.0925   29.1446 O   0  0  0  0  0  0
   79.2891   27.0183   28.0290 N   0  0  0  0  0  0
   69.3049   11.5707   26.1849 O   0  0  0  0  0  0
   68.4556   14.6160   27.5062 C   0  0  0  0  0  0
   71.1403   20.9359   28.5516 C   0  0  0  0  0  0
   67.6674   20.1074   30.3327 Cl  0  0  0  0  0  0
   67.9293   13.1731   27.3737 C   0  0  0  0  0  0
   75.2860   23.1556   26.9693 C   0  0  0  0  0  0
   71.3494   19.8243   27.7268 C   0  0  0  0  0  0
   65.0214   15.9913   27.2910 O   0  0  0  0  0  0
   72.0539   21.9958   28.6480 N   0  0  0  0  0  0
   69.7041   11.9191   28.4127 O   0  0  0  0  0  0
   73.3200   21.9160   27.9392 C   0  0  0  0  0  0
   74.1908   23.1635   28.0488 C   0  0  0  0  0  0
   68.2027   17.5817   26.5801 H   0  0  0  0  0  0
   67.1578   15.6770   26.1691 H   0  0  0  0  0  0
   70.6395   17.9402   27.0598 H   0  0  0  0  0  0
   69.7983   21.8577   29.9498 H   0  0  0  0  0  0
   76.9880   27.3547   26.9686 H   0  0  0  0  0  0
   77.3082   21.8671   28.0277 H   0  0  0  0  0  0
   78.8477   22.4374   28.5581 H   0  0  0  0  0  0
   80.1629   26.7891   28.4865 H   0  0  0  0  0  0
   79.0644   28.0040   28.0033 H   0  0  0  0  0  0
   68.8675   14.7397   28.5101 H   0  0  0  0  0  0
   69.3030   14.7572   26.8312 H   0  0  0  0  0  0
   67.2900   13.0884   26.4930 H   0  0  0  0  0  0
   67.3084   12.9232   28.2349 H   0  0  0  0  0  0
   75.7117   22.1553   26.8925 H   0  0  0  0  0  0
   74.8420   23.3367   25.9880 H   0  0  0  0  0  0
   72.2273   19.7357   27.1070 H   0  0  0  0  0  0
   65.2255   16.1598   26.3534 H   0  0  0  0  0  0
   71.6888   22.9247   28.8317 H   0  0  0  0  0  0
   69.3896   12.4810   29.1245 H   0  0  0  0  0  0
   73.8778   21.0184   28.2145 H   0  0  0  0  0  0
   73.0941   21.7620   26.8915 H   0  0  0  0  0  0
   73.5823   24.0626   27.9442 H   0  0  0  0  0  0
   74.6214   23.2077   29.0505 H   0  0  0  0  0  0
  1  2  1  0  0  0
  1  6  2  0  0  0
  2  4  2  0  0  0
  2 18  1  0  0  0
  3  6  1  0  0  0
  3 37  1  0  0  0
  3  5  1  0  0  0
  4 26  1  0  0  0
  4  5  1  0  0  0
  5 15  2  0  0  0
  6 20  1  0  0  0
  7 13  2  0  0  0
  7  8  1  0  0  0
  7 10  1  0  0  0
  8  9  1  0  0  0
  8 17  2  0  0  0
  9 12  1  0  0  0
  9 33  1  0  0  0
 10 14  2  0  0  0
 10 24  1  0  0  0
 11 12  1  0  0  0
 11 19  2  0  0  0
 11 28  1  0  0  0
 12 22  1  0  0  0
 12 34  1  0  0  0
 13 27  1  0  0  0
 13 35  1  0  0  0
 14 23  1  0  0  0
 14 36  1  0  0  0
 16 25  1  0  0  0
 16 21  2  0  0  0
 16 30  1  0  0  0
 18 38  1  0  0  0
 18 39  1  0  0  0
 20 40  1  0  0  0
 20 41  1  0  0  0
 22 25  1  0  0  0
 22 42  1  0  0  0
 22 43  1  0  0  0
 23 29  1  0  0  0
 23 27  2  0  0  0
 25 44  1  0  0  0
 25 45  1  0  0  0
 26 32  1  0  0  0
 26 46  1  0  0  0
 26 47  1  0  0  0
 27 48  1  0  0  0
 28 49  1  0  0  0
 29 31  1  0  0  0
 29 50  1  0  0  0
 30 51  1  0  0  0
 31 32  1  0  0  0
 31 52  1  0  0  0
 31 53  1  0  0  0
 32 54  1  0  0  0
 32 55  1  0  0  0
M  END
> <s_m_entry_id>
24861

> <s_m_entry_name>
dock_pv.14

> <s_m_Source_Path>
/home/csk/Desktop/cluster/DUD-E-result/pur2

> <s_m_Source_File>
dock_pv.maegz

> <i_m_Source_File_Index>
14

> <chembl_id>
CHEMBL417304

> <chembl_pref_name>
None

> <i_lp_mmshare_version>
53161

> <r_lp_tautomer_probability>
0.982528302960407

> <s_lp_Force_Field>
OPLS_2005

> <r_lp_Energy>
19.850538

> <b_lp_Chiralities_Consistent>
1

> <s_lp_Variant>
CHEMBL3972_lig24-2

> <s_i_glide_gridfile>
glide-grid_1njs

> <i_i_glide_lignum>
73

> <i_i_glide_rotatable_bonds>
14

> <r_i_docking_score>
-12.6416766941467

> <r_i_glide_ligand_efficiency>
-0.395052396692085

> <r_i_glide_ligand_efficiency_sa>
-1.25421317873422

> <r_i_glide_ligand_efficiency_ln>
-2.83081601091126

> <r_i_glide_gscore>
-12.6416766941467

> <r_i_glide_lipo>
-2.79175259250154

> <r_i_glide_hbond>
-1.62318785471134

> <r_i_glide_metal>
0

> <r_i_glide_rewards>
-2.44011231951286

> <r_i_glide_evdw>
-61.3479690551758

> <r_i_glide_ecoul>
-25.0285377502441

> <r_i_glide_erotb>
1.11085924476845

> <r_i_glide_esite>
-0.0758040568940108

> <r_i_glide_emodel>
-155.523760415322

> <r_i_glide_energy>
-86.3765068054199

> <r_i_glide_einternal>
11.629490852356

> <i_i_glide_confnum>
14

> <i_i_glide_posenum>
340

> <r_i_glide_eff_state_penalty>
0

> <s_user_duplicate_titles>
CHEMBL3972_lig24,CHEMBL3972_lig24

> <i_f3d_flags>
0

> <s_m_subgroup_title>
dock_pv

> <s_m_subgroupid>
dock_pv

> <b_m_subgroup_collapsed>
1

$$$$
CHEMBL3972_lig72
                    3D
 Schrodinger Suite 2021-1.
 55 57  0  0  1  0            999 V2000
   75.9895   24.6527   27.2226 C   0  0  0  0  0  0
   77.0371   23.9622   27.8503 C   0  0  0  0  0  0
   78.2394   24.5503   28.0895 N   0  0  0  0  0  0
   77.3656   26.6142   27.2487 N   0  0  0  0  0  0
   76.2204   25.9940   26.8851 C   0  0  0  0  0  0
   78.3225   25.8657   27.8034 C   0  0  0  0  0  0
   69.5763   18.4619   27.8868 C   0  0  0  0  0  0
   71.2331   18.6648   27.4100 S   0  0  0  0  0  0
   71.4770   20.0275   28.4583 C   0  0  0  0  0  0
   68.7988   17.3486   27.3614 C   0  0  0  0  0  0
   74.4888   23.8710   26.7175 S   0  0  0  0  0  0
   69.2165   19.5153   28.7226 C   0  0  0  0  0  0
   76.9112   22.6250   28.2739 N   0  0  0  0  0  0
   70.2628   20.3999   29.0520 C   0  0  0  0  0  0
   67.5963   17.0981   27.9334 N   0  0  0  0  0  0
   65.2203   16.1622   27.9776 C   0  0  0  0  0  0
   66.7152   15.9524   27.5806 C   0  0  2  0  0  0
   75.3102   26.6533   26.0908 O   0  0  0  0  0  0
   68.6365   12.4909   27.7922 C   0  0  0  0  0  0
   69.2733   16.6189   26.4912 O   0  0  0  0  0  0
   72.8846   20.5879   28.6238 C   0  0  0  0  0  0
   64.8939   16.3971   29.1235 O   0  0  0  0  0  0
   79.4858   26.5561   28.0957 N   0  0  0  0  0  0
   68.4917   11.6439   26.9167 O   0  0  0  0  0  0
   74.5327   22.2992   27.6219 C   0  0  1  0  0  0
   67.2686   14.6323   28.2283 C   0  0  0  0  0  0
   75.5866   22.2243   28.7507 C   0  0  0  0  0  0
   68.5120   13.9921   27.5542 C   0  0  0  0  0  0
   64.3294   15.9908   26.9300 O   0  0  0  0  0  0
   73.0908   22.0134   28.1002 C   0  0  0  0  0  0
   68.9250   12.1941   29.0895 O   0  0  0  0  0  0
   70.0843   21.6097   29.9333 C   0  0  0  0  0  0
   68.2141   19.6538   29.0944 H   0  0  0  0  0  0
   77.6614   22.2845   28.8607 H   0  0  0  0  0  0
   67.2225   17.7452   28.6064 H   0  0  0  0  0  0
   66.7387   15.8587   26.4960 H   0  0  0  0  0  0
   75.6866   27.5004   25.8425 H   0  0  0  0  0  0
   73.1975   20.5432   29.6715 H   0  0  0  0  0  0
   73.5783   19.9401   28.0870 H   0  0  0  0  0  0
   79.4910   27.5451   27.8948 H   0  0  0  0  0  0
   80.2950   26.0911   28.4971 H   0  0  0  0  0  0
   74.8105   21.5560   26.8678 H   0  0  0  0  0  0
   66.4886   13.8950   28.2590 H   0  0  0  0  0  0
   67.5089   14.8307   29.2731 H   0  0  0  0  0  0
   75.2923   22.8548   29.5929 H   0  0  0  0  0  0
   75.6497   21.2039   29.1319 H   0  0  0  0  0  0
   69.4353   14.4726   27.8740 H   0  0  0  0  0  0
   68.4456   14.1580   26.4894 H   0  0  0  0  0  0
   64.7415   15.8954   26.0464 H   0  0  0  0  0  0
   72.3860   22.2055   27.2908 H   0  0  0  0  0  0
   72.8130   22.7329   28.8707 H   0  0  0  0  0  0
   69.0173   11.2476   29.2345 H   0  0  0  0  0  0
   70.5517   22.4959   29.5117 H   0  0  0  0  0  0
   69.0385   21.8817   30.0918 H   0  0  0  0  0  0
   70.5582   21.4665   30.8993 H   0  0  0  0  0  0
  1  2  1  0  0  0
  1  5  2  0  0  0
  1 11  1  0  0  0
  2  3  2  0  0  0
  2 13  1  0  0  0
  3  6  1  0  0  0
  4  5  1  0  0  0
  4  6  2  0  0  0
  5 18  1  0  0  0
  6 23  1  0  0  0
  7  8  1  0  0  0
  7 10  1  0  0  0
  7 12  2  0  0  0
  8  9  1  0  0  0
  9 21  1  0  0  0
  9 14  2  0  0  0
 10 15  1  0  0  0
 10 20  2  0  0  0
 11 25  1  0  0  0
 12 14  1  0  0  0
 12 33  1  0  0  0
 13 27  1  0  0  0
 13 34  1  0  0  0
 14 32  1  0  0  0
 15 17  1  0  0  0
 15 35  1  0  0  0
 16 17  1  0  0  0
 16 22  2  0  0  0
 16 29  1  0  0  0
 17 26  1  0  0  0
 17 36  1  0  0  0
 18 37  1  0  0  0
 19 28  1  0  0  0
 19 24  2  0  0  0
 19 31  1  0  0  0
 21 30  1  0  0  0
 21 38  1  0  0  0
 21 39  1  0  0  0
 23 40  1  0  0  0
 23 41  1  0  0  0
 25 27  1  0  0  0
 25 30  1  0  0  0
 25 42  1  0  0  0
 26 28  1  0  0  0
 26 43  1  0  0  0
 26 44  1  0  0  0
 27 45  1  0  0  0
 27 46  1  0  0  0
 28 47  1  0  0  0
 28 48  1  0  0  0
 29 49  1  0  0  0
 30 50  1  0  0  0
 30 51  1  0  0  0
 31 52  1  0  0  0
 32 53  1  0  0  0
 32 54  1  0  0  0
 32 55  1  0  0  0
M  END
> <s_m_entry_id>
24863

> <s_m_entry_name>
dock_pv.16

> <s_m_Source_Path>
/home/csk/Desktop/cluster/DUD-E-result/pur2

> <s_m_Source_File>
dock_pv.maegz

> <i_m_Source_File_Index>
16

> <chembl_id>
CHEMBL82390

> <chembl_pref_name>
None

> <i_lp_mmshare_version>
53161

> <r_lp_tautomer_probability>
0.0160306447209791

> <s_lp_Force_Field>
OPLS_2005

> <r_lp_Energy>
-2.925171

> <b_lp_Chiralities_Consistent>
1

> <s_lp_Variant>
CHEMBL3972_lig72-4

> <s_i_glide_gridfile>
glide-grid_1njs

> <i_i_glide_lignum>
162

> <i_i_glide_rotatable_bonds>
13

> <r_i_docking_score>
-12.6068416503589

> <r_i_glide_ligand_efficiency>
-0.393963801573716

> <r_i_glide_ligand_efficiency_sa>
-1.25075710466609

> <r_i_glide_ligand_efficiency_ln>
-2.82301549503974

> <r_i_glide_gscore>
-12.6068416503589

> <r_i_glide_lipo>
-2.7887816610857

> <r_i_glide_hbond>
-1.22779998705183

> <r_i_glide_metal>
0

> <r_i_glide_rewards>
-2.22737919222175

> <r_i_glide_evdw>
-59.1284942626953

> <r_i_glide_ecoul>
-26.2542381286621

> <r_i_glide_erotb>
0.61240576617919

> <r_i_glide_esite>
-0.0807261437447494

> <r_i_glide_emodel>
-142.326651227818

> <r_i_glide_energy>
-85.3827323913574

> <r_i_glide_einternal>
12.0638122558594

> <i_i_glide_confnum>
120

> <i_i_glide_posenum>
109

> <r_i_glide_eff_state_penalty>
0

> <s_user_duplicate_titles>
CHEMBL3972_lig72,CHEMBL3972_lig72

> <i_f3d_flags>
0

> <s_m_subgroup_title>
dock_pv

> <s_m_subgroupid>
dock_pv

> <b_m_subgroup_collapsed>
1

$$$$
CHEMBL3972_lig72
                    3D
 Schrodinger Suite 2021-1.
 55 57  0  0  1  0            999 V2000
   76.0674   24.8713   27.3104 C   0  0  0  0  0  0
   77.0840   24.2013   28.0140 C   0  0  0  0  0  0
   78.2899   24.7845   28.2672 N   0  0  0  0  0  0
   77.4943   26.7913   27.2353 N   0  0  0  0  0  0
   76.3493   26.1744   26.8910 C   0  0  0  0  0  0
   78.4255   26.0693   27.8670 C   0  0  0  0  0  0
   69.8737   18.8871   28.0734 C   0  0  0  0  0  0
   71.5689   19.1904   27.8754 S   0  0  0  0  0  0
   71.5153   20.5452   28.9545 C   0  0  0  0  0  0
   69.2914   17.7600   27.3953 C   0  0  0  0  0  0
   74.5432   24.0936   26.8595 S   0  0  0  0  0  0
   69.2901   19.8791   28.8573 C   0  0  0  0  0  0
   76.8928   22.9210   28.5695 N   0  0  0  0  0  0
   70.2072   20.8349   29.3299 C   0  0  0  0  0  0
   68.1322   17.3006   27.8935 N   0  0  0  0  0  0
   66.0843   15.9717   28.1414 C   0  0  0  0  0  0
   67.4431   16.0904   27.4199 C   0  0  2  0  0  0
   75.4498   26.7932   26.0707 O   0  0  0  0  0  0
   68.7626   12.3280   27.4676 C   0  0  0  0  0  0
   69.8971   17.1911   26.4910 O   0  0  0  0  0  0
   72.7781   21.2970   29.2899 C   0  0  0  0  0  0
   65.9415   16.1891   29.3282 O   0  0  0  0  0  0
   79.6013   26.7576   28.0917 N   0  0  0  0  0  0
   68.8867   11.5917   26.4901 O   0  0  0  0  0  0
   74.4414   22.9819   28.2738 C   0  0  2  0  0  0
   68.3780   14.8501   27.6282 C   0  0  0  0  0  0
   75.7150   22.1176   28.2634 C   0  0  0  0  0  0
   67.7303   13.4550   27.5538 C   0  0  0  0  0  0
   65.1027   15.5463   27.2910 O   0  0  0  0  0  0
   73.1733   22.1544   28.0883 C   0  0  0  0  0  0
   69.4987   12.2021   28.6089 O   0  0  0  0  0  0
   69.8621   22.0323   30.1789 C   0  0  0  0  0  0
   68.2336   19.9255   29.0798 H   0  0  0  0  0  0
   77.7088   22.3923   28.8512 H   0  0  0  0  0  0
   67.6701   17.7976   28.6406 H   0  0  0  0  0  0
   67.2552   16.2304   26.3520 H   0  0  0  0  0  0
   75.8217   27.6502   25.8319 H   0  0  0  0  0  0
   72.6558   21.9282   30.1698 H   0  0  0  0  0  0
   73.5786   20.6042   29.5441 H   0  0  0  0  0  0
   79.6004   27.7347   27.8424 H   0  0  0  0  0  0
   80.3810   26.3576   28.6034 H   0  0  0  0  0  0
   74.3667   23.5863   29.1802 H   0  0  0  0  0  0
   68.8828   14.9460   28.5905 H   0  0  0  0  0  0
   69.1718   14.8751   26.8798 H   0  0  0  0  0  0
   75.6534   21.3233   29.0071 H   0  0  0  0  0  0
   75.8430   21.6212   27.3008 H   0  0  0  0  0  0
   67.0853   13.4047   26.6753 H   0  0  0  0  0  0
   67.1080   13.2956   28.4336 H   0  0  0  0  0  0
   65.2887   15.5913   26.3267 H   0  0  0  0  0  0
   73.3211   21.4944   27.2384 H   0  0  0  0  0  0
   72.3365   22.8067   27.8327 H   0  0  0  0  0  0
   69.2892   12.8719   29.2637 H   0  0  0  0  0  0
   70.4876   22.0463   31.0754 H   0  0  0  0  0  0
   70.1074   22.9755   29.6907 H   0  0  0  0  0  0
   68.8134   22.0595   30.4736 H   0  0  0  0  0  0
  1  2  1  0  0  0
  1  5  2  0  0  0
  1 11  1  0  0  0
  2  3  2  0  0  0
  2 13  1  0  0  0
  3  6  1  0  0  0
  4  5  1  0  0  0
  4  6  2  0  0  0
  5 18  1  0  0  0
  6 23  1  0  0  0
  7  8  1  0  0  0
  7 10  1  0  0  0
  7 12  2  0  0  0
  8  9  1  0  0  0
  9 21  1  0  0  0
  9 14  2  0  0  0
 10 15  1  0  0  0
 10 20  2  0  0  0
 11 25  1  0  0  0
 12 14  1  0  0  0
 12 33  1  0  0  0
 13 27  1  0  0  0
 13 34  1  0  0  0
 14 32  1  0  0  0
 15 17  1  0  0  0
 15 35  1  0  0  0
 16 17  1  0  0  0
 16 22  2  0  0  0
 16 29  1  0  0  0
 17 26  1  0  0  0
 17 36  1  0  0  0
 18 37  1  0  0  0
 19 28  1  0  0  0
 19 24  2  0  0  0
 19 31  1  0  0  0
 21 30  1  0  0  0
 21 38  1  0  0  0
 21 39  1  0  0  0
 23 40  1  0  0  0
 23 41  1  0  0  0
 25 27  1  0  0  0
 25 30  1  0  0  0
 25 42  1  0  0  0
 26 28  1  0  0  0
 26 43  1  0  0  0
 26 44  1  0  0  0
 27 45  1  0  0  0
 27 46  1  0  0  0
 28 47  1  0  0  0
 28 48  1  0  0  0
 29 49  1  0  0  0
 30 50  1  0  0  0
 30 51  1  0  0  0
 31 52  1  0  0  0
 32 53  1  0  0  0
 32 54  1  0  0  0
 32 55  1  0  0  0
M  END
> <s_m_entry_id>
24864

> <s_m_entry_name>
dock_pv.17

> <s_m_Source_Path>
/home/csk/Desktop/cluster/DUD-E-result/pur2

> <s_m_Source_File>
dock_pv.maegz

> <i_m_Source_File_Index>
17

> <chembl_id>
CHEMBL82390

> <chembl_pref_name>
None

> <i_lp_mmshare_version>
53161

> <r_lp_tautomer_probability>
0.0160306447209791

> <s_lp_Force_Field>
OPLS_2005

> <r_lp_Energy>
-1.019432

> <b_lp_Chiralities_Consistent>
1

> <s_lp_Variant>
CHEMBL3972_lig72-3

> <s_i_glide_gridfile>
glide-grid_1njs

> <i_i_glide_lignum>
161

> <i_i_glide_rotatable_bonds>
13

> <r_i_docking_score>
-12.578430641731

> <r_i_glide_ligand_efficiency>
-0.393075957554094

> <r_i_glide_ligand_efficiency_sa>
-1.24793837560788

> <r_i_glide_ligand_efficiency_ln>
-2.81665349575311

> <r_i_glide_gscore>
-12.578430641731

> <r_i_glide_lipo>
-2.83149275072732

> <r_i_glide_hbond>
-1.42808675433351

> <r_i_glide_metal>
0

> <r_i_glide_rewards>
-2.56005380670867

> <r_i_glide_evdw>
-54.9137649536133

> <r_i_glide_ecoul>
-23.6376552581787

> <r_i_glide_erotb>
0.61240576617919

> <r_i_glide_esite>
-0.0798665597332157

> <r_i_glide_emodel>
-128.940199101076

> <r_i_glide_energy>
-78.551420211792

> <r_i_glide_einternal>
9.34351921081543

> <i_i_glide_confnum>
114

> <i_i_glide_posenum>
168

> <r_i_glide_eff_state_penalty>
0

> <s_user_duplicate_titles>
CHEMBL3972_lig72,135380

> <i_f3d_flags>
0

> <s_m_subgroup_title>
dock_pv

> <s_m_subgroupid>
dock_pv

> <b_m_subgroup_collapsed>
1

$$$$
CHEMBL3972_lig18
                    3D
 Schrodinger Suite 2021-1.
 55 56  0  0  1  0            999 V2000
   78.5626   24.7908   27.9945 N   0  0  0  0  0  0
   77.5973   23.8700   27.7360 C   0  0  0  0  0  0
   77.1312   26.3912   27.1991 N   0  0  0  0  0  0
   76.3782   24.1703   27.2304 C   0  0  0  0  0  0
   76.1065   25.5630   26.8984 C   0  0  0  0  0  0
   78.3283   26.0228   27.7306 C   0  0  0  0  0  0
   69.2889   18.8092   28.4992 C   0  0  0  0  0  0
   68.4246   17.5889   28.6108 C   0  0  0  0  0  0
   68.0428   17.0269   27.4469 N   0  0  0  0  0  0
   69.0450   19.9434   29.2911 C   0  0  0  0  0  0
   66.1055   15.5818   28.1632 C   0  0  0  0  0  0
   67.3780   15.7237   27.2872 C   0  0  2  0  0  0
   70.4253   18.7758   27.6863 C   0  0  0  0  0  0
   69.9615   20.9942   29.3025 C   0  0  0  0  0  0
   75.0733   25.9926   26.3918 O   0  0  0  0  0  0
   69.0834   12.1577   27.1572 C   0  0  0  0  0  0
   68.1765   17.1182   29.7200 O   0  0  0  0  0  0
   77.9618   22.6169   28.0908 N   0  0  0  0  0  0
   66.0270   14.8489   29.1280 O   0  0  0  0  0  0
   79.2889   27.0113   27.9980 N   0  0  0  0  0  0
   69.2925   11.5850   26.0919 O   0  0  0  0  0  0
   68.4526   14.6134   27.5043 C   0  0  0  0  0  0
   71.1277   20.9305   28.5443 C   0  0  0  0  0  0
   67.9549   20.0211   30.0909 F   0  0  0  0  0  0
   67.9533   13.1622   27.3536 C   0  0  0  0  0  0
   75.2711   23.1536   26.9696 C   0  0  0  0  0  0
   71.3441   19.8151   27.7252 C   0  0  0  0  0  0
   65.1080   16.3831   27.6909 O   0  0  0  0  0  0
   72.0382   21.9931   28.6404 N   0  0  0  0  0  0
   69.8013   11.9389   28.2952 O   0  0  0  0  0  0
   73.3091   21.9161   27.9396 C   0  0  0  0  0  0
   74.1670   23.1739   28.0393 C   0  0  0  0  0  0
   68.2120   17.5405   26.5945 H   0  0  0  0  0  0
   67.0539   15.6679   26.2482 H   0  0  0  0  0  0
   70.6419   17.9237   27.0592 H   0  0  0  0  0  0
   69.7739   21.8476   29.9373 H   0  0  0  0  0  0
   76.9868   27.3516   26.9333 H   0  0  0  0  0  0
   77.2930   21.8675   28.0308 H   0  0  0  0  0  0
   78.8377   22.4418   28.5511 H   0  0  0  0  0  0
   80.1553   26.7827   28.4705 H   0  0  0  0  0  0
   79.0660   27.9977   27.9746 H   0  0  0  0  0  0
   68.8899   14.7231   28.4980 H   0  0  0  0  0  0
   69.2771   14.7853   26.8091 H   0  0  0  0  0  0
   67.2889   13.0900   26.4913 H   0  0  0  0  0  0
   67.3709   12.8689   28.2257 H   0  0  0  0  0  0
   75.6974   22.1515   26.9139 H   0  0  0  0  0  0
   74.8382   23.3210   25.9804 H   0  0  0  0  0  0
   72.2271   19.7284   27.1109 H   0  0  0  0  0  0
   65.2910   16.7566   26.8162 H   0  0  0  0  0  0
   71.6758   22.9209   28.8361 H   0  0  0  0  0  0
   69.5167   12.4938   29.0256 H   0  0  0  0  0  0
   73.8708   21.0267   28.2341 H   0  0  0  0  0  0
   73.0939   21.7498   26.8910 H   0  0  0  0  0  0
   73.5527   24.0670   27.9119 H   0  0  0  0  0  0
   74.5918   23.2373   29.0430 H   0  0  0  0  0  0
  1  2  1  0  0  0
  1  6  2  0  0  0
  2  4  2  0  0  0
  2 18  1  0  0  0
  3  6  1  0  0  0
  3 37  1  0  0  0
  3  5  1  0  0  0
  4 26  1  0  0  0
  4  5  1  0  0  0
  5 15  2  0  0  0
  6 20  1  0  0  0
  7 13  2  0  0  0
  7  8  1  0  0  0
  7 10  1  0  0  0
  8  9  1  0  0  0
  8 17  2  0  0  0
  9 12  1  0  0  0
  9 33  1  0  0  0
 10 14  2  0  0  0
 10 24  1  0  0  0
 11 12  1  0  0  0
 11 19  2  0  0  0
 11 28  1  0  0  0
 12 22  1  0  0  0
 12 34  1  0  0  0
 13 27  1  0  0  0
 13 35  1  0  0  0
 14 23  1  0  0  0
 14 36  1  0  0  0
 16 25  1  0  0  0
 16 21  2  0  0  0
 16 30  1  0  0  0
 18 38  1  0  0  0
 18 39  1  0  0  0
 20 40  1  0  0  0
 20 41  1  0  0  0
 22 25  1  0  0  0
 22 42  1  0  0  0
 22 43  1  0  0  0
 23 29  1  0  0  0
 23 27  2  0  0  0
 25 44  1  0  0  0
 25 45  1  0  0  0
 26 32  1  0  0  0
 26 46  1  0  0  0
 26 47  1  0  0  0
 27 48  1  0  0  0
 28 49  1  0  0  0
 29 31  1  0  0  0
 29 50  1  0  0  0
 30 51  1  0  0  0
 31 32  1  0  0  0
 31 52  1  0  0  0
 31 53  1  0  0  0
 32 54  1  0  0  0
 32 55  1  0  0  0
M  END
> <s_m_entry_id>
24865

> <s_m_entry_name>
dock_pv.18

> <s_m_Source_Path>
/home/csk/Desktop/cluster/DUD-E-result/pur2

> <s_m_Source_File>
dock_pv.maegz

> <i_m_Source_File_Index>
18

> <chembl_id>
CHEMBL31176

> <chembl_pref_name>
None

> <i_lp_mmshare_version>
53161

> <r_lp_tautomer_probability>
0.982528302960407

> <s_lp_Force_Field>
OPLS_2005

> <r_lp_Energy>
19.231901

> <b_lp_Chiralities_Consistent>
1

> <s_lp_Variant>
CHEMBL3972_lig18-2

> <s_i_glide_gridfile>
glide-grid_1njs

> <i_i_glide_lignum>
47

> <i_i_glide_rotatable_bonds>
14

> <r_i_docking_score>
-12.5655270451918

> <r_i_glide_ligand_efficiency>
-0.392672720162242

> <r_i_glide_ligand_efficiency_sa>
-1.24665817668932

> <r_i_glide_ligand_efficiency_ln>
-2.81376402874921

> <r_i_glide_gscore>
-12.5655270451918

> <r_i_glide_lipo>
-2.50276351874619

> <r_i_glide_hbond>
-1.61352537690644

> <r_i_glide_metal>
0

> <r_i_glide_rewards>
-2.87490115071025

> <r_i_glide_evdw>
-62.3570175170898

> <r_i_glide_ecoul>
-23.8235511779785

> <r_i_glide_erotb>
1.18586114611094

> <r_i_glide_esite>
-0.0688145923885514

> <r_i_glide_emodel>
-150.523610917914

> <r_i_glide_energy>
-86.1805686950684

> <r_i_glide_einternal>
12.4384660720825

> <i_i_glide_confnum>
219

> <i_i_glide_posenum>
256

> <r_i_glide_eff_state_penalty>
0

> <s_user_duplicate_titles>
CHEMBL3972_lig18,CHEMBL3972_lig18

> <i_f3d_flags>
0

> <s_m_subgroup_title>
dock_pv

> <s_m_subgroupid>
dock_pv

> <b_m_subgroup_collapsed>
1

$$$$
CHEMBL3972_lig76
                    3D
 Schrodinger Suite 2021-1.
 54 55  0  0  1  0            999 V2000
   78.3065   24.6318   28.0873 N   0  0  0  0  0  0
   77.2141   23.8287   27.9502 C   0  0  0  0  0  0
   76.0301   24.2288   27.4297 C   0  0  0  0  0  0
   77.0759   26.3123   27.1283 N   0  0  0  0  0  0
   75.9545   25.5865   26.9182 C   0  0  0  0  0  0
   78.2210   25.8503   27.6926 C   0  0  0  0  0  0
   68.0893   17.4820   28.8770 C   0  0  0  0  0  0
   67.6363   16.9405   27.7288 N   0  0  0  0  0  0
   65.4129   15.8488   28.2320 C   0  0  0  0  0  0
   66.8081   15.7325   27.5677 C   0  0  2  0  0  0
   68.9525   18.7100   28.7391 C   0  0  0  0  0  0
   74.9964   26.0818   26.3317 O   0  0  0  0  0  0
   69.2878   12.7215   27.4135 C   0  0  0  0  0  0
   74.5728   23.1930   27.2913 S   0  0  0  0  0  0
   67.8513   17.0216   29.9931 O   0  0  0  0  0  0
   77.4261   22.5673   28.3856 N   0  0  0  0  0  0
   65.2233   15.7438   29.4257 O   0  0  0  0  0  0
   79.2887   26.7452   27.8504 N   0  0  0  0  0  0
   69.0684   11.9364   26.4909 O   0  0  0  0  0  0
   67.5473   14.4552   28.0533 C   0  0  0  0  0  0
   68.8576   19.7358   29.6897 C   0  0  0  0  0  0
   69.9153   18.8062   27.7234 C   0  0  0  0  0  0
   68.9139   14.2033   27.3897 C   0  0  0  0  0  0
   64.4373   15.9908   27.2910 O   0  0  0  0  0  0
   69.8521   12.3599   28.5984 O   0  0  0  0  0  0
   70.7950   19.8861   27.6914 C   0  0  0  0  0  0
   69.7367   20.8140   29.6529 C   0  0  0  0  0  0
   70.7164   20.8840   28.6633 C   0  0  0  0  0  0
   74.1390   22.8027   29.0158 C   0  0  0  0  0  0
   71.6930   22.0532   28.6389 C   0  0  0  0  0  0
   73.0934   21.6823   29.1717 C   0  0  0  0  0  0
   67.8075   17.4522   26.8751 H   0  0  0  0  0  0
   66.6684   15.6264   26.4918 H   0  0  0  0  0  0
   77.0463   27.2541   26.7700 H   0  0  0  0  0  0
   76.6846   21.8914   28.3069 H   0  0  0  0  0  0
   78.3033   22.2926   28.7971 H   0  0  0  0  0  0
   80.1507   26.3710   28.2248 H   0  0  0  0  0  0
   79.4944   27.3397   27.0626 H   0  0  0  0  0  0
   66.9062   13.5917   27.8865 H   0  0  0  0  0  0
   67.6991   14.5016   29.1335 H   0  0  0  0  0  0
   68.1232   19.6861   30.4820 H   0  0  0  0  0  0
   70.0176   18.0373   26.9711 H   0  0  0  0  0  0
   69.6876   14.7910   27.8822 H   0  0  0  0  0  0
   68.8967   14.5437   26.3577 H   0  0  0  0  0  0
   64.7583   15.9970   26.3711 H   0  0  0  0  0  0
   70.0938   11.4342   28.6145 H   0  0  0  0  0  0
   71.5391   19.9442   26.9084 H   0  0  0  0  0  0
   69.6657   21.5935   30.3978 H   0  0  0  0  0  0
   73.7858   23.7159   29.4978 H   0  0  0  0  0  0
   75.0427   22.5077   29.5462 H   0  0  0  0  0  0
   71.7606   22.4212   27.6170 H   0  0  0  0  0  0
   71.2877   22.8939   29.2057 H   0  0  0  0  0  0
   73.0162   21.4043   30.2236 H   0  0  0  0  0  0
   73.4598   20.7932   28.6548 H   0  0  0  0  0  0
  1  2  1  0  0  0
  1  6  2  0  0  0
  2  3  2  0  0  0
  2 16  1  0  0  0
  3 14  1  0  0  0
  3  5  1  0  0  0
  4  6  1  0  0  0
  4 34  1  0  0  0
  4  5  1  0  0  0
  5 12  2  0  0  0
  6 18  1  0  0  0
  7 11  1  0  0  0
  7  8  1  0  0  0
  7 15  2  0  0  0
  8 10  1  0  0  0
  8 32  1  0  0  0
  9 10  1  0  0  0
  9 17  2  0  0  0
  9 24  1  0  0  0
 10 20  1  0  0  0
 10 33  1  0  0  0
 11 21  1  0  0  0
 11 22  2  0  0  0
 13 23  1  0  0  0
 13 19  2  0  0  0
 13 25  1  0  0  0
 14 29  1  0  0  0
 16 35  1  0  0  0
 16 36  1  0  0  0
 18 37  1  0  0  0
 18 38  1  0  0  0
 20 23  1  0  0  0
 20 39  1  0  0  0
 20 40  1  0  0  0
 21 27  2  0  0  0
 21 41  1  0  0  0
 22 26  1  0  0  0
 22 42  1  0  0  0
 23 43  1  0  0  0
 23 44  1  0  0  0
 24 45  1  0  0  0
 25 46  1  0  0  0
 26 28  2  0  0  0
 26 47  1  0  0  0
 27 28  1  0  0  0
 27 48  1  0  0  0
 28 30  1  0  0  0
 29 31  1  0  0  0
 29 49  1  0  0  0
 29 50  1  0  0  0
 30 31  1  0  0  0
 30 51  1  0  0  0
 30 52  1  0  0  0
 31 53  1  0  0  0
 31 54  1  0  0  0
M  END
> <s_m_entry_id>
24866

> <s_m_entry_name>
dock_pv.19

> <s_m_Source_Path>
/home/csk/Desktop/cluster/DUD-E-result/pur2

> <s_m_Source_File>
dock_pv.maegz

> <i_m_Source_File_Index>
19

> <chembl_id>
CHEMBL84904

> <chembl_pref_name>
None

> <i_lp_mmshare_version>
53161

> <r_lp_tautomer_probability>
0.982528302960407

> <s_lp_Force_Field>
OPLS_2005

> <r_lp_Energy>
19.788757

> <b_lp_Chiralities_Consistent>
1

> <s_lp_Variant>
CHEMBL3972_lig76-1

> <s_i_glide_gridfile>
glide-grid_1njs

> <i_i_glide_lignum>
173

> <i_i_glide_rotatable_bonds>
14

> <r_i_docking_score>
-12.4620177690991

> <r_i_glide_ligand_efficiency>
-0.402000573196744

> <r_i_glide_ligand_efficiency_sa>
-1.26283682144498

> <r_i_glide_ligand_efficiency_ln>
-2.81056692191021

> <r_i_glide_gscore>
-12.4620177690991

> <r_i_glide_lipo>
-2.58977262692771

> <r_i_glide_hbond>
-1.2837058224119

> <r_i_glide_metal>
0

> <r_i_glide_rewards>
-2.58448312652993

> <r_i_glide_evdw>
-59.7767105102539

> <r_i_glide_ecoul>
-25.1734142303467

> <r_i_glide_erotb>
0.83325880528879

> <r_i_glide_esite>
-0.0724673384536156

> <r_i_glide_emodel>
-152.225459974632

> <r_i_glide_energy>
-84.9501247406006

> <r_i_glide_einternal>
7.69740915298462

> <i_i_glide_confnum>
139

> <i_i_glide_posenum>
151

> <r_i_glide_eff_state_penalty>
0

> <s_user_duplicate_titles>
CHEMBL3972_lig76,CHEMBL3972_lig76,135718

> <i_f3d_flags>
0

> <s_m_subgroup_title>
dock_pv

> <s_m_subgroupid>
dock_pv

> <b_m_subgroup_collapsed>
1

$$$$
CHEMBL3972_lig82
                    3D
 Schrodinger Suite 2021-1.
 61 62  0  0  1  0            999 V2000
   71.0837   20.8332   28.8289 C   0  0  0  0  0  0
   69.7822   20.7889   29.3488 C   0  0  0  0  0  0
   68.9415   19.7074   29.0719 C   0  0  0  0  0  0
   69.3808   18.6586   28.2449 C   0  0  0  0  0  0
   70.6759   18.7097   27.7269 C   0  0  0  0  0  0
   71.5177   19.7663   28.0290 C   0  0  0  0  0  0
   71.9711   22.0873   29.0073 C   0  0  2  0  0  0
   68.4890   17.5057   27.8456 C   0  0  0  0  0  0
   68.7242   16.8706   26.8160 O   0  0  0  0  0  0
   67.4491   17.2285   28.6579 N   0  0  0  0  0  0
   66.3966   16.2289   28.4152 C   0  0  1  0  0  0
   66.9485   14.8205   28.1004 C   0  0  0  0  0  0
   67.6997   14.2051   28.8294 O   0  0  0  0  0  0
   66.4890   14.3910   26.8910 O   0  0  0  0  0  0
   73.3070   22.0352   28.2250 C   0  0  0  0  0  0
   72.0715   22.5608   30.4805 C   0  0  0  0  0  0
   74.1474   23.3133   28.1744 C   0  0  0  0  0  0
   75.2194   23.1985   27.0750 C   0  0  0  0  0  0
   76.3567   24.1951   27.2548 C   0  0  0  0  0  0
   76.0891   25.5802   26.9050 C   0  0  0  0  0  0
   77.1223   26.4065   27.1821 N   0  0  0  0  0  0
   78.3271   26.0352   27.6910 C   0  0  0  0  0  0
   78.5680   24.8013   27.9458 N   0  0  0  0  0  0
   77.5878   23.8868   27.7246 C   0  0  0  0  0  0
   79.2890   27.0252   27.9414 N   0  0  0  0  0  0
   77.9483   22.6365   28.0910 N   0  0  0  0  0  0
   75.0513   26.0022   26.4028 O   0  0  0  0  0  0
   73.0534   21.8965   31.4643 C   0  0  0  0  0  0
   71.2890   23.4175   30.8910 O   0  0  0  0  0  0
   74.2154   21.5911   30.8907 F   0  0  0  0  0  0
   73.2874   22.7076   32.4981 F   0  0  0  0  0  0
   72.4890   20.7910   31.9251 F   0  0  0  0  0  0
   65.3666   16.2275   29.5833 C   0  0  0  0  0  0
   65.9135   15.9712   31.0145 C   0  0  0  0  0  0
   65.8543   14.5147   31.4899 C   0  0  0  0  0  0
   65.2890   13.6018   30.8910 O   0  0  0  0  0  0
   66.4984   14.3430   32.6785 O   0  0  0  0  0  0
   69.4056   21.6084   29.9449 H   0  0  0  0  0  0
   67.9387   19.7232   29.4735 H   0  0  0  0  0  0
   71.0415   17.9385   27.0653 H   0  0  0  0  0  0
   72.4988   19.7398   27.5813 H   0  0  0  0  0  0
   71.3995   22.8786   28.5175 H   0  0  0  0  0  0
   67.3519   17.7659   29.5037 H   0  0  0  0  0  0
   65.8680   16.5954   27.5303 H   0  0  0  0  0  0
   65.9765   15.0287   26.3692 H   0  0  0  0  0  0
   73.0570   21.8021   27.1967 H   0  0  0  0  0  0
   73.9273   21.2031   28.5615 H   0  0  0  0  0  0
   74.6146   23.4825   29.1453 H   0  0  0  0  0  0
   73.5139   24.1801   27.9814 H   0  0  0  0  0  0
   74.7622   23.3224   26.0905 H   0  0  0  0  0  0
   75.6243   22.1853   27.0646 H   0  0  0  0  0  0
   80.1578   26.7909   28.4053 H   0  0  0  0  0  0
   79.0594   28.0102   27.9399 H   0  0  0  0  0  0
   77.2716   21.8936   28.0596 H   0  0  0  0  0  0
   78.8413   22.4567   28.5165 H   0  0  0  0  0  0
   76.9775   27.3657   26.9120 H   0  0  0  0  0  0
   64.8573   17.1910   29.5953 H   0  0  0  0  0  0
   64.5620   15.5254   29.3530 H   0  0  0  0  0  0
   66.9336   16.3416   31.1124 H   0  0  0  0  0  0
   65.3117   16.5472   31.7184 H   0  0  0  0  0  0
   66.8805   15.1530   33.0220 H   0  0  0  0  0  0
  1  6  1  0  0  0
  1  2  2  0  0  0
  1  7  1  0  0  0
  2  3  1  0  0  0
  2 38  1  0  0  0
  3  4  2  0  0  0
  3 39  1  0  0  0
  4  5  1  0  0  0
  4  8  1  0  0  0
  5  6  2  0  0  0
  5 40  1  0  0  0
  6 41  1  0  0  0
  7 15  1  0  0  0
  7 16  1  0  0  0
  7 42  1  0  0  0
  8  9  2  0  0  0
  8 10  1  0  0  0
 10 11  1  0  0  0
 10 43  1  0  0  0
 11 12  1  0  0  0
 11 33  1  0  0  0
 11 44  1  0  0  0
 12 13  2  0  0  0
 12 14  1  0  0  0
 14 45  1  0  0  0
 15 17  1  0  0  0
 15 46  1  0  0  0
 15 47  1  0  0  0
 16 28  1  0  0  0
 16 29  2  0  0  0
 17 18  1  0  0  0
 17 48  1  0  0  0
 17 49  1  0  0  0
 18 50  1  0  0  0
 18 51  1  0  0  0
 18 19  1  0  0  0
 19 24  2  0  0  0
 19 20  1  0  0  0
 20 21  1  0  0  0
 20 27  2  0  0  0
 21 22  1  0  0  0
 21 56  1  0  0  0
 22 23  2  0  0  0
 22 25  1  0  0  0
 23 24  1  0  0  0
 24 26  1  0  0  0
 25 52  1  0  0  0
 25 53  1  0  0  0
 26 54  1  0  0  0
 26 55  1  0  0  0
 28 30  1  0  0  0
 28 31  1  0  0  0
 28 32  1  0  0  0
 33 34  1  0  0  0
 33 57  1  0  0  0
 33 58  1  0  0  0
 34 35  1  0  0  0
 34 59  1  0  0  0
 34 60  1  0  0  0
 35 36  2  0  0  0
 35 37  1  0  0  0
 37 61  1  0  0  0
M  END
> <s_m_entry_id>
24867

> <s_m_entry_name>
dock_pv.20

> <s_m_Source_Path>
/home/csk/Desktop/cluster/DUD-E-result/pur2

> <s_m_Source_File>
dock_pv.maegz

> <i_m_Source_File_Index>
20

> <chembl_id>
CHEMBL379094

> <chembl_pref_name>
None

> <i_lp_mmshare_version>
53161

> <r_lp_tautomer_probability>
0.982528302960407

> <s_lp_Force_Field>
OPLS_2005

> <r_lp_Energy>
20.784759

> <b_lp_Chiralities_Consistent>
1

> <s_lp_Variant>
CHEMBL3972_lig82-3

> <s_i_glide_gridfile>
glide-grid_1njs

> <i_i_glide_lignum>
203

> <i_i_glide_rotatable_bonds>
16

> <r_i_docking_score>
-12.4245202949994

> <r_i_glide_ligand_efficiency>
-0.335797845810796

> <r_i_glide_ligand_efficiency_sa>
-1.11895291819956

> <r_i_glide_ligand_efficiency_ln>
-2.6945871799037

> <r_i_glide_gscore>
-12.4245202949994

> <r_i_glide_lipo>
-2.85171944915018

> <r_i_glide_hbond>
-1.21056064472083

> <r_i_glide_metal>
0

> <r_i_glide_rewards>
-2.77214807514533

> <r_i_glide_evdw>
-62.6046943664551

> <r_i_glide_ecoul>
-22.3943462371826

> <r_i_glide_erotb>
0.962383803886315

> <r_i_glide_esite>
-0.063089275969274

> <r_i_glide_emodel>
-144.871358563091

> <r_i_glide_energy>
-84.9990406036377

> <r_i_glide_einternal>
16.920919418335

> <i_i_glide_confnum>
54

> <i_i_glide_posenum>
157

> <r_i_glide_eff_state_penalty>
0

> <s_user_duplicate_titles>
CHEMBL3972_lig82

> <i_f3d_flags>
0

> <s_m_subgroup_title>
dock_pv

> <s_m_subgroupid>
dock_pv

> <b_m_subgroup_collapsed>
1

$$$$
CHEMBL3972_lig12
                    3D
 Schrodinger Suite 2021-1.
 57 58  0  0  1  0            999 V2000
   78.4890   24.5739   28.0547 N   0  0  0  0  0  0
   77.4747   23.7288   27.7701 C   0  0  0  0  0  0
   77.1350   26.4023   27.2904 N   0  0  0  0  0  0
   76.2551   24.1700   27.2327 C   0  0  0  0  0  0
   76.1206   25.5508   26.9983 C   0  0  0  0  0  0
   78.2712   25.8801   27.7941 C   0  0  0  0  0  0
   68.3616   17.7471   29.1040 C   0  0  0  0  0  0
   68.7252   16.6619   28.4052 N   0  0  0  0  0  0
   66.8543   15.3336   27.4626 C   0  0  0  0  0  0
   68.0481   15.3619   28.4465 C   0  0  1  0  0  0
   69.1909   18.9917   28.8910 C   0  0  0  0  0  0
   71.9670   22.2003   29.1598 N   0  0  0  0  0  0
   74.9203   25.9748   26.4906 O   0  0  0  0  0  0
   69.6251   11.9472   27.3181 C   0  0  0  0  0  0
   72.0801   22.9477   30.2986 C   0  0  0  0  0  0
   70.9992   21.1548   29.0072 C   0  0  0  0  0  0
   67.4413   17.7274   29.9240 O   0  0  0  0  0  0
   77.6876   22.3924   28.0910 N   0  0  0  0  0  0
   66.4982   14.3380   26.8910 O   0  0  0  0  0  0
   79.2890   26.7724   28.0910 N   0  0  0  0  0  0
   69.2548   11.5910   26.2013 O   0  0  0  0  0  0
   71.5197   22.7369   31.3731 O   0  0  0  0  0  0
   70.3409   18.9990   28.0896 C   0  0  0  0  0  0
   68.8885   20.1287   29.6426 C   0  0  0  0  0  0
   71.2328   20.0637   28.1506 C   0  0  0  0  0  0
   69.7741   21.1912   29.6910 C   0  0  0  0  0  0
   69.1371   14.2813   28.1865 C   0  0  0  0  0  0
   75.0807   23.2199   27.0158 C   0  0  0  0  0  0
   68.7670   12.7787   28.2757 C   0  0  0  0  0  0
   66.2715   16.5529   27.2910 O   0  0  0  0  0  0
   70.8644   11.6806   27.8182 O   0  0  0  0  0  0
   74.1731   23.2506   28.2500 C   0  0  0  0  0  0
   72.8544   22.4996   28.0132 C   0  0  0  0  0  0
   69.4088   16.7768   27.6762 H   0  0  0  0  0  0
   67.6343   15.2011   29.4439 H   0  0  0  0  0  0
   74.3144   25.2314   26.4346 H   0  0  0  0  0  0
   72.7760   23.7880   30.1774 H   0  0  0  0  0  0
   76.9271   21.7431   27.9682 H   0  0  0  0  0  0
   78.5205   22.1184   28.5932 H   0  0  0  0  0  0
   79.1129   27.7593   27.9566 H   0  0  0  0  0  0
   80.1699   26.4402   28.4717 H   0  0  0  0  0  0
   70.6107   18.1591   27.4681 H   0  0  0  0  0  0
   67.9940   20.1778   30.2491 H   0  0  0  0  0  0
   72.1294   19.9573   27.5631 H   0  0  0  0  0  0
   69.4951   22.0430   30.2928 H   0  0  0  0  0  0
   69.8944   14.4303   28.9568 H   0  0  0  0  0  0
   69.6302   14.4948   27.2344 H   0  0  0  0  0  0
   75.4207   22.2009   26.8296 H   0  0  0  0  0  0
   74.5293   23.4980   26.1158 H   0  0  0  0  0  0
   67.7274   12.5956   28.0179 H   0  0  0  0  0  0
   68.8878   12.4159   29.2971 H   0  0  0  0  0  0
   65.6891   16.5599   26.5179 H   0  0  0  0  0  0
   71.4479   11.3133   27.1499 H   0  0  0  0  0  0
   73.9454   24.2898   28.4933 H   0  0  0  0  0  0
   74.7117   22.8220   29.0974 H   0  0  0  0  0  0
   73.1536   21.5850   27.5121 H   0  0  0  0  0  0
   72.2676   23.0580   27.2909 H   0  0  0  0  0  0
  1  2  2  0  0  0
  1  6  1  0  0  0
  2  4  1  0  0  0
  2 18  1  0  0  0
  3  6  2  0  0  0
  3  5  1  0  0  0
  4 28  1  0  0  0
  4  5  2  0  0  0
  5 13  1  0  0  0
  6 20  1  0  0  0
  7 11  1  0  0  0
  7  8  1  0  0  0
  7 17  2  0  0  0
  8 10  1  0  0  0
  8 34  1  0  0  0
  9 10  1  0  0  0
  9 19  2  0  0  0
  9 30  1  0  0  0
 10 27  1  0  0  0
 10 35  1  0  0  0
 11 24  2  0  0  0
 11 23  1  0  0  0
 12 33  1  0  0  0
 12 15  1  0  0  0
 12 16  1  0  0  0
 13 36  1  0  0  0
 14 29  1  0  0  0
 14 21  2  0  0  0
 14 31  1  0  0  0
 15 22  2  0  0  0
 15 37  1  0  0  0
 16 25  1  0  0  0
 16 26  2  0  0  0
 18 38  1  0  0  0
 18 39  1  0  0  0
 20 40  1  0  0  0
 20 41  1  0  0  0
 23 25  2  0  0  0
 23 42  1  0  0  0
 24 26  1  0  0  0
 24 43  1  0  0  0
 25 44  1  0  0  0
 26 45  1  0  0  0
 27 29  1  0  0  0
 27 46  1  0  0  0
 27 47  1  0  0  0
 28 32  1  0  0  0
 28 48  1  0  0  0
 28 49  1  0  0  0
 29 50  1  0  0  0
 29 51  1  0  0  0
 30 52  1  0  0  0
 31 53  1  0  0  0
 32 33  1  0  0  0
 32 54  1  0  0  0
 32 55  1  0  0  0
 33 56  1  0  0  0
 33 57  1  0  0  0
M  END
> <s_m_entry_id>
24868

> <s_m_entry_name>
dock_pv.21

> <s_m_Source_Path>
/home/csk/Desktop/cluster/DUD-E-result/pur2

> <s_m_Source_File>
dock_pv.maegz

> <i_m_Source_File_Index>
21

> <chembl_id>
CHEMBL152172

> <chembl_pref_name>
None

> <i_lp_mmshare_version>
53161

> <r_lp_tautomer_probability>
0.0160304617775627

> <s_lp_Force_Field>
OPLS_2005

> <r_lp_Energy>
21.400005

> <b_lp_Chiralities_Consistent>
1

> <s_lp_Variant>
CHEMBL3972_lig12-3

> <s_i_glide_gridfile>
glide-grid_1njs

> <i_i_glide_lignum>
22

> <i_i_glide_rotatable_bonds>
16

> <r_i_docking_score>
-12.2135568252293

> <r_i_glide_ligand_efficiency>
-0.370107782582706

> <r_i_glide_ligand_efficiency_sa>
-1.18713341704906

> <r_i_glide_ligand_efficiency_ln>
-2.7162317995182

> <r_i_glide_gscore>
-12.2135568252293

> <r_i_glide_lipo>
-2.52692873009248

> <r_i_glide_hbond>
-1.60059187727607

> <r_i_glide_metal>
0

> <r_i_glide_rewards>
-3.02281299239701

> <r_i_glide_evdw>
-58.8983421325684

> <r_i_glide_ecoul>
-18.5708999633789

> <r_i_glide_erotb>
0.797521203983566

> <r_i_glide_esite>
-0.130192328312062

> <r_i_glide_emodel>
-125.875246292963

> <r_i_glide_energy>
-77.4692420959473

> <r_i_glide_einternal>
14.4622058868408

> <i_i_glide_confnum>
96

> <i_i_glide_posenum>
180

> <r_i_glide_eff_state_penalty>
0

> <s_user_duplicate_titles>
CHEMBL3972_lig12

> <i_f3d_flags>
0

> <s_m_subgroup_title>
dock_pv

> <s_m_subgroupid>
dock_pv

> <b_m_subgroup_collapsed>
1

$$$$
CHEMBL3972_lig11
                    3D
 Schrodinger Suite 2021-1.
 58 60  0  0  1  0            999 V2000
   77.0538   23.8254   27.9621 C   0  0  0  0  0  0
   78.1670   24.6013   28.0910 N   0  0  0  0  0  0
   75.8888   24.2438   27.4177 C   0  0  0  0  0  0
   76.9722   26.3006   27.1113 N   0  0  0  0  0  0
   75.8402   25.5910   26.8910 C   0  0  0  0  0  0
   78.1072   25.8199   27.6908 C   0  0  0  0  0  0
   77.1837   22.5802   28.4909 N   0  0  0  0  0  0
   68.3868   17.3467   27.8326 C   0  0  0  0  0  0
   67.4940   17.2015   28.8294 N   0  0  0  0  0  0
   66.6989   14.7914   28.6305 C   0  0  0  0  0  0
   74.6464   23.3501   27.3560 C   0  0  0  0  0  0
   66.3552   16.2747   28.9322 C   0  0  1  0  0  0
   69.3945   18.4628   27.9990 C   0  0  0  0  0  0
   74.8914   26.0818   26.2854 O   0  0  0  0  0  0
   68.4126   16.6274   26.8335 O   0  0  0  0  0  0
   66.9411   13.9576   29.4795 O   0  0  0  0  0  0
   74.7034   22.2792   28.4799 C   0  0  2  0  0  0
   79.2058   26.6815   27.8312 N   0  0  0  0  0  0
   72.2644   21.5364   28.3722 N   0  0  0  0  0  0
   76.1024   21.6135   28.6415 C   0  0  0  0  0  0
   70.6012   18.3900   27.3013 C   0  0  0  0  0  0
   69.1493   19.5918   28.8003 C   0  0  0  0  0  0
   71.3168   20.5058   28.2263 C   0  0  0  0  0  0
   73.6725   21.1634   28.2589 C   0  0  0  0  0  0
   66.6087   14.5393   27.2910 O   0  0  0  0  0  0
   70.0971   20.6123   28.8947 C   0  0  0  0  0  0
   71.5629   19.3760   27.4399 C   0  0  0  0  0  0
   65.2888   17.9909   32.9835 N   0  0  0  0  0  0
   65.6155   16.4549   30.2915 C   0  0  0  0  0  0
   65.7270   16.6107   32.8756 C   0  0  0  0  0  0
   66.4978   16.3703   31.5656 C   0  0  0  0  0  0
   78.0516   22.3248   28.9379 H   0  0  0  0  0  0
   67.5944   17.8179   29.6198 H   0  0  0  0  0  0
   74.6031   22.8686   26.3778 H   0  0  0  0  0  0
   73.7254   23.9350   27.4326 H   0  0  0  0  0  0
   65.6436   16.5924   28.1660 H   0  0  0  0  0  0
   76.9683   27.2335   26.7293 H   0  0  0  0  0  0
   74.4544   22.7605   29.4274 H   0  0  0  0  0  0
   80.0145   26.3928   28.3639 H   0  0  0  0  0  0
   79.1054   27.6808   27.7302 H   0  0  0  0  0  0
   72.0428   22.2832   29.0157 H   0  0  0  0  0  0
   76.1756   21.1269   29.6157 H   0  0  0  0  0  0
   76.2253   20.8084   27.9172 H   0  0  0  0  0  0
   70.8103   17.5613   26.6434 H   0  0  0  0  0  0
   68.2170   19.7092   29.3339 H   0  0  0  0  0  0
   73.8255   20.3916   29.0088 H   0  0  0  0  0  0
   73.8740   20.6879   27.2982 H   0  0  0  0  0  0
   66.4294   15.3214   26.7548 H   0  0  0  0  0  0
   69.8857   21.4785   29.5050 H   0  0  0  0  0  0
   72.4810   19.2533   26.8910 H   0  0  0  0  0  0
   64.7022   18.0981   33.7986 H   0  0  0  0  0  0
   66.0837   18.6045   33.1349 H   0  0  0  0  0  0
   64.8046   15.7272   30.3661 H   0  0  0  0  0  0
   65.1095   17.4215   30.2848 H   0  0  0  0  0  0
   66.3617   16.3785   33.7321 H   0  0  0  0  0  0
   64.8626   15.9477   32.9336 H   0  0  0  0  0  0
   67.3272   17.0762   31.5088 H   0  0  0  0  0  0
   66.9548   15.3828   31.6255 H   0  0  0  0  0  0
  1  3  2  0  0  0
  1  7  1  0  0  0
  1  2  1  0  0  0
  2  6  2  0  0  0
  3 11  1  0  0  0
  3  5  1  0  0  0
  4  6  1  0  0  0
  4 37  1  0  0  0
  4  5  1  0  0  0
  5 14  2  0  0  0
  6 18  1  0  0  0
  7 20  1  0  0  0
  7 32  1  0  0  0
  8 13  1  0  0  0
  8  9  1  0  0  0
  8 15  2  0  0  0
  9 12  1  0  0  0
  9 33  1  0  0  0
 10 12  1  0  0  0
 10 16  2  0  0  0
 10 25  1  0  0  0
 11 17  1  0  0  0
 11 34  1  0  0  0
 11 35  1  0  0  0
 12 29  1  0  0  0
 12 36  1  0  0  0
 13 21  2  0  0  0
 13 22  1  0  0  0
 17 20  1  0  0  0
 17 24  1  0  0  0
 17 38  1  0  0  0
 18 39  1  0  0  0
 18 40  1  0  0  0
 19 24  1  0  0  0
 19 23  1  0  0  0
 19 41  1  0  0  0
 20 42  1  0  0  0
 20 43  1  0  0  0
 21 27  1  0  0  0
 21 44  1  0  0  0
 22 26  2  0  0  0
 22 45  1  0  0  0
 23 26  1  0  0  0
 23 27  2  0  0  0
 24 46  1  0  0  0
 24 47  1  0  0  0
 25 48  1  0  0  0
 26 49  1  0  0  0
 27 50  1  0  0  0
 28 30  1  0  0  0
 28 51  1  0  0  0
 28 52  1  0  0  0
 29 31  1  0  0  0
 29 53  1  0  0  0
 29 54  1  0  0  0
 30 31  1  0  0  0
 30 55  1  0  0  0
 30 56  1  0  0  0
 31 57  1  0  0  0
 31 58  1  0  0  0
M  END
> <s_m_entry_id>
24869

> <s_m_entry_name>
dock_pv.22

> <s_m_Source_Path>
/home/csk/Desktop/cluster/DUD-E-result/pur2

> <s_m_Source_File>
dock_pv.maegz

> <i_m_Source_File_Index>
22

> <chembl_id>
CHEMBL289923

> <chembl_pref_name>
None

> <i_lp_mmshare_version>
53161

> <r_lp_tautomer_probability>
0.982539515805485

> <s_lp_Force_Field>
OPLS_2005

> <r_lp_Energy>
25.456269

> <b_lp_Chiralities_Consistent>
1

> <s_lp_Variant>
CHEMBL3972_lig11-1

> <s_i_glide_gridfile>
glide-grid_1njs

> <i_i_glide_lignum>
12

> <i_i_glide_rotatable_bonds>
11

> <r_i_docking_score>
-12.1747008229133

> <r_i_glide_ligand_efficiency>
-0.392732284610105

> <r_i_glide_ligand_efficiency_sa>
-1.23372159903146

> <r_i_glide_ligand_efficiency_ln>
-2.74576814533837

> <r_i_glide_gscore>
-12.1747008229133

> <r_i_glide_lipo>
-2.78210425734585

> <r_i_glide_hbond>
-1.32567927950709

> <r_i_glide_metal>
0

> <r_i_glide_rewards>
-2.80349948075693

> <r_i_glide_evdw>
-55.8786087036133

> <r_i_glide_ecoul>
-20.7221832275391

> <r_i_glide_erotb>
0.678777079830655

> <r_i_glide_esite>
-0.0399369658225267

> <r_i_glide_emodel>
-125.726684208367

> <r_i_glide_energy>
-76.6007919311523

> <r_i_glide_einternal>
9.70767879486084

> <i_i_glide_confnum>
1

> <i_i_glide_posenum>
107

> <r_i_glide_eff_state_penalty>
0

> <s_user_duplicate_titles>
CHEMBL3972_lig11,CHEMBL3972_lig11

> <i_f3d_flags>
0

> <s_m_subgroup_title>
dock_pv

> <s_m_subgroupid>
dock_pv

> <b_m_subgroup_collapsed>
1

$$$$
CHEMBL3972_lig19
                    3D
 Schrodinger Suite 2021-1.
 55 56  0  0  1  0            999 V2000
   78.5312   24.7595   28.0348 N   0  0  0  0  0  0
   77.5562   23.8558   27.7548 C   0  0  0  0  0  0
   77.1315   26.3911   27.2417 N   0  0  0  0  0  0
   76.3465   24.1801   27.2441 C   0  0  0  0  0  0
   76.0981   25.5778   26.9246 C   0  0  0  0  0  0
   78.3163   25.9980   27.7832 C   0  0  0  0  0  0
   68.4043   17.5906   28.5889 C   0  0  0  0  0  0
   68.0957   16.9940   27.4206 N   0  0  0  0  0  0
   66.1089   15.5387   28.0252 C   0  0  0  0  0  0
   67.4336   15.6941   27.2309 C   0  0  2  0  0  0
   69.2870   18.7998   28.4910 C   0  0  0  0  0  0
   75.0757   26.0226   26.4098 O   0  0  0  0  0  0
   69.0682   12.1237   27.1708 C   0  0  0  0  0  0
   68.0604   17.1753   29.6949 O   0  0  0  0  0  0
   77.9007   22.5925   28.0910 N   0  0  0  0  0  0
   66.0349   15.0187   29.1205 O   0  0  0  0  0  0
   79.2888   26.9665   28.0746 N   0  0  0  0  0  0
   69.2987   11.5900   26.0910 O   0  0  0  0  0  0
   68.4797   14.5792   27.5185 C   0  0  0  0  0  0
   69.0331   19.9193   29.2913 C   0  0  0  0  0  0
   70.4309   18.7660   27.6911 C   0  0  0  0  0  0
   67.9518   13.1406   27.3644 C   0  0  0  0  0  0
   75.2271   23.1811   26.9655 C   0  0  0  0  0  0
   65.0525   15.9912   27.2910 O   0  0  0  0  0  0
   71.1084   20.9183   28.5628 C   0  0  0  0  0  0
   72.0093   21.9909   28.6566 N   0  0  0  0  0  0
   69.7492   11.8565   28.3212 O   0  0  0  0  0  0
   71.3434   19.8083   27.7401 C   0  0  0  0  0  0
   69.9421   20.9728   29.3234 C   0  0  0  0  0  0
   73.2724   21.9303   27.9383 C   0  0  0  0  0  0
   74.1259   23.1912   28.0389 C   0  0  0  0  0  0
   67.1932   15.6375   26.1680 H   0  0  0  0  0  0
   68.3183   17.4940   26.5723 H   0  0  0  0  0  0
   76.9992   27.3561   26.9861 H   0  0  0  0  0  0
   77.2193   21.8564   28.0192 H   0  0  0  0  0  0
   78.7590   22.4046   28.5808 H   0  0  0  0  0  0
   80.1706   26.7151   28.5028 H   0  0  0  0  0  0
   79.1060   27.9570   28.0065 H   0  0  0  0  0  0
   68.8692   14.7001   28.5314 H   0  0  0  0  0  0
   69.3398   14.7268   26.8616 H   0  0  0  0  0  0
   68.1538   19.9606   29.9205 H   0  0  0  0  0  0
   70.6527   17.9151   27.0632 H   0  0  0  0  0  0
   67.2897   13.0787   26.4964 H   0  0  0  0  0  0
   67.3593   12.8638   28.2358 H   0  0  0  0  0  0
   75.6447   22.1761   26.8923 H   0  0  0  0  0  0
   74.7904   23.3701   25.9823 H   0  0  0  0  0  0
   65.2608   16.1713   26.3567 H   0  0  0  0  0  0
   71.6344   22.9145   28.8478 H   0  0  0  0  0  0
   69.4551   12.3939   29.0597 H   0  0  0  0  0  0
   72.2285   19.7303   27.1298 H   0  0  0  0  0  0
   69.7477   21.8229   29.9611 H   0  0  0  0  0  0
   73.8431   21.0417   28.2161 H   0  0  0  0  0  0
   73.0465   21.7695   26.8911 H   0  0  0  0  0  0
   73.5069   24.0815   27.9174 H   0  0  0  0  0  0
   74.5528   23.2532   29.0412 H   0  0  0  0  0  0
  1  2  1  0  0  0
  1  6  2  0  0  0
  2  4  2  0  0  0
  2 15  1  0  0  0
  3  6  1  0  0  0
  3 34  1  0  0  0
  3  5  1  0  0  0
  4 23  1  0  0  0
  4  5  1  0  0  0
  5 12  2  0  0  0
  6 17  1  0  0  0
  7 11  1  0  0  0
  7  8  1  0  0  0
  7 14  2  0  0  0
  8 10  1  0  0  0
  8 33  1  0  0  0
  9 10  1  0  0  0
  9 16  2  0  0  0
  9 24  1  0  0  0
 10 19  1  0  0  0
 10 32  1  0  0  0
 11 20  2  0  0  0
 11 21  1  0  0  0
 13 22  1  0  0  0
 13 18  2  0  0  0
 13 27  1  0  0  0
 15 35  1  0  0  0
 15 36  1  0  0  0
 17 37  1  0  0  0
 17 38  1  0  0  0
 19 22  1  0  0  0
 19 39  1  0  0  0
 19 40  1  0  0  0
 20 29  1  0  0  0
 20 41  1  0  0  0
 21 28  2  0  0  0
 21 42  1  0  0  0
 22 43  1  0  0  0
 22 44  1  0  0  0
 23 31  1  0  0  0
 23 45  1  0  0  0
 23 46  1  0  0  0
 24 47  1  0  0  0
 25 26  1  0  0  0
 25 28  1  0  0  0
 25 29  2  0  0  0
 26 30  1  0  0  0
 26 48  1  0  0  0
 27 49  1  0  0  0
 28 50  1  0  0  0
 29 51  1  0  0  0
 30 31  1  0  0  0
 30 52  1  0  0  0
 30 53  1  0  0  0
 31 54  1  0  0  0
 31 55  1  0  0  0
M  END
> <s_m_entry_id>
24870

> <s_m_entry_name>
dock_pv.23

> <s_m_Source_Path>
/home/csk/Desktop/cluster/DUD-E-result/pur2

> <s_m_Source_File>
dock_pv.maegz

> <i_m_Source_File_Index>
23

> <chembl_id>
CHEMBL13659

> <chembl_pref_name>
None

> <i_lp_mmshare_version>
53161

> <r_lp_tautomer_probability>
0.982528302960407

> <s_lp_Force_Field>
OPLS_2005

> <r_lp_Energy>
16.393768

> <b_lp_Chiralities_Consistent>
1

> <s_lp_Variant>
CHEMBL3972_lig19-2

> <s_i_glide_gridfile>
glide-grid_1njs

> <i_i_glide_lignum>
51

> <i_i_glide_rotatable_bonds>
14

> <r_i_docking_score>
-12.1624528927391

> <r_i_glide_ligand_efficiency>
-0.392337190088359

> <r_i_glide_ligand_efficiency_sa>
-1.2324804567464

> <r_i_glide_ligand_efficiency_ln>
-2.74300586173013

> <r_i_glide_gscore>
-12.1624528927391

> <r_i_glide_lipo>
-2.47505743057992

> <r_i_glide_hbond>
-1.59511665832906

> <r_i_glide_metal>
0

> <r_i_glide_rewards>
-2.16160474416439

> <r_i_glide_evdw>
-59.0961647033691

> <r_i_glide_ecoul>
-25.2972660064697

> <r_i_glide_erotb>
0.893853200595983

> <r_i_glide_esite>
-0.075129124122838

> <r_i_glide_emodel>
-149.532443677484

> <r_i_glide_energy>
-84.3934307098389

> <r_i_glide_einternal>
12.5727605819702

> <i_i_glide_confnum>
73

> <i_i_glide_posenum>
339

> <r_i_glide_eff_state_penalty>
0

> <s_user_duplicate_titles>
CHEMBL3972_lig19,CHEMBL3972_lig19

> <i_f3d_flags>
0

> <s_m_subgroup_title>
dock_pv

> <s_m_subgroupid>
dock_pv

> <b_m_subgroup_collapsed>
1

$$$$
CHEMBL3972_lig80
                    3D
 Schrodinger Suite 2021-1.
 54 56  0  0  1  0            999 V2000
   72.2563   21.4788   29.1260 C   0  0  0  0  0  0
   72.5931   20.3918   28.3113 C   0  0  0  0  0  0
   71.6200   19.4858   27.9092 C   0  0  0  0  0  0
   70.2975   19.6467   28.3379 C   0  0  0  0  0  0
   69.9512   20.7677   29.1025 C   0  0  0  0  0  0
   70.9230   21.6859   29.4813 C   0  0  0  0  0  0
   73.3254   22.4074   29.7102 C   0  0  2  0  0  0
   69.2581   18.5941   28.0646 C   0  0  0  0  0  0
   68.3686   18.3912   28.8918 O   0  0  0  0  0  0
   69.3487   17.9373   26.8919 N   0  0  0  0  0  0
   68.4039   16.9455   26.3459 C   0  0  0  0  0  0
   67.6714   16.0625   27.3362 C   0  0  0  0  0  0
   74.4330   22.8187   28.7184 C   0  0  0  0  0  0
   73.9290   21.7041   30.9442 C   0  0  0  0  0  0
   73.9478   23.6128   27.5028 C   0  0  0  0  0  0
   75.0379   23.7048   26.4313 C   0  0  0  0  0  0
   76.2208   24.5584   26.8914 C   0  0  0  0  0  0
   76.0891   25.9910   26.6909 C   0  0  0  0  0  0
   77.1428   26.6965   27.1572 N   0  0  0  0  0  0
   78.2736   26.1754   27.6978 C   0  0  0  0  0  0
   78.3994   24.9061   27.8413 N   0  0  0  0  0  0
   77.3764   24.1013   27.4401 C   0  0  0  0  0  0
   79.2888   27.0617   28.0910 N   0  0  0  0  0  0
   77.6252   22.7955   27.6921 N   0  0  0  0  0  0
   75.1711   26.5455   26.0905 O   0  0  0  0  0  0
   73.0798   21.6717   32.2225 C   0  0  0  0  0  0
   75.0501   21.1910   30.8974 O   0  0  0  0  0  0
   72.5674   22.8831   32.4495 F   0  0  0  0  0  0
   72.0934   20.7917   32.0578 F   0  0  0  0  0  0
   73.8173   21.3082   33.2723 F   0  0  0  0  0  0
   66.3070   16.0211   27.4095 N   0  0  0  0  0  0
   68.1920   15.2513   28.2255 N   0  0  0  0  0  0
   67.0996   14.6942   28.8904 N   0  0  0  0  0  0
   65.9159   15.1911   28.3730 N   0  0  0  0  0  0
   73.6176   20.2130   28.0211 H   0  0  0  0  0  0
   71.9206   18.6364   27.3135 H   0  0  0  0  0  0
   68.9347   20.9186   29.4381 H   0  0  0  0  0  0
   70.6428   22.5307   30.0953 H   0  0  0  0  0  0
   72.8388   23.3244   30.0493 H   0  0  0  0  0  0
   69.9577   18.3717   26.2101 H   0  0  0  0  0  0
   67.6989   17.4619   25.6868 H   0  0  0  0  0  0
   68.9723   16.2864   25.6915 H   0  0  0  0  0  0
   74.9725   21.9327   28.3787 H   0  0  0  0  0  0
   75.1739   23.4236   29.2452 H   0  0  0  0  0  0
   73.6435   24.6122   27.8149 H   0  0  0  0  0  0
   73.0607   23.1471   27.0843 H   0  0  0  0  0  0
   74.6139   24.1035   25.5074 H   0  0  0  0  0  0
   75.3621   22.7027   26.1633 H   0  0  0  0  0  0
   80.1518   26.7309   28.5039 H   0  0  0  0  0  0
   79.1667   28.0654   28.0910 H   0  0  0  0  0  0
   76.9314   22.0966   27.4912 H   0  0  0  0  0  0
   78.4810   22.5287   28.1488 H   0  0  0  0  0  0
   77.1063   27.6818   26.9496 H   0  0  0  0  0  0
   65.6702   16.5037   26.7811 H   0  0  0  0  0  0
  1  6  1  0  0  0
  1  2  2  0  0  0
  1  7  1  0  0  0
  2  3  1  0  0  0
  2 35  1  0  0  0
  3  4  2  0  0  0
  3 36  1  0  0  0
  4  5  1  0  0  0
  4  8  1  0  0  0
  5  6  2  0  0  0
  5 37  1  0  0  0
  6 38  1  0  0  0
  7 13  1  0  0  0
  7 14  1  0  0  0
  7 39  1  0  0  0
  8  9  2  0  0  0
  8 10  1  0  0  0
 10 11  1  0  0  0
 10 40  1  0  0  0
 11 41  1  0  0  0
 11 42  1  0  0  0
 11 12  1  0  0  0
 12 32  2  0  0  0
 12 31  1  0  0  0
 13 15  1  0  0  0
 13 43  1  0  0  0
 13 44  1  0  0  0
 14 26  1  0  0  0
 14 27  2  0  0  0
 15 16  1  0  0  0
 15 45  1  0  0  0
 15 46  1  0  0  0
 16 47  1  0  0  0
 16 48  1  0  0  0
 16 17  1  0  0  0
 17 22  2  0  0  0
 17 18  1  0  0  0
 18 19  1  0  0  0
 18 25  2  0  0  0
 19 20  1  0  0  0
 19 53  1  0  0  0
 20 21  2  0  0  0
 20 23  1  0  0  0
 21 22  1  0  0  0
 22 24  1  0  0  0
 23 49  1  0  0  0
 23 50  1  0  0  0
 24 51  1  0  0  0
 24 52  1  0  0  0
 26 28  1  0  0  0
 26 29  1  0  0  0
 26 30  1  0  0  0
 31 34  1  0  0  0
 31 54  1  0  0  0
 32 33  1  0  0  0
 33 34  2  0  0  0
M  END
> <s_m_entry_id>
24871

> <s_m_entry_name>
dock_pv.24

> <s_m_Source_Path>
/home/csk/Desktop/cluster/DUD-E-result/pur2

> <s_m_Source_File>
dock_pv.maegz

> <i_m_Source_File_Index>
24

> <chembl_id>
CHEMBL381706

> <chembl_pref_name>
None

> <i_lp_mmshare_version>
53161

> <r_lp_tautomer_probability>
0.29476015212916

> <s_lp_Force_Field>
OPLS_2005

> <r_lp_Energy>
28.876721

> <b_lp_Chiralities_Consistent>
1

> <s_lp_Variant>
CHEMBL3972_lig80-1

> <s_i_glide_gridfile>
glide-grid_1njs

> <i_i_glide_lignum>
189

> <i_i_glide_rotatable_bonds>
11

> <r_i_docking_score>
-12.0800432666141

> <r_i_glide_ligand_efficiency>
-0.355295390194533

> <r_i_glide_ligand_efficiency_sa>
-1.15101913766073

> <r_i_glide_ligand_efficiency_ln>
-2.66882039133163

> <r_i_glide_gscore>
-12.0800432666141

> <r_i_glide_lipo>
-2.56285239014472

> <r_i_glide_hbond>
-1.43950752213032

> <r_i_glide_metal>
0

> <r_i_glide_rewards>
-2.89936647453509

> <r_i_glide_evdw>
-55.9501113891602

> <r_i_glide_ecoul>
-19.1855506896973

> <r_i_glide_erotb>
0.793790509640028

> <r_i_glide_esite>
-0.296769216531434

> <r_i_glide_emodel>
-127.191261421705

> <r_i_glide_energy>
-75.1356620788574

> <r_i_glide_einternal>
8.04680728912354

> <i_i_glide_confnum>
15

> <i_i_glide_posenum>
282

> <r_i_glide_eff_state_penalty>
0

> <s_user_duplicate_titles>
CHEMBL3972_lig80

> <i_f3d_flags>
0

> <s_m_subgroup_title>
dock_pv

> <s_m_subgroupid>
dock_pv

> <b_m_subgroup_collapsed>
1

$$$$
CHEMBL3972_lig19
                    3D
 Schrodinger Suite 2021-1.
 55 56  0  0  1  0            999 V2000
   78.4885   24.6196   28.0252 N   0  0  0  0  0  0
   77.4752   23.7461   27.7757 C   0  0  0  0  0  0
   77.1060   26.2951   27.2909 N   0  0  0  0  0  0
   76.2539   24.1054   27.3135 C   0  0  0  0  0  0
   76.0454   25.5108   26.9956 C   0  0  0  0  0  0
   78.2932   25.8657   27.7918 C   0  0  0  0  0  0
   68.2771   17.5546   29.0702 C   0  0  0  0  0  0
   68.7379   16.4179   28.5167 N   0  0  0  0  0  0
   68.6065   14.1083   27.4802 C   0  0  0  0  0  0
   68.1307   15.0764   28.5979 C   0  0  1  0  0  0
   69.1429   18.7843   28.8836 C   0  0  0  0  0  0
   75.0336   25.9910   26.4904 O   0  0  0  0  0  0
   70.3270   12.8521   30.4919 C   0  0  0  0  0  0
   67.2556   17.5894   29.7498 O   0  0  0  0  0  0
   77.7981   22.4726   28.0911 N   0  0  0  0  0  0
   68.4143   12.9100   27.5106 O   0  0  0  0  0  0
   79.2890   26.8153   28.0587 N   0  0  0  0  0  0
   69.6045   11.8568   30.5279 O   0  0  0  0  0  0
   68.3445   14.4840   30.0233 C   0  0  0  0  0  0
   68.8905   19.9543   29.6196 C   0  0  0  0  0  0
   70.2604   18.7573   28.0339 C   0  0  0  0  0  0
   69.8297   14.2987   30.4368 C   0  0  0  0  0  0
   75.0916   23.1385   27.0685 C   0  0  0  0  0  0
   69.2889   14.7573   26.4910 O   0  0  0  0  0  0
   70.9386   20.9505   28.7907 C   0  0  0  0  0  0
   71.8482   22.0233   28.8212 N   0  0  0  0  0  0
   71.6891   12.7909   30.4990 O   0  0  0  0  0  0
   71.1556   19.8149   28.0048 C   0  0  0  0  0  0
   69.7846   21.0246   29.5718 C   0  0  0  0  0  0
   73.1045   21.9351   28.0851 C   0  0  0  0  0  0
   73.9916   23.1838   28.1498 C   0  0  0  0  0  0
   67.0570   15.1974   28.4374 H   0  0  0  0  0  0
   69.6575   16.4586   28.1125 H   0  0  0  0  0  0
   76.9950   27.2638   27.0415 H   0  0  0  0  0  0
   77.0974   21.7536   28.0397 H   0  0  0  0  0  0
   78.6552   22.2737   28.5802 H   0  0  0  0  0  0
   80.1675   26.5505   28.4884 H   0  0  0  0  0  0
   79.1148   27.8088   28.0134 H   0  0  0  0  0  0
   67.7878   13.5500   30.1138 H   0  0  0  0  0  0
   67.8658   15.1391   30.7537 H   0  0  0  0  0  0
   68.0285   20.0219   30.2695 H   0  0  0  0  0  0
   70.4885   17.9096   27.4070 H   0  0  0  0  0  0
   69.9953   14.7470   31.4185 H   0  0  0  0  0  0
   70.4674   14.8369   29.7386 H   0  0  0  0  0  0
   75.4796   22.1214   26.9955 H   0  0  0  0  0  0
   74.6495   23.3315   26.0888 H   0  0  0  0  0  0
   69.1223   15.7015   26.5110 H   0  0  0  0  0  0
   71.4804   22.9532   28.9903 H   0  0  0  0  0  0
   72.1492   13.6386   30.4511 H   0  0  0  0  0  0
   72.0166   19.7289   27.3591 H   0  0  0  0  0  0
   69.5894   21.9071   30.1634 H   0  0  0  0  0  0
   73.6669   21.0459   28.3772 H   0  0  0  0  0  0
   72.8608   21.7480   27.0450 H   0  0  0  0  0  0
   73.3892   24.0838   28.0200 H   0  0  0  0  0  0
   74.4274   23.2558   29.1472 H   0  0  0  0  0  0
  1  2  1  0  0  0
  1  6  2  0  0  0
  2  4  2  0  0  0
  2 15  1  0  0  0
  3  6  1  0  0  0
  3 34  1  0  0  0
  3  5  1  0  0  0
  4 23  1  0  0  0
  4  5  1  0  0  0
  5 12  2  0  0  0
  6 17  1  0  0  0
  7 11  1  0  0  0
  7  8  1  0  0  0
  7 14  2  0  0  0
  8 10  1  0  0  0
  8 33  1  0  0  0
  9 10  1  0  0  0
  9 16  2  0  0  0
  9 24  1  0  0  0
 10 19  1  0  0  0
 10 32  1  0  0  0
 11 20  2  0  0  0
 11 21  1  0  0  0
 13 22  1  0  0  0
 13 18  2  0  0  0
 13 27  1  0  0  0
 15 35  1  0  0  0
 15 36  1  0  0  0
 17 37  1  0  0  0
 17 38  1  0  0  0
 19 22  1  0  0  0
 19 39  1  0  0  0
 19 40  1  0  0  0
 20 29  1  0  0  0
 20 41  1  0  0  0
 21 28  2  0  0  0
 21 42  1  0  0  0
 22 43  1  0  0  0
 22 44  1  0  0  0
 23 31  1  0  0  0
 23 45  1  0  0  0
 23 46  1  0  0  0
 24 47  1  0  0  0
 25 26  1  0  0  0
 25 28  1  0  0  0
 25 29  2  0  0  0
 26 30  1  0  0  0
 26 48  1  0  0  0
 27 49  1  0  0  0
 28 50  1  0  0  0
 29 51  1  0  0  0
 30 31  1  0  0  0
 30 52  1  0  0  0
 30 53  1  0  0  0
 31 54  1  0  0  0
 31 55  1  0  0  0
M  END
> <s_m_entry_id>
24872

> <s_m_entry_name>
dock_pv.25

> <s_m_Source_Path>
/home/csk/Desktop/cluster/DUD-E-result/pur2

> <s_m_Source_File>
dock_pv.maegz

> <i_m_Source_File_Index>
25

> <chembl_id>
CHEMBL13659

> <chembl_pref_name>
None

> <i_lp_mmshare_version>
53161

> <r_lp_tautomer_probability>
0.982528302960407

> <s_lp_Force_Field>
OPLS_2005

> <r_lp_Energy>
19.590771

> <b_lp_Chiralities_Consistent>
1

> <s_lp_Variant>
CHEMBL3972_lig19-1

> <s_i_glide_gridfile>
glide-grid_1njs

> <i_i_glide_lignum>
50

> <i_i_glide_rotatable_bonds>
14

> <r_i_docking_score>
-12.068610268523

> <r_i_glide_ligand_efficiency>
-0.389310008662031

> <r_i_glide_ligand_efficiency_sa>
-1.22297092759334

> <r_i_glide_ligand_efficiency_ln>
-2.72184147403833

> <r_i_glide_gscore>
-12.068610268523

> <r_i_glide_lipo>
-2.55789349906354

> <r_i_glide_hbond>
-1.14952935120579

> <r_i_glide_metal>
0

> <r_i_glide_rewards>
-2.87172801506252

> <r_i_glide_evdw>
-54.6379890441895

> <r_i_glide_ecoul>
-24.0180835723877

> <r_i_glide_erotb>
0.893853200595983

> <r_i_glide_esite>
-0.0487006157194688

> <r_i_glide_emodel>
-140.681021962896

> <r_i_glide_energy>
-78.6560726165771

> <r_i_glide_einternal>
8.11307048797607

> <i_i_glide_confnum>
101

> <i_i_glide_posenum>
395

> <r_i_glide_eff_state_penalty>
0

> <s_user_duplicate_titles>
CHEMBL3972_lig19,CHEMBL3972_lig19

> <i_f3d_flags>
0

> <s_m_subgroup_title>
dock_pv

> <s_m_subgroupid>
dock_pv

> <b_m_subgroup_collapsed>
1

$$$$
CHEMBL3972_lig79
                    3D
 Schrodinger Suite 2021-1.
 55 57  0  0  1  0            999 V2000
   75.7094   24.2307   27.7495 C   0  0  0  0  0  0
   76.8575   23.6436   28.1560 C   0  0  0  0  0  0
   78.0770   24.2585   28.0904 N   0  0  0  0  0  0
   77.0130   26.0645   27.1532 N   0  0  0  0  0  0
   75.7939   25.4979   27.0623 C   0  0  0  0  0  0
   78.1210   25.4701   27.6611 C   0  0  0  0  0  0
   74.0890   23.5907   28.0851 S   0  0  0  0  0  0
   76.8889   22.4154   28.7506 N   0  0  0  0  0  0
   68.1572   17.0021   28.6494 C   0  0  0  0  0  0
   67.8739   16.1961   27.6034 N   0  0  0  0  0  0
   65.6888   15.2108   28.2265 C   0  0  0  0  0  0
   67.1019   14.9429   27.6533 C   0  0  2  0  0  0
   69.0443   18.1793   28.3640 C   0  0  0  0  0  0
   74.8892   26.0500   26.4454 O   0  0  0  0  0  0
   69.3444   12.1220   27.1423 C   0  0  0  0  0  0
   67.7690   16.8001   29.8003 O   0  0  0  0  0  0
   65.3700   14.9451   29.3679 O   0  0  0  0  0  0
   79.2890   26.2351   27.6947 N   0  0  0  0  0  0
   68.4890   11.2401   27.1967 O   0  0  0  0  0  0
   74.5168   21.8299   28.1957 C   0  0  1  0  0  0
   67.8876   13.8514   28.4582 C   0  0  0  0  0  0
   70.0887   18.0698   27.4389 C   0  0  0  0  0  0
   68.8896   19.3613   29.1016 C   0  0  0  0  0  0
   75.7403   21.5904   29.1232 C   0  0  0  0  0  0
   69.2822   13.4538   27.9048 C   0  0  0  0  0  0
   64.8774   15.7892   27.2910 O   0  0  0  0  0  0
   70.8975   20.2418   28.0949 C   0  0  0  0  0  0
   70.4906   11.9886   26.4142 O   0  0  0  0  0  0
   69.8174   20.3914   28.9660 C   0  0  0  0  0  0
   71.0235   19.0882   27.3217 C   0  0  0  0  0  0
   71.9405   21.3345   27.9505 C   0  0  0  0  0  0
   73.2731   21.0324   28.6696 C   0  0  0  0  0  0
   77.7832   22.0640   29.0650 H   0  0  0  0  0  0
   68.1187   16.5246   26.6812 H   0  0  0  0  0  0
   66.9719   14.5855   26.6314 H   0  0  0  0  0  0
   77.0891   26.9748   26.7276 H   0  0  0  0  0  0
   80.1261   25.7870   28.0373 H   0  0  0  0  0  0
   79.5050   26.7599   26.8619 H   0  0  0  0  0  0
   74.7717   21.5252   27.1791 H   0  0  0  0  0  0
   67.2832   12.9550   28.5658 H   0  0  0  0  0  0
   68.0288   14.1961   29.4846 H   0  0  0  0  0  0
   70.2193   17.1820   26.8399 H   0  0  0  0  0  0
   68.0833   19.4690   29.8148 H   0  0  0  0  0  0
   75.4715   21.8125   30.1553 H   0  0  0  0  0  0
   76.0475   20.5447   29.0908 H   0  0  0  0  0  0
   69.9524   13.3371   28.7578 H   0  0  0  0  0  0
   69.6858   14.2561   27.2882 H   0  0  0  0  0  0
   65.2147   15.8538   26.3706 H   0  0  0  0  0  0
   71.1079   12.7226   26.4914 H   0  0  0  0  0  0
   69.7106   21.2904   29.5558 H   0  0  0  0  0  0
   71.8406   18.9906   26.6203 H   0  0  0  0  0  0
   72.1404   21.4039   26.8912 H   0  0  0  0  0  0
   71.5285   22.3004   28.2494 H   0  0  0  0  0  0
   73.1357   21.1327   29.7470 H   0  0  0  0  0  0
   73.4977   19.9909   28.4867 H   0  0  0  0  0  0
  1  7  1  0  0  0
  1  2  2  0  0  0
  1  5  1  0  0  0
  2  8  1  0  0  0
  2  3  1  0  0  0
  3  6  2  0  0  0
  4  6  1  0  0  0
  4 36  1  0  0  0
  4  5  1  0  0  0
  5 14  2  0  0  0
  6 18  1  0  0  0
  7 20  1  0  0  0
  8 24  1  0  0  0
  8 33  1  0  0  0
  9 13  1  0  0  0
  9 10  1  0  0  0
  9 16  2  0  0  0
 10 12  1  0  0  0
 10 34  1  0  0  0
 11 12  1  0  0  0
 11 17  2  0  0  0
 11 26  1  0  0  0
 12 21  1  0  0  0
 12 35  1  0  0  0
 13 22  1  0  0  0
 13 23  2  0  0  0
 15 25  1  0  0  0
 15 19  2  0  0  0
 15 28  1  0  0  0
 18 37  1  0  0  0
 18 38  1  0  0  0
 20 24  1  0  0  0
 20 32  1  0  0  0
 20 39  1  0  0  0
 21 25  1  0  0  0
 21 40  1  0  0  0
 21 41  1  0  0  0
 22 30  2  0  0  0
 22 42  1  0  0  0
 23 29  1  0  0  0
 23 43  1  0  0  0
 24 44  1  0  0  0
 24 45  1  0  0  0
 25 46  1  0  0  0
 25 47  1  0  0  0
 26 48  1  0  0  0
 27 31  1  0  0  0
 27 29  2  0  0  0
 27 30  1  0  0  0
 28 49  1  0  0  0
 29 50  1  0  0  0
 30 51  1  0  0  0
 31 32  1  0  0  0
 31 52  1  0  0  0
 31 53  1  0  0  0
 32 54  1  0  0  0
 32 55  1  0  0  0
M  END
> <s_m_entry_id>
24873

> <s_m_entry_name>
dock_pv.26

> <s_m_Source_Path>
/home/csk/Desktop/cluster/DUD-E-result/pur2

> <s_m_Source_File>
dock_pv.maegz

> <i_m_Source_File_Index>
26

> <chembl_id>
CHEMBL315076

> <chembl_pref_name>
None

> <i_lp_mmshare_version>
53161

> <r_lp_tautomer_probability>
0.982539515805485

> <s_lp_Force_Field>
OPLS_2005

> <r_lp_Energy>
19.055919

> <b_lp_Chiralities_Consistent>
1

> <s_lp_Variant>
CHEMBL3972_lig79-4

> <s_i_glide_gridfile>
glide-grid_1njs

> <i_i_glide_lignum>
184

> <i_i_glide_rotatable_bonds>
12

> <r_i_docking_score>
-12.051855317549

> <r_i_glide_ligand_efficiency>
-0.376620478673407

> <r_i_glide_ligand_efficiency_sa>
-1.19569548669655

> <r_i_glide_ligand_efficiency_ln>
-2.69873892676755

> <r_i_glide_gscore>
-12.051855317549

> <r_i_glide_lipo>
-2.29034506822418

> <r_i_glide_hbond>
-1.25517256853222

> <r_i_glide_metal>
0

> <r_i_glide_rewards>
-2.57338296471483

> <r_i_glide_evdw>
-56.7546234130859

> <r_i_glide_ecoul>
-24.2803993225098

> <r_i_glide_erotb>
0.661843766717366

> <r_i_glide_esite>
-0.115007413764393

> <r_i_glide_emodel>
-136.941383580978

> <r_i_glide_energy>
-81.0350227355957

> <r_i_glide_einternal>
9.02565670013428

> <i_i_glide_confnum>
166

> <i_i_glide_posenum>
189

> <r_i_glide_eff_state_penalty>
0

> <s_user_duplicate_titles>
CHEMBL3972_lig79,CHEMBL3972_lig79

> <i_f3d_flags>
0

> <s_m_subgroup_title>
dock_pv

> <s_m_subgroupid>
dock_pv

> <b_m_subgroup_collapsed>
1

$$$$
CHEMBL3972_lig22
                    3D
 Schrodinger Suite 2021-1.
 57 59  0  0  1  0            999 V2000
   76.8623   23.5803   28.1337 C   0  0  0  0  0  0
   78.0715   24.2143   28.0910 N   0  0  0  0  0  0
   75.7046   24.1155   27.6805 C   0  0  0  0  0  0
   76.9830   26.0165   27.1832 N   0  0  0  0  0  0
   75.7740   25.4266   27.0664 C   0  0  0  0  0  0
   78.1054   25.4282   27.6744 C   0  0  0  0  0  0
   76.8892   22.3813   28.7693 N   0  0  0  0  0  0
   68.0150   17.2739   28.8517 C   0  0  0  0  0  0
   67.5851   16.5733   27.7823 N   0  0  0  0  0  0
   65.3943   15.5911   28.5172 C   0  0  0  0  0  0
   66.7467   15.3639   27.8043 C   0  0  2  0  0  0
   74.3427   23.4312   27.8605 C   0  0  0  0  0  0
   68.9655   18.4001   28.5598 C   0  0  0  0  0  0
   74.8532   25.9912   26.4903 O   0  0  0  0  0  0
   69.0837   12.2927   27.5296 C   0  0  0  0  0  0
   67.7019   17.0192   30.0136 O   0  0  0  0  0  0
   65.1441   15.1940   29.6365 O   0  0  0  0  0  0
   79.2889   26.1831   27.6920 N   0  0  0  0  0  0
   68.8888   11.5910   26.5360 O   0  0  0  0  0  0
   67.5443   14.1611   28.3902 C   0  0  0  0  0  0
   69.9900   18.2290   27.6226 C   0  0  0  0  0  0
   68.8889   19.5941   29.2902 C   0  0  0  0  0  0
   75.7144   21.5868   29.1174 C   0  0  0  0  0  0
   68.8080   13.7973   27.5754 C   0  0  0  0  0  0
   64.5323   16.2487   27.6907 O   0  0  0  0  0  0
   74.4895   21.9209   28.2121 C   0  0  1  0  0  0
   70.8736   20.4040   28.1754 C   0  0  0  0  0  0
   69.5510   11.8120   28.7171 O   0  0  0  0  0  0
   70.9486   19.2172   27.4484 C   0  0  0  0  0  0
   69.8398   20.5964   29.0946 C   0  0  0  0  0  0
   71.9266   21.4759   27.9311 C   0  0  0  0  0  0
   73.1797   21.3356   28.8201 C   0  0  0  0  0  0
   77.7726   22.0305   29.1150 H   0  0  0  0  0  0
   67.7982   16.9380   26.8656 H   0  0  0  0  0  0
   66.5110   15.1172   26.7666 H   0  0  0  0  0  0
   73.7250   23.5524   26.9673 H   0  0  0  0  0  0
   73.7990   23.9414   28.6584 H   0  0  0  0  0  0
   77.0418   26.9337   26.7723 H   0  0  0  0  0  0
   80.1097   25.8555   28.1814 H   0  0  0  0  0  0
   79.2616   27.1819   27.5589 H   0  0  0  0  0  0
   66.8890   13.2966   28.4911 H   0  0  0  0  0  0
   67.8507   14.3915   29.4133 H   0  0  0  0  0  0
   70.0761   17.3204   27.0453 H   0  0  0  0  0  0
   68.1098   19.7416   30.0262 H   0  0  0  0  0  0
   75.4640   21.7375   30.1679 H   0  0  0  0  0  0
   75.9708   20.5311   29.0326 H   0  0  0  0  0  0
   69.6697   14.3311   27.9732 H   0  0  0  0  0  0
   68.7026   14.1432   26.5477 H   0  0  0  0  0  0
   64.8888   16.4262   26.8105 H   0  0  0  0  0  0
   74.6515   21.3856   27.2734 H   0  0  0  0  0  0
   69.6416   12.4999   29.3818 H   0  0  0  0  0  0
   71.7377   19.0734   26.7228 H   0  0  0  0  0  0
   69.7798   21.5121   29.6647 H   0  0  0  0  0  0
   72.2220   21.3615   26.8912 H   0  0  0  0  0  0
   71.4939   22.4737   28.0163 H   0  0  0  0  0  0
   72.9818   21.7853   29.7940 H   0  0  0  0  0  0
   73.3235   20.2760   29.0178 H   0  0  0  0  0  0
  1  3  2  0  0  0
  1  7  1  0  0  0
  1  2  1  0  0  0
  2  6  2  0  0  0
  3 12  1  0  0  0
  3  5  1  0  0  0
  4  6  1  0  0  0
  4 38  1  0  0  0
  4  5  1  0  0  0
  5 14  2  0  0  0
  6 18  1  0  0  0
  7 23  1  0  0  0
  7 33  1  0  0  0
  8 13  1  0  0  0
  8  9  1  0  0  0
  8 16  2  0  0  0
  9 11  1  0  0  0
  9 34  1  0  0  0
 10 11  1  0  0  0
 10 17  2  0  0  0
 10 25  1  0  0  0
 11 20  1  0  0  0
 11 35  1  0  0  0
 12 26  1  0  0  0
 12 36  1  0  0  0
 12 37  1  0  0  0
 13 22  1  0  0  0
 13 21  2  0  0  0
 15 24  1  0  0  0
 15 19  2  0  0  0
 15 28  1  0  0  0
 18 39  1  0  0  0
 18 40  1  0  0  0
 20 24  1  0  0  0
 20 41  1  0  0  0
 20 42  1  0  0  0
 21 29  1  0  0  0
 21 43  1  0  0  0
 22 30  2  0  0  0
 22 44  1  0  0  0
 23 26  1  0  0  0
 23 45  1  0  0  0
 23 46  1  0  0  0
 24 47  1  0  0  0
 24 48  1  0  0  0
 25 49  1  0  0  0
 26 32  1  0  0  0
 26 50  1  0  0  0
 27 31  1  0  0  0
 27 29  2  0  0  0
 27 30  1  0  0  0
 28 51  1  0  0  0
 29 52  1  0  0  0
 30 53  1  0  0  0
 31 32  1  0  0  0
 31 54  1  0  0  0
 31 55  1  0  0  0
 32 56  1  0  0  0
 32 57  1  0  0  0
M  END
> <s_m_entry_id>
24874

> <s_m_entry_name>
dock_pv.27

> <s_m_Source_Path>
/home/csk/Desktop/cluster/DUD-E-result/pur2

> <s_m_Source_File>
dock_pv.maegz

> <i_m_Source_File_Index>
27

> <chembl_id>
CHEMBL170101

> <chembl_pref_name>
None

> <i_lp_mmshare_version>
53161

> <r_lp_tautomer_probability>
0.982539515805485

> <s_lp_Force_Field>
OPLS_2005

> <r_lp_Energy>
21.398461

> <b_lp_Chiralities_Consistent>
1

> <s_lp_Variant>
CHEMBL3972_lig22-4

> <s_i_glide_gridfile>
glide-grid_1njs

> <i_i_glide_lignum>
63

> <i_i_glide_rotatable_bonds>
12

> <r_i_docking_score>
-11.9805718589336

> <r_i_glide_ligand_efficiency>
-0.374392870591674

> <r_i_glide_ligand_efficiency_sa>
-1.18862327188008

> <r_i_glide_ligand_efficiency_ln>
-2.68277661726985

> <r_i_glide_gscore>
-11.9805718589336

> <r_i_glide_lipo>
-2.38251083883425

> <r_i_glide_hbond>
-1.44427824748677

> <r_i_glide_metal>
0

> <r_i_glide_rewards>
-2.61024698100505

> <r_i_glide_evdw>
-58.7814712524414

> <r_i_glide_ecoul>
-21.6762428283691

> <r_i_glide_erotb>
0.711630181054405

> <r_i_glide_esite>
-0.0646559857844744

> <r_i_glide_emodel>
-132.694007993115

> <r_i_glide_energy>
-80.4577140808105

> <r_i_glide_einternal>
7.90302515029907

> <i_i_glide_confnum>
190

> <i_i_glide_posenum>
46

> <r_i_glide_eff_state_penalty>
0

> <s_user_duplicate_titles>
CHEMBL3972_lig22,CHEMBL3972_lig22,238879,233690,285872

> <i_f3d_flags>
0

> <s_m_subgroup_title>
dock_pv

> <s_m_subgroupid>
dock_pv

> <b_m_subgroup_collapsed>
1

$$$$
CHEMBL3972_lig69
                    3D
 Schrodinger Suite 2021-1.
 48 49  0  0  1  0            999 V2000
   78.4916   24.5700   27.9998 N   0  0  0  0  0  0
   77.4523   23.7311   27.7939 C   0  0  0  0  0  0
   76.2056   24.1800   27.3395 C   0  0  0  0  0  0
   77.1220   26.3911   27.2377 N   0  0  0  0  0  0
   76.0866   25.5415   27.0203 C   0  0  0  0  0  0
   78.2691   25.8730   27.7228 C   0  0  0  0  0  0
   70.4574   20.0639   28.6984 C   0  0  0  0  0  0
   69.1875   19.4091   28.8875 C   0  0  0  0  0  0
   70.9513   21.3380   29.7797 S   0  0  0  0  0  0
   69.0536   18.2398   28.2310 N   0  0  0  0  0  0
   71.4751   19.7711   27.7971 C   0  0  0  0  0  0
   72.5724   21.3443   29.1506 C   0  0  0  0  0  0
   68.4782   16.4015   29.7522 C   0  0  0  0  0  0
   68.0236   17.2353   28.5283 C   0  0  2  0  0  0
   72.6571   20.4515   28.0908 C   0  0  0  0  0  0
   74.8890   25.9435   26.4916 O   0  0  0  0  0  0
   65.4091   15.5915   28.1507 C   0  0  0  0  0  0
   74.7969   23.0985   27.2911 S   0  0  0  0  0  0
   68.3664   19.8017   29.7201 O   0  0  0  0  0  0
   77.6703   22.3909   28.0910 N   0  0  0  0  0  0
   68.9737   15.2949   29.6806 O   0  0  0  0  0  0
   79.2887   26.7694   27.9914 N   0  0  0  0  0  0
   65.2568   15.5152   29.3672 O   0  0  0  0  0  0
   67.6998   16.3990   27.2573 C   0  0  0  0  0  0
   73.6505   22.2163   29.7511 C   0  0  0  0  0  0
   66.7143   15.2154   27.4461 C   0  0  0  0  0  0
   68.2201   17.0923   30.9016 O   0  0  0  0  0  0
   64.4334   15.9909   27.2911 O   0  0  0  0  0  0
   73.9828   23.4364   28.8832 C   0  0  0  0  0  0
   69.7068   18.0118   27.4983 H   0  0  0  0  0  0
   71.4032   19.0463   26.9992 H   0  0  0  0  0  0
   67.1022   17.7504   28.8015 H   0  0  0  0  0  0
   73.5687   20.2988   27.5316 H   0  0  0  0  0  0
   74.2888   25.1907   26.4811 H   0  0  0  0  0  0
   76.8761   21.7727   28.0141 H   0  0  0  0  0  0
   78.4895   22.1107   28.6122 H   0  0  0  0  0  0
   80.1709   26.4479   28.3752 H   0  0  0  0  0  0
   79.1052   27.7505   27.8312 H   0  0  0  0  0  0
   68.6248   16.0089   26.8294 H   0  0  0  0  0  0
   67.2910   17.0633   26.4922 H   0  0  0  0  0  0
   73.3563   22.5572   30.7447 H   0  0  0  0  0  0
   74.5583   21.6317   29.9059 H   0  0  0  0  0  0
   67.1876   14.4321   28.0367 H   0  0  0  0  0  0
   66.4890   14.7493   26.4910 H   0  0  0  0  0  0
   67.9132   17.9879   30.7245 H   0  0  0  0  0  0
   64.7072   15.9895   26.3538 H   0  0  0  0  0  0
   73.0832   24.0239   28.6982 H   0  0  0  0  0  0
   74.6474   24.0758   29.4609 H   0  0  0  0  0  0
  1  2  2  0  0  0
  1  6  1  0  0  0
  2  3  1  0  0  0
  2 20  1  0  0  0
  3 18  1  0  0  0
  3  5  2  0  0  0
  4  6  2  0  0  0
  4  5  1  0  0  0
  5 16  1  0  0  0
  6 22  1  0  0  0
  7  9  1  0  0  0
  7  8  1  0  0  0
  7 11  2  0  0  0
  8 10  1  0  0  0
  8 19  2  0  0  0
  9 12  1  0  0  0
 10 14  1  0  0  0
 10 30  1  0  0  0
 11 15  1  0  0  0
 11 31  1  0  0  0
 12 25  1  0  0  0
 12 15  2  0  0  0
 13 14  1  0  0  0
 13 21  2  0  0  0
 13 27  1  0  0  0
 14 24  1  0  0  0
 14 32  1  0  0  0
 15 33  1  0  0  0
 16 34  1  0  0  0
 17 26  1  0  0  0
 17 23  2  0  0  0
 17 28  1  0  0  0
 18 29  1  0  0  0
 20 35  1  0  0  0
 20 36  1  0  0  0
 22 37  1  0  0  0
 22 38  1  0  0  0
 24 26  1  0  0  0
 24 39  1  0  0  0
 24 40  1  0  0  0
 25 29  1  0  0  0
 25 41  1  0  0  0
 25 42  1  0  0  0
 26 43  1  0  0  0
 26 44  1  0  0  0
 27 45  1  0  0  0
 28 46  1  0  0  0
 29 47  1  0  0  0
 29 48  1  0  0  0
M  END
> <s_m_entry_id>
24876

> <s_m_entry_name>
dock_pv.29

> <s_m_Source_Path>
/home/csk/Desktop/cluster/DUD-E-result/pur2

> <s_m_Source_File>
dock_pv.maegz

> <i_m_Source_File_Index>
29

> <chembl_id>
CHEMBL85848

> <chembl_pref_name>
None

> <i_lp_mmshare_version>
53161

> <r_lp_tautomer_probability>
0.0160304617775627

> <s_lp_Force_Field>
OPLS_2005

> <r_lp_Energy>
-0.985607

> <b_lp_Chiralities_Consistent>
1

> <s_lp_Variant>
CHEMBL3972_lig69-2

> <s_i_glide_gridfile>
glide-grid_1njs

> <i_i_glide_lignum>
148

> <i_i_glide_rotatable_bonds>
14

> <r_i_docking_score>
-11.9142579398247

> <r_i_glide_ligand_efficiency>
-0.410836480683612

> <r_i_glide_ligand_efficiency_sa>
-1.26221983079306

> <r_i_glide_ligand_efficiency_ln>
-2.7280629487061

> <r_i_glide_gscore>
-11.9142579398247

> <r_i_glide_lipo>
-2.30396195615845

> <r_i_glide_hbond>
-1.17399914693122

> <r_i_glide_metal>
0

> <r_i_glide_rewards>
-3.27160034803877

> <r_i_glide_evdw>
-56.2035026550293

> <r_i_glide_ecoul>
-20.5816612243652

> <r_i_glide_erotb>
0.789144045298674

> <r_i_glide_esite>
-0.0564162175887268

> <r_i_glide_emodel>
-121.360062794778

> <r_i_glide_energy>
-76.7851638793945

> <r_i_glide_einternal>
12.8473463058472

> <i_i_glide_confnum>
374

> <i_i_glide_posenum>
206

> <r_i_glide_eff_state_penalty>
0

> <s_user_duplicate_titles>
CHEMBL3972_lig69,CHEMBL3972_lig69

> <i_f3d_flags>
0

> <s_m_subgroup_title>
dock_pv

> <s_m_subgroupid>
dock_pv

> <b_m_subgroup_collapsed>
1

$$$$
CHEMBL3972_lig25
                    3D
 Schrodinger Suite 2021-1.
 54 55  0  0  1  0            999 V2000
   78.3900   24.5063   28.0814 N   0  0  0  0  0  0
   77.3560   23.6640   27.8037 C   0  0  0  0  0  0
   77.0899   26.2184   27.2910 N   0  0  0  0  0  0
   76.1591   24.0559   27.3038 C   0  0  0  0  0  0
   76.0036   25.4709   26.9945 C   0  0  0  0  0  0
   78.2535   25.7549   27.8168 C   0  0  0  0  0  0
   69.2854   17.8820   27.5702 C   0  0  0  0  0  0
   68.2671   17.4709   28.3586 N   0  0  0  0  0  0
   67.7916   15.0698   27.5716 C   0  0  0  0  0  0
   67.2535   16.4392   28.0487 C   0  0  1  0  0  0
   70.1300   19.0272   28.0908 C   0  0  0  0  0  0
   75.0111   25.9909   26.4906 O   0  0  0  0  0  0
   66.3479   14.1909   30.8064 C   0  0  0  0  0  0
   69.5550   17.3508   26.4920 O   0  0  0  0  0  0
   77.6490   22.3786   28.0911 N   0  0  0  0  0  0
   68.8889   14.6284   27.8366 O   0  0  0  0  0  0
   79.2888   26.6721   28.0681 N   0  0  0  0  0  0
   66.8864   13.1288   30.4957 O   0  0  0  0  0  0
   66.3086   16.2386   29.2696 C   0  0  0  0  0  0
   69.6110   19.9910   28.9690 C   0  0  0  0  0  0
   71.4627   19.1495   27.6773 C   0  0  0  0  0  0
   66.9412   15.5717   30.5210 C   0  0  0  0  0  0
   74.9928   23.1200   26.9425 C   0  0  0  0  0  0
   66.8133   14.4051   26.8910 O   0  0  0  0  0  0
   71.7675   21.1025   29.0846 C   0  0  0  0  0  0
   65.1271   14.2748   31.4094 O   0  0  0  0  0  0
   70.4294   21.0059   29.4677 C   0  0  0  0  0  0
   72.2712   20.1731   28.1645 C   0  0  0  0  0  0
   72.5123   22.1199   29.6620 O   0  0  0  0  0  0
   73.8239   22.4338   29.1755 C   0  0  0  0  0  0
   73.7425   23.2116   27.8465 C   0  0  0  0  0  0
   68.1675   17.9184   29.2557 H   0  0  0  0  0  0
   66.6705   16.8630   27.2267 H   0  0  0  0  0  0
   77.0110   27.1886   27.0355 H   0  0  0  0  0  0
   76.9442   21.6693   27.9876 H   0  0  0  0  0  0
   78.4887   22.1555   28.6023 H   0  0  0  0  0  0
   80.1665   26.3909   28.4889 H   0  0  0  0  0  0
   79.1664   27.6681   27.9571 H   0  0  0  0  0  0
   65.4292   15.6792   28.9408 H   0  0  0  0  0  0
   65.8921   17.1911   29.5800 H   0  0  0  0  0  0
   68.5788   19.9620   29.2850 H   0  0  0  0  0  0
   71.8882   18.4497   26.9727 H   0  0  0  0  0  0
   66.7990   16.2044   31.3982 H   0  0  0  0  0  0
   68.0215   15.4696   30.4077 H   0  0  0  0  0  0
   75.3221   22.0811   26.8907 H   0  0  0  0  0  0
   74.6927   23.3553   25.9185 H   0  0  0  0  0  0
   66.0885   14.9712   26.5962 H   0  0  0  0  0  0
   64.8667   15.1837   31.5767 H   0  0  0  0  0  0
   70.0230   21.7327   30.1551 H   0  0  0  0  0  0
   73.2919   20.2159   27.8177 H   0  0  0  0  0  0
   74.3206   23.0555   29.9205 H   0  0  0  0  0  0
   74.4396   21.5369   29.0960 H   0  0  0  0  0  0
   72.8930   22.8259   27.2908 H   0  0  0  0  0  0
   73.4855   24.2513   28.0480 H   0  0  0  0  0  0
  1  2  1  0  0  0
  1  6  2  0  0  0
  2  4  2  0  0  0
  2 15  1  0  0  0
  3  6  1  0  0  0
  3 34  1  0  0  0
  3  5  1  0  0  0
  4 23  1  0  0  0
  4  5  1  0  0  0
  5 12  2  0  0  0
  6 17  1  0  0  0
  7 11  1  0  0  0
  7  8  1  0  0  0
  7 14  2  0  0  0
  8 10  1  0  0  0
  8 32  1  0  0  0
  9 10  1  0  0  0
  9 16  2  0  0  0
  9 24  1  0  0  0
 10 19  1  0  0  0
 10 33  1  0  0  0
 11 21  1  0  0  0
 11 20  2  0  0  0
 13 22  1  0  0  0
 13 18  2  0  0  0
 13 26  1  0  0  0
 15 35  1  0  0  0
 15 36  1  0  0  0
 17 37  1  0  0  0
 17 38  1  0  0  0
 19 22  1  0  0  0
 19 39  1  0  0  0
 19 40  1  0  0  0
 20 27  1  0  0  0
 20 41  1  0  0  0
 21 28  2  0  0  0
 21 42  1  0  0  0
 22 43  1  0  0  0
 22 44  1  0  0  0
 23 31  1  0  0  0
 23 45  1  0  0  0
 23 46  1  0  0  0
 24 47  1  0  0  0
 25 29  1  0  0  0
 25 27  2  0  0  0
 25 28  1  0  0  0
 26 48  1  0  0  0
 27 49  1  0  0  0
 28 50  1  0  0  0
 29 30  1  0  0  0
 30 31  1  0  0  0
 30 51  1  0  0  0
 30 52  1  0  0  0
 31 53  1  0  0  0
 31 54  1  0  0  0
M  END
> <s_m_entry_id>
24877

> <s_m_entry_name>
dock_pv.30

> <s_m_Source_Path>
/home/csk/Desktop/cluster/DUD-E-result/pur2

> <s_m_Source_File>
dock_pv.maegz

> <i_m_Source_File_Index>
30

> <chembl_id>
CHEMBL31609

> <chembl_pref_name>
None

> <i_lp_mmshare_version>
53161

> <r_lp_tautomer_probability>
0.982528302960407

> <s_lp_Force_Field>
OPLS_2005

> <r_lp_Energy>
18.720228

> <b_lp_Chiralities_Consistent>
1

> <s_lp_Variant>
CHEMBL3972_lig25-1

> <s_i_glide_gridfile>
glide-grid_1njs

> <i_i_glide_lignum>
76

> <i_i_glide_rotatable_bonds>
14

> <r_i_docking_score>
-11.8845306018134

> <r_i_glide_ligand_efficiency>
-0.383371954897206

> <r_i_glide_ligand_efficiency_sa>
-1.20431724040501

> <r_i_glide_ligand_efficiency_ln>
-2.68032586783104

> <r_i_glide_gscore>
-11.8845306018134

> <r_i_glide_lipo>
-2.37519564105622

> <r_i_glide_hbond>
-1.08203890394407

> <r_i_glide_metal>
0

> <r_i_glide_rewards>
-2.91564723623902

> <r_i_glide_evdw>
-56.89306640625

> <r_i_glide_ecoul>
-23.2359180450439

> <r_i_glide_erotb>
0.890175852182387

> <r_i_glide_esite>
-0.0717836456873664

> <r_i_glide_emodel>
-132.675529990553

> <r_i_glide_energy>
-80.1289844512939

> <r_i_glide_einternal>
14.0774326324463

> <i_i_glide_confnum>
200

> <i_i_glide_posenum>
139

> <r_i_glide_eff_state_penalty>
0

> <s_user_duplicate_titles>
CHEMBL3972_lig25

> <i_f3d_flags>
0

> <s_m_subgroup_title>
dock_pv

> <s_m_subgroupid>
dock_pv

> <b_m_subgroup_collapsed>
1

$$$$
CHEMBL3972_lig68
                    3D
 Schrodinger Suite 2021-1.
 54 55  0  0  1  0            999 V2000
   78.5987   24.9778   28.0816 N   0  0  0  0  0  0
   77.6121   24.1121   27.7161 C   0  0  0  0  0  0
   76.4421   24.4884   27.1506 C   0  0  0  0  0  0
   77.2869   26.6754   27.2866 N   0  0  0  0  0  0
   76.2520   25.9021   26.8910 C   0  0  0  0  0  0
   78.4404   26.2292   27.8365 C   0  0  0  0  0  0
   70.3732   19.2800   28.0988 C   0  0  0  0  0  0
   72.0899   19.5418   28.0904 S   0  0  0  0  0  0
   69.7928   18.1435   27.4184 C   0  0  0  0  0  0
   69.7481   20.3292   28.7589 C   0  0  0  0  0  0
   71.9755   20.9255   29.1429 C   0  0  0  0  0  0
   70.6298   21.2527   29.3465 C   0  0  0  0  0  0
   68.6399   17.6864   27.9455 N   0  0  0  0  0  0
   66.5960   16.4050   28.4058 C   0  0  0  0  0  0
   67.8453   16.5210   27.5023 C   0  0  2  0  0  0
   75.2886   26.3899   26.3043 O   0  0  0  0  0  0
   68.8184   12.6323   27.4123 C   0  0  0  0  0  0
   75.2252   23.3581   26.4974 S   0  0  0  0  0  0
   70.3765   17.5907   26.4910 O   0  0  0  0  0  0
   77.9287   22.8176   27.9543 N   0  0  0  0  0  0
   66.6192   16.6118   29.6023 O   0  0  0  0  0  0
   79.4445   27.1721   28.1010 N   0  0  0  0  0  0
   68.8888   11.8339   26.4806 O   0  0  0  0  0  0
   68.6977   15.2069   27.5200 C   0  0  0  0  0  0
   67.9178   13.8701   27.4059 C   0  0  0  0  0  0
   65.4995   16.0150   27.6906 O   0  0  0  0  0  0
   69.4821   12.4731   28.5924 O   0  0  0  0  0  0
   73.2177   21.5831   29.7413 C   0  0  0  0  0  0
   70.1736   22.4703   30.1111 C   0  0  0  0  0  0
   74.0280   23.1575   27.8446 C   0  0  0  0  0  0
   74.3402   21.9519   28.7484 C   0  0  0  0  0  0
   68.6754   20.4252   28.8374 H   0  0  0  0  0  0
   68.2392   18.1837   28.7268 H   0  0  0  0  0  0
   67.5178   16.7304   26.4809 H   0  0  0  0  0  0
   77.2126   27.6433   27.0159 H   0  0  0  0  0  0
   77.2628   22.1015   27.7176 H   0  0  0  0  0  0
   78.8107   22.5596   28.3591 H   0  0  0  0  0  0
   80.2724   26.8204   28.5675 H   0  0  0  0  0  0
   79.1626   28.0620   28.4916 H   0  0  0  0  0  0
   69.2893   15.1905   28.4351 H   0  0  0  0  0  0
   69.4193   15.2413   26.7029 H   0  0  0  0  0  0
   67.3057   13.8650   26.5019 H   0  0  0  0  0  0
   67.2291   13.7679   28.2422 H   0  0  0  0  0  0
   65.6068   16.0170   26.7289 H   0  0  0  0  0  0
   69.3120   13.1840   29.2146 H   0  0  0  0  0  0
   72.9498   22.4753   30.3070 H   0  0  0  0  0  0
   73.6362   20.8997   30.4809 H   0  0  0  0  0  0
   70.6269   23.3760   29.7041 H   0  0  0  0  0  0
   69.0935   22.6116   30.0913 H   0  0  0  0  0  0
   70.4972   22.4363   31.1502 H   0  0  0  0  0  0
   73.0518   23.0242   27.3774 H   0  0  0  0  0  0
   73.9630   24.0782   28.4276 H   0  0  0  0  0  0
   75.2431   22.1833   29.3166 H   0  0  0  0  0  0
   74.5986   21.0829   28.1398 H   0  0  0  0  0  0
  1  2  1  0  0  0
  1  6  2  0  0  0
  2  3  2  0  0  0
  2 20  1  0  0  0
  3 18  1  0  0  0
  3  5  1  0  0  0
  4  6  1  0  0  0
  4 35  1  0  0  0
  4  5  1  0  0  0
  5 16  2  0  0  0
  6 22  1  0  0  0
  7  8  1  0  0  0
  7  9  1  0  0  0
  7 10  2  0  0  0
  8 11  1  0  0  0
  9 13  1  0  0  0
  9 19  2  0  0  0
 10 12  1  0  0  0
 10 32  1  0  0  0
 11 28  1  0  0  0
 11 12  2  0  0  0
 12 29  1  0  0  0
 13 15  1  0  0  0
 13 33  1  0  0  0
 14 15  1  0  0  0
 14 21  2  0  0  0
 14 26  1  0  0  0
 15 24  1  0  0  0
 15 34  1  0  0  0
 17 25  1  0  0  0
 17 23  2  0  0  0
 17 27  1  0  0  0
 18 30  1  0  0  0
 20 36  1  0  0  0
 20 37  1  0  0  0
 22 38  1  0  0  0
 22 39  1  0  0  0
 24 25  1  0  0  0
 24 40  1  0  0  0
 24 41  1  0  0  0
 25 42  1  0  0  0
 25 43  1  0  0  0
 26 44  1  0  0  0
 27 45  1  0  0  0
 28 31  1  0  0  0
 28 46  1  0  0  0
 28 47  1  0  0  0
 29 48  1  0  0  0
 29 49  1  0  0  0
 29 50  1  0  0  0
 30 31  1  0  0  0
 30 51  1  0  0  0
 30 52  1  0  0  0
 31 53  1  0  0  0
 31 54  1  0  0  0
M  END
> <s_m_entry_id>
24878

> <s_m_entry_name>
dock_pv.31

> <s_m_Source_Path>
/home/csk/Desktop/cluster/DUD-E-result/pur2

> <s_m_Source_File>
dock_pv.maegz

> <i_m_Source_File_Index>
31

> <chembl_id>
CHEMBL315627

> <chembl_pref_name>
None

> <i_lp_mmshare_version>
53161

> <r_lp_tautomer_probability>
0.982528302960407

> <s_lp_Force_Field>
OPLS_2005

> <r_lp_Energy>
8.660552

> <b_lp_Chiralities_Consistent>
1

> <s_lp_Variant>
CHEMBL3972_lig68-1

> <s_i_glide_gridfile>
glide-grid_1njs

> <i_i_glide_lignum>
145

> <i_i_glide_rotatable_bonds>
14

> <r_i_docking_score>
-11.81645648359

> <r_i_glide_ligand_efficiency>
-0.381176015599677

> <r_i_glide_ligand_efficiency_sa>
-1.19741895918982

> <r_i_glide_ligand_efficiency_ln>
-2.66497306795049

> <r_i_glide_gscore>
-11.81645648359

> <r_i_glide_lipo>
-2.33275415718799

> <r_i_glide_hbond>
-1.85811862509632

> <r_i_glide_metal>
0

> <r_i_glide_rewards>
-2.1007787573759

> <r_i_glide_evdw>
-62.1536102294922

> <r_i_glide_ecoul>
-23.0044288635254

> <r_i_glide_erotb>
1.09939906636246

> <r_i_glide_esite>
-0.0658591692888066

> <r_i_glide_emodel>
-143.041920299313

> <r_i_glide_energy>
-85.1580390930176

> <r_i_glide_einternal>
12.2238388061523

> <i_i_glide_confnum>
174

> <i_i_glide_posenum>
345

> <r_i_glide_eff_state_penalty>
0

> <s_user_duplicate_titles>
CHEMBL3972_lig68,CHEMBL3972_lig68,135751

> <i_f3d_flags>
0

> <s_m_subgroup_title>
dock_pv

> <s_m_subgroupid>
dock_pv

> <b_m_subgroup_collapsed>
1

$$$$
CHEMBL3972_lig26
                    3D
 Schrodinger Suite 2021-1.
 58 59  0  0  1  0            999 V2000
   78.4886   24.5854   28.0782 N   0  0  0  0  0  0
   77.4737   23.7412   27.7766 C   0  0  0  0  0  0
   77.1444   26.4139   27.2909 N   0  0  0  0  0  0
   76.2668   24.1810   27.2058 C   0  0  0  0  0  0
   76.1382   25.5632   26.9758 C   0  0  0  0  0  0
   78.2729   25.8911   27.8080 C   0  0  0  0  0  0
   69.5506   17.9887   27.4755 C   0  0  0  0  0  0
   68.4403   17.5758   28.1174 N   0  0  0  0  0  0
   70.3426   19.1410   28.0453 C   0  0  0  0  0  0
   66.2951   16.3909   28.4949 C   0  0  0  0  0  0
   67.6132   16.4258   27.6949 C   0  0  2  0  0  0
   69.7916   20.1176   28.8915 C   0  0  0  0  0  0
   70.5945   21.1474   29.4113 C   0  0  0  0  0  0
   74.9602   25.9889   26.4212 O   0  0  0  0  0  0
   68.5059   12.5404   27.2916 C   0  0  0  0  0  0
   71.9626   21.2073   29.0987 C   0  0  0  0  0  0
   69.9829   17.3918   26.4910 O   0  0  0  0  0  0
   77.6819   22.4033   28.0910 N   0  0  0  0  0  0
   66.2382   16.6068   29.6885 O   0  0  0  0  0  0
   71.6941   19.2455   27.7000 C   0  0  0  0  0  0
   79.2890   26.7875   28.0910 N   0  0  0  0  0  0
   68.1250   11.4253   27.6471 O   0  0  0  0  0  0
   72.4893   20.2532   28.2226 C   0  0  0  0  0  0
   68.4186   15.0912   27.8309 C   0  0  0  0  0  0
   67.6501   13.8059   27.4379 C   0  0  0  0  0  0
   72.7465   22.2511   29.6371 N   0  0  0  0  0  0
   75.1319   23.2224   26.8381 C   0  0  0  0  0  0
   65.2396   16.0539   27.6911 O   0  0  0  0  0  0
   69.6882   12.7498   26.6432 O   0  0  0  0  0  0
   69.9727   22.2176   30.2958 C   0  0  0  0  0  0
   74.0608   22.5665   29.0950 C   0  0  0  0  0  0
   73.9234   23.3427   27.7791 C   0  0  0  0  0  0
   68.1227   18.0631   28.9422 H   0  0  0  0  0  0
   67.3719   16.5927   26.6413 H   0  0  0  0  0  0
   68.7416   20.0884   29.1476 H   0  0  0  0  0  0
   74.3580   25.2437   26.3443 H   0  0  0  0  0  0
   76.9247   21.7540   27.9504 H   0  0  0  0  0  0
   78.5068   22.1265   28.6049 H   0  0  0  0  0  0
   72.1563   18.5392   27.0250 H   0  0  0  0  0  0
   79.1107   27.7725   27.9464 H   0  0  0  0  0  0
   80.1734   26.4607   28.4682 H   0  0  0  0  0  0
   73.5234   20.2655   27.9189 H   0  0  0  0  0  0
   68.7769   14.9894   28.8578 H   0  0  0  0  0  0
   69.3166   15.1619   27.2233 H   0  0  0  0  0  0
   67.1095   13.9604   26.5036 H   0  0  0  0  0  0
   66.8905   13.6070   28.1937 H   0  0  0  0  0  0
   72.2182   23.0435   29.9750 H   0  0  0  0  0  0
   75.4615   22.1849   26.7929 H   0  0  0  0  0  0
   74.8229   23.4446   25.8156 H   0  0  0  0  0  0
   65.4165   16.0386   26.7396 H   0  0  0  0  0  0
   69.8906   13.6757   26.4913 H   0  0  0  0  0  0
   70.0996   23.2058   29.8529 H   0  0  0  0  0  0
   68.9072   22.0568   30.4555 H   0  0  0  0  0  0
   70.4891   22.2437   31.2575 H   0  0  0  0  0  0
   74.6564   23.1201   29.8195 H   0  0  0  0  0  0
   74.6218   21.6471   28.9360 H   0  0  0  0  0  0
   73.0548   22.9610   27.2476 H   0  0  0  0  0  0
   73.6716   24.3807   27.9982 H   0  0  0  0  0  0
  1  2  2  0  0  0
  1  6  1  0  0  0
  2  4  1  0  0  0
  2 18  1  0  0  0
  3  6  2  0  0  0
  3  5  1  0  0  0
  4 27  1  0  0  0
  4  5  2  0  0  0
  5 14  1  0  0  0
  6 21  1  0  0  0
  7  9  1  0  0  0
  7  8  1  0  0  0
  7 17  2  0  0  0
  8 11  1  0  0  0
  8 33  1  0  0  0
  9 20  2  0  0  0
  9 12  1  0  0  0
 10 11  1  0  0  0
 10 19  2  0  0  0
 10 28  1  0  0  0
 11 24  1  0  0  0
 11 34  1  0  0  0
 12 13  2  0  0  0
 12 35  1  0  0  0
 13 16  1  0  0  0
 13 30  1  0  0  0
 14 36  1  0  0  0
 15 25  1  0  0  0
 15 22  2  0  0  0
 15 29  1  0  0  0
 16 26  1  0  0  0
 16 23  2  0  0  0
 18 37  1  0  0  0
 18 38  1  0  0  0
 20 23  1  0  0  0
 20 39  1  0  0  0
 21 40  1  0  0  0
 21 41  1  0  0  0
 23 42  1  0  0  0
 24 25  1  0  0  0
 24 43  1  0  0  0
 24 44  1  0  0  0
 25 45  1  0  0  0
 25 46  1  0  0  0
 26 31  1  0  0  0
 26 47  1  0  0  0
 27 32  1  0  0  0
 27 48  1  0  0  0
 27 49  1  0  0  0
 28 50  1  0  0  0
 29 51  1  0  0  0
 30 52  1  0  0  0
 30 53  1  0  0  0
 30 54  1  0  0  0
 31 32  1  0  0  0
 31 55  1  0  0  0
 31 56  1  0  0  0
 32 57  1  0  0  0
 32 58  1  0  0  0
M  END
> <s_m_entry_id>
24879

> <s_m_entry_name>
dock_pv.32

> <s_m_Source_Path>
/home/csk/Desktop/cluster/DUD-E-result/pur2

> <s_m_Source_File>
dock_pv.maegz

> <i_m_Source_File_Index>
32

> <chembl_id>
CHEMBL30301

> <chembl_pref_name>
None

> <i_lp_mmshare_version>
53161

> <r_lp_tautomer_probability>
0.0160304617775627

> <s_lp_Force_Field>
OPLS_2005

> <r_lp_Energy>
8.681564

> <b_lp_Chiralities_Consistent>
1

> <s_lp_Variant>
CHEMBL3972_lig26-4

> <s_i_glide_gridfile>
glide-grid_1njs

> <i_i_glide_lignum>
83

> <i_i_glide_rotatable_bonds>
15

> <r_i_docking_score>
-11.7151550335005

> <r_i_glide_ligand_efficiency>
-0.366098594796892

> <r_i_glide_ligand_efficiency_sa>
-1.1622905876666

> <r_i_glide_ligand_efficiency_ln>
-2.62334255506599

> <r_i_glide_gscore>
-11.7151550335005

> <r_i_glide_lipo>
-2.43537967189543

> <r_i_glide_hbond>
-1.60160745594212

> <r_i_glide_metal>
0

> <r_i_glide_rewards>
-2.95628190699186

> <r_i_glide_evdw>
-61.7064971923828

> <r_i_glide_ecoul>
-15.9592370986938

> <r_i_glide_erotb>
0.843547746404895

> <r_i_glide_esite>
-0.0862233206528209

> <r_i_glide_emodel>
-124.587687220651

> <r_i_glide_energy>
-77.6657342910767

> <r_i_glide_einternal>
13.526741027832

> <i_i_glide_confnum>
104

> <i_i_glide_posenum>
326

> <r_i_glide_eff_state_penalty>
0

> <s_user_duplicate_titles>
CHEMBL3972_lig26,CHEMBL3972_lig26

> <i_f3d_flags>
0

> <s_m_subgroup_title>
dock_pv

> <s_m_subgroupid>
dock_pv

> <b_m_subgroup_collapsed>
1

$$$$
CHEMBL3972_lig43
                    3D
 Schrodinger Suite 2021-1.
 60 61  0  0  1  0            999 V2000
   77.2177   26.6773   27.1513 N   0  0  0  0  0  0
   78.3982   26.2576   27.7354 C   0  0  0  0  0  0
   78.5588   25.0299   28.0918 N   0  0  0  0  0  0
   76.0896   25.9328   26.8883 C   0  0  0  0  0  0
   76.2533   24.5815   27.4005 C   0  0  0  0  0  0
   77.4809   24.2171   27.9351 C   0  0  0  0  0  0
   77.4240   22.9053   28.2983 N   0  0  0  0  0  0
   76.1830   22.4067   28.0000 C   0  0  0  0  0  0
   75.4418   23.4448   27.4317 C   0  0  0  0  0  0
   79.4276   27.1910   27.9328 N   0  0  0  0  0  0
   75.1462   26.3901   26.2444 O   0  0  0  0  0  0
   75.8979   20.9555   28.2639 C   0  0  0  0  0  0
   74.7807   20.3913   27.3708 C   0  0  0  0  0  0
   73.3708   20.7195   27.8900 C   0  0  0  0  0  0
   72.3519   19.5805   27.6774 C   0  0  0  0  0  0
   71.2600   19.5982   28.7388 C   0  0  0  0  0  0
   70.3319   20.8193   28.7409 C   0  0  0  0  0  0
   69.5968   20.9925   30.0890 C   0  0  0  0  0  0
   68.1934   20.3597   30.1713 C   0  0  0  0  0  0
   68.0889   18.8312   30.2382 C   0  0  0  0  0  0
   67.6177   18.3112   31.3811 N   0  0  0  0  0  0
   68.3738   18.1369   29.2664 O   0  0  0  0  0  0
   67.5488   16.8737   31.6917 C   0  0  2  0  0  0
   66.3671   16.0833   31.0752 C   0  0  0  0  0  0
   67.5785   16.7144   33.2248 C   0  0  0  0  0  0
   65.4529   16.9081   30.4910 O   0  0  0  0  0  0
   66.2810   14.8739   31.1436 O   0  0  0  0  0  0
   68.8885   17.2247   33.8553 C   0  0  0  0  0  0
   68.7937   17.3214   35.3721 C   0  0  0  0  0  0
   68.0480   18.3908   35.7729 O   0  0  0  0  0  0
   69.3310   16.5277   36.1396 O   0  0  0  0  0  0
   77.2060   27.6074   26.7542 H   0  0  0  0  0  0
   78.1780   22.3792   28.7170 H   0  0  0  0  0  0
   74.4275   23.3872   27.0633 H   0  0  0  0  0  0
   80.2284   26.9046   28.4837 H   0  0  0  0  0  0
   79.1939   28.1643   28.0902 H   0  0  0  0  0  0
   75.6756   20.7911   29.3190 H   0  0  0  0  0  0
   76.8081   20.3910   28.0911 H   0  0  0  0  0  0
   74.8978   19.3121   27.2907 H   0  0  0  0  0  0
   74.8988   20.7608   26.3583 H   0  0  0  0  0  0
   73.0040   21.6359   27.4291 H   0  0  0  0  0  0
   73.4362   20.9416   28.9561 H   0  0  0  0  0  0
   72.8543   18.6153   27.7528 H   0  0  0  0  0  0
   71.9049   19.5969   26.6838 H   0  0  0  0  0  0
   71.7801   19.5911   29.6910 H   0  0  0  0  0  0
   70.6867   18.6779   28.6599 H   0  0  0  0  0  0
   69.6330   20.7697   27.9041 H   0  0  0  0  0  0
   70.9238   21.7191   28.5695 H   0  0  0  0  0  0
   69.4687   22.0668   30.2397 H   0  0  0  0  0  0
   70.2259   20.6652   30.9150 H   0  0  0  0  0  0
   67.6888   20.6829   29.2912 H   0  0  0  0  0  0
   67.6223   20.7924   30.9886 H   0  0  0  0  0  0
   67.3793   18.9332   32.1447 H   0  0  0  0  0  0
   68.4477   16.4042   31.2865 H   0  0  0  0  0  0
   67.4506   15.6626   33.4903 H   0  0  0  0  0  0
   66.7205   17.2325   33.6577 H   0  0  0  0  0  0
   65.7617   17.8154   30.5133 H   0  0  0  0  0  0
   69.1756   18.2031   33.4701 H   0  0  0  0  0  0
   69.7008   16.5455   33.5981 H   0  0  0  0  0  0
   67.6933   18.9196   35.0455 H   0  0  0  0  0  0
  1  2  1  0  0  0
  1  4  1  0  0  0
  1 32  1  0  0  0
  2  3  2  0  0  0
  2 10  1  0  0  0
  3  6  1  0  0  0
  4  5  1  0  0  0
  4 11  2  0  0  0
  5  6  2  0  0  0
  5  9  1  0  0  0
  6  7  1  0  0  0
  7  8  1  0  0  0
  7 33  1  0  0  0
  8  9  2  0  0  0
  8 12  1  0  0  0
  9 34  1  0  0  0
 10 35  1  0  0  0
 10 36  1  0  0  0
 12 13  1  0  0  0
 12 37  1  0  0  0
 12 38  1  0  0  0
 13 14  1  0  0  0
 13 39  1  0  0  0
 13 40  1  0  0  0
 14 15  1  0  0  0
 14 41  1  0  0  0
 14 42  1  0  0  0
 15 16  1  0  0  0
 15 43  1  0  0  0
 15 44  1  0  0  0
 16 17  1  0  0  0
 16 45  1  0  0  0
 16 46  1  0  0  0
 17 18  1  0  0  0
 17 47  1  0  0  0
 17 48  1  0  0  0
 18 19  1  0  0  0
 18 49  1  0  0  0
 18 50  1  0  0  0
 19 20  1  0  0  0
 19 51  1  0  0  0
 19 52  1  0  0  0
 20 21  1  0  0  0
 20 22  2  0  0  0
 21 23  1  0  0  0
 21 53  1  0  0  0
 23 24  1  0  0  0
 23 25  1  0  0  0
 23 54  1  0  0  0
 24 26  1  0  0  0
 24 27  2  0  0  0
 25 28  1  0  0  0
 25 55  1  0  0  0
 25 56  1  0  0  0
 26 57  1  0  0  0
 28 29  1  0  0  0
 28 58  1  0  0  0
 28 59  1  0  0  0
 29 30  1  0  0  0
 29 31  2  0  0  0
 30 60  1  0  0  0
M  END
> <s_m_entry_id>
24880

> <s_m_entry_name>
dock_pv.33

> <s_m_Source_Path>
/home/csk/Desktop/cluster/DUD-E-result/pur2

> <s_m_Source_File>
dock_pv.maegz

> <i_m_Source_File_Index>
33

> <chembl_id>
CHEMBL3086867

> <chembl_pref_name>
None

> <i_lp_mmshare_version>
53161

> <r_lp_tautomer_probability>
1

> <s_lp_Force_Field>
OPLS_2005

> <r_lp_Energy>
10.425771

> <b_lp_Chiralities_Consistent>
1

> <s_lp_Variant>
CHEMBL3972_lig43-1

> <s_i_glide_gridfile>
glide-grid_1njs

> <i_i_glide_lignum>
113

> <i_i_glide_rotatable_bonds>
17

> <r_i_docking_score>
-11.6951937931012

> <r_i_glide_ligand_efficiency>
-0.37726431590649

> <r_i_glide_ligand_efficiency_sa>
-1.18513082146975

> <r_i_glide_ligand_efficiency_ln>
-2.63762461499011

> <r_i_glide_gscore>
-11.6951937931012

> <r_i_glide_lipo>
-2.15139205793767

> <r_i_glide_hbond>
-1.83481013343029

> <r_i_glide_metal>
0

> <r_i_glide_rewards>
-3.62106801234305

> <r_i_glide_evdw>
-42.5721588134766

> <r_i_glide_ecoul>
-20.4167747497559

> <r_i_glide_erotb>
1.103200563747

> <r_i_glide_esite>
0

> <r_i_glide_emodel>
-96.6564817045065

> <r_i_glide_energy>
-62.9889335632324

> <r_i_glide_einternal>
11.6715259552002

> <i_i_glide_confnum>
99

> <i_i_glide_posenum>
65

> <r_i_glide_eff_state_penalty>
0

> <s_user_duplicate_titles>
CHEMBL3972_lig43

> <i_f3d_flags>
0

> <s_m_subgroup_title>
dock_pv

> <s_m_subgroupid>
dock_pv

> <b_m_subgroup_collapsed>
1

$$$$
CHEMBL3972_lig25
                    3D
 Schrodinger Suite 2021-1.
 54 55  0  0  1  0            999 V2000
   78.5372   24.7751   27.9829 N   0  0  0  0  0  0
   77.5594   23.8637   27.7370 C   0  0  0  0  0  0
   77.1198   26.3903   27.1875 N   0  0  0  0  0  0
   76.3394   24.1719   27.2426 C   0  0  0  0  0  0
   76.0879   25.5632   26.8916 C   0  0  0  0  0  0
   78.3143   26.0095   27.7186 C   0  0  0  0  0  0
   68.0893   18.0359   29.0846 C   0  0  0  0  0  0
   67.9618   17.1297   28.0988 N   0  0  0  0  0  0
   66.6303   15.2829   29.2925 C   0  0  0  0  0  0
   66.9720   16.0441   27.9864 C   0  0  2  0  0  0
   69.1310   19.1132   28.8914 C   0  0  0  0  0  0
   75.0606   25.9911   26.3743 O   0  0  0  0  0  0
   68.6105   12.8130   27.3761 C   0  0  0  0  0  0
   67.3791   18.0388   30.0914 O   0  0  0  0  0  0
   77.9133   22.6106   28.0910 N   0  0  0  0  0  0
   67.4662   14.7796   30.0175 O   0  0  0  0  0  0
   79.2893   26.9834   27.9865 N   0  0  0  0  0  0
   68.7970   11.9814   26.4907 O   0  0  0  0  0  0
   67.4484   15.0631   26.8912 C   0  0  0  0  0  0
   69.0645   20.2657   29.6905 C   0  0  0  0  0  0
   70.2203   18.9475   28.0265 C   0  0  0  0  0  0
   68.7852   14.3199   27.1732 C   0  0  0  0  0  0
   75.2178   23.1576   27.0055 C   0  0  0  0  0  0
   65.2793   15.1916   29.4491 O   0  0  0  0  0  0
   71.2065   21.0038   28.8584 C   0  0  0  0  0  0
   68.2035   12.4943   28.6386 O   0  0  0  0  0  0
   70.1026   21.1909   29.6845 C   0  0  0  0  0  0
   71.2517   19.8831   28.0143 C   0  0  0  0  0  0
   72.1981   21.9609   28.9446 O   0  0  0  0  0  0
   73.3410   21.8391   28.1086 C   0  0  0  0  0  0
   74.1645   23.1321   28.1301 C   0  0  0  0  0  0
   68.5325   17.2666   27.2804 H   0  0  0  0  0  0
   66.0697   16.5374   27.6143 H   0  0  0  0  0  0
   76.9864   27.3501   26.9153 H   0  0  0  0  0  0
   77.2357   21.8698   28.0464 H   0  0  0  0  0  0
   78.7963   22.4284   28.5339 H   0  0  0  0  0  0
   80.1438   26.7426   28.4760 H   0  0  0  0  0  0
   79.0690   27.9688   27.9781 H   0  0  0  0  0  0
   67.5605   15.6430   25.9723 H   0  0  0  0  0  0
   66.6452   14.3586   26.6587 H   0  0  0  0  0  0
   68.2314   20.4256   30.3627 H   0  0  0  0  0  0
   70.3147   18.0808   27.3898 H   0  0  0  0  0  0
   69.2908   14.7408   28.0415 H   0  0  0  0  0  0
   69.4716   14.4714   26.3382 H   0  0  0  0  0  0
   75.6514   22.1632   26.8996 H   0  0  0  0  0  0
   74.7361   23.3476   26.0446 H   0  0  0  0  0  0
   64.7831   15.6740   28.7838 H   0  0  0  0  0  0
   68.0893   13.2755   29.1991 H   0  0  0  0  0  0
   70.0533   22.0599   30.3259 H   0  0  0  0  0  0
   72.0873   19.7041   27.3551 H   0  0  0  0  0  0
   73.9510   20.9907   28.4252 H   0  0  0  0  0  0
   73.0258   21.6570   27.0883 H   0  0  0  0  0  0
   73.5039   23.9939   28.0244 H   0  0  0  0  0  0
   74.6433   23.2236   29.1067 H   0  0  0  0  0  0
  1  2  1  0  0  0
  1  6  2  0  0  0
  2  4  2  0  0  0
  2 15  1  0  0  0
  3  6  1  0  0  0
  3 34  1  0  0  0
  3  5  1  0  0  0
  4 23  1  0  0  0
  4  5  1  0  0  0
  5 12  2  0  0  0
  6 17  1  0  0  0
  7 11  1  0  0  0
  7  8  1  0  0  0
  7 14  2  0  0  0
  8 10  1  0  0  0
  8 32  1  0  0  0
  9 10  1  0  0  0
  9 16  2  0  0  0
  9 24  1  0  0  0
 10 19  1  0  0  0
 10 33  1  0  0  0
 11 21  1  0  0  0
 11 20  2  0  0  0
 13 22  1  0  0  0
 13 18  2  0  0  0
 13 26  1  0  0  0
 15 35  1  0  0  0
 15 36  1  0  0  0
 17 37  1  0  0  0
 17 38  1  0  0  0
 19 22  1  0  0  0
 19 39  1  0  0  0
 19 40  1  0  0  0
 20 27  1  0  0  0
 20 41  1  0  0  0
 21 28  2  0  0  0
 21 42  1  0  0  0
 22 43  1  0  0  0
 22 44  1  0  0  0
 23 31  1  0  0  0
 23 45  1  0  0  0
 23 46  1  0  0  0
 24 47  1  0  0  0
 25 29  1  0  0  0
 25 27  2  0  0  0
 25 28  1  0  0  0
 26 48  1  0  0  0
 27 49  1  0  0  0
 28 50  1  0  0  0
 29 30  1  0  0  0
 30 31  1  0  0  0
 30 51  1  0  0  0
 30 52  1  0  0  0
 31 53  1  0  0  0
 31 54  1  0  0  0
M  END
> <s_m_entry_id>
24881

> <s_m_entry_name>
dock_pv.34

> <s_m_Source_Path>
/home/csk/Desktop/cluster/DUD-E-result/pur2

> <s_m_Source_File>
dock_pv.maegz

> <i_m_Source_File_Index>
34

> <chembl_id>
CHEMBL31609

> <chembl_pref_name>
None

> <i_lp_mmshare_version>
53161

> <r_lp_tautomer_probability>
0.982528302960407

> <s_lp_Force_Field>
OPLS_2005

> <r_lp_Energy>
19.748764

> <b_lp_Chiralities_Consistent>
1

> <s_lp_Variant>
CHEMBL3972_lig25-2

> <s_i_glide_gridfile>
glide-grid_1njs

> <i_i_glide_lignum>
77

> <i_i_glide_rotatable_bonds>
14

> <r_i_docking_score>
-11.6777752148859

> <r_i_glide_ligand_efficiency>
-0.376702426286641

> <r_i_glide_ligand_efficiency_sa>
-1.18336571229119

> <r_i_glide_ligand_efficiency_ln>
-2.63369619178724

> <r_i_glide_gscore>
-11.6777752148859

> <r_i_glide_lipo>
-2.6327264985642

> <r_i_glide_hbond>
-1.57461640629216

> <r_i_glide_metal>
0

> <r_i_glide_rewards>
-2.65089200212242

> <r_i_glide_evdw>
-57.729850769043

> <r_i_glide_ecoul>
-20.9202861785889

> <r_i_glide_erotb>
1.27167978883198

> <r_i_glide_esite>
-0.0666846314985942

> <r_i_glide_emodel>
-127.985721450818

> <r_i_glide_energy>
-78.6501369476318

> <r_i_glide_einternal>
8.09412479400635

> <i_i_glide_confnum>
10

> <i_i_glide_posenum>
270

> <r_i_glide_eff_state_penalty>
0

> <s_user_duplicate_titles>
CHEMBL3972_lig25,CHEMBL3972_lig25

> <i_f3d_flags>
0

> <s_m_subgroup_title>
dock_pv

> <s_m_subgroupid>
dock_pv

> <b_m_subgroup_collapsed>
1

$$$$
CHEMBL3972_lig29
                    3D
 Schrodinger Suite 2021-1.
 51 52  0  0  1  0            999 V2000
   78.4888   24.6172   28.0340 N   0  0  0  0  0  0
   77.4828   23.7410   27.7709 C   0  0  0  0  0  0
   77.1107   26.2909   27.2905 N   0  0  0  0  0  0
   76.2665   24.0972   27.2943 C   0  0  0  0  0  0
   76.0534   25.5052   26.9871 C   0  0  0  0  0  0
   78.2949   25.8630   27.7999 C   0  0  0  0  0  0
   69.4339   19.1924   28.5945 C   0  0  0  0  0  0
   71.0250   19.6188   28.0255 S   0  0  0  0  0  0
   68.8890   20.1269   29.3459 N   0  0  0  0  0  0
   68.9320   17.8916   28.2325 C   0  0  0  0  0  0
   70.9033   21.1308   28.8779 C   0  0  0  0  0  0
   68.1386   17.3382   29.1708 N   0  0  0  0  0  0
   69.6707   21.1785   29.5094 C   0  0  0  0  0  0
   66.4075   15.9289   28.0796 C   0  0  0  0  0  0
   67.5273   16.0011   29.1433 C   0  0  1  0  0  0
   75.0411   25.9908   26.4879 O   0  0  0  0  0  0
   68.4908   12.5004   28.1023 C   0  0  0  0  0  0
   69.2673   17.3239   27.1911 O   0  0  0  0  0  0
   77.8065   22.4685   28.0912 N   0  0  0  0  0  0
   65.2661   16.2685   28.3004 O   0  0  0  0  0  0
   79.2892   26.8122   28.0751 N   0  0  0  0  0  0
   69.0340   11.4072   28.2580 O   0  0  0  0  0  0
   71.8839   22.0869   28.8501 N   0  0  0  0  0  0
   68.6192   14.8842   29.0785 C   0  0  0  0  0  0
   68.0939   13.4354   29.2476 C   0  0  0  0  0  0
   75.1084   23.1246   27.0486 C   0  0  0  0  0  0
   66.8754   15.4505   26.8916 O   0  0  0  0  0  0
   68.0927   12.9793   26.8913 O   0  0  0  0  0  0
   73.2039   21.9232   28.2623 C   0  0  0  0  0  0
   73.9673   23.2425   28.0785 C   0  0  0  0  0  0
   67.0247   15.8905   30.1053 H   0  0  0  0  0  0
   67.8803   17.9100   29.9608 H   0  0  0  0  0  0
   69.3104   22.0129   30.0910 H   0  0  0  0  0  0
   76.9963   27.2603   27.0458 H   0  0  0  0  0  0
   77.1100   21.7464   28.0244 H   0  0  0  0  0  0
   78.6565   22.2706   28.5927 H   0  0  0  0  0  0
   80.1732   26.5469   28.4931 H   0  0  0  0  0  0
   79.1224   27.8061   28.0133 H   0  0  0  0  0  0
   71.7075   23.0238   29.1912 H   0  0  0  0  0  0
   69.3378   15.0667   29.8797 H   0  0  0  0  0  0
   69.2130   14.9816   28.1682 H   0  0  0  0  0  0
   67.0077   13.4226   29.3392 H   0  0  0  0  0  0
   68.4747   13.0173   30.1806 H   0  0  0  0  0  0
   75.4862   22.1014   27.0470 H   0  0  0  0  0  0
   74.7123   23.2676   26.0414 H   0  0  0  0  0  0
   66.1975   15.5908   26.2060 H   0  0  0  0  0  0
   67.6776   13.8523   26.9646 H   0  0  0  0  0  0
   73.8022   21.2204   28.8442 H   0  0  0  0  0  0
   73.0721   21.4578   27.2903 H   0  0  0  0  0  0
   73.2893   24.0319   27.7553 H   0  0  0  0  0  0
   74.3489   23.5598   29.0501 H   0  0  0  0  0  0
  1  2  1  0  0  0
  1  6  2  0  0  0
  2  4  2  0  0  0
  2 19  1  0  0  0
  3  6  1  0  0  0
  3 34  1  0  0  0
  3  5  1  0  0  0
  4 26  1  0  0  0
  4  5  1  0  0  0
  5 16  2  0  0  0
  6 21  1  0  0  0
  7  8  1  0  0  0
  7 10  1  0  0  0
  7  9  2  0  0  0
  8 11  1  0  0  0
  9 13  1  0  0  0
 10 12  1  0  0  0
 10 18  2  0  0  0
 11 23  1  0  0  0
 11 13  2  0  0  0
 12 15  1  0  0  0
 12 32  1  0  0  0
 13 33  1  0  0  0
 14 15  1  0  0  0
 14 20  2  0  0  0
 14 27  1  0  0  0
 15 24  1  0  0  0
 15 31  1  0  0  0
 17 25  1  0  0  0
 17 22  2  0  0  0
 17 28  1  0  0  0
 19 35  1  0  0  0
 19 36  1  0  0  0
 21 37  1  0  0  0
 21 38  1  0  0  0
 23 29  1  0  0  0
 23 39  1  0  0  0
 24 25  1  0  0  0
 24 40  1  0  0  0
 24 41  1  0  0  0
 25 42  1  0  0  0
 25 43  1  0  0  0
 26 30  1  0  0  0
 26 44  1  0  0  0
 26 45  1  0  0  0
 27 46  1  0  0  0
 28 47  1  0  0  0
 29 30  1  0  0  0
 29 48  1  0  0  0
 29 49  1  0  0  0
 30 50  1  0  0  0
 30 51  1  0  0  0
M  END
> <s_m_entry_id>
24882

> <s_m_entry_name>
dock_pv.35

> <s_m_Source_Path>
/home/csk/Desktop/cluster/DUD-E-result/pur2

> <s_m_Source_File>
dock_pv.maegz

> <i_m_Source_File_Index>
35

> <chembl_id>
CHEMBL294768

> <chembl_pref_name>
None

> <i_lp_mmshare_version>
53161

> <r_lp_tautomer_probability>
0.982528302960407

> <s_lp_Force_Field>
OPLS_2005

> <r_lp_Energy>
15.809608

> <b_lp_Chiralities_Consistent>
1

> <s_lp_Variant>
CHEMBL3972_lig29-1

> <s_i_glide_gridfile>
glide-grid_1njs

> <i_i_glide_lignum>
93

> <i_i_glide_rotatable_bonds>
14

> <r_i_docking_score>
-11.6346077656714

> <r_i_glide_ligand_efficiency>
-0.387820258855712

> <r_i_glide_ligand_efficiency_sa>
-1.20504771341771

> <r_i_glide_ligand_efficiency_ln>
-2.64350965356556

> <r_i_glide_gscore>
-11.6346077656714

> <r_i_glide_lipo>
-2.19495550753371

> <r_i_glide_hbond>
-1.15900455294721

> <r_i_glide_metal>
0

> <r_i_glide_rewards>
-2.63597191871891

> <r_i_glide_evdw>
-59.8845481872559

> <r_i_glide_ecoul>
-22.7278709411621

> <r_i_glide_erotb>
0.868139773686489

> <r_i_glide_esite>
-0.109407509620931

> <r_i_glide_emodel>
-136.644918163042

> <r_i_glide_energy>
-82.612419128418

> <r_i_glide_einternal>
12.4792776107788

> <i_i_glide_confnum>
98

> <i_i_glide_posenum>
283

> <r_i_glide_eff_state_penalty>
0

> <s_user_duplicate_titles>
CHEMBL3972_lig29

> <i_f3d_flags>
0

> <s_m_subgroup_title>
dock_pv

> <s_m_subgroupid>
dock_pv

> <b_m_subgroup_collapsed>
1

$$$$
CHEMBL3972_lig18
                    3D
 Schrodinger Suite 2021-1.
 55 56  0  0  1  0            999 V2000
   78.5872   24.8094   28.0336 N   0  0  0  0  0  0
   77.6248   23.8876   27.7708 C   0  0  0  0  0  0
   77.1322   26.4151   27.2907 N   0  0  0  0  0  0
   76.3971   24.1909   27.2892 C   0  0  0  0  0  0
   76.1119   25.5830   26.9851 C   0  0  0  0  0  0
   78.3370   26.0458   27.7986 C   0  0  0  0  0  0
   69.6903   18.3790   28.0957 C   0  0  0  0  0  0
   68.8886   17.1143   27.9104 C   0  0  0  0  0  0
   68.1353   16.7318   28.9584 N   0  0  0  0  0  0
   69.2655   19.4621   28.8912 C   0  0  0  0  0  0
   66.1391   15.5419   28.0788 C   0  0  0  0  0  0
   67.3179   15.5134   29.0775 C   0  0  1  0  0  0
   70.9354   18.4650   27.4720 C   0  0  0  0  0  0
   70.0768   20.5883   29.0519 C   0  0  0  0  0  0
   75.0695   26.0017   26.4904 O   0  0  0  0  0  0
   69.9879   12.7330   30.0806 C   0  0  0  0  0  0
   69.0253   16.4361   26.8906 O   0  0  0  0  0  0
   78.0038   22.6298   28.0910 N   0  0  0  0  0  0
   65.0620   16.0329   28.3377 O   0  0  0  0  0  0
   79.2889   27.0394   28.0708 N   0  0  0  0  0  0
   69.4250   11.6821   29.7747 O   0  0  0  0  0  0
   68.1708   14.2053   29.0213 C   0  0  0  0  0  0
   71.3381   20.6429   28.4627 C   0  0  0  0  0  0
   68.0895   19.4265   29.5584 F   0  0  0  0  0  0
   69.3083   14.1095   30.0644 C   0  0  0  0  0  0
   75.2954   23.1759   27.0098 C   0  0  0  0  0  0
   71.7618   19.5549   27.6907 C   0  0  0  0  0  0
   66.4890   14.9690   26.8910 O   0  0  0  0  0  0
   72.1336   21.7873   28.6508 N   0  0  0  0  0  0
   71.2884   12.7897   30.4909 O   0  0  0  0  0  0
   73.4084   21.8513   27.9506 C   0  0  0  0  0  0
   74.1880   23.1529   28.0784 C   0  0  0  0  0  0
   68.0422   17.3897   29.7188 H   0  0  0  0  0  0
   66.8620   15.5515   30.0678 H   0  0  0  0  0  0
   71.2947   17.6702   26.8366 H   0  0  0  0  0  0
   69.7292   21.4069   29.6647 H   0  0  0  0  0  0
   76.9786   27.3777   27.0406 H   0  0  0  0  0  0
   77.3397   21.8785   28.0224 H   0  0  0  0  0  0
   78.8881   22.4496   28.5344 H   0  0  0  0  0  0
   80.1797   26.8055   28.4919 H   0  0  0  0  0  0
   79.0687   28.0264   28.0444 H   0  0  0  0  0  0
   68.6157   14.0894   28.0316 H   0  0  0  0  0  0
   67.5029   13.3522   29.1463 H   0  0  0  0  0  0
   68.9182   14.3070   31.0633 H   0  0  0  0  0  0
   70.0523   14.8783   29.8578 H   0  0  0  0  0  0
   75.7378   22.1830   26.9279 H   0  0  0  0  0  0
   74.8584   23.3587   26.0252 H   0  0  0  0  0  0
   72.7264   19.5425   27.2091 H   0  0  0  0  0  0
   65.8380   15.1915   26.1989 H   0  0  0  0  0  0
   71.6690   22.6648   28.8469 H   0  0  0  0  0  0
   71.6102   13.6795   30.6586 H   0  0  0  0  0  0
   74.0414   21.0007   28.2117 H   0  0  0  0  0  0
   73.2020   21.7070   26.8943 H   0  0  0  0  0  0
   73.5279   24.0123   27.9529 H   0  0  0  0  0  0
   74.6035   23.2263   29.0842 H   0  0  0  0  0  0
  1  2  1  0  0  0
  1  6  2  0  0  0
  2  4  2  0  0  0
  2 18  1  0  0  0
  3  6  1  0  0  0
  3 37  1  0  0  0
  3  5  1  0  0  0
  4 26  1  0  0  0
  4  5  1  0  0  0
  5 15  2  0  0  0
  6 20  1  0  0  0
  7 13  2  0  0  0
  7  8  1  0  0  0
  7 10  1  0  0  0
  8  9  1  0  0  0
  8 17  2  0  0  0
  9 12  1  0  0  0
  9 33  1  0  0  0
 10 14  2  0  0  0
 10 24  1  0  0  0
 11 12  1  0  0  0
 11 19  2  0  0  0
 11 28  1  0  0  0
 12 22  1  0  0  0
 12 34  1  0  0  0
 13 27  1  0  0  0
 13 35  1  0  0  0
 14 23  1  0  0  0
 14 36  1  0  0  0
 16 25  1  0  0  0
 16 21  2  0  0  0
 16 30  1  0  0  0
 18 38  1  0  0  0
 18 39  1  0  0  0
 20 40  1  0  0  0
 20 41  1  0  0  0
 22 25  1  0  0  0
 22 42  1  0  0  0
 22 43  1  0  0  0
 23 29  1  0  0  0
 23 27  2  0  0  0
 25 44  1  0  0  0
 25 45  1  0  0  0
 26 32  1  0  0  0
 26 46  1  0  0  0
 26 47  1  0  0  0
 27 48  1  0  0  0
 28 49  1  0  0  0
 29 31  1  0  0  0
 29 50  1  0  0  0
 30 51  1  0  0  0
 31 32  1  0  0  0
 31 52  1  0  0  0
 31 53  1  0  0  0
 32 54  1  0  0  0
 32 55  1  0  0  0
M  END
> <s_m_entry_id>
24883

> <s_m_entry_name>
dock_pv.36

> <s_m_Source_Path>
/home/csk/Desktop/cluster/DUD-E-result/pur2

> <s_m_Source_File>
dock_pv.maegz

> <i_m_Source_File_Index>
36

> <chembl_id>
CHEMBL31176

> <chembl_pref_name>
None

> <i_lp_mmshare_version>
53161

> <r_lp_tautomer_probability>
0.982528302960407

> <s_lp_Force_Field>
OPLS_2005

> <r_lp_Energy>
19.207178

> <b_lp_Chiralities_Consistent>
1

> <s_lp_Variant>
CHEMBL3972_lig18-1

> <s_i_glide_gridfile>
glide-grid_1njs

> <i_i_glide_lignum>
46

> <i_i_glide_rotatable_bonds>
14

> <r_i_docking_score>
-11.6324278438295

> <r_i_glide_ligand_efficiency>
-0.363513370119671

> <r_i_glide_ligand_efficiency_sa>
-1.15408301093169

> <r_i_glide_ligand_efficiency_ln>
-2.60481768224061

> <r_i_glide_gscore>
-11.6324278438295

> <r_i_glide_lipo>
-2.48688828337509

> <r_i_glide_hbond>
-1.25348125893083

> <r_i_glide_metal>
0

> <r_i_glide_rewards>
-2.6797739505713

> <r_i_glide_evdw>
-58.5126113891602

> <r_i_glide_ecoul>
-22.7237453460693

> <r_i_glide_erotb>
1.18586114611094

> <r_i_glide_esite>
-0.0639531256947717

> <r_i_glide_emodel>
-133.407175181925

> <r_i_glide_energy>
-81.2363567352295

> <r_i_glide_einternal>
10.9856100082397

> <i_i_glide_confnum>
106

> <i_i_glide_posenum>
299

> <r_i_glide_eff_state_penalty>
0

> <s_user_duplicate_titles>
CHEMBL3972_lig18,CHEMBL3972_lig18

> <i_f3d_flags>
0

> <s_m_subgroup_title>
dock_pv

> <s_m_subgroupid>
dock_pv

> <b_m_subgroup_collapsed>
1

$$$$
CHEMBL3972_lig28
                    3D
 Schrodinger Suite 2021-1.
 56 58  0  0  1  0            999 V2000
   76.8582   23.5788   28.1978 C   0  0  0  0  0  0
   78.0745   24.1898   28.0912 N   0  0  0  0  0  0
   75.6908   24.1295   27.7902 C   0  0  0  0  0  0
   76.9780   25.9976   27.2138 N   0  0  0  0  0  0
   75.7620   25.4188   27.1232 C   0  0  0  0  0  0
   78.1049   25.4047   27.6831 C   0  0  0  0  0  0
   76.8892   22.3910   28.8613 N   0  0  0  0  0  0
   68.4174   17.0608   27.8303 C   0  0  0  0  0  0
   68.0473   16.4330   28.9577 N   0  0  0  0  0  0
   65.6734   15.6214   28.9532 C   0  0  0  0  0  0
   67.1658   15.2603   29.0970 C   0  0  1  0  0  0
   74.3316   23.4793   28.1047 C   0  0  0  0  0  0
   69.3308   18.2424   28.0178 C   0  0  0  0  0  0
   74.8585   25.9879   26.5174 O   0  0  0  0  0  0
   69.2681   12.1792   27.6961 C   0  0  0  0  0  0
   68.0914   16.6786   26.7069 O   0  0  0  0  0  0
   64.8888   15.4863   29.8663 O   0  0  0  0  0  0
   79.2886   26.1567   27.6908 N   0  0  0  0  0  0
   73.3093   21.2594   28.9291 N   0  0  1  0  0  0
   68.4888   11.6175   26.9265 O   0  0  0  0  0  0
   67.5546   14.0277   28.2231 C   0  0  0  0  0  0
   70.5195   18.2898   27.2908 C   0  0  0  0  0  0
   69.0182   19.2981   28.8909 C   0  0  0  0  0  0
   75.7200   21.6036   29.2445 C   0  0  0  0  0  0
   74.4799   21.9441   28.3678 C   0  0  2  0  0  0
   69.0183   13.5500   28.3450 C   0  0  0  0  0  0
   65.3729   16.0897   27.7034 O   0  0  0  0  0  0
   72.0288   21.6005   28.3165 C   0  0  0  0  0  0
   71.0845   20.4071   28.2882 C   0  0  0  0  0  0
   70.4593   11.6348   28.0720 O   0  0  0  0  0  0
   69.8845   20.3905   29.0074 C   0  0  0  0  0  0
   71.4056   19.3422   27.4524 C   0  0  0  0  0  0
   77.7795   22.0252   29.1735 H   0  0  0  0  0  0
   68.3526   16.8401   29.8285 H   0  0  0  0  0  0
   67.2902   14.9552   30.1374 H   0  0  0  0  0  0
   73.6135   23.6755   27.3065 H   0  0  0  0  0  0
   73.9193   23.9578   28.9951 H   0  0  0  0  0  0
   77.0407   26.9063   26.7845 H   0  0  0  0  0  0
   80.1256   25.8224   28.1483 H   0  0  0  0  0  0
   79.2728   27.1528   27.5356 H   0  0  0  0  0  0
   73.4637   20.2571   28.8952 H   0  0  0  0  0  0
   67.3403   14.2254   27.1697 H   0  0  0  0  0  0
   66.8973   13.2037   28.5111 H   0  0  0  0  0  0
   70.7677   17.5078   26.5890 H   0  0  0  0  0  0
   68.0939   19.2986   29.4522 H   0  0  0  0  0  0
   75.5002   21.7903   30.2959 H   0  0  0  0  0  0
   75.9799   20.5484   29.1588 H   0  0  0  0  0  0
   74.6634   21.4890   27.3912 H   0  0  0  0  0  0
   69.2852   13.4849   29.3993 H   0  0  0  0  0  0
   69.6880   14.2794   27.8874 H   0  0  0  0  0  0
   66.1151   16.1813   27.0932 H   0  0  0  0  0  0
   72.1648   21.9440   27.2912 H   0  0  0  0  0  0
   71.5808   22.4329   28.8643 H   0  0  0  0  0  0
   70.9644   12.2085   28.6525 H   0  0  0  0  0  0
   69.6228   21.2205   29.6482 H   0  0  0  0  0  0
   72.3257   19.3573   26.8910 H   0  0  0  0  0  0
  1  3  2  0  0  0
  1  7  1  0  0  0
  1  2  1  0  0  0
  2  6  2  0  0  0
  3 12  1  0  0  0
  3  5  1  0  0  0
  4  6  1  0  0  0
  4 38  1  0  0  0
  4  5  1  0  0  0
  5 14  2  0  0  0
  6 18  1  0  0  0
  7 24  1  0  0  0
  7 33  1  0  0  0
  8 13  1  0  0  0
  8  9  1  0  0  0
  8 16  2  0  0  0
  9 11  1  0  0  0
  9 34  1  0  0  0
 10 11  1  0  0  0
 10 17  2  0  0  0
 10 27  1  0  0  0
 11 21  1  0  0  0
 11 35  1  0  0  0
 12 25  1  0  0  0
 12 36  1  0  0  0
 12 37  1  0  0  0
 13 22  1  0  0  0
 13 23  2  0  0  0
 15 26  1  0  0  0
 15 20  2  0  0  0
 15 30  1  0  0  0
 18 39  1  0  0  0
 18 40  1  0  0  0
 19 25  1  0  0  0
 19 28  1  0  0  0
 19 41  1  0  0  0
 21 26  1  0  0  0
 21 42  1  0  0  0
 21 43  1  0  0  0
 22 32  2  0  0  0
 22 44  1  0  0  0
 23 31  1  0  0  0
 23 45  1  0  0  0
 24 25  1  0  0  0
 24 46  1  0  0  0
 24 47  1  0  0  0
 25 48  1  0  0  0
 26 49  1  0  0  0
 26 50  1  0  0  0
 27 51  1  0  0  0
 28 29  1  0  0  0
 28 52  1  0  0  0
 28 53  1  0  0  0
 29 31  2  0  0  0
 29 32  1  0  0  0
 30 54  1  0  0  0
 31 55  1  0  0  0
 32 56  1  0  0  0
M  END
> <s_m_entry_id>
24884

> <s_m_entry_name>
dock_pv.37

> <s_m_Source_Path>
/home/csk/Desktop/cluster/DUD-E-result/pur2

> <s_m_Source_File>
dock_pv.maegz

> <i_m_Source_File_Index>
37

> <chembl_id>
CHEMBL157230

> <chembl_pref_name>
None

> <i_lp_mmshare_version>
53161

> <r_lp_tautomer_probability>
0.982539515805485

> <s_lp_Force_Field>
OPLS_2005

> <r_lp_Energy>
20.437377

> <b_lp_Chiralities_Consistent>
1

> <s_lp_Variant>
CHEMBL3972_lig28-1

> <s_i_glide_gridfile>
glide-grid_1njs

> <i_i_glide_lignum>
85

> <i_i_glide_rotatable_bonds>
12

> <r_i_docking_score>
-11.6272209916674

> <r_i_glide_ligand_efficiency>
-0.363350655989605

> <r_i_glide_ligand_efficiency_sa>
-1.15356642576982

> <r_i_glide_ligand_efficiency_ln>
-2.60365172610809

> <r_i_glide_gscore>
-11.6272209916674

> <r_i_glide_lipo>
-2.15298165724707

> <r_i_glide_hbond>
-1.52892009379507

> <r_i_glide_metal>
0

> <r_i_glide_rewards>
-2.63754577234644

> <r_i_glide_evdw>
-61.7544097900391

> <r_i_glide_ecoul>
-19.4698085784912

> <r_i_glide_erotb>
0.708759513401454

> <r_i_glide_esite>
-0.00834120540460417

> <r_i_glide_emodel>
-129.111783309157

> <r_i_glide_energy>
-81.2242183685303

> <r_i_glide_einternal>
10.7719736099243

> <i_i_glide_confnum>
46

> <i_i_glide_posenum>
110

> <r_i_glide_eff_state_penalty>
0

> <s_user_duplicate_titles>
CHEMBL3972_lig28,CHEMBL3972_lig28

> <i_f3d_flags>
0

> <s_m_subgroup_title>
dock_pv

> <s_m_subgroupid>
dock_pv

> <b_m_subgroup_collapsed>
1

$$$$
CHEMBL3972_lig26
                    3D
 Schrodinger Suite 2021-1.
 58 59  0  0  1  0            999 V2000
   78.5861   24.7948   28.0443 N   0  0  0  0  0  0
   77.6255   23.8711   27.7826 C   0  0  0  0  0  0
   77.1302   26.3941   27.2908 N   0  0  0  0  0  0
   76.3944   24.1698   27.3071 C   0  0  0  0  0  0
   76.1059   25.5619   26.9979 C   0  0  0  0  0  0
   78.3358   26.0289   27.8017 C   0  0  0  0  0  0
   68.7222   17.2259   27.4033 C   0  0  0  0  0  0
   67.5705   17.0837   28.0922 N   0  0  0  0  0  0
   69.6397   18.3619   27.8014 C   0  0  0  0  0  0
   67.0358   14.6397   27.6279 C   0  0  0  0  0  0
   66.5178   16.0859   27.8236 C   0  0  1  0  0  0
   69.2420   19.4055   28.6526 C   0  0  0  0  0  0
   70.1167   20.4507   28.9755 C   0  0  0  0  0  0
   75.0719   25.9911   26.4912 O   0  0  0  0  0  0
   66.2352   14.9740   30.9828 C   0  0  0  0  0  0
   71.4127   20.4779   28.4372 C   0  0  0  0  0  0
   69.0519   16.4660   26.4910 O   0  0  0  0  0  0
   78.0114   22.6127   28.0910 N   0  0  0  0  0  0
   67.8374   14.0963   28.3603 O   0  0  0  0  0  0
   70.9402   18.3912   27.2914 C   0  0  0  0  0  0
   79.2889   27.0233   28.0696 N   0  0  0  0  0  0
   65.6739   13.8877   30.8485 O   0  0  0  0  0  0
   71.8175   19.4115   27.6255 C   0  0  0  0  0  0
   65.3591   16.1781   28.8622 C   0  0  0  0  0  0
   65.7262   16.2807   30.3656 C   0  0  0  0  0  0
   72.2567   21.5783   28.6950 N   0  0  0  0  0  0
   75.3095   23.1382   27.0216 C   0  0  0  0  0  0
   66.4890   14.0831   26.5050 O   0  0  0  0  0  0
   67.3714   15.1478   31.7169 O   0  0  0  0  0  0
   69.6585   21.5161   29.9576 C   0  0  0  0  0  0
   73.4940   21.7025   27.9434 C   0  0  0  0  0  0
   74.2511   23.0153   28.1289 C   0  0  0  0  0  0
   67.3682   17.7439   28.8231 H   0  0  0  0  0  0
   66.0926   16.4072   26.8736 H   0  0  0  0  0  0
   68.2485   19.4203   29.0762 H   0  0  0  0  0  0
   76.9751   27.3550   27.0338 H   0  0  0  0  0  0
   77.3463   21.8618   28.0281 H   0  0  0  0  0  0
   78.8887   22.4350   28.5484 H   0  0  0  0  0  0
   71.2867   17.6235   26.6178 H   0  0  0  0  0  0
   80.1790   26.7910   28.4929 H   0  0  0  0  0  0
   79.0703   28.0108   28.0375 H   0  0  0  0  0  0
   72.8057   19.3731   27.1951 H   0  0  0  0  0  0
   64.6699   15.3422   28.7199 H   0  0  0  0  0  0
   64.7475   17.0443   28.6085 H   0  0  0  0  0  0
   64.8288   16.5544   30.9223 H   0  0  0  0  0  0
   66.4336   17.0917   30.5354 H   0  0  0  0  0  0
   71.7902   22.4475   28.9181 H   0  0  0  0  0  0
   75.7807   22.1641   26.8910 H   0  0  0  0  0  0
   74.8293   23.3462   26.0620 H   0  0  0  0  0  0
   65.9228   14.6828   25.9822 H   0  0  0  0  0  0
   67.6816   16.0554   31.7316 H   0  0  0  0  0  0
   70.1586   21.2977   30.8909 H   0  0  0  0  0  0
   69.9741   22.5229   29.6910 H   0  0  0  0  0  0
   68.5761   21.5323   30.0906 H   0  0  0  0  0  0
   74.1484   20.8453   28.1131 H   0  0  0  0  0  0
   73.2328   21.6288   26.8915 H   0  0  0  0  0  0
   73.5688   23.8667   28.0881 H   0  0  0  0  0  0
   74.7080   23.0316   29.1192 H   0  0  0  0  0  0
  1  2  1  0  0  0
  1  6  2  0  0  0
  2  4  2  0  0  0
  2 18  1  0  0  0
  3  6  1  0  0  0
  3 36  1  0  0  0
  3  5  1  0  0  0
  4 27  1  0  0  0
  4  5  1  0  0  0
  5 14  2  0  0  0
  6 21  1  0  0  0
  7  9  1  0  0  0
  7  8  1  0  0  0
  7 17  2  0  0  0
  8 11  1  0  0  0
  8 33  1  0  0  0
  9 20  2  0  0  0
  9 12  1  0  0  0
 10 11  1  0  0  0
 10 19  2  0  0  0
 10 28  1  0  0  0
 11 24  1  0  0  0
 11 34  1  0  0  0
 12 13  2  0  0  0
 12 35  1  0  0  0
 13 16  1  0  0  0
 13 30  1  0  0  0
 15 25  1  0  0  0
 15 22  2  0  0  0
 15 29  1  0  0  0
 16 26  1  0  0  0
 16 23  2  0  0  0
 18 37  1  0  0  0
 18 38  1  0  0  0
 20 23  1  0  0  0
 20 39  1  0  0  0
 21 40  1  0  0  0
 21 41  1  0  0  0
 23 42  1  0  0  0
 24 25  1  0  0  0
 24 43  1  0  0  0
 24 44  1  0  0  0
 25 45  1  0  0  0
 25 46  1  0  0  0
 26 31  1  0  0  0
 26 47  1  0  0  0
 27 32  1  0  0  0
 27 48  1  0  0  0
 27 49  1  0  0  0
 28 50  1  0  0  0
 29 51  1  0  0  0
 30 52  1  0  0  0
 30 53  1  0  0  0
 30 54  1  0  0  0
 31 32  1  0  0  0
 31 55  1  0  0  0
 31 56  1  0  0  0
 32 57  1  0  0  0
 32 58  1  0  0  0
M  END
> <s_m_entry_id>
24886

> <s_m_entry_name>
dock_pv.39

> <s_m_Source_Path>
/home/csk/Desktop/cluster/DUD-E-result/pur2

> <s_m_Source_File>
dock_pv.maegz

> <i_m_Source_File_Index>
39

> <chembl_id>
CHEMBL30301

> <chembl_pref_name>
None

> <i_lp_mmshare_version>
53161

> <r_lp_tautomer_probability>
0.982528302960407

> <s_lp_Force_Field>
OPLS_2005

> <r_lp_Energy>
19.043547

> <b_lp_Chiralities_Consistent>
1

> <s_lp_Variant>
CHEMBL3972_lig26-1

> <s_i_glide_gridfile>
glide-grid_1njs

> <i_i_glide_lignum>
80

> <i_i_glide_rotatable_bonds>
14

> <r_i_docking_score>
-11.5637319793438

> <r_i_glide_ligand_efficiency>
-0.361366624354495

> <r_i_glide_ligand_efficiency_sa>
-1.14726751796767

> <r_i_glide_ligand_efficiency_ln>
-2.58943480560374

> <r_i_glide_gscore>
-11.5637319793438

> <r_i_glide_lipo>
-2.85248999441434

> <r_i_glide_hbond>
-1.25646486297446

> <r_i_glide_metal>
0

> <r_i_glide_rewards>
-2.48480968297517

> <r_i_glide_evdw>
-50.3280639648438

> <r_i_glide_ecoul>
-23.8178596496582

> <r_i_glide_erotb>
1.20506820914985

> <r_i_glide_esite>
-0.0859535024388074

> <r_i_glide_emodel>
-123.914114178928

> <r_i_glide_energy>
-74.145923614502

> <r_i_glide_einternal>
11.4041051864624

> <i_i_glide_confnum>
133

> <i_i_glide_posenum>
80

> <r_i_glide_eff_state_penalty>
0

> <s_user_duplicate_titles>
CHEMBL3972_lig26,CHEMBL3972_lig26

> <i_f3d_flags>
0

> <s_m_subgroup_title>
dock_pv

> <s_m_subgroupid>
dock_pv

> <b_m_subgroup_collapsed>
1

$$$$
CHEMBL3972_lig13
                    3D
 Schrodinger Suite 2021-1.
 58 59  0  0  1  0            999 V2000
   78.5266   24.7290   27.9911 N   0  0  0  0  0  0
   77.5475   23.8248   27.7323 C   0  0  0  0  0  0
   77.1182   26.3607   27.2182 N   0  0  0  0  0  0
   76.3320   24.1444   27.2323 C   0  0  0  0  0  0
   76.0830   25.5446   26.9074 C   0  0  0  0  0  0
   78.3077   25.9670   27.7392 C   0  0  0  0  0  0
   68.3971   17.5594   28.5811 C   0  0  0  0  0  0
   68.0523   16.9806   27.4147 N   0  0  0  0  0  0
   66.1398   15.5040   28.1477 C   0  0  0  0  0  0
   67.4048   15.6667   27.2585 C   0  0  2  0  0  0
   69.2265   18.8023   28.4931 C   0  0  0  0  0  0
   75.0569   25.9912   26.4044 O   0  0  0  0  0  0
   69.2731   12.1835   27.1409 C   0  0  0  0  0  0
   71.0006   20.9833   28.6592 C   0  0  0  0  0  0
   68.1179   17.1051   29.6925 O   0  0  0  0  0  0
   71.9207   22.0641   28.7898 N   0  0  0  0  0  0
   77.8921   22.5664   28.0910 N   0  0  0  0  0  0
   66.0876   14.7894   29.1259 O   0  0  0  0  0  0
   79.2825   26.9387   28.0078 N   0  0  0  0  0  0
   69.5052   11.5905   26.0913 O   0  0  0  0  0  0
   68.9388   19.8773   29.3364 C   0  0  0  0  0  0
   70.3654   18.8382   27.6906 C   0  0  0  0  0  0
   69.8164   20.9512   29.4131 C   0  0  0  0  0  0
   71.2425   19.9129   27.7821 C   0  0  0  0  0  0
   68.5117   14.5874   27.4732 C   0  0  0  0  0  0
   75.1978   23.1442   26.9998 C   0  0  0  0  0  0
   68.0790   13.1106   27.3407 C   0  0  0  0  0  0
   65.1242   16.2926   27.6902 O   0  0  0  0  0  0
   70.0537   12.0886   28.2537 O   0  0  0  0  0  0
   74.0989   23.2294   28.0750 C   0  0  0  0  0  0
   73.2606   21.9433   28.1930 C   0  0  0  0  0  0
   71.6888   23.0795   29.8299 C   0  0  0  0  0  0
   68.2233   17.4932   26.5606 H   0  0  0  0  0  0
   67.0736   15.5994   26.2223 H   0  0  0  0  0  0
   76.9836   27.3250   26.9650 H   0  0  0  0  0  0
   77.2161   21.8254   28.0271 H   0  0  0  0  0  0
   78.7627   22.3869   28.5606 H   0  0  0  0  0  0
   80.1593   26.6968   28.4524 H   0  0  0  0  0  0
   79.0866   27.9280   27.9524 H   0  0  0  0  0  0
   68.0652   19.8674   29.9756 H   0  0  0  0  0  0
   70.6121   18.0205   27.0307 H   0  0  0  0  0  0
   69.5609   21.7496   30.0911 H   0  0  0  0  0  0
   72.1203   19.8656   27.1585 H   0  0  0  0  0  0
   68.9559   14.7154   28.4634 H   0  0  0  0  0  0
   69.3231   14.7836   26.7718 H   0  0  0  0  0  0
   75.5997   22.1307   26.9798 H   0  0  0  0  0  0
   74.7639   23.2898   26.0072 H   0  0  0  0  0  0
   67.3979   12.9874   26.4954 H   0  0  0  0  0  0
   67.5437   12.7999   28.2365 H   0  0  0  0  0  0
   65.2910   16.6759   26.8170 H   0  0  0  0  0  0
   70.8552   11.5911   28.0805 H   0  0  0  0  0  0
   73.4513   24.0737   27.8404 H   0  0  0  0  0  0
   74.5266   23.4548   29.0527 H   0  0  0  0  0  0
   73.8404   21.1203   28.6114 H   0  0  0  0  0  0
   73.1029   21.6387   27.1642 H   0  0  0  0  0  0
   71.6758   22.6140   30.8150 H   0  0  0  0  0  0
   72.4440   23.8626   29.8611 H   0  0  0  0  0  0
   70.7325   23.5872   29.6898 H   0  0  0  0  0  0
  1  2  1  0  0  0
  1  6  2  0  0  0
  2  4  2  0  0  0
  2 17  1  0  0  0
  3  6  1  0  0  0
  3 35  1  0  0  0
  3  5  1  0  0  0
  4 26  1  0  0  0
  4  5  1  0  0  0
  5 12  2  0  0  0
  6 19  1  0  0  0
  7 11  1  0  0  0
  7  8  1  0  0  0
  7 15  2  0  0  0
  8 10  1  0  0  0
  8 33  1  0  0  0
  9 10  1  0  0  0
  9 18  2  0  0  0
  9 28  1  0  0  0
 10 25  1  0  0  0
 10 34  1  0  0  0
 11 22  2  0  0  0
 11 21  1  0  0  0
 13 27  1  0  0  0
 13 20  2  0  0  0
 13 29  1  0  0  0
 14 16  1  0  0  0
 14 23  1  0  0  0
 14 24  2  0  0  0
 16 31  1  0  0  0
 16 32  1  0  0  0
 17 36  1  0  0  0
 17 37  1  0  0  0
 19 38  1  0  0  0
 19 39  1  0  0  0
 21 23  2  0  0  0
 21 40  1  0  0  0
 22 24  1  0  0  0
 22 41  1  0  0  0
 23 42  1  0  0  0
 24 43  1  0  0  0
 25 27  1  0  0  0
 25 44  1  0  0  0
 25 45  1  0  0  0
 26 30  1  0  0  0
 26 46  1  0  0  0
 26 47  1  0  0  0
 27 48  1  0  0  0
 27 49  1  0  0  0
 28 50  1  0  0  0
 29 51  1  0  0  0
 30 31  1  0  0  0
 30 52  1  0  0  0
 30 53  1  0  0  0
 31 54  1  0  0  0
 31 55  1  0  0  0
 32 56  1  0  0  0
 32 57  1  0  0  0
 32 58  1  0  0  0
M  END
> <s_m_entry_id>
24887

> <s_m_entry_name>
dock_pv.40

> <s_m_Source_Path>
/home/csk/Desktop/cluster/DUD-E-result/pur2

> <s_m_Source_File>
dock_pv.maegz

> <i_m_Source_File_Index>
40

> <chembl_id>
CHEMBL153550

> <chembl_pref_name>
None

> <i_lp_mmshare_version>
53161

> <r_lp_tautomer_probability>
0.982528302960407

> <s_lp_Force_Field>
OPLS_2005

> <r_lp_Energy>
21.693238

> <b_lp_Chiralities_Consistent>
1

> <s_lp_Variant>
CHEMBL3972_lig13-2

> <s_i_glide_gridfile>
glide-grid_1njs

> <i_i_glide_lignum>
25

> <i_i_glide_rotatable_bonds>
14

> <r_i_docking_score>
-11.5399948331875

> <r_i_glide_ligand_efficiency>
-0.360624838537108

> <r_i_glide_ligand_efficiency_sa>
-1.14491249479668

> <r_i_glide_ligand_efficiency_ln>
-2.58411941152916

> <r_i_glide_gscore>
-11.5399948331875

> <r_i_glide_lipo>
-2.48517369493139

> <r_i_glide_hbond>
-1.49642618597136

> <r_i_glide_metal>
0

> <r_i_glide_rewards>
-1.9385507728277

> <r_i_glide_evdw>
-64.9970245361328

> <r_i_glide_ecoul>
-20.9152774810791

> <r_i_glide_erotb>
0.843547746404895

> <r_i_glide_esite>
-0.076249076893408

> <r_i_glide_emodel>
-145.615454593715

> <r_i_glide_energy>
-85.9123020172119

> <r_i_glide_einternal>
13.7494068145752

> <i_i_glide_confnum>
299

> <i_i_glide_posenum>
210

> <r_i_glide_eff_state_penalty>
0

> <s_user_duplicate_titles>
CHEMBL3972_lig13,CHEMBL3972_lig13

> <i_f3d_flags>
0

> <s_m_subgroup_title>
dock_pv

> <s_m_subgroupid>
dock_pv

> <b_m_subgroup_collapsed>
1

$$$$
CHEMBL3972_lig73
                    3D
 Schrodinger Suite 2021-1.
 52 54  0  0  1  0            999 V2000
   75.9799   24.6293   27.2548 C   0  0  0  0  0  0
   77.0070   24.0893   27.9490 C   0  0  0  0  0  0
   78.1640   24.7683   28.2119 N   0  0  0  0  0  0
   77.2441   26.5801   27.1460 N   0  0  0  0  0  0
   76.0889   25.9901   26.7857 C   0  0  0  0  0  0
   78.2576   25.9927   27.8256 C   0  0  0  0  0  0
   72.8904   23.1063   33.1265 C   0  0  0  0  0  0
   74.4887   23.7599   26.8906 S   0  0  0  0  0  0
   73.1390   23.3668   34.5282 C   0  0  0  0  0  0
   73.2896   21.5920   32.3486 S   0  0  0  0  0  0
   76.9473   22.8301   28.4910 N   0  0  0  0  0  0
   73.3593   22.2804   35.2935 N   0  0  0  0  0  0
   72.3751   23.9927   32.1941 C   0  0  0  0  0  0
   72.6698   22.1252   30.8125 C   0  0  0  0  0  0
   73.1702   20.9473   37.4151 C   0  0  0  0  0  0
   73.5816   22.2846   36.7485 C   0  0  1  0  0  0
   72.2171   23.4374   30.9241 C   0  0  0  0  0  0
   75.2745   26.5916   26.0910 O   0  0  0  0  0  0
   77.4942   22.2258   36.5161 C   0  0  0  0  0  0
   73.1077   24.5142   34.9720 O   0  0  0  0  0  0
   73.7601   20.4560   38.3553 O   0  0  0  0  0  0
   79.3793   26.7831   28.0912 N   0  0  0  0  0  0
   78.0890   22.7904   37.4294 O   0  0  0  0  0  0
   74.4582   22.7431   28.3911 C   0  0  2  0  0  0
   75.0480   22.7013   37.0481 C   0  0  0  0  0  0
   75.7788   21.9355   28.5098 C   0  0  0  0  0  0
   76.0960   21.6445   36.6374 C   0  0  0  0  0  0
   72.6881   21.2107   29.6069 C   0  0  0  0  0  0
   72.0890   20.3912   36.8001 O   0  0  0  0  0  0
   78.0346   21.9911   35.2912 O   0  0  0  0  0  0
   73.1560   21.9016   28.3092 C   0  0  0  0  0  0
   77.7513   22.4938   28.9974 H   0  0  0  0  0  0
   73.4142   21.3787   34.8429 H   0  0  0  0  0  0
   72.0907   25.0086   32.4279 H   0  0  0  0  0  0
   72.9225   23.0391   37.1830 H   0  0  0  0  0  0
   71.7983   23.9896   30.0929 H   0  0  0  0  0  0
   77.3565   27.5139   26.7789 H   0  0  0  0  0  0
   80.1777   26.3343   28.5220 H   0  0  0  0  0  0
   79.6981   27.3747   27.3406 H   0  0  0  0  0  0
   74.3932   23.4514   29.2171 H   0  0  0  0  0  0
   75.1517   22.9049   38.1153 H   0  0  0  0  0  0
   75.2643   23.6540   36.5605 H   0  0  0  0  0  0
   75.7840   21.3575   29.4352 H   0  0  0  0  0  0
   75.8524   21.2192   27.6911 H   0  0  0  0  0  0
   75.8056   21.1908   35.6911 H   0  0  0  0  0  0
   76.1281   20.8332   37.3646 H   0  0  0  0  0  0
   73.2946   20.3310   29.7955 H   0  0  0  0  0  0
   71.6852   20.8134   29.4450 H   0  0  0  0  0  0
   71.6196   20.9859   36.2005 H   0  0  0  0  0  0
   77.4088   21.5019   34.7444 H   0  0  0  0  0  0
   73.2520   21.1545   27.5190 H   0  0  0  0  0  0
   72.3378   22.5515   27.9894 H   0  0  0  0  0  0
  1  8  1  0  0  0
  1  2  2  0  0  0
  1  5  1  0  0  0
  2 11  1  0  0  0
  2  3  1  0  0  0
  3  6  2  0  0  0
  4  6  1  0  0  0
  4 37  1  0  0  0
  4  5  1  0  0  0
  5 18  2  0  0  0
  6 22  1  0  0  0
  7 10  1  0  0  0
  7  9  1  0  0  0
  7 13  2  0  0  0
  8 24  1  0  0  0
  9 12  1  0  0  0
  9 20  2  0  0  0
 10 14  1  0  0  0
 11 26  1  0  0  0
 11 32  1  0  0  0
 12 16  1  0  0  0
 12 33  1  0  0  0
 13 17  1  0  0  0
 13 34  1  0  0  0
 14 28  1  0  0  0
 14 17  2  0  0  0
 15 16  1  0  0  0
 15 21  2  0  0  0
 15 29  1  0  0  0
 16 25  1  0  0  0
 16 35  1  0  0  0
 17 36  1  0  0  0
 19 27  1  0  0  0
 19 23  2  0  0  0
 19 30  1  0  0  0
 22 38  1  0  0  0
 22 39  1  0  0  0
 24 26  1  0  0  0
 24 31  1  0  0  0
 24 40  1  0  0  0
 25 27  1  0  0  0
 25 41  1  0  0  0
 25 42  1  0  0  0
 26 43  1  0  0  0
 26 44  1  0  0  0
 27 45  1  0  0  0
 27 46  1  0  0  0
 28 31  1  0  0  0
 28 47  1  0  0  0
 28 48  1  0  0  0
 29 49  1  0  0  0
 30 50  1  0  0  0
 31 51  1  0  0  0
 31 52  1  0  0  0
M  END
> <s_m_entry_id>
24888

> <s_m_entry_name>
dock_pv.41

> <s_m_Source_Path>
/home/csk/Desktop/cluster/DUD-E-result/pur2

> <s_m_Source_File>
dock_pv.maegz

> <i_m_Source_File_Index>
41

> <chembl_id>
CHEMBL85436

> <chembl_pref_name>
None

> <i_lp_mmshare_version>
53161

> <r_lp_tautomer_probability>
0.982539515805485

> <s_lp_Force_Field>
OPLS_2005

> <r_lp_Energy>
11.02613

> <b_lp_Chiralities_Consistent>
1

> <s_lp_Variant>
CHEMBL3972_lig73-1

> <s_i_glide_gridfile>
glide-grid_1njs

> <i_i_glide_lignum>
163

> <i_i_glide_rotatable_bonds>
12

> <r_i_docking_score>
-11.4820288168763

> <r_i_glide_ligand_efficiency>
-0.370388026350849

> <r_i_glide_ligand_efficiency_sa>
-1.16352977852414

> <r_i_glide_ligand_efficiency_ln>
-2.58954938012943

> <r_i_glide_gscore>
-11.4820288168763

> <r_i_glide_lipo>
-2.66370815588225

> <r_i_glide_hbond>
-1.29678263267992

> <r_i_glide_metal>
0

> <r_i_glide_rewards>
-2.31980722623413

> <r_i_glide_evdw>
-45.1155166625977

> <r_i_glide_ecoul>
-23.4025993347168

> <r_i_glide_erotb>
0.646369206588922

> <r_i_glide_esite>
-0.0819342753315562

> <r_i_glide_emodel>
-112.922432379363

> <r_i_glide_energy>
-68.5181159973145

> <r_i_glide_einternal>
12.6615085601807

> <i_i_glide_confnum>
284

> <i_i_glide_posenum>
166

> <r_i_glide_eff_state_penalty>
0

> <s_user_duplicate_titles>
CHEMBL3972_lig73,CHEMBL3972_lig73,135449

> <i_f3d_flags>
0

> <s_m_subgroup_title>
dock_pv

> <s_m_subgroupid>
dock_pv

> <b_m_subgroup_collapsed>
1

$$$$
CHEMBL3972_lig70
                    3D
 Schrodinger Suite 2021-1.
 55 57  0  0  1  0            999 V2000
   75.7043   24.1454   27.6096 C   0  0  0  0  0  0
   76.8360   23.5736   28.0850 C   0  0  0  0  0  0
   78.0486   24.2019   28.0908 N   0  0  0  0  0  0
   77.0087   26.0348   27.1858 N   0  0  0  0  0  0
   75.7923   25.4700   27.0323 C   0  0  0  0  0  0
   78.1071   25.4199   27.6916 C   0  0  0  0  0  0
   74.0907   23.3994   27.6905 S   0  0  0  0  0  0
   76.8522   22.3444   28.6779 N   0  0  0  0  0  0
   68.0985   19.2815   29.9516 C   0  0  0  0  0  0
   67.6343   18.1142   30.4325 N   0  0  0  0  0  0
   67.2927   17.0473   32.6098 C   0  0  0  0  0  0
   69.1642   19.1477   28.8910 C   0  0  0  0  0  0
   66.6662   17.9389   31.5172 C   0  0  2  0  0  0
   74.8900   26.0651   26.4512 O   0  0  0  0  0  0
   65.6710   14.8587   30.4614 C   0  0  0  0  0  0
   67.7254   20.3837   30.3546 O   0  0  0  0  0  0
   70.2769   20.0092   28.8910 C   0  0  0  0  0  0
   67.8963   16.0166   32.3842 O   0  0  0  0  0  0
   79.2893   26.1667   27.7560 N   0  0  0  0  0  0
   66.4884   14.1142   29.9219 O   0  0  0  0  0  0
   74.3900   22.2066   29.0403 C   0  0  2  0  0  0
   65.3062   17.3945   30.9832 C   0  0  0  0  0  0
   75.7162   21.4305   28.8190 C   0  0  0  0  0  0
   65.3117   16.2500   29.9318 C   0  0  0  0  0  0
   67.0779   17.5912   33.8412 O   0  0  0  0  0  0
   71.3397   19.7966   28.0025 C   0  0  0  0  0  0
   64.9512   14.5147   31.5669 O   0  0  0  0  0  0
   72.5487   20.7214   27.9178 C   0  0  0  0  0  0
   73.1382   21.2917   29.2343 C   0  0  0  0  0  0
   69.0925   18.1273   27.9311 C   0  0  0  0  0  0
   70.1248   17.9506   27.0184 C   0  0  0  0  0  0
   71.2563   18.7589   27.0742 C   0  0  0  0  0  0
   77.7221   22.0107   29.0681 H   0  0  0  0  0  0
   68.0461   17.2604   30.0865 H   0  0  0  0  0  0
   66.4574   18.9139   31.9603 H   0  0  0  0  0  0
   77.0988   26.9659   26.8100 H   0  0  0  0  0  0
   70.3329   20.8247   29.5976 H   0  0  0  0  0  0
   80.1160   25.6916   28.0891 H   0  0  0  0  0  0
   79.5177   26.7108   26.9394 H   0  0  0  0  0  0
   74.4904   22.8192   29.9371 H   0  0  0  0  0  0
   64.7586   18.2229   30.5341 H   0  0  0  0  0  0
   64.6744   17.1226   31.8290 H   0  0  0  0  0  0
   75.9018   20.7744   29.6662 H   0  0  0  0  0  0
   75.6476   20.7999   27.9316 H   0  0  0  0  0  0
   65.9699   16.4895   29.0968 H   0  0  0  0  0  0
   64.3179   16.1741   29.4908 H   0  0  0  0  0  0
   66.8895   18.5450   33.7952 H   0  0  0  0  0  0
   64.3958   15.2337   31.8775 H   0  0  0  0  0  0
   73.3441   20.2200   27.3582 H   0  0  0  0  0  0
   72.2072   21.5404   27.2917 H   0  0  0  0  0  0
   72.3697   21.8761   29.7393 H   0  0  0  0  0  0
   73.3770   20.4747   29.9187 H   0  0  0  0  0  0
   68.2382   17.4679   27.8711 H   0  0  0  0  0  0
   70.0497   17.1755   26.2685 H   0  0  0  0  0  0
   72.0362   18.6248   26.3401 H   0  0  0  0  0  0
  1  7  1  0  0  0
  1  2  2  0  0  0
  1  5  1  0  0  0
  2  8  1  0  0  0
  2  3  1  0  0  0
  3  6  2  0  0  0
  4  6  1  0  0  0
  4 36  1  0  0  0
  4  5  1  0  0  0
  5 14  2  0  0  0
  6 19  1  0  0  0
  7 21  1  0  0  0
  8 23  1  0  0  0
  8 33  1  0  0  0
  9 12  1  0  0  0
  9 10  1  0  0  0
  9 16  2  0  0  0
 10 13  1  0  0  0
 10 34  1  0  0  0
 11 13  1  0  0  0
 11 18  2  0  0  0
 11 25  1  0  0  0
 12 17  1  0  0  0
 12 30  2  0  0  0
 13 22  1  0  0  0
 13 35  1  0  0  0
 15 24  1  0  0  0
 15 20  2  0  0  0
 15 27  1  0  0  0
 17 26  2  0  0  0
 17 37  1  0  0  0
 19 38  1  0  0  0
 19 39  1  0  0  0
 21 23  1  0  0  0
 21 29  1  0  0  0
 21 40  1  0  0  0
 22 24  1  0  0  0
 22 41  1  0  0  0
 22 42  1  0  0  0
 23 43  1  0  0  0
 23 44  1  0  0  0
 24 45  1  0  0  0
 24 46  1  0  0  0
 25 47  1  0  0  0
 26 28  1  0  0  0
 26 32  1  0  0  0
 27 48  1  0  0  0
 28 29  1  0  0  0
 28 49  1  0  0  0
 28 50  1  0  0  0
 29 51  1  0  0  0
 29 52  1  0  0  0
 30 31  1  0  0  0
 30 53  1  0  0  0
 31 32  2  0  0  0
 31 54  1  0  0  0
 32 55  1  0  0  0
M  END
> <s_m_entry_id>
24889

> <s_m_entry_name>
dock_pv.42

> <s_m_Source_Path>
/home/csk/Desktop/cluster/DUD-E-result/pur2

> <s_m_Source_File>
dock_pv.maegz

> <i_m_Source_File_Index>
42

> <chembl_id>
CHEMBL82181

> <chembl_pref_name>
None

> <i_lp_mmshare_version>
53161

> <r_lp_tautomer_probability>
0.982539515805485

> <s_lp_Force_Field>
OPLS_2005

> <r_lp_Energy>
17.537773

> <b_lp_Chiralities_Consistent>
1

> <s_lp_Variant>
CHEMBL3972_lig70-2

> <s_i_glide_gridfile>
glide-grid_1njs

> <i_i_glide_lignum>
150

> <i_i_glide_rotatable_bonds>
12

> <r_i_docking_score>
-11.4741244006092

> <r_i_glide_ligand_efficiency>
-0.358566387519038

> <r_i_glide_ligand_efficiency_sa>
-1.13837732018121

> <r_i_glide_ligand_efficiency_ln>
-2.56936922611471

> <r_i_glide_gscore>
-11.4741244006092

> <r_i_glide_lipo>
-2.40604742715405

> <r_i_glide_hbond>
-0.903176789030435

> <r_i_glide_metal>
0

> <r_i_glide_rewards>
-2.55247415112257

> <r_i_glide_evdw>
-50.8478736877441

> <r_i_glide_ecoul>
-24.6438865661621

> <r_i_glide_erotb>
0.661843766717366

> <r_i_glide_esite>
-0.0352931307080024

> <r_i_glide_emodel>
-112.944487315373

> <r_i_glide_energy>
-75.4917602539062

> <r_i_glide_einternal>
12.9916410446167

> <i_i_glide_confnum>
155

> <i_i_glide_posenum>
362

> <r_i_glide_eff_state_penalty>
0

> <s_user_duplicate_titles>
CHEMBL3972_lig70,CHEMBL3972_lig70

> <i_f3d_flags>
0

> <s_m_subgroup_title>
dock_pv

> <s_m_subgroupid>
dock_pv

> <b_m_subgroup_collapsed>
1

$$$$
CHEMBL3972_lig65
                    3D
 Schrodinger Suite 2021-1.
 55 57  0  0  1  0            999 V2000
   77.3615   26.5420   27.1657 N   0  0  0  0  0  0
   76.1700   25.9910   26.8910 C   0  0  0  0  0  0
   75.8162   24.7054   27.3704 C   0  0  0  0  0  0
   78.2610   25.7801   27.7930 C   0  0  0  0  0  0
   78.1046   24.4939   28.1779 N   0  0  0  0  0  0
   76.8566   23.9646   28.0089 C   0  0  0  0  0  0
   68.4384   17.5692   28.5746 C   0  0  0  0  0  0
   68.0703   17.0073   27.4069 N   0  0  0  0  0  0
   72.1089   21.9324   28.9124 N   0  0  0  0  0  0
   66.1224   15.5722   28.1409 C   0  0  0  0  0  0
   67.3918   15.7086   27.2538 C   0  0  2  0  0  0
   74.5261   24.1449   27.2656 C   0  0  0  0  0  0
   69.2892   18.7981   28.4909 C   0  0  0  0  0  0
   72.2809   22.6393   30.0663 C   0  0  0  0  0  0
   71.1460   20.8876   28.7660 C   0  0  0  0  0  0
   69.0918   12.1415   27.1614 C   0  0  0  0  0  0
   75.2889   26.6605   26.0907 O   0  0  0  0  0  0
   72.8389   22.3640   27.7010 C   0  0  0  0  0  0
   68.1669   17.1053   29.6827 O   0  0  0  0  0  0
   74.2622   22.8913   27.8077 C   0  0  0  0  0  0
   66.0472   14.8345   29.1030 O   0  0  0  0  0  0
   76.5735   22.6631   28.4911 C   0  0  0  0  0  0
   79.4312   26.4390   28.0908 N   0  0  0  0  0  0
   69.3214   11.5872   26.0911 O   0  0  0  0  0  0
   71.7657   22.3908   31.1588 O   0  0  0  0  0  0
   70.4650   18.7912   27.7363 C   0  0  0  0  0  0
   68.9986   19.8881   29.3135 C   0  0  0  0  0  0
   71.3905   19.8182   27.8876 C   0  0  0  0  0  0
   69.9172   20.9205   29.4472 C   0  0  0  0  0  0
   68.4628   14.5946   27.4709 C   0  0  0  0  0  0
   67.9589   13.1436   27.3472 C   0  0  0  0  0  0
   65.1282   16.3903   27.6909 O   0  0  0  0  0  0
   75.2827   22.1428   28.3951 C   0  0  0  0  0  0
   69.7883   11.9085   28.3098 O   0  0  0  0  0  0
   68.2522   17.5152   26.5529 H   0  0  0  0  0  0
   67.0604   15.6525   26.2166 H   0  0  0  0  0  0
   73.7346   24.7153   26.7973 H   0  0  0  0  0  0
   72.9783   23.4798   29.9234 H   0  0  0  0  0  0
   75.7251   27.4756   25.8193 H   0  0  0  0  0  0
   72.8595   21.5975   26.9351 H   0  0  0  0  0  0
   72.2309   23.1687   27.2911 H   0  0  0  0  0  0
   77.3586   22.0850   28.9536 H   0  0  0  0  0  0
   79.4649   27.4192   27.8547 H   0  0  0  0  0  0
   80.2046   25.9914   28.5677 H   0  0  0  0  0  0
   70.7121   17.9599   27.0926 H   0  0  0  0  0  0
   68.0906   19.9134   29.9010 H   0  0  0  0  0  0
   72.3182   19.7285   27.3434 H   0  0  0  0  0  0
   69.6581   21.7469   30.0921 H   0  0  0  0  0  0
   68.9162   14.7147   28.4569 H   0  0  0  0  0  0
   69.2789   14.7529   26.7618 H   0  0  0  0  0  0
   67.2886   13.0571   26.4913 H   0  0  0  0  0  0
   67.3817   12.8627   28.2276 H   0  0  0  0  0  0
   65.2970   16.7649   26.8146 H   0  0  0  0  0  0
   75.0725   21.1566   28.7867 H   0  0  0  0  0  0
   69.4932   12.4572   29.0407 H   0  0  0  0  0  0
  1  2  2  0  0  0
  1  4  1  0  0  0
  2  3  1  0  0  0
  2 17  1  0  0  0
  3 12  2  0  0  0
  3  6  1  0  0  0
  4  5  2  0  0  0
  4 23  1  0  0  0
  5  6  1  0  0  0
  6 22  2  0  0  0
  7 13  1  0  0  0
  7  8  1  0  0  0
  7 19  2  0  0  0
  8 11  1  0  0  0
  8 35  1  0  0  0
  9 18  1  0  0  0
  9 14  1  0  0  0
  9 15  1  0  0  0
 10 11  1  0  0  0
 10 21  2  0  0  0
 10 32  1  0  0  0
 11 30  1  0  0  0
 11 36  1  0  0  0
 12 20  1  0  0  0
 12 37  1  0  0  0
 13 27  1  0  0  0
 13 26  2  0  0  0
 14 25  2  0  0  0
 14 38  1  0  0  0
 15 28  2  0  0  0
 15 29  1  0  0  0
 16 31  1  0  0  0
 16 24  2  0  0  0
 16 34  1  0  0  0
 17 39  1  0  0  0
 18 20  1  0  0  0
 18 40  1  0  0  0
 18 41  1  0  0  0
 20 33  2  0  0  0
 22 33  1  0  0  0
 22 42  1  0  0  0
 23 43  1  0  0  0
 23 44  1  0  0  0
 26 28  1  0  0  0
 26 45  1  0  0  0
 27 29  2  0  0  0
 27 46  1  0  0  0
 28 47  1  0  0  0
 29 48  1  0  0  0
 30 31  1  0  0  0
 30 49  1  0  0  0
 30 50  1  0  0  0
 31 51  1  0  0  0
 31 52  1  0  0  0
 32 53  1  0  0  0
 33 54  1  0  0  0
 34 55  1  0  0  0
M  END
> <s_m_entry_id>
24890

> <s_m_entry_name>
dock_pv.43

> <s_m_Source_Path>
/home/csk/Desktop/cluster/DUD-E-result/pur2

> <s_m_Source_File>
dock_pv.maegz

> <i_m_Source_File_Index>
43

> <chembl_id>
CHEMBL140448

> <chembl_pref_name>
None

> <i_lp_mmshare_version>
53161

> <r_lp_tautomer_probability>
1

> <s_lp_Force_Field>
OPLS_2005

> <r_lp_Energy>
21.036874

> <b_lp_Chiralities_Consistent>
1

> <s_lp_Variant>
CHEMBL3972_lig65-2

> <s_i_glide_gridfile>
glide-grid_1njs

> <i_i_glide_lignum>
138

> <i_i_glide_rotatable_bonds>
14

> <r_i_docking_score>
-11.4252918587765

> <r_i_glide_ligand_efficiency>
-0.336037995846368

> <r_i_glide_ligand_efficiency_sa>
-1.08863265574189

> <r_i_glide_ligand_efficiency_ln>
-2.52416744018537

> <r_i_glide_gscore>
-11.4252918587765

> <r_i_glide_lipo>
-2.75776792783961

> <r_i_glide_hbond>
-1.10682032882335

> <r_i_glide_metal>
0

> <r_i_glide_rewards>
-2.20302623489312

> <r_i_glide_evdw>
-62.6410446166992

> <r_i_glide_ecoul>
-18.6103897094727

> <r_i_glide_erotb>
0.646595695097947

> <r_i_glide_esite>
-0.0806623750625076

> <r_i_glide_emodel>
-127.848397741393

> <r_i_glide_energy>
-81.2514343261719

> <r_i_glide_einternal>
15.785418510437

> <i_i_glide_confnum>
56

> <i_i_glide_posenum>
194

> <r_i_glide_eff_state_penalty>
0

> <s_user_duplicate_titles>
CHEMBL3972_lig65

> <i_f3d_flags>
0

> <s_m_subgroup_title>
dock_pv

> <s_m_subgroupid>
dock_pv

> <b_m_subgroup_collapsed>
1

$$$$
CHEMBL3972_lig79
                    3D
 Schrodinger Suite 2021-1.
 55 57  0  0  1  0            999 V2000
   75.6915   24.2045   27.7237 C   0  0  0  0  0  0
   76.8252   23.6132   28.1621 C   0  0  0  0  0  0
   78.0531   24.2119   28.0908 N   0  0  0  0  0  0
   77.0126   26.0299   27.1455 N   0  0  0  0  0  0
   75.7894   25.4756   27.0422 C   0  0  0  0  0  0
   78.1119   25.4223   27.6585 C   0  0  0  0  0  0
   74.0633   23.5824   28.0271 S   0  0  0  0  0  0
   76.8282   22.4049   28.8024 N   0  0  0  0  0  0
   67.9741   17.3420   29.2799 C   0  0  0  0  0  0
   67.9128   16.2562   28.4833 N   0  0  0  0  0  0
   65.7050   15.1910   28.9672 C   0  0  0  0  0  0
   67.2329   15.0074   28.8194 C   0  0  1  0  0  0
   68.8888   18.4468   28.8194 C   0  0  0  0  0  0
   74.8891   26.0413   26.4279 O   0  0  0  0  0  0
   69.5962   12.3908   26.9451 C   0  0  0  0  0  0
   67.3811   17.4235   30.3576 O   0  0  0  0  0  0
   65.1245   14.9116   29.9941 O   0  0  0  0  0  0
   79.2898   26.1733   27.6911 N   0  0  0  0  0  0
   68.8893   11.8101   26.1249 O   0  0  0  0  0  0
   74.4535   21.8243   28.2734 C   0  0  1  0  0  0
   67.6659   13.8509   27.8705 C   0  0  0  0  0  0
   68.8543   19.6948   29.4596 C   0  0  0  0  0  0
   69.8537   18.2102   27.8297 C   0  0  0  0  0  0
   75.6514   21.6512   29.2444 C   0  0  0  0  0  0
   69.1958   13.6684   27.6987 C   0  0  0  0  0  0
   65.1211   15.6695   27.8264 O   0  0  0  0  0  0
   70.8018   20.3785   28.2302 C   0  0  0  0  0  0
   70.8626   11.9907   27.2454 O   0  0  0  0  0  0
   70.8169   19.1624   27.5559 C   0  0  0  0  0  0
   69.8110   20.6612   29.1685 C   0  0  0  0  0  0
   71.8998   21.3699   27.9362 C   0  0  0  0  0  0
   73.1613   21.1297   28.7910 C   0  0  0  0  0  0
   77.7144   22.0408   29.1213 H   0  0  0  0  0  0
   68.3428   16.3047   27.5723 H   0  0  0  0  0  0
   67.5947   14.7418   29.8154 H   0  0  0  0  0  0
   77.0990   26.9433   26.7292 H   0  0  0  0  0  0
   80.1145   25.7004   28.0324 H   0  0  0  0  0  0
   79.5216   26.6924   26.8590 H   0  0  0  0  0  0
   74.7128   21.4250   27.2924 H   0  0  0  0  0  0
   67.2044   13.9817   26.8896 H   0  0  0  0  0  0
   67.2893   12.9145   28.2754 H   0  0  0  0  0  0
   68.1163   19.9052   30.2231 H   0  0  0  0  0  0
   69.9164   17.2742   27.2977 H   0  0  0  0  0  0
   75.3492   21.9872   30.2368 H   0  0  0  0  0  0
   75.9335   20.6028   29.3356 H   0  0  0  0  0  0
   69.6748   13.6425   28.6793 H   0  0  0  0  0  0
   69.6239   14.5187   27.1684 H   0  0  0  0  0  0
   65.7017   15.8508   27.0826 H   0  0  0  0  0  0
   71.1734   11.2822   26.6800 H   0  0  0  0  0  0
   71.5756   18.9590   26.8140 H   0  0  0  0  0  0
   69.7973   21.6080   29.6894 H   0  0  0  0  0  0
   72.1507   21.2315   26.8921 H   0  0  0  0  0  0
   71.5203   22.3881   28.0354 H   0  0  0  0  0  0
   72.9586   21.4409   29.8180 H   0  0  0  0  0  0
   73.3022   20.0505   28.8390 H   0  0  0  0  0  0
  1  7  1  0  0  0
  1  2  2  0  0  0
  1  5  1  0  0  0
  2  8  1  0  0  0
  2  3  1  0  0  0
  3  6  2  0  0  0
  4  6  1  0  0  0
  4 36  1  0  0  0
  4  5  1  0  0  0
  5 14  2  0  0  0
  6 18  1  0  0  0
  7 20  1  0  0  0
  8 24  1  0  0  0
  8 33  1  0  0  0
  9 13  1  0  0  0
  9 10  1  0  0  0
  9 16  2  0  0  0
 10 12  1  0  0  0
 10 34  1  0  0  0
 11 12  1  0  0  0
 11 17  2  0  0  0
 11 26  1  0  0  0
 12 21  1  0  0  0
 12 35  1  0  0  0
 13 22  1  0  0  0
 13 23  2  0  0  0
 15 25  1  0  0  0
 15 19  2  0  0  0
 15 28  1  0  0  0
 18 37  1  0  0  0
 18 38  1  0  0  0
 20 24  1  0  0  0
 20 32  1  0  0  0
 20 39  1  0  0  0
 21 25  1  0  0  0
 21 40  1  0  0  0
 21 41  1  0  0  0
 22 30  2  0  0  0
 22 42  1  0  0  0
 23 29  1  0  0  0
 23 43  1  0  0  0
 24 44  1  0  0  0
 24 45  1  0  0  0
 25 46  1  0  0  0
 25 47  1  0  0  0
 26 48  1  0  0  0
 27 31  1  0  0  0
 27 29  2  0  0  0
 27 30  1  0  0  0
 28 49  1  0  0  0
 29 50  1  0  0  0
 30 51  1  0  0  0
 31 32  1  0  0  0
 31 52  1  0  0  0
 31 53  1  0  0  0
 32 54  1  0  0  0
 32 55  1  0  0  0
M  END
> <s_m_entry_id>
24891

> <s_m_entry_name>
dock_pv.44

> <s_m_Source_Path>
/home/csk/Desktop/cluster/DUD-E-result/pur2

> <s_m_Source_File>
dock_pv.maegz

> <i_m_Source_File_Index>
44

> <chembl_id>
CHEMBL315076

> <chembl_pref_name>
None

> <i_lp_mmshare_version>
53161

> <r_lp_tautomer_probability>
0.982539515805485

> <s_lp_Force_Field>
OPLS_2005

> <r_lp_Energy>
18.332271

> <b_lp_Chiralities_Consistent>
1

> <s_lp_Variant>
CHEMBL3972_lig79-3

> <s_i_glide_gridfile>
glide-grid_1njs

> <i_i_glide_lignum>
183

> <i_i_glide_rotatable_bonds>
12

> <r_i_docking_score>
-11.3271189177604

> <r_i_glide_ligand_efficiency>
-0.353972466180013

> <r_i_glide_ligand_efficiency_sa>
-1.12379252906561

> <r_i_glide_ligand_efficiency_ln>
-2.53645069128675

> <r_i_glide_gscore>
-11.3271189177604

> <r_i_glide_lipo>
-2.38265386054504

> <r_i_glide_hbond>
-1.59728456806326

> <r_i_glide_metal>
0

> <r_i_glide_rewards>
-2.65997209641404

> <r_i_glide_evdw>
-58.5189819335938

> <r_i_glide_ecoul>
-15.8552989959717

> <r_i_glide_erotb>
0.661843766717366

> <r_i_glide_esite>
-0.044808213380002

> <r_i_glide_emodel>
-121.098817882687

> <r_i_glide_energy>
-74.3742809295654

> <r_i_glide_einternal>
7.42532300949097

> <i_i_glide_confnum>
82

> <i_i_glide_posenum>
159

> <r_i_glide_eff_state_penalty>
0

> <s_user_duplicate_titles>
CHEMBL3972_lig79,CHEMBL3972_lig79

> <i_f3d_flags>
0

> <s_m_subgroup_title>
dock_pv

> <s_m_subgroupid>
dock_pv

> <b_m_subgroup_collapsed>
1

$$$$
CHEMBL3972_lig21
                    3D
 Schrodinger Suite 2021-1.
 55 56  0  0  1  0            999 V2000
   78.2131   24.7941   28.2115 N   0  0  0  0  0  0
   76.9684   24.2376   28.2210 C   0  0  0  0  0  0
   77.3151   26.5280   27.0110 N   0  0  0  0  0  0
   75.8807   24.7985   27.6562 C   0  0  0  0  0  0
   76.0886   25.9910   26.8657 C   0  0  0  0  0  0
   78.3453   25.9591   27.6854 C   0  0  0  0  0  0
   68.9428   18.9372   28.6343 C   0  0  0  0  0  0
   68.7733   17.7727   27.9755 N   0  0  0  0  0  0
   70.2839   19.6207   28.4883 C   0  0  0  0  0  0
   67.9869   15.5398   27.2902 C   0  0  0  0  0  0
   67.5950   16.8869   27.9376 C   0  0  1  0  0  0
   71.8308   21.3560   29.2271 C   0  0  0  0  0  0
   70.5563   20.7903   29.2218 C   0  0  0  0  0  0
   75.2749   26.4892   26.0910 O   0  0  0  0  0  0
   67.3653   16.3497   31.8319 C   0  0  0  0  0  0
   72.8563   20.7707   28.4772 C   0  0  0  0  0  0
   68.0892   19.4292   29.3670 O   0  0  0  0  0  0
   76.8891   23.0721   28.8910 N   0  0  0  0  0  0
   69.1242   15.1332   27.1778 O   0  0  0  0  0  0
   71.3039   19.0807   27.6907 C   0  0  0  0  0  0
   79.5362   26.6862   27.7714 N   0  0  0  0  0  0
   66.6921   15.5501   32.4783 O   0  0  0  0  0  0
   72.5738   19.6441   27.6951 C   0  0  0  0  0  0
   66.9550   16.6596   29.3439 C   0  0  0  0  0  0
   67.8943   16.0780   30.4270 C   0  0  0  0  0  0
   74.1660   21.2733   28.5429 N   0  0  0  0  0  0
   72.0643   22.4490   29.9928 F   0  0  0  0  0  0
   74.4499   24.3040   27.8368 C   0  0  0  0  0  0
   66.8779   14.8581   26.8910 O   0  0  0  0  0  0
   67.7136   17.5915   32.2718 O   0  0  0  0  0  0
   74.6649   21.7834   27.2719 C   0  0  0  0  0  0
   74.0895   23.1656   26.8912 C   0  0  0  0  0  0
   69.5320   17.4492   27.3967 H   0  0  0  0  0  0
   66.8642   17.3697   27.2848 H   0  0  0  0  0  0
   69.7940   21.2469   29.8376 H   0  0  0  0  0  0
   77.4721   27.3638   26.4615 H   0  0  0  0  0  0
   76.0018   22.5934   28.9405 H   0  0  0  0  0  0
   77.7203   22.6150   29.2295 H   0  0  0  0  0  0
   71.1491   18.2038   27.0807 H   0  0  0  0  0  0
   80.2779   26.3808   28.3890 H   0  0  0  0  0  0
   79.5347   27.6804   27.6056 H   0  0  0  0  0  0
   73.3529   19.1883   27.1021 H   0  0  0  0  0  0
   66.0936   15.9966   29.2446 H   0  0  0  0  0  0
   66.5099   17.5875   29.7024 H   0  0  0  0  0  0
   68.8889   16.5159   30.3588 H   0  0  0  0  0  0
   68.0184   15.0041   30.2876 H   0  0  0  0  0  0
   74.7487   20.5029   28.8504 H   0  0  0  0  0  0
   73.7408   25.1238   27.6915 H   0  0  0  0  0  0
   74.2884   23.9911   28.8707 H   0  0  0  0  0  0
   66.1023   15.4136   26.7467 H   0  0  0  0  0  0
   67.3441   17.8086   33.1318 H   0  0  0  0  0  0
   75.7472   21.8077   27.2933 H   0  0  0  0  0  0
   74.4891   21.0622   26.4913 H   0  0  0  0  0  0
   74.3889   23.4312   25.8765 H   0  0  0  0  0  0
   73.0050   23.1172   26.8939 H   0  0  0  0  0  0
  1  2  1  0  0  0
  1  6  2  0  0  0
  2  4  2  0  0  0
  2 18  1  0  0  0
  3  6  1  0  0  0
  3 36  1  0  0  0
  3  5  1  0  0  0
  4 28  1  0  0  0
  4  5  1  0  0  0
  5 14  2  0  0  0
  6 21  1  0  0  0
  7  9  1  0  0  0
  7  8  1  0  0  0
  7 17  2  0  0  0
  8 11  1  0  0  0
  8 33  1  0  0  0
  9 20  2  0  0  0
  9 13  1  0  0  0
 10 11  1  0  0  0
 10 19  2  0  0  0
 10 29  1  0  0  0
 11 24  1  0  0  0
 11 34  1  0  0  0
 12 16  1  0  0  0
 12 13  2  0  0  0
 12 27  1  0  0  0
 13 35  1  0  0  0
 15 25  1  0  0  0
 15 22  2  0  0  0
 15 30  1  0  0  0
 16 26  1  0  0  0
 16 23  2  0  0  0
 18 37  1  0  0  0
 18 38  1  0  0  0
 20 23  1  0  0  0
 20 39  1  0  0  0
 21 40  1  0  0  0
 21 41  1  0  0  0
 23 42  1  0  0  0
 24 25  1  0  0  0
 24 43  1  0  0  0
 24 44  1  0  0  0
 25 45  1  0  0  0
 25 46  1  0  0  0
 26 31  1  0  0  0
 26 47  1  0  0  0
 28 32  1  0  0  0
 28 48  1  0  0  0
 28 49  1  0  0  0
 29 50  1  0  0  0
 30 51  1  0  0  0
 31 32  1  0  0  0
 31 52  1  0  0  0
 31 53  1  0  0  0
 32 54  1  0  0  0
 32 55  1  0  0  0
M  END
> <s_m_entry_id>
24893

> <s_m_entry_name>
dock_pv.46

> <s_m_Source_Path>
/home/csk/Desktop/cluster/DUD-E-result/pur2

> <s_m_Source_File>
dock_pv.maegz

> <i_m_Source_File_Index>
46

> <chembl_id>
CHEMBL285232

> <chembl_pref_name>
None

> <i_lp_mmshare_version>
53161

> <r_lp_tautomer_probability>
0.982528302960407

> <s_lp_Force_Field>
OPLS_2005

> <r_lp_Energy>
14.893937

> <b_lp_Chiralities_Consistent>
1

> <s_lp_Variant>
CHEMBL3972_lig21-1

> <s_i_glide_gridfile>
glide-grid_1njs

> <i_i_glide_lignum>
56

> <i_i_glide_rotatable_bonds>
14

> <r_i_docking_score>
-11.2394359326969

> <r_i_glide_ligand_efficiency>
-0.351232372896778

> <r_i_glide_ligand_efficiency_sa>
-1.11509327515506

> <r_i_glide_ligand_efficiency_ln>
-2.51681608078312

> <r_i_glide_gscore>
-11.2394359326969

> <r_i_glide_lipo>
-1.94229606477764

> <r_i_glide_hbond>
-1.5252823896537

> <r_i_glide_metal>
0

> <r_i_glide_rewards>
-3.05727224911709

> <r_i_glide_evdw>
-42.0669708251953

> <r_i_glide_ecoul>
-22.5312175750732

> <r_i_glide_erotb>
0.830102802277656

> <r_i_glide_esite>
-0.0616568539053494

> <r_i_glide_emodel>
-97.2261261225472

> <r_i_glide_energy>
-64.5981884002686

> <r_i_glide_einternal>
14.7089385986328

> <i_i_glide_confnum>
107

> <i_i_glide_posenum>
396

> <r_i_glide_eff_state_penalty>
0

> <s_user_duplicate_titles>
CHEMBL3972_lig21,CHEMBL3972_lig21

> <i_f3d_flags>
0

> <s_m_subgroup_title>
dock_pv

> <s_m_subgroupid>
dock_pv

> <b_m_subgroup_collapsed>
1

$$$$
CHEMBL3972_lig74
                    3D
 Schrodinger Suite 2021-1.
 55 57  0  0  1  0            999 V2000
   78.5132   24.7577   28.0324 N   0  0  0  0  0  0
   76.2923   24.2027   27.3272 C   0  0  0  0  0  0
   77.5161   23.8647   27.7890 C   0  0  0  0  0  0
   77.1142   26.3929   27.2501 N   0  0  0  0  0  0
   76.0603   25.5909   26.9875 C   0  0  0  0  0  0
   78.3061   25.9941   27.7595 C   0  0  0  0  0  0
   69.8175   18.5566   27.9561 C   0  0  0  0  0  0
   71.4263   18.7504   27.3120 S   0  0  0  0  0  0
   71.6818   20.1671   28.2553 C   0  0  0  0  0  0
   70.5760   20.5011   29.0362 C   0  0  0  0  0  0
   69.0068   17.4557   27.4815 C   0  0  0  0  0  0
   69.5064   19.6059   28.8338 C   0  0  0  0  0  0
   74.9862   23.0385   27.0226 S   0  0  0  0  0  0
   67.9408   17.1285   28.2328 N   0  0  0  0  0  0
   65.6242   16.3325   28.5454 C   0  0  0  0  0  0
   66.9947   16.0476   27.9013 C   0  0  2  0  0  0
   75.0297   26.0354   26.4911 O   0  0  0  0  0  0
   68.8591   12.5553   27.7260 C   0  0  0  0  0  0
   72.9772   20.9414   28.2366 C   0  0  0  0  0  0
   69.3337   16.8043   26.4915 O   0  0  0  0  0  0
   77.8591   22.5942   28.0908 N   0  0  0  0  0  0
   70.5750   21.7321   29.9454 C   0  0  0  0  0  0
   65.4938   16.7608   29.6765 O   0  0  0  0  0  0
   79.2893   26.9664   27.9793 N   0  0  0  0  0  0
   68.4898   11.7272   26.8938 O   0  0  0  0  0  0
   67.5077   14.6449   28.3493 C   0  0  0  0  0  0
   73.8835   23.3237   28.4396 C   0  0  0  0  0  0
   68.7016   14.0675   27.5542 C   0  0  0  0  0  0
   64.6132   15.9916   27.6913 O   0  0  0  0  0  0
   72.6279   22.4255   28.4878 C   0  0  2  0  0  0
   69.4422   12.2244   28.9133 O   0  0  0  0  0  0
   71.9029   22.5328   29.8471 C   0  0  0  0  0  0
   68.5520   19.7164   29.3280 H   0  0  0  0  0  0
   67.6898   17.6934   29.0300 H   0  0  0  0  0  0
   66.8589   16.0532   26.8159 H   0  0  0  0  0  0
   76.9997   27.3527   26.9654 H   0  0  0  0  0  0
   73.6560   20.5713   29.0033 H   0  0  0  0  0  0
   73.4923   20.7827   27.2922 H   0  0  0  0  0  0
   77.1681   21.8686   27.9989 H   0  0  0  0  0  0
   78.7583   22.3754   28.4819 H   0  0  0  0  0  0
   69.7229   22.3729   29.7206 H   0  0  0  0  0  0
   70.4870   21.4156   30.9821 H   0  0  0  0  0  0
   80.1423   26.6509   28.4240 H   0  0  0  0  0  0
   78.9876   27.8297   28.4082 H   0  0  0  0  0  0
   66.6825   13.9364   28.2842 H   0  0  0  0  0  0
   67.7763   14.6841   29.4069 H   0  0  0  0  0  0
   73.5742   24.3695   28.4184 H   0  0  0  0  0  0
   74.4740   23.1955   29.3481 H   0  0  0  0  0  0
   69.6291   14.5656   27.8315 H   0  0  0  0  0  0
   68.5611   14.2708   26.4933 H   0  0  0  0  0  0
   64.8910   15.8393   26.7758 H   0  0  0  0  0  0
   71.9657   22.7673   27.6917 H   0  0  0  0  0  0
   69.6656   12.9931   29.4429 H   0  0  0  0  0  0
   72.5875   22.2148   30.6357 H   0  0  0  0  0  0
   71.7066   23.5827   30.0731 H   0  0  0  0  0  0
  1  3  1  0  0  0
  1  6  2  0  0  0
  2 13  1  0  0  0
  2  3  2  0  0  0
  2  5  1  0  0  0
  3 21  1  0  0  0
  4  6  1  0  0  0
  4 36  1  0  0  0
  4  5  1  0  0  0
  5 17  2  0  0  0
  6 24  1  0  0  0
  7  8  1  0  0  0
  7 11  1  0  0  0
  7 12  2  0  0  0
  8  9  1  0  0  0
  9 19  1  0  0  0
  9 10  2  0  0  0
 10 22  1  0  0  0
 10 12  1  0  0  0
 11 14  1  0  0  0
 11 20  2  0  0  0
 12 33  1  0  0  0
 13 27  1  0  0  0
 14 16  1  0  0  0
 14 34  1  0  0  0
 15 16  1  0  0  0
 15 23  2  0  0  0
 15 29  1  0  0  0
 16 26  1  0  0  0
 16 35  1  0  0  0
 18 28  1  0  0  0
 18 25  2  0  0  0
 18 31  1  0  0  0
 19 30  1  0  0  0
 19 37  1  0  0  0
 19 38  1  0  0  0
 21 39  1  0  0  0
 21 40  1  0  0  0
 22 32  1  0  0  0
 22 41  1  0  0  0
 22 42  1  0  0  0
 24 43  1  0  0  0
 24 44  1  0  0  0
 26 28  1  0  0  0
 26 45  1  0  0  0
 26 46  1  0  0  0
 27 30  1  0  0  0
 27 47  1  0  0  0
 27 48  1  0  0  0
 28 49  1  0  0  0
 28 50  1  0  0  0
 29 51  1  0  0  0
 30 32  1  0  0  0
 30 52  1  0  0  0
 31 53  1  0  0  0
 32 54  1  0  0  0
 32 55  1  0  0  0
M  END
> <s_m_entry_id>
24894

> <s_m_entry_name>
dock_pv.47

> <s_m_Source_Path>
/home/csk/Desktop/cluster/DUD-E-result/pur2

> <s_m_Source_File>
dock_pv.maegz

> <i_m_Source_File_Index>
47

> <chembl_id>
CHEMBL309415

> <chembl_pref_name>
None

> <i_lp_mmshare_version>
53161

> <r_lp_tautomer_probability>
0.982528302960407

> <s_lp_Force_Field>
OPLS_2005

> <r_lp_Energy>
20.084443

> <b_lp_Chiralities_Consistent>
1

> <s_lp_Variant>
CHEMBL3972_lig74-1

> <s_i_glide_gridfile>
glide-grid_1njs

> <i_i_glide_lignum>
167

> <i_i_glide_rotatable_bonds>
12

> <r_i_docking_score>
-11.2063680970137

> <r_i_glide_ligand_efficiency>
-0.350199003031679

> <r_i_glide_ligand_efficiency_sa>
-1.11181253033699

> <r_i_glide_ligand_efficiency_ln>
-2.50941129097851

> <r_i_glide_gscore>
-11.2063680970137

> <r_i_glide_lipo>
-1.99737837494146

> <r_i_glide_hbond>
-1.43124586410138

> <r_i_glide_metal>
0

> <r_i_glide_rewards>
-2.21635072904211

> <r_i_glide_evdw>
-63.9095458984375

> <r_i_glide_ecoul>
-21.5280780792236

> <r_i_glide_erotb>
0.874865380255986

> <r_i_glide_esite>
-0.011569502379342

> <r_i_glide_emodel>
-132.788937418169

> <r_i_glide_energy>
-85.4376239776611

> <r_i_glide_einternal>
6.43316888809204

> <i_i_glide_confnum>
45

> <i_i_glide_posenum>
110

> <r_i_glide_eff_state_penalty>
0

> <s_user_duplicate_titles>
CHEMBL3972_lig74,CHEMBL3972_lig74,134945

> <i_f3d_flags>
0

> <s_m_subgroup_title>
dock_pv

> <s_m_subgroupid>
dock_pv

> <b_m_subgroup_collapsed>
1

$$$$
CHEMBL3972_lig11
                    3D
 Schrodinger Suite 2021-1.
 58 60  0  0  1  0            999 V2000
   77.5090   24.2407   27.9116 C   0  0  0  0  0  0
   78.6424   24.9794   28.0910 N   0  0  0  0  0  0
   76.3704   24.7249   27.3691 C   0  0  0  0  0  0
   77.4792   26.7877   27.2890 N   0  0  0  0  0  0
   76.3920   26.0878   26.8910 C   0  0  0  0  0  0
   78.5979   26.2415   27.8347 C   0  0  0  0  0  0
   77.5775   22.9684   28.3957 N   0  0  0  0  0  0
   68.1957   19.5781   29.8937 C   0  0  0  0  0  0
   68.2325   18.2448   29.7066 N   0  0  0  0  0  0
   67.0381   17.2690   31.6879 C   0  0  0  0  0  0
   75.0766   23.9129   27.2723 C   0  0  0  0  0  0
   67.2909   17.2190   30.1620 C   0  0  2  0  0  0
   69.4136   20.3200   29.3894 C   0  0  0  0  0  0
   75.5378   26.5734   26.1482 O   0  0  0  0  0  0
   67.2883   20.1590   30.4904 O   0  0  0  0  0  0
   67.9289   17.3556   32.5079 O   0  0  0  0  0  0
   75.3384   22.4060   27.5533 C   0  0  1  0  0  0
   79.6855   27.0948   28.0910 N   0  0  0  0  0  0
   73.1578   22.1150   28.8051 N   0  0  0  0  0  0
   76.4245   22.1057   28.6135 C   0  0  0  0  0  0
   69.7124   21.5816   29.9092 C   0  0  0  0  0  0
   70.3176   19.7303   28.4904 C   0  0  0  0  0  0
   71.9015   21.5070   28.9241 C   0  0  0  0  0  0
   74.0660   21.5958   27.7984 C   0  0  0  0  0  0
   65.7022   17.1657   31.9549 O   0  0  0  0  0  0
   71.5608   20.3092   28.2800 C   0  0  0  0  0  0
   70.9541   22.1628   29.6988 C   0  0  0  0  0  0
   66.8889   15.4293   26.8912 N   0  0  0  0  0  0
   67.8018   15.8120   29.7352 C   0  0  0  0  0  0
   65.9653   15.2050   27.9876 C   0  0  0  0  0  0
   66.7058   14.8212   29.2841 C   0  0  0  0  0  0
   78.4514   22.6090   28.7430 H   0  0  0  0  0  0
   69.0499   17.8824   29.2459 H   0  0  0  0  0  0
   74.6056   24.0309   26.2934 H   0  0  0  0  0  0
   74.3664   24.3197   27.9934 H   0  0  0  0  0  0
   66.3674   17.4460   29.6372 H   0  0  0  0  0  0
   77.5127   27.7312   26.9336 H   0  0  0  0  0  0
   75.6897   21.9919   26.6162 H   0  0  0  0  0  0
   80.5320   26.7579   28.5436 H   0  0  0  0  0  0
   79.5776   28.0999   28.0868 H   0  0  0  0  0  0
   73.1676   23.1145   28.9538 H   0  0  0  0  0  0
   76.0271   22.2315   29.6223 H   0  0  0  0  0  0
   76.7293   21.0595   28.5555 H   0  0  0  0  0  0
   68.9838   22.1209   30.4908 H   0  0  0  0  0  0
   70.1117   18.7874   28.0056 H   0  0  0  0  0  0
   74.2990   20.5474   27.9950 H   0  0  0  0  0  0
   73.4865   21.5912   26.8910 H   0  0  0  0  0  0
   65.1527   17.1768   31.1696 H   0  0  0  0  0  0
   72.2528   19.7972   27.6288 H   0  0  0  0  0  0
   71.1730   23.1244   30.1417 H   0  0  0  0  0  0
   66.3155   15.5905   26.0522 H   0  0  0  0  0  0
   67.3673   16.3071   27.0342 H   0  0  0  0  0  0
   68.3743   15.3530   30.5450 H   0  0  0  0  0  0
   68.5376   15.8929   28.9329 H   0  0  0  0  0  0
   65.3533   16.0967   28.1295 H   0  0  0  0  0  0
   65.2835   14.4059   27.6959 H   0  0  0  0  0  0
   65.9805   14.6850   30.0874 H   0  0  0  0  0  0
   67.1663   13.8435   29.1362 H   0  0  0  0  0  0
  1  3  2  0  0  0
  1  7  1  0  0  0
  1  2  1  0  0  0
  2  6  2  0  0  0
  3 11  1  0  0  0
  3  5  1  0  0  0
  4  6  1  0  0  0
  4 37  1  0  0  0
  4  5  1  0  0  0
  5 14  2  0  0  0
  6 18  1  0  0  0
  7 20  1  0  0  0
  7 32  1  0  0  0
  8 13  1  0  0  0
  8  9  1  0  0  0
  8 15  2  0  0  0
  9 12  1  0  0  0
  9 33  1  0  0  0
 10 12  1  0  0  0
 10 16  2  0  0  0
 10 25  1  0  0  0
 11 17  1  0  0  0
 11 34  1  0  0  0
 11 35  1  0  0  0
 12 29  1  0  0  0
 12 36  1  0  0  0
 13 21  2  0  0  0
 13 22  1  0  0  0
 17 20  1  0  0  0
 17 24  1  0  0  0
 17 38  1  0  0  0
 18 39  1  0  0  0
 18 40  1  0  0  0
 19 24  1  0  0  0
 19 23  1  0  0  0
 19 41  1  0  0  0
 20 42  1  0  0  0
 20 43  1  0  0  0
 21 27  1  0  0  0
 21 44  1  0  0  0
 22 26  2  0  0  0
 22 45  1  0  0  0
 23 26  1  0  0  0
 23 27  2  0  0  0
 24 46  1  0  0  0
 24 47  1  0  0  0
 25 48  1  0  0  0
 26 49  1  0  0  0
 27 50  1  0  0  0
 28 30  1  0  0  0
 28 51  1  0  0  0
 28 52  1  0  0  0
 29 31  1  0  0  0
 29 53  1  0  0  0
 29 54  1  0  0  0
 30 31  1  0  0  0
 30 55  1  0  0  0
 30 56  1  0  0  0
 31 57  1  0  0  0
 31 58  1  0  0  0
M  END
> <s_m_entry_id>
24896

> <s_m_entry_name>
dock_pv.49

> <s_m_Source_Path>
/home/csk/Desktop/cluster/DUD-E-result/pur2

> <s_m_Source_File>
dock_pv.maegz

> <i_m_Source_File_Index>
49

> <chembl_id>
CHEMBL289923

> <chembl_pref_name>
None

> <i_lp_mmshare_version>
53161

> <r_lp_tautomer_probability>
0.982539515805485

> <s_lp_Force_Field>
OPLS_2005

> <r_lp_Energy>
27.142143

> <b_lp_Chiralities_Consistent>
1

> <s_lp_Variant>
CHEMBL3972_lig11-4

> <s_i_glide_gridfile>
glide-grid_1njs

> <i_i_glide_lignum>
15

> <i_i_glide_rotatable_bonds>
11

> <r_i_docking_score>
-11.1729570326853

> <r_i_glide_ligand_efficiency>
-0.3604179687963

> <r_i_glide_ligand_efficiency_sa>
-1.1322100326549

> <r_i_glide_ligand_efficiency_ln>
-2.5198442208817

> <r_i_glide_gscore>
-11.1729570326853

> <r_i_glide_lipo>
-2.8890827840617

> <r_i_glide_hbond>
-1.4907695255918

> <r_i_glide_metal>
0

> <r_i_glide_rewards>
-2.49339459735707

> <r_i_glide_evdw>
-42.9635238647461

> <r_i_glide_ecoul>
-18.8687400817871

> <r_i_glide_erotb>
0.678777079830655

> <r_i_glide_esite>
0

> <r_i_glide_emodel>
-96.4623412423125

> <r_i_glide_energy>
-61.8322639465332

> <r_i_glide_einternal>
11.9799757003784

> <i_i_glide_confnum>
4

> <i_i_glide_posenum>
23

> <r_i_glide_eff_state_penalty>
0

> <s_user_duplicate_titles>
CHEMBL3972_lig11

> <i_f3d_flags>
0

> <s_m_subgroup_title>
dock_pv

> <s_m_subgroupid>
dock_pv

> <b_m_subgroup_collapsed>
1

$$$$
CHEMBL3972_lig4
                    3D
 Schrodinger Suite 2021-1.
 55 57  0  0  1  0            999 V2000
   77.1555   26.5807   26.9720 N   0  0  0  0  0  0
   78.1934   26.0289   27.7029 C   0  0  0  0  0  0
   78.1497   24.7983   28.0910 N   0  0  0  0  0  0
   75.9780   25.9897   26.5812 C   0  0  0  0  0  0
   75.9202   24.6243   27.0848 C   0  0  0  0  0  0
   77.0059   24.1202   27.7932 C   0  0  0  0  0  0
   76.7036   22.8510   28.2016 N   0  0  0  0  0  0
   75.4443   22.5187   27.7538 C   0  0  0  0  0  0
   74.9716   23.6030   27.0137 C   0  0  0  0  0  0
   74.8010   21.2001   28.1107 C   0  0  0  0  0  0
   73.6939   21.3553   29.1753 C   0  0  0  0  0  0
   72.5434   22.3029   28.7643 C   0  0  0  0  0  0
   71.2569   22.1406   29.5993 C   0  0  0  0  0  0
   70.3604   20.9593   29.2395 C   0  0  0  0  0  0
   69.0803   20.7036   29.7217 C   0  0  0  0  0  0
   68.5054   19.5101   29.2904 C   0  0  0  0  0  0
   69.2896   18.8369   28.3556 C   0  0  0  0  0  0
   70.7761   19.7041   28.0907 S   0  0  0  0  0  0
   75.1592   26.5810   25.8818 O   0  0  0  0  0  0
   79.2890   26.8466   28.0299 N   0  0  0  0  0  0
   68.9949   17.6262   27.6196 C   0  0  0  0  0  0
   67.9256   16.9531   28.0741 N   0  0  0  0  0  0
   69.6937   17.2310   26.6875 O   0  0  0  0  0  0
   67.3968   15.6881   27.5613 C   0  0  1  0  0  0
   68.4627   14.5554   27.6927 C   0  0  0  0  0  0
   67.9452   13.1296   27.4095 C   0  0  0  0  0  0
   69.0692   12.1217   27.1797 C   0  0  0  0  0  0
   66.0898   15.4235   28.3344 C   0  0  0  0  0  0
   66.0438   14.7983   29.3747 O   0  0  0  0  0  0
   65.0279   15.9894   27.6910 O   0  0  0  0  0  0
   69.2855   11.5911   26.0924 O   0  0  0  0  0  0
   69.7776   11.8536   28.3128 O   0  0  0  0  0  0
   77.2846   27.5169   26.6106 H   0  0  0  0  0  0
   77.3026   22.2655   28.7655 H   0  0  0  0  0  0
   74.0085   23.6673   26.5253 H   0  0  0  0  0  0
   75.5543   20.4931   28.4602 H   0  0  0  0  0  0
   74.3736   20.7379   27.2222 H   0  0  0  0  0  0
   74.1323   21.7020   30.1125 H   0  0  0  0  0  0
   73.2899   20.3706   29.3975 H   0  0  0  0  0  0
   72.3096   22.1912   27.7045 H   0  0  0  0  0  0
   72.8894   23.3323   28.8722 H   0  0  0  0  0  0
   70.6843   23.0650   29.5120 H   0  0  0  0  0  0
   71.5257   22.0902   30.6552 H   0  0  0  0  0  0
   68.5772   21.3683   30.4075 H   0  0  0  0  0  0
   67.5296   19.1852   29.6192 H   0  0  0  0  0  0
   80.1370   26.4443   28.4127 H   0  0  0  0  0  0
   79.4486   27.7110   27.5338 H   0  0  0  0  0  0
   67.3976   17.3513   28.8347 H   0  0  0  0  0  0
   67.1619   15.8126   26.5007 H   0  0  0  0  0  0
   68.8994   14.5850   28.6931 H   0  0  0  0  0  0
   69.2882   14.7616   27.0091 H   0  0  0  0  0  0
   67.3141   13.1395   26.5189 H   0  0  0  0  0  0
   67.3124   12.7882   28.2305 H   0  0  0  0  0  0
   65.2363   16.3199   26.8047 H   0  0  0  0  0  0
   69.5063   12.3962   29.0568 H   0  0  0  0  0  0
  1  2  1  0  0  0
  1  4  1  0  0  0
  1 33  1  0  0  0
  2 20  1  0  0  0
  2  3  2  0  0  0
  3  6  1  0  0  0
  4 19  2  0  0  0
  4  5  1  0  0  0
  5  9  1  0  0  0
  5  6  2  0  0  0
  6  7  1  0  0  0
  7  8  1  0  0  0
  7 34  1  0  0  0
  8  9  2  0  0  0
  8 10  1  0  0  0
  9 35  1  0  0  0
 10 11  1  0  0  0
 10 36  1  0  0  0
 10 37  1  0  0  0
 11 12  1  0  0  0
 11 38  1  0  0  0
 11 39  1  0  0  0
 12 13  1  0  0  0
 12 40  1  0  0  0
 12 41  1  0  0  0
 13 14  1  0  0  0
 13 42  1  0  0  0
 13 43  1  0  0  0
 14 18  1  0  0  0
 14 15  2  0  0  0
 15 16  1  0  0  0
 15 44  1  0  0  0
 16 17  2  0  0  0
 16 45  1  0  0  0
 17 18  1  0  0  0
 17 21  1  0  0  0
 20 46  1  0  0  0
 20 47  1  0  0  0
 21 22  1  0  0  0
 21 23  2  0  0  0
 22 24  1  0  0  0
 22 48  1  0  0  0
 24 25  1  0  0  0
 24 28  1  0  0  0
 24 49  1  0  0  0
 25 26  1  0  0  0
 25 50  1  0  0  0
 25 51  1  0  0  0
 26 27  1  0  0  0
 26 52  1  0  0  0
 26 53  1  0  0  0
 27 31  2  0  0  0
 27 32  1  0  0  0
 28 29  2  0  0  0
 28 30  1  0  0  0
 30 54  1  0  0  0
 32 55  1  0  0  0
M  END
> <s_m_entry_id>
24898

> <s_m_entry_name>
dock_pv.51

> <s_m_Source_Path>
/home/csk/Desktop/cluster/DUD-E-result/pur2

> <s_m_Source_File>
dock_pv.maegz

> <i_m_Source_File_Index>
51

> <chembl_id>
CHEMBL590740

> <chembl_pref_name>
None

> <i_lp_mmshare_version>
53161

> <r_lp_tautomer_probability>
1

> <s_lp_Force_Field>
OPLS_2005

> <r_lp_Energy>
10.803107

> <b_lp_Chiralities_Consistent>
1

> <s_lp_Variant>
CHEMBL3972_lig4-1

> <s_i_glide_gridfile>
glide-grid_1njs

> <i_i_glide_lignum>
5

> <i_i_glide_rotatable_bonds>
14

> <r_i_docking_score>
-11.0756476768625

> <r_i_glide_ligand_efficiency>
-0.346113989901954

> <r_i_glide_ligand_efficiency_sa>
-1.09884342207311

> <r_i_glide_ligand_efficiency_ln>
-2.48013942560258

> <r_i_glide_gscore>
-11.0756476768625

> <r_i_glide_lipo>
-2.50047798784224

> <r_i_glide_hbond>
-1.37489086515188

> <r_i_glide_metal>
0

> <r_i_glide_rewards>
-2.02540003344714

> <r_i_glide_evdw>
-61.6158142089844

> <r_i_glide_ecoul>
-21.1664180755615

> <r_i_glide_erotb>
1.13458931437263

> <r_i_glide_esite>
-0.0537146830104601

> <r_i_glide_emodel>
-138.984442023711

> <r_i_glide_energy>
-82.7822322845459

> <r_i_glide_einternal>
8.96120643615723

> <i_i_glide_confnum>
31

> <i_i_glide_posenum>
385

> <r_i_glide_eff_state_penalty>
0

> <s_user_duplicate_titles>
CHEMBL3972_lig4,603236

> <i_f3d_flags>
0

> <s_m_subgroup_title>
dock_pv

> <s_m_subgroupid>
dock_pv

> <b_m_subgroup_collapsed>
1

$$$$
CHEMBL3972_lig67
                    3D
 Schrodinger Suite 2021-1.
 52 54  0  0  1  0            999 V2000
   75.7864   24.4843   27.3668 C   0  0  0  0  0  0
   76.8764   23.9357   27.9545 C   0  0  0  0  0  0
   78.0697   24.5856   28.0908 N   0  0  0  0  0  0
   77.1039   26.3909   27.0500 N   0  0  0  0  0  0
   75.9169   25.8059   26.7866 C   0  0  0  0  0  0
   78.1468   25.8050   27.6911 C   0  0  0  0  0  0
   72.8889   23.1176   32.7557 C   0  0  0  0  0  0
   74.1771   23.7149   27.2912 S   0  0  0  0  0  0
   72.8352   23.9472   33.9364 C   0  0  0  0  0  0
   72.0890   23.5964   31.2911 S   0  0  0  0  0  0
   76.8723   22.6964   28.5192 N   0  0  0  0  0  0
   73.7113   23.5605   34.8698 N   0  0  0  0  0  0
   73.4806   21.8648   32.5906 C   0  0  0  0  0  0
   72.5808   22.1596   30.4519 C   0  0  0  0  0  0
   74.4878   25.6472   36.0726 C   0  0  0  0  0  0
   74.0245   24.1717   36.1619 C   0  0  2  0  0  0
   73.2990   21.3446   31.3126 C   0  0  0  0  0  0
   75.0850   26.3900   26.0915 O   0  0  0  0  0  0
   77.3201   22.0526   36.6246 C   0  0  0  0  0  0
   72.0887   24.9186   34.0516 O   0  0  0  0  0  0
   74.8876   26.1947   35.0672 O   0  0  0  0  0  0
   79.2890   26.5828   27.9092 N   0  0  0  0  0  0
   78.0892   22.3910   37.5201 O   0  0  0  0  0  0
   74.5952   22.0153   27.8162 C   0  0  1  0  0  0
   75.0891   23.2664   36.8360 C   0  0  0  0  0  0
   75.6769   21.9613   28.9209 C   0  0  0  0  0  0
   76.3459   23.0124   35.9669 C   0  0  0  0  0  0
   72.1957   21.9129   29.0152 C   0  0  0  0  0  0
   74.4003   26.2272   37.3018 O   0  0  0  0  0  0
   77.2884   20.7958   36.0910 O   0  0  0  0  0  0
   73.3061   21.2207   28.1877 C   0  0  0  0  0  0
   77.7384   22.3535   28.9049 H   0  0  0  0  0  0
   74.2554   22.7423   34.6581 H   0  0  0  0  0  0
   74.0181   21.3322   33.3602 H   0  0  0  0  0  0
   73.1057   24.1557   36.7537 H   0  0  0  0  0  0
   73.6888   20.3911   31.0017 H   0  0  0  0  0  0
   77.2155   27.3156   26.6596 H   0  0  0  0  0  0
   80.0780   26.1154   28.3325 H   0  0  0  0  0  0
   79.6086   27.1509   27.1407 H   0  0  0  0  0  0
   75.0170   21.5571   26.9202 H   0  0  0  0  0  0
   74.6260   22.3096   37.0875 H   0  0  0  0  0  0
   75.3829   23.6897   37.7993 H   0  0  0  0  0  0
   75.2905   22.3910   29.8422 H   0  0  0  0  0  0
   75.9491   20.9273   29.1400 H   0  0  0  0  0  0
   76.8654   23.9559   35.7932 H   0  0  0  0  0  0
   76.0889   22.6201   34.9843 H   0  0  0  0  0  0
   71.3085   21.2790   29.0012 H   0  0  0  0  0  0
   71.8739   22.8343   28.5273 H   0  0  0  0  0  0
   74.6635   27.1480   37.2500 H   0  0  0  0  0  0
   76.6556   20.6446   35.3760 H   0  0  0  0  0  0
   73.5911   20.2994   28.6800 H   0  0  0  0  0  0
   72.8210   20.8709   27.2902 H   0  0  0  0  0  0
  1  8  1  0  0  0
  1  2  2  0  0  0
  1  5  1  0  0  0
  2 11  1  0  0  0
  2  3  1  0  0  0
  3  6  2  0  0  0
  4  6  1  0  0  0
  4 37  1  0  0  0
  4  5  1  0  0  0
  5 18  2  0  0  0
  6 22  1  0  0  0
  7 10  1  0  0  0
  7  9  1  0  0  0
  7 13  2  0  0  0
  8 24  1  0  0  0
  9 12  1  0  0  0
  9 20  2  0  0  0
 10 14  1  0  0  0
 11 26  1  0  0  0
 11 32  1  0  0  0
 12 16  1  0  0  0
 12 33  1  0  0  0
 13 17  1  0  0  0
 13 34  1  0  0  0
 14 28  1  0  0  0
 14 17  2  0  0  0
 15 16  1  0  0  0
 15 21  2  0  0  0
 15 29  1  0  0  0
 16 25  1  0  0  0
 16 35  1  0  0  0
 17 36  1  0  0  0
 19 27  1  0  0  0
 19 23  2  0  0  0
 19 30  1  0  0  0
 22 38  1  0  0  0
 22 39  1  0  0  0
 24 26  1  0  0  0
 24 31  1  0  0  0
 24 40  1  0  0  0
 25 27  1  0  0  0
 25 41  1  0  0  0
 25 42  1  0  0  0
 26 43  1  0  0  0
 26 44  1  0  0  0
 27 45  1  0  0  0
 27 46  1  0  0  0
 28 31  1  0  0  0
 28 47  1  0  0  0
 28 48  1  0  0  0
 29 49  1  0  0  0
 30 50  1  0  0  0
 31 51  1  0  0  0
 31 52  1  0  0  0
M  END
> <s_m_entry_id>
24899

> <s_m_entry_name>
dock_pv.52

> <s_m_Source_Path>
/home/csk/Desktop/cluster/DUD-E-result/pur2

> <s_m_Source_File>
dock_pv.maegz

> <i_m_Source_File_Index>
52

> <chembl_id>
CHEMBL84163

> <chembl_pref_name>
None

> <i_lp_mmshare_version>
53161

> <r_lp_tautomer_probability>
0.982539515805485

> <s_lp_Force_Field>
OPLS_2005

> <r_lp_Energy>
7.829016

> <b_lp_Chiralities_Consistent>
1

> <s_lp_Variant>
CHEMBL3972_lig67-2

> <s_i_glide_gridfile>
glide-grid_1njs

> <i_i_glide_lignum>
142

> <i_i_glide_rotatable_bonds>
12

> <r_i_docking_score>
-11.0288065097687

> <r_i_glide_ligand_efficiency>
-0.355767951928024

> <r_i_glide_ligand_efficiency_sa>
-1.11760255964833

> <r_i_glide_ligand_efficiency_ln>
-2.48733386028103

> <r_i_glide_gscore>
-11.0288065097687

> <r_i_glide_lipo>
-2.4117441279186

> <r_i_glide_hbond>
-1.20500102456715

> <r_i_glide_metal>
0

> <r_i_glide_rewards>
-2.41702712658168

> <r_i_glide_evdw>
-47.5157623291016

> <r_i_glide_ecoul>
-21.2983798980713

> <r_i_glide_erotb>
0.646369206588922

> <r_i_glide_esite>
-0.0708583361244362

> <r_i_glide_emodel>
-115.560523461925

> <r_i_glide_energy>
-68.8141422271729

> <r_i_glide_einternal>
5.71063899993896

> <i_i_glide_confnum>
72

> <i_i_glide_posenum>
316

> <r_i_glide_eff_state_penalty>
0

> <s_user_duplicate_titles>
CHEMBL3972_lig67,CHEMBL3972_lig67,134849

> <i_f3d_flags>
0

> <s_m_subgroup_title>
dock_pv

> <s_m_subgroupid>
dock_pv

> <b_m_subgroup_collapsed>
1

$$$$
CHEMBL3972_lig59 
                    3D
 Schrodinger Suite 2021-1.
 59 61  0  0  1  0            999 V2000
   79.2879   26.7648   28.0862 N   0  0  0  0  0  0
   78.1064   26.1079   27.7010 C   0  0  0  0  0  0
   77.2169   26.7858   26.8947 N   0  0  0  0  0  0
   77.8520   24.9070   28.0979 N   0  0  0  0  0  0
   76.6279   24.4150   27.7569 C   0  0  0  0  0  0
   76.1036   23.2246   28.1741 N   0  0  0  0  0  0
   74.8114   23.1177   27.7060 C   0  0  0  0  0  0
   73.9317   21.9491   28.0735 C   0  0  0  0  0  0
   72.4709   22.4380   28.2450 C   0  0  0  0  0  0
   71.6547   21.6828   29.2132 N   0  0  0  0  0  0
   71.7791   21.9302   30.5479 C   0  0  0  0  0  0
   72.5496   23.1634   31.0315 C   0  0  0  0  0  0
   71.2891   21.1954   31.4035 O   0  0  0  0  0  0
   70.8752   20.5905   28.7477 C   0  0  0  0  0  0
   71.3673   19.7597   27.7434 C   0  0  0  0  0  0
   70.6343   18.6678   27.3102 C   0  0  0  0  0  0
   69.3830   18.3718   27.8789 C   0  0  0  0  0  0
   68.6335   17.1672   27.3738 C   0  0  0  0  0  0
   67.4623   16.8260   27.9469 N   0  0  0  0  0  0
   66.6870   15.6387   27.5734 C   0  0  1  0  0  0
   67.3279   14.3438   28.1875 C   0  0  0  0  0  0
   68.8329   14.0528   28.0074 C   0  0  0  0  0  0
   69.1983   12.6056   28.3535 C   0  0  0  0  0  0
   69.2286   11.8049   27.2450 O   0  0  0  0  0  0
   69.4624   12.1950   29.4832 O   0  0  0  0  0  0
   65.1869   15.8392   27.9672 C   0  0  0  0  0  0
   64.3272   15.9926   26.8943 O   0  0  0  0  0  0
   64.8302   15.8294   29.1231 O   0  0  0  0  0  0
   69.1345   16.4831   26.4811 O   0  0  0  0  0  0
   68.8895   19.2009   28.8895 C   0  0  0  0  0  0
   69.6013   20.3252   29.2848 C   0  0  0  0  0  0
   74.5477   24.2499   26.9290 C   0  0  0  0  0  0
   75.6643   25.0823   27.0011 C   0  0  0  0  0  0
   75.9860   26.3879   26.4488 C   0  0  0  0  0  0
   75.2918   27.0709   25.6884 O   0  0  0  0  0  0
   80.0405   26.2691   28.5336 H   0  0  0  0  0  0
   79.5803   27.6062   27.6167 H   0  0  0  0  0  0
   77.5342   27.6539   26.4567 H   0  0  0  0  0  0
   76.5691   22.5709   28.7796 H   0  0  0  0  0  0
   74.0084   21.1918   27.2920 H   0  0  0  0  0  0
   74.2851   21.4640   28.9886 H   0  0  0  0  0  0
   72.4812   23.4873   28.5496 H   0  0  0  0  0  0
   71.9579   22.4666   27.2930 H   0  0  0  0  0  0
   72.0864   24.0766   30.6445 H   0  0  0  0  0  0
   72.5421   23.2140   32.1211 H   0  0  0  0  0  0
   73.5891   23.1239   30.7019 H   0  0  0  0  0  0
   72.3321   19.9262   27.2933 H   0  0  0  0  0  0
   71.0537   18.0669   26.5162 H   0  0  0  0  0  0
   67.0538   17.4274   28.6423 H   0  0  0  0  0  0
   66.7202   15.5502   26.4910 H   0  0  0  0  0  0
   67.0773   14.2643   29.2484 H   0  0  0  0  0  0
   66.8892   13.5012   27.6863 H   0  0  0  0  0  0
   69.1177   14.1902   26.9674 H   0  0  0  0  0  0
   69.4305   14.7289   28.6061 H   0  0  0  0  0  0
   69.5543   10.9377   27.4892 H   0  0  0  0  0  0
   64.7473   15.9490   26.0054 H   0  0  0  0  0  0
   67.9259   19.0184   29.3551 H   0  0  0  0  0  0
   69.1766   20.9639   30.0460 H   0  0  0  0  0  0
   73.6156   24.4713   26.4234 H   0  0  0  0  0  0
  1  2  1  0  0  0
  1 36  1  0  0  0
  1 37  1  0  0  0
  2  3  1  0  0  0
  2  4  2  0  0  0
  3 34  1  0  0  0
  3 38  1  0  0  0
  4  5  1  0  0  0
  5  6  1  0  0  0
  5 33  2  0  0  0
  6  7  1  0  0  0
  6 39  1  0  0  0
  7  8  1  0  0  0
  7 32  2  0  0  0
  8  9  1  0  0  0
  8 40  1  0  0  0
  8 41  1  0  0  0
  9 10  1  0  0  0
  9 42  1  0  0  0
  9 43  1  0  0  0
 10 11  1  0  0  0
 10 14  1  0  0  0
 11 12  1  0  0  0
 11 13  2  0  0  0
 12 44  1  0  0  0
 12 45  1  0  0  0
 12 46  1  0  0  0
 14 15  2  0  0  0
 14 31  1  0  0  0
 15 16  1  0  0  0
 15 47  1  0  0  0
 16 17  2  0  0  0
 16 48  1  0  0  0
 17 18  1  0  0  0
 17 30  1  0  0  0
 18 19  1  0  0  0
 18 29  2  0  0  0
 19 20  1  0  0  0
 19 49  1  0  0  0
 20 21  1  0  0  0
 20 26  1  0  0  0
 20 50  1  0  0  0
 21 22  1  0  0  0
 21 51  1  0  0  0
 21 52  1  0  0  0
 22 23  1  0  0  0
 22 53  1  0  0  0
 22 54  1  0  0  0
 23 24  1  0  0  0
 23 25  2  0  0  0
 24 55  1  0  0  0
 26 27  1  0  0  0
 26 28  2  0  0  0
 27 56  1  0  0  0
 30 31  2  0  0  0
 30 57  1  0  0  0
 31 58  1  0  0  0
 32 33  1  0  0  0
 32 59  1  0  0  0
 33 34  1  0  0  0
 34 35  2  0  0  0
M  END
> <s_m_entry_id>
24900

> <s_m_entry_name>
dock_pv.53

> <s_m_Source_Path>
/home/csk/Desktop/cluster/DUD-E-result/pur2

> <s_m_Source_File>
dock_pv.maegz

> <i_m_Source_File_Index>
53

> <chembl_id>
CHEMBL4444011

> <chembl_pref_name>
None

> <i_lp_mmshare_version>
53161

> <r_lp_tautomer_probability>
1

> <s_lp_Force_Field>
OPLS_2005

> <r_lp_Energy>
31.421813

> <b_lp_Chiralities_Consistent>
1

> <s_lp_Variant>
CHEMBL3972_lig59 -1

> <s_i_glide_gridfile>
glide-grid_1njs

> <i_i_glide_lignum>
129

> <i_i_glide_rotatable_bonds>
14

> <r_i_docking_score>
-11.0065425985436

> <r_i_glide_ligand_efficiency>
-0.314472645672675

> <r_i_glide_ligand_efficiency_sa>
-1.02866087551668

> <r_i_glide_ligand_efficiency_ln>
-2.416180377432

> <r_i_glide_gscore>
-11.0065425985436

> <r_i_glide_lipo>
-2.09529010935262

> <r_i_glide_hbond>
-0.887425901561002

> <r_i_glide_metal>
0

> <r_i_glide_rewards>
-1.70632475041433

> <r_i_glide_evdw>
-63.3716926574707

> <r_i_glide_ecoul>
-38.8906326293945

> <r_i_glide_erotb>
0.951793725547167

> <r_i_glide_esite>
-0.10071092988929

> <r_i_glide_emodel>
-165.258399062717

> <r_i_glide_energy>
-102.262325286865

> <r_i_glide_einternal>
12.551025390625

> <i_i_glide_confnum>
174

> <i_i_glide_posenum>
100

> <r_i_glide_eff_state_penalty>
0

> <s_user_duplicate_titles>
CHEMBL3972_lig59 

> <i_f3d_flags>
0

> <s_m_subgroup_title>
dock_pv

> <s_m_subgroupid>
dock_pv

> <b_m_subgroup_collapsed>
1

$$$$
CHEMBL3972_lig65
                    3D
 Schrodinger Suite 2021-1.
 55 57  0  0  1  0            999 V2000
   77.0856   26.4061   27.0697 N   0  0  0  0  0  0
   76.0237   25.5721   26.9963 C   0  0  0  0  0  0
   76.1071   24.2295   27.4567 C   0  0  0  0  0  0
   78.2518   25.8964   27.5083 C   0  0  0  0  0  0
   78.4888   24.6111   27.8347 N   0  0  0  0  0  0
   77.4122   23.7828   27.8239 C   0  0  0  0  0  0
   68.3295   18.3264   29.1886 C   0  0  0  0  0  0
   68.4467   17.2040   28.4671 N   0  0  0  0  0  0
   72.7700   21.8947   29.1951 N   0  0  0  0  0  0
   67.6476   15.1839   27.2984 C   0  0  0  0  0  0
   67.5896   16.0183   28.5910 C   0  0  1  0  0  0
   75.0016   23.3501   27.6263 C   0  0  0  0  0  0
   69.3139   19.4350   28.8912 C   0  0  0  0  0  0
   72.9436   22.9371   30.0685 C   0  0  0  0  0  0
   71.5228   21.2049   28.9677 C   0  0  0  0  0  0
   69.6417   13.8724   31.2365 C   0  0  0  0  0  0
   74.8180   25.9751   26.4907 O   0  0  0  0  0  0
   74.0348   21.2552   28.7315 C   0  0  0  0  0  0
   67.4992   18.4431   30.0926 O   0  0  0  0  0  0
   75.1971   22.1047   28.2255 C   0  0  0  0  0  0
   67.6883   13.9694   27.2902 O   0  0  0  0  0  0
   77.5897   22.4565   28.2494 C   0  0  0  0  0  0
   79.2894   26.7897   27.6911 N   0  0  0  0  0  0
   69.7657   12.6558   31.3530 O   0  0  0  0  0  0
   72.0992   23.5233   30.7416 O   0  0  0  0  0  0
   70.3603   19.2964   27.9725 C   0  0  0  0  0  0
   69.2826   20.5783   29.6905 C   0  0  0  0  0  0
   71.4380   20.1784   28.0057 C   0  0  0  0  0  0
   70.3670   21.4428   29.7348 C   0  0  0  0  0  0
   67.9304   15.2107   29.8810 C   0  0  0  0  0  0
   69.3413   14.5733   29.9152 C   0  0  0  0  0  0
   67.6891   15.9914   26.1951 O   0  0  0  0  0  0
   76.4868   21.6500   28.4912 C   0  0  0  0  0  0
   69.7680   14.7488   32.2703 O   0  0  0  0  0  0
   69.1491   17.1596   27.7455 H   0  0  0  0  0  0
   66.5554   16.3625   28.6713 H   0  0  0  0  0  0
   73.9965   23.6862   27.4106 H   0  0  0  0  0  0
   74.0024   23.2315   30.1295 H   0  0  0  0  0  0
   74.1765   25.2604   26.4963 H   0  0  0  0  0  0
   74.4162   20.7906   29.6400 H   0  0  0  0  0  0
   73.9214   20.4242   28.0439 H   0  0  0  0  0  0
   78.5800   22.1036   28.4921 H   0  0  0  0  0  0
   79.0810   27.7681   27.5527 H   0  0  0  0  0  0
   80.1527   26.4817   28.1203 H   0  0  0  0  0  0
   70.4046   18.4733   27.2750 H   0  0  0  0  0  0
   68.4657   20.7495   30.3778 H   0  0  0  0  0  0
   72.2157   19.9887   27.2859 H   0  0  0  0  0  0
   70.2803   22.2337   30.4585 H   0  0  0  0  0  0
   67.1853   14.4250   30.0162 H   0  0  0  0  0  0
   67.8068   15.8578   30.7512 H   0  0  0  0  0  0
   70.0989   15.3296   29.7341 H   0  0  0  0  0  0
   69.4543   13.8359   29.1225 H   0  0  0  0  0  0
   67.3763   16.8867   26.3471 H   0  0  0  0  0  0
   76.6418   20.6741   28.9302 H   0  0  0  0  0  0
   69.9496   14.2999   33.0984 H   0  0  0  0  0  0
  1  2  2  0  0  0
  1  4  1  0  0  0
  2  3  1  0  0  0
  2 17  1  0  0  0
  3 12  2  0  0  0
  3  6  1  0  0  0
  4  5  2  0  0  0
  4 23  1  0  0  0
  5  6  1  0  0  0
  6 22  2  0  0  0
  7 13  1  0  0  0
  7  8  1  0  0  0
  7 19  2  0  0  0
  8 11  1  0  0  0
  8 35  1  0  0  0
  9 18  1  0  0  0
  9 14  1  0  0  0
  9 15  1  0  0  0
 10 11  1  0  0  0
 10 21  2  0  0  0
 10 32  1  0  0  0
 11 30  1  0  0  0
 11 36  1  0  0  0
 12 20  1  0  0  0
 12 37  1  0  0  0
 13 27  1  0  0  0
 13 26  2  0  0  0
 14 25  2  0  0  0
 14 38  1  0  0  0
 15 28  2  0  0  0
 15 29  1  0  0  0
 16 31  1  0  0  0
 16 24  2  0  0  0
 16 34  1  0  0  0
 17 39  1  0  0  0
 18 20  1  0  0  0
 18 40  1  0  0  0
 18 41  1  0  0  0
 20 33  2  0  0  0
 22 33  1  0  0  0
 22 42  1  0  0  0
 23 43  1  0  0  0
 23 44  1  0  0  0
 26 28  1  0  0  0
 26 45  1  0  0  0
 27 29  2  0  0  0
 27 46  1  0  0  0
 28 47  1  0  0  0
 29 48  1  0  0  0
 30 31  1  0  0  0
 30 49  1  0  0  0
 30 50  1  0  0  0
 31 51  1  0  0  0
 31 52  1  0  0  0
 32 53  1  0  0  0
 33 54  1  0  0  0
 34 55  1  0  0  0
M  END
> <s_m_entry_id>
24901

> <s_m_entry_name>
dock_pv.54

> <s_m_Source_Path>
/home/csk/Desktop/cluster/DUD-E-result/pur2

> <s_m_Source_File>
dock_pv.maegz

> <i_m_Source_File_Index>
54

> <chembl_id>
CHEMBL140448

> <chembl_pref_name>
None

> <i_lp_mmshare_version>
53161

> <r_lp_tautomer_probability>
1

> <s_lp_Force_Field>
OPLS_2005

> <r_lp_Energy>
17.677147

> <b_lp_Chiralities_Consistent>
1

> <s_lp_Variant>
CHEMBL3972_lig65-1

> <s_i_glide_gridfile>
glide-grid_1njs

> <i_i_glide_lignum>
137

> <i_i_glide_rotatable_bonds>
14

> <r_i_docking_score>
-10.9401100442259

> <r_i_glide_ligand_efficiency>
-0.321767942477232

> <r_i_glide_ligand_efficiency_sa>
-1.04240322249672

> <r_i_glide_ligand_efficiency_ln>
-2.41697716846221

> <r_i_glide_gscore>
-10.9401100442259

> <r_i_glide_lipo>
-3.05551369549665

> <r_i_glide_hbond>
-0.788323204739888

> <r_i_glide_metal>
0

> <r_i_glide_rewards>
-3.00040319207563

> <r_i_glide_evdw>
-57.7226905822754

> <r_i_glide_ecoul>
-13.8046245574951

> <r_i_glide_erotb>
0.92370813585421

> <r_i_glide_esite>
-0.0627498750298855

> <r_i_glide_emodel>
-110.901413793407

> <r_i_glide_energy>
-71.5273151397705

> <r_i_glide_einternal>
11.3333377838135

> <i_i_glide_confnum>
139

> <i_i_glide_posenum>
24

> <r_i_glide_eff_state_penalty>
0

> <s_user_duplicate_titles>
CHEMBL3972_lig65

> <i_f3d_flags>
0

> <s_m_subgroup_title>
dock_pv

> <s_m_subgroupid>
dock_pv

> <b_m_subgroup_collapsed>
1

$$$$
CHEMBL3972_lig20
                    3D
 Schrodinger Suite 2021-1.
 56 57  0  0  1  0            999 V2000
   72.2154   22.3530   31.1948 C   0  0  0  0  0  0
   72.8908   21.2792   31.7730 C   0  0  0  0  0  0
   73.5715   21.4464   32.9787 C   0  0  0  0  0  0
   73.5818   22.6922   33.6293 C   0  0  0  0  0  0
   72.8625   23.7499   33.0556 C   0  0  0  0  0  0
   72.1957   23.5857   31.8443 C   0  0  0  0  0  0
   71.5487   22.2017   29.8292 C   0  0  0  0  0  0
   72.5480   21.9657   28.6724 C   0  0  0  0  0  0
   73.6800   23.0096   28.6244 C   0  0  0  0  0  0
   74.6199   22.8496   27.4204 C   0  0  0  0  0  0
   75.8139   23.8059   27.5087 C   0  0  0  0  0  0
   75.7062   25.1557   27.1258 C   0  0  0  0  0  0
   76.7693   25.9912   27.2311 N   0  0  0  0  0  0
   77.9302   25.4836   27.6939 C   0  0  0  0  0  0
   78.1301   24.2091   28.0909 N   0  0  0  0  0  0
   77.0582   23.3876   28.0095 C   0  0  0  0  0  0
   74.4892   25.5823   26.6646 O   0  0  0  0  0  0
   78.9999   26.3599   27.7738 N   0  0  0  0  0  0
   77.2365   22.0973   28.4909 N   0  0  0  0  0  0
   74.3813   22.9366   34.8931 C   0  0  0  0  0  0
   74.6130   24.0823   35.2820 O   0  0  0  0  0  0
   74.8273   21.8552   35.5593 N   0  0  0  0  0  0
   75.6578   21.8856   36.7779 C   0  0  2  0  0  0
   77.1357   22.2948   36.5492 C   0  0  0  0  0  0
   77.5660   21.9910   35.2914 O   0  0  0  0  0  0
   77.8262   22.7870   37.4165 O   0  0  0  0  0  0
   75.5293   20.5430   37.5472 C   0  0  0  0  0  0
   75.8068   19.2761   36.7112 C   0  0  0  0  0  0
   76.0889   18.0467   37.5641 C   0  0  0  0  0  0
   74.9668   17.5354   38.1440 O   0  0  0  0  0  0
   77.2158   17.5775   37.7013 O   0  0  0  0  0  0
   72.9063   20.3210   31.2741 H   0  0  0  0  0  0
   74.0890   20.5928   33.3841 H   0  0  0  0  0  0
   72.8496   24.7255   33.5217 H   0  0  0  0  0  0
   71.6890   24.4282   31.3928 H   0  0  0  0  0  0
   70.8327   21.3804   29.8771 H   0  0  0  0  0  0
   70.9555   23.0933   29.6117 H   0  0  0  0  0  0
   72.9831   20.9690   28.7674 H   0  0  0  0  0  0
   72.0079   21.9687   27.7219 H   0  0  0  0  0  0
   73.2523   24.0127   28.6282 H   0  0  0  0  0  0
   74.2726   22.9361   29.5384 H   0  0  0  0  0  0
   74.9529   21.8149   27.3383 H   0  0  0  0  0  0
   74.0879   23.0354   26.4911 H   0  0  0  0  0  0
   73.8158   24.9032   26.7749 H   0  0  0  0  0  0
   78.8444   27.3204   27.5010 H   0  0  0  0  0  0
   79.8789   26.0590   28.1707 H   0  0  0  0  0  0
   76.4384   21.4822   28.5103 H   0  0  0  0  0  0
   78.0918   21.8469   28.9751 H   0  0  0  0  0  0
   74.5847   20.9420   35.2074 H   0  0  0  0  0  0
   75.2412   22.6663   37.4196 H   0  0  0  0  0  0
   76.8746   21.5415   34.7926 H   0  0  0  0  0  0
   74.5181   20.4764   37.9527 H   0  0  0  0  0  0
   76.1725   20.5617   38.4300 H   0  0  0  0  0  0
   76.6886   19.4320   36.0910 H   0  0  0  0  0  0
   74.9779   19.0669   36.0358 H   0  0  0  0  0  0
   74.1729   18.0331   37.9404 H   0  0  0  0  0  0
  1  6  1  0  0  0
  1  7  1  0  0  0
  1  2  2  0  0  0
  2  3  1  0  0  0
  2 32  1  0  0  0
  3  4  2  0  0  0
  3 33  1  0  0  0
  4 20  1  0  0  0
  4  5  1  0  0  0
  5  6  2  0  0  0
  5 34  1  0  0  0
  6 35  1  0  0  0
  7  8  1  0  0  0
  7 36  1  0  0  0
  7 37  1  0  0  0
  8  9  1  0  0  0
  8 38  1  0  0  0
  8 39  1  0  0  0
  9 10  1  0  0  0
  9 40  1  0  0  0
  9 41  1  0  0  0
 10 42  1  0  0  0
 10 43  1  0  0  0
 10 11  1  0  0  0
 11 16  2  0  0  0
 11 12  1  0  0  0
 12 13  2  0  0  0
 12 17  1  0  0  0
 13 14  1  0  0  0
 14 15  2  0  0  0
 14 18  1  0  0  0
 15 16  1  0  0  0
 16 19  1  0  0  0
 17 44  1  0  0  0
 18 45  1  0  0  0
 18 46  1  0  0  0
 19 47  1  0  0  0
 19 48  1  0  0  0
 20 21  2  0  0  0
 20 22  1  0  0  0
 22 23  1  0  0  0
 22 49  1  0  0  0
 23 24  1  0  0  0
 23 27  1  0  0  0
 23 50  1  0  0  0
 24 25  1  0  0  0
 24 26  2  0  0  0
 25 51  1  0  0  0
 27 28  1  0  0  0
 27 52  1  0  0  0
 27 53  1  0  0  0
 28 29  1  0  0  0
 28 54  1  0  0  0
 28 55  1  0  0  0
 29 30  1  0  0  0
 29 31  2  0  0  0
 30 56  1  0  0  0
M  END
> <s_m_entry_id>
24902

> <s_m_entry_name>
dock_pv.55

> <s_m_Source_Path>
/home/csk/Desktop/cluster/DUD-E-result/pur2

> <s_m_Source_File>
dock_pv.maegz

> <i_m_Source_File_Index>
55

> <chembl_id>
CHEMBL13705

> <chembl_pref_name>
DIDEAZAACYCLOTETRAHYDROFOLIC ACID

> <i_lp_mmshare_version>
53161

> <r_lp_tautomer_probability>
0.0160304617775627

> <s_lp_Force_Field>
OPLS_2005

> <r_lp_Energy>
5.482803

> <b_lp_Chiralities_Consistent>
1

> <s_lp_Variant>
CHEMBL3972_lig20-2

> <s_i_glide_gridfile>
glide-grid_1njs

> <i_i_glide_lignum>
55

> <i_i_glide_rotatable_bonds>
15

> <r_i_docking_score>
-10.9326167056218

> <r_i_glide_ligand_efficiency>
-0.352665055020059

> <r_i_glide_ligand_efficiency_sa>
-1.10785517934644

> <r_i_glide_ligand_efficiency_ln>
-2.46564011158243

> <r_i_glide_gscore>
-10.9326167056218

> <r_i_glide_lipo>
-2.54811961524773

> <r_i_glide_hbond>
-1.20284570445636

> <r_i_glide_metal>
0

> <r_i_glide_rewards>
-2.63851572884976

> <r_i_glide_evdw>
-46.423168182373

> <r_i_glide_ecoul>
-20.3145847320557

> <r_i_glide_erotb>
0.897565903908688

> <r_i_glide_esite>
-0.0723554420496593

> <r_i_glide_emodel>
-111.723001903233

> <r_i_glide_energy>
-66.7377529144287

> <r_i_glide_einternal>
7.43007612228394

> <i_i_glide_confnum>
106

> <i_i_glide_posenum>
308

> <r_i_glide_eff_state_penalty>
0

> <s_user_duplicate_titles>
CHEMBL3972_lig20,CHEMBL3972_lig20

> <i_f3d_flags>
0

> <s_m_subgroup_title>
dock_pv

> <s_m_subgroupid>
dock_pv

> <b_m_subgroup_collapsed>
1

$$$$
CHEMBL3972_lig14
                    3D
 Schrodinger Suite 2021-1.
 62 64  0  0  1  0            999 V2000
   75.2209   23.6614   27.9303 C   0  0  0  0  0  0
   76.4585   23.1015   28.3067 C   0  0  0  0  0  0
   77.6458   23.7226   28.0867 N   0  0  0  0  0  0
   76.4445   25.5303   27.0470 N   0  0  0  0  0  0
   75.2647   24.8891   27.2398 C   0  0  0  0  0  0
   77.5725   24.9308   27.4851 C   0  0  0  0  0  0
   74.0071   22.9966   28.2218 N   0  0  0  0  0  0
   76.5193   21.8288   28.8906 N   0  0  0  0  0  0
   67.9836   16.1297   28.7945 C   0  0  0  0  0  0
   68.5860   15.0520   28.2640 N   0  0  0  0  0  0
   68.8509   12.7738   27.3702 C   0  0  0  0  0  0
   68.2567   13.6438   28.4981 C   0  0  1  0  0  0
   68.6574   17.4579   28.5185 C   0  0  0  0  0  0
   74.0891   25.4106   26.7679 O   0  0  0  0  0  0
   70.7730   12.8571   31.4711 C   0  0  0  0  0  0
   74.0445   21.6334   28.7724 C   0  0  1  0  0  0
   66.9981   16.0477   29.5290 O   0  0  0  0  0  0
   69.5772   13.1856   26.4906 O   0  0  0  0  0  0
   78.7480   25.6372   27.2916 N   0  0  0  0  0  0
   70.0887   12.1951   32.2489 O   0  0  0  0  0  0
   75.3305   21.4278   29.6306 C   0  0  0  0  0  0
   68.7573   13.2091   29.9069 C   0  0  0  0  0  0
   68.3264   18.5823   29.2847 C   0  0  0  0  0  0
   69.6450   17.5910   27.5307 C   0  0  0  0  0  0
   70.2848   13.3573   30.1189 C   0  0  0  0  0  0
   72.7755   21.3957   29.6386 C   0  0  0  0  0  0
   68.4881   11.4701   27.5179 O   0  0  0  0  0  0
   70.0504   19.8817   28.1748 C   0  0  0  0  0  0
   70.8222   21.1811   27.9238 C   0  0  0  0  0  0
   71.4135   21.9669   29.1403 C   0  0  1  0  0  0
   72.0786   13.1918   31.6914 O   0  0  0  0  0  0
   70.3626   18.7707   27.3953 C   0  0  0  0  0  0
   68.9869   19.7918   29.0825 C   0  0  0  0  0  0
   70.4896   22.1967   30.3518 C   0  0  0  0  0  0
   73.1203   23.2743   27.8238 H   0  0  0  0  0  0
   77.4017   21.4714   29.2424 H   0  0  0  0  0  0
   69.3342   15.1996   27.6048 H   0  0  0  0  0  0
   67.1713   13.5492   28.4533 H   0  0  0  0  0  0
   73.3029   24.9233   27.0400 H   0  0  0  0  0  0
   74.0548   20.9315   27.9356 H   0  0  0  0  0  0
   78.6609   26.5734   26.9215 H   0  0  0  0  0  0
   79.6013   25.3259   27.7246 H   0  0  0  0  0  0
   75.4660   20.3967   29.9528 H   0  0  0  0  0  0
   75.2696   21.9909   30.5563 H   0  0  0  0  0  0
   68.4552   12.1789   30.1009 H   0  0  0  0  0  0
   68.2396   13.7937   30.6704 H   0  0  0  0  0  0
   67.5422   18.5352   30.0274 H   0  0  0  0  0  0
   69.9118   16.7698   26.8835 H   0  0  0  0  0  0
   70.8272   12.7909   29.3612 H   0  0  0  0  0  0
   70.5667   14.4065   30.0306 H   0  0  0  0  0  0
   72.9772   21.8202   30.6241 H   0  0  0  0  0  0
   72.6645   20.3247   29.8142 H   0  0  0  0  0  0
   68.9938   10.9714   26.8768 H   0  0  0  0  0  0
   70.1918   21.8031   27.2913 H   0  0  0  0  0  0
   71.6611   20.9538   27.2647 H   0  0  0  0  0  0
   71.5799   22.9781   28.7722 H   0  0  0  0  0  0
   72.4701   13.7323   30.9937 H   0  0  0  0  0  0
   71.1402   18.8302   26.6459 H   0  0  0  0  0  0
   68.6428   20.6444   29.6406 H   0  0  0  0  0  0
   70.3526   21.2627   30.8909 H   0  0  0  0  0  0
   70.9337   22.9070   31.0519 H   0  0  0  0  0  0
   69.5154   22.6070   30.0912 H   0  0  0  0  0  0
  1  2  1  0  0  0
  1  5  2  0  0  0
  1  7  1  0  0  0
  2  3  2  0  0  0
  2  8  1  0  0  0
  3  6  1  0  0  0
  4  5  1  0  0  0
  4  6  2  0  0  0
  5 14  1  0  0  0
  6 19  1  0  0  0
  7 16  1  0  0  0
  7 35  1  0  0  0
  8 21  1  0  0  0
  8 36  1  0  0  0
  9 13  1  0  0  0
  9 10  1  0  0  0
  9 17  2  0  0  0
 10 12  1  0  0  0
 10 37  1  0  0  0
 11 12  1  0  0  0
 11 18  2  0  0  0
 11 27  1  0  0  0
 12 22  1  0  0  0
 12 38  1  0  0  0
 13 23  1  0  0  0
 13 24  2  0  0  0
 14 39  1  0  0  0
 15 25  1  0  0  0
 15 20  2  0  0  0
 15 31  1  0  0  0
 16 21  1  0  0  0
 16 26  1  0  0  0
 16 40  1  0  0  0
 19 41  1  0  0  0
 19 42  1  0  0  0
 21 43  1  0  0  0
 21 44  1  0  0  0
 22 25  1  0  0  0
 22 45  1  0  0  0
 22 46  1  0  0  0
 23 33  2  0  0  0
 23 47  1  0  0  0
 24 32  1  0  0  0
 24 48  1  0  0  0
 25 49  1  0  0  0
 25 50  1  0  0  0
 26 30  1  0  0  0
 26 51  1  0  0  0
 26 52  1  0  0  0
 27 53  1  0  0  0
 28 29  1  0  0  0
 28 32  2  0  0  0
 28 33  1  0  0  0
 29 30  1  0  0  0
 29 54  1  0  0  0
 29 55  1  0  0  0
 30 34  1  0  0  0
 30 56  1  0  0  0
 31 57  1  0  0  0
 32 58  1  0  0  0
 33 59  1  0  0  0
 34 60  1  0  0  0
 34 61  1  0  0  0
 34 62  1  0  0  0
M  END
> <s_m_entry_id>
24904

> <s_m_entry_name>
dock_pv.57

> <s_m_Source_Path>
/home/csk/Desktop/cluster/DUD-E-result/pur2

> <s_m_Source_File>
dock_pv.maegz

> <i_m_Source_File_Index>
57

> <chembl_id>
CHEMBL23699

> <chembl_pref_name>
None

> <i_lp_mmshare_version>
53161

> <r_lp_tautomer_probability>
1

> <s_lp_Force_Field>
OPLS_2005

> <r_lp_Energy>
14.640508

> <b_lp_Chiralities_Consistent>
1

> <s_lp_Variant>
CHEMBL3972_lig14-3

> <s_i_glide_gridfile>
glide-grid_1njs

> <i_i_glide_lignum>
30

> <i_i_glide_rotatable_bonds>
14

> <r_i_docking_score>
-10.7886471606096

> <r_i_glide_ligand_efficiency>
-0.317313151782635

> <r_i_glide_ligand_efficiency_sa>
-1.02797143000725

> <r_i_glide_ligand_efficiency_ln>
-2.38351476908139

> <r_i_glide_gscore>
-10.7886471606096

> <r_i_glide_lipo>
-2.24077445938038

> <r_i_glide_hbond>
-0.946018874466956

> <r_i_glide_metal>
0

> <r_i_glide_rewards>
-1.98095908169887

> <r_i_glide_evdw>
-55.5473518371582

> <r_i_glide_ecoul>
-25.2796192169189

> <r_i_glide_erotb>
0.996301984216313

> <r_i_glide_esite>
-0.0478862548839584

> <r_i_glide_emodel>
-129.366568564978

> <r_i_glide_energy>
-80.8269710540771

> <r_i_glide_einternal>
6.13876152038574

> <i_i_glide_confnum>
81

> <i_i_glide_posenum>
221

> <r_i_glide_eff_state_penalty>
0

> <s_user_duplicate_titles>
CHEMBL3972_lig14

> <i_f3d_flags>
0

> <s_m_subgroup_title>
dock_pv

> <s_m_subgroupid>
dock_pv

> <b_m_subgroup_collapsed>
1

$$$$
CHEMBL3972_lig23
                    3D
 Schrodinger Suite 2021-1.
 54 55  0  0  1  0            999 V2000
   78.6646   24.9605   27.9541 N   0  0  0  0  0  0
   77.6829   24.0896   27.5913 C   0  0  0  0  0  0
   77.2887   26.6653   27.2908 N   0  0  0  0  0  0
   76.4869   24.4639   27.0743 C   0  0  0  0  0  0
   76.2605   25.8896   26.8909 C   0  0  0  0  0  0
   78.4680   26.2187   27.7829 C   0  0  0  0  0  0
   68.7383   18.9228   29.0348 C   0  0  0  0  0  0
   69.0694   17.7711   28.4231 N   0  0  0  0  0  0
   68.4657   15.7350   27.1607 C   0  0  0  0  0  0
   68.2778   16.5284   28.4680 C   0  0  1  0  0  0
   69.7545   20.0479   29.0269 C   0  0  0  0  0  0
   75.2716   26.3905   26.3607 O   0  0  0  0  0  0
   68.5478   15.3915   32.2764 C   0  0  0  0  0  0
   67.6991   19.0350   29.6910 O   0  0  0  0  0  0
   78.0313   22.7991   27.7987 N   0  0  0  0  0  0
   68.8888   14.5974   27.1034 O   0  0  0  0  0  0
   79.4513   27.1694   28.0915 N   0  0  0  0  0  0
   68.9319   14.2275   32.1739 O   0  0  0  0  0  0
   68.6259   15.6764   29.7265 C   0  0  0  0  0  0
   71.0159   19.9361   28.4159 C   0  0  0  0  0  0
   69.4882   21.1862   29.7949 C   0  0  0  0  0  0
   68.2890   16.3193   31.0900 C   0  0  0  0  0  0
   75.3769   23.5158   26.5972 C   0  0  0  0  0  0
   68.0855   16.4858   26.0917 O   0  0  0  0  0  0
   71.7536   21.9460   29.5415 C   0  0  0  0  0  0
   72.9995   23.1084   30.0233 S   0  0  0  0  0  0
   68.3086   16.0112   33.4675 O   0  0  0  0  0  0
   72.0117   20.8808   28.6731 C   0  0  0  0  0  0
   70.4880   22.1060   30.0873 C   0  0  0  0  0  0
   74.4101   22.9707   28.9004 C   0  0  0  0  0  0
   74.1278   23.5025   27.4908 C   0  0  0  0  0  0
   69.9003   17.7456   27.8537 H   0  0  0  0  0  0
   67.2157   16.7795   28.5137 H   0  0  0  0  0  0
   77.1785   27.6442   27.0800 H   0  0  0  0  0  0
   77.3772   22.0611   27.6051 H   0  0  0  0  0  0
   78.9309   22.5688   28.1812 H   0  0  0  0  0  0
   80.3196   26.8888   28.5307 H   0  0  0  0  0  0
   79.2558   28.1617   28.1170 H   0  0  0  0  0  0
   69.6873   15.4202   29.7118 H   0  0  0  0  0  0
   68.0912   14.7257   29.6692 H   0  0  0  0  0  0
   71.2709   19.0926   27.7927 H   0  0  0  0  0  0
   68.5181   21.3329   30.2487 H   0  0  0  0  0  0
   67.2424   16.6244   31.1058 H   0  0  0  0  0  0
   68.8859   17.2160   31.2427 H   0  0  0  0  0  0
   75.7456   22.4956   26.5077 H   0  0  0  0  0  0
   75.0867   23.7921   25.5815 H   0  0  0  0  0  0
   67.5998   17.2868   26.3066 H   0  0  0  0  0  0
   68.0202   16.9220   33.3696 H   0  0  0  0  0  0
   72.9859   20.7419   28.2305 H   0  0  0  0  0  0
   70.2756   22.9482   30.7293 H   0  0  0  0  0  0
   75.2167   23.5578   29.3354 H   0  0  0  0  0  0
   74.7656   21.9402   28.8741 H   0  0  0  0  0  0
   73.3624   22.8848   27.0272 H   0  0  0  0  0  0
   73.6932   24.5015   27.5480 H   0  0  0  0  0  0
  1  2  1  0  0  0
  1  6  2  0  0  0
  2  4  2  0  0  0
  2 15  1  0  0  0
  3  6  1  0  0  0
  3 34  1  0  0  0
  3  5  1  0  0  0
  4 23  1  0  0  0
  4  5  1  0  0  0
  5 12  2  0  0  0
  6 17  1  0  0  0
  7 11  1  0  0  0
  7  8  1  0  0  0
  7 14  2  0  0  0
  8 10  1  0  0  0
  8 32  1  0  0  0
  9 10  1  0  0  0
  9 16  2  0  0  0
  9 24  1  0  0  0
 10 19  1  0  0  0
 10 33  1  0  0  0
 11 21  1  0  0  0
 11 20  2  0  0  0
 13 22  1  0  0  0
 13 18  2  0  0  0
 13 27  1  0  0  0
 15 35  1  0  0  0
 15 36  1  0  0  0
 17 37  1  0  0  0
 17 38  1  0  0  0
 19 22  1  0  0  0
 19 39  1  0  0  0
 19 40  1  0  0  0
 20 28  1  0  0  0
 20 41  1  0  0  0
 21 29  2  0  0  0
 21 42  1  0  0  0
 22 43  1  0  0  0
 22 44  1  0  0  0
 23 31  1  0  0  0
 23 45  1  0  0  0
 23 46  1  0  0  0
 24 47  1  0  0  0
 25 26  1  0  0  0
 25 28  2  0  0  0
 25 29  1  0  0  0
 26 30  1  0  0  0
 27 48  1  0  0  0
 28 49  1  0  0  0
 29 50  1  0  0  0
 30 31  1  0  0  0
 30 51  1  0  0  0
 30 52  1  0  0  0
 31 53  1  0  0  0
 31 54  1  0  0  0
M  END
> <s_m_entry_id>
24905

> <s_m_entry_name>
dock_pv.58

> <s_m_Source_Path>
/home/csk/Desktop/cluster/DUD-E-result/pur2

> <s_m_Source_File>
dock_pv.maegz

> <i_m_Source_File_Index>
58

> <chembl_id>
CHEMBL30842

> <chembl_pref_name>
None

> <i_lp_mmshare_version>
53161

> <r_lp_tautomer_probability>
0.982528302960407

> <s_lp_Force_Field>
OPLS_2005

> <r_lp_Energy>
17.841726

> <b_lp_Chiralities_Consistent>
1

> <s_lp_Variant>
CHEMBL3972_lig23-1

> <s_i_glide_gridfile>
glide-grid_1njs

> <i_i_glide_lignum>
68

> <i_i_glide_rotatable_bonds>
14

> <r_i_docking_score>
-10.6932587433553

> <r_i_glide_ligand_efficiency>
-0.344943830430817

> <r_i_glide_ligand_efficiency_sa>
-1.08359987383679

> <r_i_glide_ligand_efficiency_ln>
-2.41165755565075

> <r_i_glide_gscore>
-10.6932587433553

> <r_i_glide_lipo>
-2.49950160860459

> <r_i_glide_hbond>
-1.33586362177994

> <r_i_glide_metal>
0

> <r_i_glide_rewards>
-2.51839572663215

> <r_i_glide_evdw>
-51.564754486084

> <r_i_glide_ecoul>
-19.353494644165

> <r_i_glide_erotb>
1.19036972184113

> <r_i_glide_esite>
-0.0486055872508342

> <r_i_glide_emodel>
-113.879617882113

> <r_i_glide_energy>
-70.918249130249

> <r_i_glide_einternal>
4.58417940139771

> <i_i_glide_confnum>
164

> <i_i_glide_posenum>
14

> <r_i_glide_eff_state_penalty>
0

> <s_user_duplicate_titles>
CHEMBL3972_lig23,CHEMBL3972_lig23

> <i_f3d_flags>
0

> <s_m_subgroup_title>
dock_pv

> <s_m_subgroupid>
dock_pv

> <b_m_subgroup_collapsed>
1

$$$$
CHEMBL3972_lig15
                    3D
 Schrodinger Suite 2021-1.
 60 62  0  0  1  0            999 V2000
   75.6430   23.8591   27.8659 C   0  0  0  0  0  0
   76.9881   23.4802   28.0116 C   0  0  0  0  0  0
   78.0329   24.2947   27.7472 N   0  0  0  0  0  0
   76.4442   25.9471   27.0023 N   0  0  0  0  0  0
   75.4045   25.1137   27.2772 C   0  0  0  0  0  0
   77.6948   25.5175   27.2910 C   0  0  0  0  0  0
   74.5791   23.1216   28.4142 N   0  0  0  0  0  0
   77.2665   22.1924   28.4910 N   0  0  0  0  0  0
   68.8891   17.2944   27.4615 C   0  0  0  0  0  0
   67.7993   16.8658   28.1224 N   0  0  0  0  0  0
   74.8080   21.9916   28.9639 C   0  0  0  0  0  0
   65.5372   15.9695   28.2881 C   0  0  0  0  0  0
   66.9547   15.7277   27.7334 C   0  0  2  0  0  0
   69.5685   18.5551   27.9533 C   0  0  0  0  0  0
   74.1038   25.4527   27.0023 O   0  0  0  0  0  0
   69.0347   12.3909   27.4183 C   0  0  0  0  0  0
   69.3429   16.6916   26.4910 O   0  0  0  0  0  0
   65.3072   16.0975   29.4730 O   0  0  0  0  0  0
   76.1676   21.2668   28.8454 C   0  0  0  0  0  0
   78.7238   26.4124   27.0725 N   0  0  0  0  0  0
   68.3070   11.5313   27.9149 O   0  0  0  0  0  0
   67.5383   14.3684   28.2333 C   0  0  0  0  0  0
   70.8101   18.9150   27.4095 C   0  0  0  0  0  0
   68.9689   19.4124   28.8911 C   0  0  0  0  0  0
   73.7428   21.3454   29.8561 C   0  0  0  0  0  0
   68.8230   13.9049   27.5126 C   0  0  0  0  0  0
   64.6033   15.9909   27.2910 O   0  0  0  0  0  0
   70.8032   20.9707   28.6695 C   0  0  0  0  0  0
   71.4658   22.2983   29.0277 C   0  0  0  0  0  0
   72.4926   22.2153   30.1832 C   0  0  1  0  0  0
   70.1338   12.0982   26.6696 O   0  0  0  0  0  0
   69.5833   20.6118   29.2457 C   0  0  0  0  0  0
   71.4130   20.1183   27.7518 C   0  0  0  0  0  0
   71.8246   21.7528   31.4883 C   0  0  0  0  0  0
   78.2074   21.8620   28.6610 H   0  0  0  0  0  0
   67.4696   17.3880   28.9196 H   0  0  0  0  0  0
   66.8921   15.7071   26.6420 H   0  0  0  0  0  0
   73.4632   24.7912   27.2912 H   0  0  0  0  0  0
   76.0908   20.4840   28.0906 H   0  0  0  0  0  0
   76.4090   20.7780   29.7895 H   0  0  0  0  0  0
   79.6670   26.1654   27.3259 H   0  0  0  0  0  0
   78.4887   27.3099   26.6636 H   0  0  0  0  0  0
   67.7471   14.4346   29.3028 H   0  0  0  0  0  0
   66.7879   13.5915   28.1363 H   0  0  0  0  0  0
   71.2979   18.2972   26.6691 H   0  0  0  0  0  0
   68.0093   19.1856   29.3320 H   0  0  0  0  0  0
   73.4379   20.3910   29.4384 H   0  0  0  0  0  0
   74.2350   21.0900   30.7952 H   0  0  0  0  0  0
   68.8110   14.2708   26.4908 H   0  0  0  0  0  0
   69.6888   14.3619   27.9867 H   0  0  0  0  0  0
   64.9366   15.9766   26.3697 H   0  0  0  0  0  0
   70.7027   23.0305   29.2927 H   0  0  0  0  0  0
   71.9256   22.7164   28.1317 H   0  0  0  0  0  0
   72.8255   23.2353   30.3901 H   0  0  0  0  0  0
   70.3193   11.1599   26.6333 H   0  0  0  0  0  0
   69.1012   21.2711   29.9530 H   0  0  0  0  0  0
   72.3520   20.3906   27.2914 H   0  0  0  0  0  0
   71.5189   20.7071   31.4403 H   0  0  0  0  0  0
   72.5012   21.8603   32.3370 H   0  0  0  0  0  0
   70.9371   22.3526   31.6911 H   0  0  0  0  0  0
  1  2  1  0  0  0
  1  5  2  0  0  0
  1  7  1  0  0  0
  2  3  2  0  0  0
  2  8  1  0  0  0
  3  6  1  0  0  0
  4  5  1  0  0  0
  4  6  2  0  0  0
  5 15  1  0  0  0
  6 20  1  0  0  0
  7 11  2  0  0  0
  8 19  1  0  0  0
  8 35  1  0  0  0
  9 14  1  0  0  0
  9 10  1  0  0  0
  9 17  2  0  0  0
 10 13  1  0  0  0
 10 36  1  0  0  0
 11 19  1  0  0  0
 11 25  1  0  0  0
 12 13  1  0  0  0
 12 18  2  0  0  0
 12 27  1  0  0  0
 13 22  1  0  0  0
 13 37  1  0  0  0
 14 23  1  0  0  0
 14 24  2  0  0  0
 15 38  1  0  0  0
 16 26  1  0  0  0
 16 21  2  0  0  0
 16 31  1  0  0  0
 19 39  1  0  0  0
 19 40  1  0  0  0
 20 41  1  0  0  0
 20 42  1  0  0  0
 22 26  1  0  0  0
 22 43  1  0  0  0
 22 44  1  0  0  0
 23 33  2  0  0  0
 23 45  1  0  0  0
 24 32  1  0  0  0
 24 46  1  0  0  0
 25 30  1  0  0  0
 25 47  1  0  0  0
 25 48  1  0  0  0
 26 49  1  0  0  0
 26 50  1  0  0  0
 27 51  1  0  0  0
 28 29  1  0  0  0
 28 32  2  0  0  0
 28 33  1  0  0  0
 29 30  1  0  0  0
 29 52  1  0  0  0
 29 53  1  0  0  0
 30 34  1  0  0  0
 30 54  1  0  0  0
 31 55  1  0  0  0
 32 56  1  0  0  0
 33 57  1  0  0  0
 34 58  1  0  0  0
 34 59  1  0  0  0
 34 60  1  0  0  0
M  END
> <s_m_entry_id>
24906

> <s_m_entry_name>
dock_pv.59

> <s_m_Source_Path>
/home/csk/Desktop/cluster/DUD-E-result/pur2

> <s_m_Source_File>
dock_pv.maegz

> <i_m_Source_File_Index>
59

> <chembl_id>
CHEMBL23278

> <chembl_pref_name>
None

> <i_lp_mmshare_version>
53161

> <r_lp_tautomer_probability>
0.999202636296236

> <s_lp_Force_Field>
OPLS_2005

> <r_lp_Energy>
14.045374

> <b_lp_Chiralities_Consistent>
1

> <s_lp_Variant>
CHEMBL3972_lig15-2

> <s_i_glide_gridfile>
glide-grid_1njs

> <i_i_glide_lignum>
37

> <i_i_glide_rotatable_bonds>
14

> <r_i_docking_score>
-10.681258091395

> <r_i_glide_ligand_efficiency>
-0.314154649746911

> <r_i_glide_ligand_efficiency_sa>
-1.01773910954998

> <r_i_glide_ligand_efficiency_ln>
-2.35978951153052

> <r_i_glide_gscore>
-10.681258091395

> <r_i_glide_lipo>
-2.61122001108433

> <r_i_glide_hbond>
-0.836728922689746

> <r_i_glide_metal>
0

> <r_i_glide_rewards>
-1.26569705123104

> <r_i_glide_evdw>
-61.8651657104492

> <r_i_glide_ecoul>
-25.6159420013428

> <r_i_glide_erotb>
1.00410656670231

> <r_i_glide_esite>
-0.0360690873682976

> <r_i_glide_emodel>
-136.590015993176

> <r_i_glide_energy>
-87.481107711792

> <r_i_glide_einternal>
9.21829509735107

> <i_i_glide_confnum>
27

> <i_i_glide_posenum>
135

> <r_i_glide_eff_state_penalty>
0

> <s_user_duplicate_titles>
CHEMBL3972_lig15,30497

> <i_f3d_flags>
0

> <s_m_subgroup_title>
dock_pv

> <s_m_subgroupid>
dock_pv

> <b_m_subgroup_collapsed>
1

$$$$
CHEMBL3972_lig32
                    3D
 Schrodinger Suite 2021-1.
 52 54  0  0  1  0            999 V2000
   77.4625   23.6706   28.0908 C   0  0  0  0  0  0
   78.4513   24.5628   27.8077 N   0  0  0  0  0  0
   76.0906   23.9117   28.0712 C   0  0  0  0  0  0
   75.6372   25.1918   27.5317 C   0  0  0  0  0  0
   76.7121   26.0099   27.2910 N   0  0  0  0  0  0
   78.0528   25.7405   27.4714 C   0  0  0  0  0  0
   77.6609   22.3909   28.4906 N   0  0  0  0  0  0
   75.4428   22.7830   28.6165 C   0  0  0  0  0  0
   68.8436   18.3992   28.8140 C   0  0  0  0  0  0
   68.8883   17.2299   28.1528 N   0  0  0  0  0  0
   76.4479   21.8413   28.8089 C   0  0  0  0  0  0
   68.5028   15.4194   29.8146 C   0  0  0  0  0  0
   68.1116   16.0199   28.4368 C   0  0  2  0  0  0
   68.4887   12.4858   27.4034 C   0  0  0  0  0  0
   74.4972   25.5846   27.2910 O   0  0  0  0  0  0
   69.9377   19.3900   28.4911 C   0  0  0  0  0  0
   67.9694   16.1600   30.8289 O   0  0  0  0  0  0
   68.0071   18.6355   29.6888 O   0  0  0  0  0  0
   68.3959   11.8100   28.5815 O   0  0  0  0  0  0
   69.1796   14.4216   29.9529 O   0  0  0  0  0  0
   73.9874   22.6008   28.9759 C   0  0  0  0  0  0
   78.9642   26.7909   27.2910 N   0  0  0  0  0  0
   69.2231   12.1381   26.4821 O   0  0  0  0  0  0
   68.3098   15.0464   27.2414 C   0  0  0  0  0  0
   69.8545   20.7047   28.9713 C   0  0  0  0  0  0
   71.1145   18.9783   27.8487 C   0  0  0  0  0  0
   67.5545   13.6997   27.3472 C   0  0  0  0  0  0
   72.0532   21.1793   28.0990 C   0  0  0  0  0  0
   73.1597   22.1693   27.7646 C   0  0  0  0  0  0
   72.1729   19.8563   27.6911 C   0  0  0  0  0  0
   70.9112   21.5910   28.7785 C   0  0  0  0  0  0
   76.4717   26.9286   26.9548 H   0  0  0  0  0  0
   78.5582   21.9465   28.6283 H   0  0  0  0  0  0
   69.5210   17.1666   27.3719 H   0  0  0  0  0  0
   76.4001   20.8371   29.2072 H   0  0  0  0  0  0
   67.0539   16.2912   28.4720 H   0  0  0  0  0  0
   67.6403   17.0128   30.5171 H   0  0  0  0  0  0
   69.0665   11.1288   28.6420 H   0  0  0  0  0  0
   73.5736   23.5234   29.3866 H   0  0  0  0  0  0
   73.9044   21.8598   29.7729 H   0  0  0  0  0  0
   79.9508   26.5799   27.2840 H   0  0  0  0  0  0
   78.7263   27.5425   26.6555 H   0  0  0  0  0  0
   69.3762   14.8752   27.0775 H   0  0  0  0  0  0
   67.9648   15.5524   26.3366 H   0  0  0  0  0  0
   68.9786   21.0477   29.5054 H   0  0  0  0  0  0
   71.2512   17.9731   27.4886 H   0  0  0  0  0  0
   66.8892   13.5855   26.4909 H   0  0  0  0  0  0
   66.9009   13.7006   28.2196 H   0  0  0  0  0  0
   73.8087   21.7320   27.0043 H   0  0  0  0  0  0
   72.7283   23.0526   27.2921 H   0  0  0  0  0  0
   73.0729   19.5215   27.1967 H   0  0  0  0  0  0
   70.8563   22.6094   29.1385 H   0  0  0  0  0  0
  1  2  1  0  0  0
  1  3  2  0  0  0
  1  7  1  0  0  0
  2  6  2  0  0  0
  3  4  1  0  0  0
  3  8  1  0  0  0
  4 15  2  0  0  0
  4  5  1  0  0  0
  5  6  1  0  0  0
  5 32  1  0  0  0
  6 22  1  0  0  0
  7 11  1  0  0  0
  7 33  1  0  0  0
  8 21  1  0  0  0
  8 11  2  0  0  0
  9 16  1  0  0  0
  9 10  1  0  0  0
  9 18  2  0  0  0
 10 13  1  0  0  0
 10 34  1  0  0  0
 11 35  1  0  0  0
 12 13  1  0  0  0
 12 17  1  0  0  0
 12 20  2  0  0  0
 13 24  1  0  0  0
 13 36  1  0  0  0
 14 27  1  0  0  0
 14 19  1  0  0  0
 14 23  2  0  0  0
 16 26  2  0  0  0
 16 25  1  0  0  0
 17 37  1  0  0  0
 19 38  1  0  0  0
 21 29  1  0  0  0
 21 39  1  0  0  0
 21 40  1  0  0  0
 22 41  1  0  0  0
 22 42  1  0  0  0
 24 27  1  0  0  0
 24 43  1  0  0  0
 24 44  1  0  0  0
 25 31  2  0  0  0
 25 45  1  0  0  0
 26 30  1  0  0  0
 26 46  1  0  0  0
 27 47  1  0  0  0
 27 48  1  0  0  0
 28 29  1  0  0  0
 28 30  2  0  0  0
 28 31  1  0  0  0
 29 49  1  0  0  0
 29 50  1  0  0  0
 30 51  1  0  0  0
 31 52  1  0  0  0
M  END
> <s_m_entry_id>
24907

> <s_m_entry_name>
dock_pv.60

> <s_m_Source_Path>
/home/csk/Desktop/cluster/DUD-E-result/pur2

> <s_m_Source_File>
dock_pv.maegz

> <i_m_Source_File_Index>
60

> <chembl_id>
CHEMBL225072

> <chembl_pref_name>
PEMETREXED

> <i_lp_mmshare_version>
53161

> <r_lp_tautomer_probability>
1

> <s_lp_Force_Field>
OPLS_2005

> <r_lp_Energy>
14.844009

> <b_lp_Chiralities_Consistent>
1

> <s_lp_Variant>
CHEMBL3972_lig32-1

> <s_i_glide_gridfile>
glide-grid_1njs

> <i_i_glide_lignum>
102

> <i_i_glide_rotatable_bonds>
12

> <r_i_docking_score>
-10.6337217067554

> <r_i_glide_ligand_efficiency>
-0.343023280863076

> <r_i_glide_ligand_efficiency_sa>
-1.07756669658964

> <r_i_glide_ligand_efficiency_ln>
-2.39823012930641

> <r_i_glide_gscore>
-10.6337217067554

> <r_i_glide_lipo>
-2.15983144039675

> <r_i_glide_hbond>
-0.957551825289284

> <r_i_glide_metal>
0

> <r_i_glide_rewards>
-2.38628391999128

> <r_i_glide_evdw>
-53.6068458557129

> <r_i_glide_ecoul>
-23.0828609466553

> <r_i_glide_erotb>
1.08685565157643

> <r_i_glide_esite>
-0.0741387378705444

> <r_i_glide_emodel>
-110.468550320089

> <r_i_glide_energy>
-76.6897068023682

> <r_i_glide_einternal>
10.0763273239136

> <i_i_glide_confnum>
57

> <i_i_glide_posenum>
392

> <r_i_glide_eff_state_penalty>
0

> <s_user_duplicate_titles>
CHEMBL3972_lig32,374008

> <i_f3d_flags>
0

> <s_m_subgroup_title>
dock_pv

> <s_m_subgroupid>
dock_pv

> <b_m_subgroup_collapsed>
1

$$$$
CHEMBL3972_lig42
                    3D
 Schrodinger Suite 2021-1.
 58 60  0  0  1  0            999 V2000
   71.6155   21.7301   30.1841 C   0  0  0  0  0  0
   71.3535   23.0680   29.9590 C   0  0  0  0  0  0
   71.7759   23.9356   30.9601 C   0  0  0  0  0  0
   72.3334   23.2985   32.0513 C   0  0  0  0  0  0
   72.4891   21.5908   31.6910 S   0  0  0  0  0  0
   72.6182   23.9230   33.3300 C   0  0  0  0  0  0
   73.4624   23.2921   34.1616 N   0  0  0  0  0  0
   72.0890   24.9892   33.6429 O   0  0  0  0  0  0
   73.8466   23.7766   35.5089 C   0  0  1  0  0  0
   74.4958   22.6156   36.3020 C   0  0  0  0  0  0
   75.6746   21.9623   35.5579 C   0  0  0  0  0  0
   76.7520   21.4249   36.4910 C   0  0  0  0  0  0
   74.7241   25.0649   35.5329 C   0  0  0  0  0  0
   75.8008   25.1373   36.0909 O   0  0  0  0  0  0
   74.1129   26.0969   34.8849 O   0  0  0  0  0  0
   77.7519   22.0622   36.8192 O   0  0  0  0  0  0
   76.4890   20.1489   36.8911 O   0  0  0  0  0  0
   77.4958   26.7576   27.2635 N   0  0  0  0  0  0
   78.6871   26.3288   27.8259 C   0  0  0  0  0  0
   78.8870   25.0826   28.0909 N   0  0  0  0  0  0
   76.4142   25.9910   26.8910 C   0  0  0  0  0  0
   76.6072   24.6315   27.3317 C   0  0  0  0  0  0
   77.8315   24.2551   27.8622 C   0  0  0  0  0  0
   77.7615   22.9324   28.1912 N   0  0  0  0  0  0
   76.5000   22.4726   27.9180 C   0  0  0  0  0  0
   75.8021   23.5055   27.2996 C   0  0  0  0  0  0
   76.1005   21.0708   28.2698 C   0  0  0  0  0  0
   74.8427   20.6417   27.5015 C   0  0  0  0  0  0
   73.6517   21.1331   28.3181 C   0  0  0  0  0  0
   72.2357   20.6674   27.9602 C   0  0  0  0  0  0
   75.4630   26.4260   26.2434 O   0  0  0  0  0  0
   79.6890   27.2707   28.0910 N   0  0  0  0  0  0
   71.3833   20.5548   29.2390 C   0  0  0  0  0  0
   70.8890   23.4240   29.0535 H   0  0  0  0  0  0
   71.6322   25.0040   30.8937 H   0  0  0  0  0  0
   73.8829   22.4271   33.8583 H   0  0  0  0  0  0
   72.9263   24.0412   36.0345 H   0  0  0  0  0  0
   73.7371   21.8554   36.4969 H   0  0  0  0  0  0
   74.7995   22.9611   37.2934 H   0  0  0  0  0  0
   76.1599   22.6893   34.9113 H   0  0  0  0  0  0
   75.2890   21.1911   34.8950 H   0  0  0  0  0  0
   73.2880   25.8126   34.4631 H   0  0  0  0  0  0
   75.6893   19.8126   36.4781 H   0  0  0  0  0  0
   77.4490   27.7172   26.9506 H   0  0  0  0  0  0
   78.4890   22.3990   28.6453 H   0  0  0  0  0  0
   74.7912   23.4707   26.9178 H   0  0  0  0  0  0
   75.9749   20.9835   29.3505 H   0  0  0  0  0  0
   76.8890   20.3779   28.0907 H   0  0  0  0  0  0
   74.8008   19.5634   27.3655 H   0  0  0  0  0  0
   74.8742   21.0476   26.4910 H   0  0  0  0  0  0
   73.6539   22.2207   28.3828 H   0  0  0  0  0  0
   73.8523   20.7910   29.3319 H   0  0  0  0  0  0
   72.2535   19.7131   27.4312 H   0  0  0  0  0  0
   71.7768   21.3901   27.2910 H   0  0  0  0  0  0
   80.5260   26.9728   28.5862 H   0  0  0  0  0  0
   79.4309   28.2273   28.3016 H   0  0  0  0  0  0
   71.6855   19.6157   29.6910 H   0  0  0  0  0  0
   70.3285   20.4508   28.9825 H   0  0  0  0  0  0
  1  5  1  0  0  0
  1  2  2  0  0  0
  1 33  1  0  0  0
  2  3  1  0  0  0
  2 34  1  0  0  0
  3  4  2  0  0  0
  3 35  1  0  0  0
  4  5  1  0  0  0
  4  6  1  0  0  0
  6  8  2  0  0  0
  6  7  1  0  0  0
  7  9  1  0  0  0
  7 36  1  0  0  0
  9 10  1  0  0  0
  9 13  1  0  0  0
  9 37  1  0  0  0
 10 11  1  0  0  0
 10 38  1  0  0  0
 10 39  1  0  0  0
 11 12  1  0  0  0
 11 40  1  0  0  0
 11 41  1  0  0  0
 12 17  1  0  0  0
 12 16  2  0  0  0
 13 14  2  0  0  0
 13 15  1  0  0  0
 15 42  1  0  0  0
 17 43  1  0  0  0
 18 19  1  0  0  0
 18 21  1  0  0  0
 18 44  1  0  0  0
 19 20  2  0  0  0
 19 32  1  0  0  0
 20 23  1  0  0  0
 21 22  1  0  0  0
 21 31  2  0  0  0
 22 23  2  0  0  0
 22 26  1  0  0  0
 23 24  1  0  0  0
 24 25  1  0  0  0
 24 45  1  0  0  0
 25 26  2  0  0  0
 25 27  1  0  0  0
 26 46  1  0  0  0
 27 28  1  0  0  0
 27 47  1  0  0  0
 27 48  1  0  0  0
 28 29  1  0  0  0
 28 49  1  0  0  0
 28 50  1  0  0  0
 29 30  1  0  0  0
 29 51  1  0  0  0
 29 52  1  0  0  0
 30 33  1  0  0  0
 30 53  1  0  0  0
 30 54  1  0  0  0
 32 55  1  0  0  0
 32 56  1  0  0  0
 33 57  1  0  0  0
 33 58  1  0  0  0
M  END
> <s_m_entry_id>
24908

> <s_m_entry_name>
dock_pv.61

> <s_m_Source_Path>
/home/csk/Desktop/cluster/DUD-E-result/pur2

> <s_m_Source_File>
dock_pv.maegz

> <i_m_Source_File_Index>
61

> <chembl_id>
CHEMBL605580

> <chembl_pref_name>
None

> <i_lp_mmshare_version>
53161

> <r_lp_tautomer_probability>
1

> <s_lp_Force_Field>
OPLS_2005

> <r_lp_Energy>
11.6288

> <b_lp_Chiralities_Consistent>
1

> <s_lp_Variant>
CHEMBL3972_lig42-1

> <s_i_glide_gridfile>
glide-grid_1njs

> <i_i_glide_lignum>
112

> <i_i_glide_rotatable_bonds>
15

> <r_i_docking_score>
-10.6271206262308

> <r_i_glide_ligand_efficiency>
-0.32203395837063

> <r_i_glide_ligand_efficiency_sa>
-1.03293497569435

> <r_i_glide_ligand_efficiency_ln>
-2.36341660298796

> <r_i_glide_gscore>
-10.6271206262308

> <r_i_glide_lipo>
-2.26541410252263

> <r_i_glide_hbond>
-1.44770284026739

> <r_i_glide_metal>
0

> <r_i_glide_rewards>
-2.99358157335567

> <r_i_glide_evdw>
-40.7255096435547

> <r_i_glide_ecoul>
-17.6349239349365

> <r_i_glide_erotb>
0.814666334159545

> <r_i_glide_esite>
-0.0535743718264221

> <r_i_glide_emodel>
-96.6417508774861

> <r_i_glide_energy>
-58.3604335784912

> <r_i_glide_einternal>
10.3460960388184

> <i_i_glide_confnum>
19

> <i_i_glide_posenum>
359

> <r_i_glide_eff_state_penalty>
0

> <s_user_duplicate_titles>
CHEMBL3972_lig42

> <i_f3d_flags>
0

> <s_m_subgroup_title>
dock_pv

> <s_m_subgroupid>
dock_pv

> <b_m_subgroup_collapsed>
1

$$$$
CHEMBL3972_lig23
                    3D
 Schrodinger Suite 2021-1.
 54 55  0  0  1  0            999 V2000
   77.6466   23.2868   28.0908 N   0  0  0  0  0  0
   76.4262   22.8239   28.4855 C   0  0  0  0  0  0
   76.5972   25.1816   27.3536 N   0  0  0  0  0  0
   75.2719   23.5203   28.3560 C   0  0  0  0  0  0
   75.3459   24.7911   27.6450 C   0  0  0  0  0  0
   77.7150   24.4605   27.5813 C   0  0  0  0  0  0
   67.3106   16.3831   29.6753 C   0  0  0  0  0  0
   67.7327   15.1906   29.2185 N   0  0  0  0  0  0
   67.2708   13.2978   30.8628 C   0  0  0  0  0  0
   67.1502   13.8634   29.4250 C   0  0  2  0  0  0
   68.1161   17.5669   29.1947 C   0  0  0  0  0  0
   74.4354   25.5241   27.2909 O   0  0  0  0  0  0
   69.7606   11.9229   27.1024 C   0  0  0  0  0  0
   66.3606   16.5042   30.4497 O   0  0  0  0  0  0
   76.4889   21.6169   29.0903 N   0  0  0  0  0  0
   67.6533   12.1710   31.1037 O   0  0  0  0  0  0
   78.9323   25.0526   27.2402 N   0  0  0  0  0  0
   69.0965   11.5916   26.1201 O   0  0  0  0  0  0
   67.7064   12.9071   28.3264 C   0  0  0  0  0  0
   68.0940   18.7837   29.8971 C   0  0  0  0  0  0
   68.8994   17.4625   28.0338 C   0  0  0  0  0  0
   69.2459   12.7755   28.2663 C   0  0  0  0  0  0
   73.9456   23.1188   29.0127 C   0  0  0  0  0  0
   66.8090   14.1916   31.7835 O   0  0  0  0  0  0
   69.6903   19.7048   28.3411 C   0  0  0  0  0  0
   70.6362   21.0327   27.6911 S   0  0  0  0  0  0
   71.0706   11.5912   27.2704 O   0  0  0  0  0  0
   68.8886   19.8547   29.4732 C   0  0  0  0  0  0
   69.6894   18.5201   27.6200 C   0  0  0  0  0  0
   71.8352   21.6698   28.8732 C   0  0  0  0  0  0
   73.0441   22.2629   28.1251 C   0  0  0  0  0  0
   68.5537   15.2008   28.6366 H   0  0  0  0  0  0
   66.0828   13.9857   29.2481 H   0  0  0  0  0  0
   76.6539   26.0747   26.8966 H   0  0  0  0  0  0
   75.6571   21.1038   29.3322 H   0  0  0  0  0  0
   77.4019   21.2473   29.3295 H   0  0  0  0  0  0
   79.7963   24.5394   27.2911 H   0  0  0  0  0  0
   78.9842   25.9448   26.7740 H   0  0  0  0  0  0
   67.3409   13.2466   27.3541 H   0  0  0  0  0  0
   67.2903   11.9089   28.4658 H   0  0  0  0  0  0
   67.4815   18.9021   30.7806 H   0  0  0  0  0  0
   68.9097   16.5700   27.4255 H   0  0  0  0  0  0
   69.6240   12.3597   29.2014 H   0  0  0  0  0  0
   69.6888   13.7621   28.1595 H   0  0  0  0  0  0
   73.3942   24.0018   29.3394 H   0  0  0  0  0  0
   74.1610   22.5718   29.9324 H   0  0  0  0  0  0
   66.5605   15.0385   31.3853 H   0  0  0  0  0  0
   71.4562   11.1851   26.4914 H   0  0  0  0  0  0
   68.8683   20.7931   30.0086 H   0  0  0  0  0  0
   70.2795   18.4306   26.7184 H   0  0  0  0  0  0
   71.3347   22.4357   29.4676 H   0  0  0  0  0  0
   72.1500   20.8787   29.5546 H   0  0  0  0  0  0
   73.6214   21.4471   27.6866 H   0  0  0  0  0  0
   72.7101   22.8821   27.2915 H   0  0  0  0  0  0
  1  2  1  0  0  0
  1  6  2  0  0  0
  2  4  2  0  0  0
  2 15  1  0  0  0
  3  6  1  0  0  0
  3 34  1  0  0  0
  3  5  1  0  0  0
  4 23  1  0  0  0
  4  5  1  0  0  0
  5 12  2  0  0  0
  6 17  1  0  0  0
  7 11  1  0  0  0
  7  8  1  0  0  0
  7 14  2  0  0  0
  8 10  1  0  0  0
  8 32  1  0  0  0
  9 10  1  0  0  0
  9 16  2  0  0  0
  9 24  1  0  0  0
 10 19  1  0  0  0
 10 33  1  0  0  0
 11 21  1  0  0  0
 11 20  2  0  0  0
 13 22  1  0  0  0
 13 18  2  0  0  0
 13 27  1  0  0  0
 15 35  1  0  0  0
 15 36  1  0  0  0
 17 37  1  0  0  0
 17 38  1  0  0  0
 19 22  1  0  0  0
 19 39  1  0  0  0
 19 40  1  0  0  0
 20 28  1  0  0  0
 20 41  1  0  0  0
 21 29  2  0  0  0
 21 42  1  0  0  0
 22 43  1  0  0  0
 22 44  1  0  0  0
 23 31  1  0  0  0
 23 45  1  0  0  0
 23 46  1  0  0  0
 24 47  1  0  0  0
 25 26  1  0  0  0
 25 28  2  0  0  0
 25 29  1  0  0  0
 26 30  1  0  0  0
 27 48  1  0  0  0
 28 49  1  0  0  0
 29 50  1  0  0  0
 30 31  1  0  0  0
 30 51  1  0  0  0
 30 52  1  0  0  0
 31 53  1  0  0  0
 31 54  1  0  0  0
M  END
> <s_m_entry_id>
24909

> <s_m_entry_name>
dock_pv.62

> <s_m_Source_Path>
/home/csk/Desktop/cluster/DUD-E-result/pur2

> <s_m_Source_File>
dock_pv.maegz

> <i_m_Source_File_Index>
62

> <chembl_id>
CHEMBL30842

> <chembl_pref_name>
None

> <i_lp_mmshare_version>
53161

> <r_lp_tautomer_probability>
0.982528302960407

> <s_lp_Force_Field>
OPLS_2005

> <r_lp_Energy>
17.231338

> <b_lp_Chiralities_Consistent>
1

> <s_lp_Variant>
CHEMBL3972_lig23-2

> <s_i_glide_gridfile>
glide-grid_1njs

> <i_i_glide_lignum>
69

> <i_i_glide_rotatable_bonds>
14

> <r_i_docking_score>
-10.5590693215622

> <r_i_glide_ligand_efficiency>
-0.340615139405232

> <r_i_glide_ligand_efficiency_sa>
-1.0700018076144

> <r_i_glide_ligand_efficiency_ln>
-2.3813937286245

> <r_i_glide_gscore>
-10.5590693215622

> <r_i_glide_lipo>
-2.37706690651016

> <r_i_glide_hbond>
-1.13239614690765

> <r_i_glide_metal>
0

> <r_i_glide_rewards>
-2.45957519802072

> <r_i_glide_evdw>
-54.8031387329102

> <r_i_glide_ecoul>
-19.9963130950928

> <r_i_glide_erotb>
1.19036972184113

> <r_i_glide_esite>
-0.0407968910553752

> <r_i_glide_emodel>
-112.433567416163

> <r_i_glide_energy>
-74.7994518280029

> <r_i_glide_einternal>
7.69312810897827

> <i_i_glide_confnum>
271

> <i_i_glide_posenum>
264

> <r_i_glide_eff_state_penalty>
0

> <s_user_duplicate_titles>
CHEMBL3972_lig23,CHEMBL3972_lig23

> <i_f3d_flags>
0

> <s_m_subgroup_title>
dock_pv

> <s_m_subgroupid>
dock_pv

> <b_m_subgroup_collapsed>
1

$$$$
CHEMBL3972_lig77
                    3D
 Schrodinger Suite 2021-1.
 54 55  0  0  1  0            999 V2000
   78.2610   24.4088   28.0914 N   0  0  0  0  0  0
   77.1349   23.6479   27.9811 C   0  0  0  0  0  0
   75.9610   24.0935   27.4677 C   0  0  0  0  0  0
   77.0651   26.1517   27.2136 N   0  0  0  0  0  0
   75.9311   25.4622   26.9799 C   0  0  0  0  0  0
   78.2016   25.6413   27.7413 C   0  0  0  0  0  0
   68.8888   19.0247   29.2169 C   0  0  0  0  0  0
   68.2261   17.7463   29.3977 C   0  0  0  0  0  0
   68.6058   20.2412   29.8447 C   0  0  0  0  0  0
   70.2221   19.2060   28.0911 S   0  0  0  0  0  0
   68.8887   16.6921   28.8904 N   0  0  0  0  0  0
   69.6276   21.1730   29.5996 C   0  0  0  0  0  0
   70.6029   20.7859   28.6814 C   0  0  0  0  0  0
   67.3911   15.3788   27.5433 C   0  0  0  0  0  0
   68.3854   15.3292   28.7213 C   0  0  2  0  0  0
   74.9932   26.0034   26.3999 O   0  0  0  0  0  0
   70.1345   13.6986   30.8931 C   0  0  0  0  0  0
   67.1548   17.6377   29.9891 O   0  0  0  0  0  0
   74.4100   23.1994   27.3544 S   0  0  0  0  0  0
   77.3189   22.3917   28.4413 N   0  0  0  0  0  0
   67.6868   15.9070   26.4903 O   0  0  0  0  0  0
   79.2891   26.5068   27.9040 N   0  0  0  0  0  0
   70.1450   12.8083   30.0450 O   0  0  0  0  0  0
   67.8947   14.6622   30.0486 C   0  0  0  0  0  0
   68.9368   14.6058   31.1876 C   0  0  0  0  0  0
   66.1984   14.7945   27.8558 O   0  0  0  0  0  0
   71.1972   13.9895   31.6902 O   0  0  0  0  0  0
   67.3865   20.5385   30.6867 C   0  0  0  0  0  0
   71.8262   21.5211   28.1734 C   0  0  0  0  0  0
   74.3365   22.0024   28.7245 C   0  0  0  0  0  0
   72.9249   21.6606   29.2512 C   0  0  0  0  0  0
   69.7317   16.9021   28.3788 H   0  0  0  0  0  0
   69.6352   22.1487   30.0667 H   0  0  0  0  0  0
   69.2247   14.7444   28.3442 H   0  0  0  0  0  0
   77.0507   27.1061   26.8922 H   0  0  0  0  0  0
   76.5677   21.7270   28.3803 H   0  0  0  0  0  0
   78.1923   22.1129   28.8603 H   0  0  0  0  0  0
   80.1448   26.0928   28.2504 H   0  0  0  0  0  0
   79.5024   27.1207   27.1332 H   0  0  0  0  0  0
   67.5714   13.6404   29.8414 H   0  0  0  0  0  0
   67.0135   15.1746   30.4357 H   0  0  0  0  0  0
   68.4633   14.2384   32.0981 H   0  0  0  0  0  0
   69.2908   15.6108   31.4177 H   0  0  0  0  0  0
   66.1220   14.6501   28.7986 H   0  0  0  0  0  0
   71.9708   13.4734   31.4491 H   0  0  0  0  0  0
   67.2751   21.5952   30.9287 H   0  0  0  0  0  0
   66.4890   20.2648   30.1439 H   0  0  0  0  0  0
   67.3652   19.9427   31.5984 H   0  0  0  0  0  0
   72.2383   21.0101   27.3000 H   0  0  0  0  0  0
   71.5433   22.5132   27.8196 H   0  0  0  0  0  0
   74.9429   22.3515   29.5600 H   0  0  0  0  0  0
   74.7961   21.0858   28.3525 H   0  0  0  0  0  0
   72.6179   22.4202   29.9705 H   0  0  0  0  0  0
   73.0004   20.7295   29.8156 H   0  0  0  0  0  0
  1  2  1  0  0  0
  1  6  2  0  0  0
  2  3  2  0  0  0
  2 20  1  0  0  0
  3 19  1  0  0  0
  3  5  1  0  0  0
  4  6  1  0  0  0
  4 35  1  0  0  0
  4  5  1  0  0  0
  5 16  2  0  0  0
  6 22  1  0  0  0
  7 10  1  0  0  0
  7  8  1  0  0  0
  7  9  2  0  0  0
  8 11  1  0  0  0
  8 18  2  0  0  0
  9 12  1  0  0  0
  9 28  1  0  0  0
 10 13  1  0  0  0
 11 15  1  0  0  0
 11 32  1  0  0  0
 12 13  2  0  0  0
 12 33  1  0  0  0
 13 29  1  0  0  0
 14 15  1  0  0  0
 14 21  2  0  0  0
 14 26  1  0  0  0
 15 24  1  0  0  0
 15 34  1  0  0  0
 17 25  1  0  0  0
 17 23  2  0  0  0
 17 27  1  0  0  0
 19 30  1  0  0  0
 20 36  1  0  0  0
 20 37  1  0  0  0
 22 38  1  0  0  0
 22 39  1  0  0  0
 24 25  1  0  0  0
 24 40  1  0  0  0
 24 41  1  0  0  0
 25 42  1  0  0  0
 25 43  1  0  0  0
 26 44  1  0  0  0
 27 45  1  0  0  0
 28 46  1  0  0  0
 28 47  1  0  0  0
 28 48  1  0  0  0
 29 31  1  0  0  0
 29 49  1  0  0  0
 29 50  1  0  0  0
 30 31  1  0  0  0
 30 51  1  0  0  0
 30 52  1  0  0  0
 31 53  1  0  0  0
 31 54  1  0  0  0
M  END
> <s_m_entry_id>
24910

> <s_m_entry_name>
dock_pv.63

> <s_m_Source_Path>
/home/csk/Desktop/cluster/DUD-E-result/pur2

> <s_m_Source_File>
dock_pv.maegz

> <i_m_Source_File_Index>
63

> <chembl_id>
CHEMBL84935

> <chembl_pref_name>
None

> <i_lp_mmshare_version>
53161

> <r_lp_tautomer_probability>
0.982528302960407

> <s_lp_Force_Field>
OPLS_2005

> <r_lp_Energy>
13.195815

> <b_lp_Chiralities_Consistent>
1

> <s_lp_Variant>
CHEMBL3972_lig77-1

> <s_i_glide_gridfile>
glide-grid_1njs

> <i_i_glide_lignum>
175

> <i_i_glide_rotatable_bonds>
14

> <r_i_docking_score>
-10.5166896177334

> <r_i_glide_ligand_efficiency>
-0.339248052184947

> <r_i_glide_ligand_efficiency_sa>
-1.06570726627538

> <r_i_glide_ligand_efficiency_ln>
-2.37183580662915

> <r_i_glide_gscore>
-10.5166896177334

> <r_i_glide_lipo>
-2.91872682890962

> <r_i_glide_hbond>
-0.97787027160561

> <r_i_glide_metal>
0

> <r_i_glide_rewards>
-2.60861825842728

> <r_i_glide_evdw>
-56.2438430786133

> <r_i_glide_ecoul>
-12.7329015731812

> <r_i_glide_erotb>
0.76957934645372

> <r_i_glide_esite>
-0.0589262153367337

> <r_i_glide_emodel>
-110.323981520823

> <r_i_glide_energy>
-68.9767446517944

> <r_i_glide_einternal>
8.61196041107178

> <i_i_glide_confnum>
422

> <i_i_glide_posenum>
397

> <r_i_glide_eff_state_penalty>
0

> <s_user_duplicate_titles>
CHEMBL3972_lig77,CHEMBL3972_lig77,135695

> <i_f3d_flags>
0

> <s_m_subgroup_title>
dock_pv

> <s_m_subgroupid>
dock_pv

> <b_m_subgroup_collapsed>
1

$$$$
CHEMBL3972_lig11
                    3D
 Schrodinger Suite 2021-1.
 58 60  0  0  1  0            999 V2000
   76.5170   23.4564   28.1484 C   0  0  0  0  0  0
   77.8043   23.9132   28.0881 N   0  0  0  0  0  0
   75.4530   24.1226   27.6453 C   0  0  0  0  0  0
   76.9797   25.8074   27.0827 N   0  0  0  0  0  0
   75.7036   25.3790   26.9546 C   0  0  0  0  0  0
   78.0095   25.0891   27.6091 C   0  0  0  0  0  0
   76.3657   22.3081   28.8577 N   0  0  0  0  0  0
   67.8449   17.4796   28.6803 C   0  0  0  0  0  0
   67.4200   16.9130   27.5394 N   0  0  0  0  0  0
   65.1347   15.8385   27.8977 C   0  0  0  0  0  0
   74.0101   23.6297   27.8207 C   0  0  0  0  0  0
   66.6032   15.7173   27.3547 C   0  0  2  0  0  0
   68.8894   18.5440   28.4949 C   0  0  0  0  0  0
   74.8835   26.0242   26.3144 O   0  0  0  0  0  0
   67.4750   17.1391   29.8037 O   0  0  0  0  0  0
   64.8729   15.7599   29.0734 O   0  0  0  0  0  0
   73.9201   22.7260   29.0779 C   0  0  2  0  0  0
   79.2877   25.6709   27.5948 N   0  0  0  0  0  0
   72.1655   21.1488   28.2255 N   0  0  0  0  0  0
   75.0729   21.6840   29.1721 C   0  0  0  0  0  0
   69.9148   18.3499   27.5623 C   0  0  0  0  0  0
   68.8905   19.6909   29.2963 C   0  0  0  0  0  0
   71.0132   20.3466   28.3173 C   0  0  0  0  0  0
   72.5193   22.1091   29.2584 C   0  0  0  0  0  0
   64.1907   15.9828   26.8933 O   0  0  0  0  0  0
   69.9637   20.5903   29.2162 C   0  0  0  0  0  0
   70.9703   19.2486   27.4767 C   0  0  0  0  0  0
   68.8317   12.0390   26.5375 N   0  0  0  0  0  0
   67.3408   14.4425   27.8503 C   0  0  0  0  0  0
   69.3947   12.8700   27.5887 C   0  0  0  0  0  0
   68.8582   14.3201   27.5136 C   0  0  0  0  0  0
   77.1873   21.8967   29.2734 H   0  0  0  0  0  0
   67.6929   17.3670   26.6741 H   0  0  0  0  0  0
   73.7025   23.0941   26.9196 H   0  0  0  0  0  0
   73.2878   24.4534   27.9313 H   0  0  0  0  0  0
   66.5850   15.6368   26.2789 H   0  0  0  0  0  0
   77.1662   26.6974   26.6365 H   0  0  0  0  0  0
   74.0288   23.3864   29.9476 H   0  0  0  0  0  0
   80.1042   25.1642   27.9114 H   0  0  0  0  0  0
   79.4787   26.5596   27.1606 H   0  0  0  0  0  0
   72.8879   20.8524   27.5791 H   0  0  0  0  0  0
   75.1108   21.2451   30.1682 H   0  0  0  0  0  0
   74.8908   20.8445   28.5031 H   0  0  0  0  0  0
   69.9363   17.4787   26.9312 H   0  0  0  0  0  0
   68.1085   19.8649   30.0260 H   0  0  0  0  0  0
   71.7602   22.8943   29.3009 H   0  0  0  0  0  0
   72.4725   21.6150   30.2329 H   0  0  0  0  0  0
   64.5740   15.9623   25.9942 H   0  0  0  0  0  0
   69.9825   21.4511   29.8751 H   0  0  0  0  0  0
   71.7673   19.0602   26.7740 H   0  0  0  0  0  0
   69.1806   11.0964   26.6765 H   0  0  0  0  0  0
   67.8301   12.0257   26.6598 H   0  0  0  0  0  0
   66.8839   13.5942   27.3763 H   0  0  0  0  0  0
   67.2208   14.3196   28.9274 H   0  0  0  0  0  0
   69.1684   12.4289   28.5619 H   0  0  0  0  0  0
   70.4839   12.7984   27.4667 H   0  0  0  0  0  0
   69.4123   14.9261   28.2295 H   0  0  0  0  0  0
   69.0737   14.7366   26.5328 H   0  0  0  0  0  0
  1  3  2  0  0  0
  1  7  1  0  0  0
  1  2  1  0  0  0
  2  6  2  0  0  0
  3 11  1  0  0  0
  3  5  1  0  0  0
  4  6  1  0  0  0
  4 37  1  0  0  0
  4  5  1  0  0  0
  5 14  2  0  0  0
  6 18  1  0  0  0
  7 20  1  0  0  0
  7 32  1  0  0  0
  8 13  1  0  0  0
  8  9  1  0  0  0
  8 15  2  0  0  0
  9 12  1  0  0  0
  9 33  1  0  0  0
 10 12  1  0  0  0
 10 16  2  0  0  0
 10 25  1  0  0  0
 11 17  1  0  0  0
 11 34  1  0  0  0
 11 35  1  0  0  0
 12 29  1  0  0  0
 12 36  1  0  0  0
 13 21  2  0  0  0
 13 22  1  0  0  0
 17 20  1  0  0  0
 17 24  1  0  0  0
 17 38  1  0  0  0
 18 39  1  0  0  0
 18 40  1  0  0  0
 19 24  1  0  0  0
 19 23  1  0  0  0
 19 41  1  0  0  0
 20 42  1  0  0  0
 20 43  1  0  0  0
 21 27  1  0  0  0
 21 44  1  0  0  0
 22 26  2  0  0  0
 22 45  1  0  0  0
 23 26  1  0  0  0
 23 27  2  0  0  0
 24 46  1  0  0  0
 24 47  1  0  0  0
 25 48  1  0  0  0
 26 49  1  0  0  0
 27 50  1  0  0  0
 28 30  1  0  0  0
 28 51  1  0  0  0
 28 52  1  0  0  0
 29 31  1  0  0  0
 29 53  1  0  0  0
 29 54  1  0  0  0
 30 31  1  0  0  0
 30 55  1  0  0  0
 30 56  1  0  0  0
 31 57  1  0  0  0
 31 58  1  0  0  0
M  END
> <s_m_entry_id>
24912

> <s_m_entry_name>
dock_pv.65

> <s_m_Source_Path>
/home/csk/Desktop/cluster/DUD-E-result/pur2

> <s_m_Source_File>
dock_pv.maegz

> <i_m_Source_File_Index>
65

> <chembl_id>
CHEMBL289923

> <chembl_pref_name>
None

> <i_lp_mmshare_version>
53161

> <r_lp_tautomer_probability>
0.982539515805485

> <s_lp_Force_Field>
OPLS_2005

> <r_lp_Energy>
27.983091

> <b_lp_Chiralities_Consistent>
1

> <s_lp_Variant>
CHEMBL3972_lig11-2

> <s_i_glide_gridfile>
glide-grid_1njs

> <i_i_glide_lignum>
13

> <i_i_glide_rotatable_bonds>
11

> <r_i_docking_score>
-10.4584556500234

> <r_i_glide_ligand_efficiency>
-0.337369537097529

> <r_i_glide_ligand_efficiency_sa>
-1.0598061353313

> <r_i_glide_ligand_efficiency_ln>
-2.35870226225377

> <r_i_glide_gscore>
-10.4584556500234

> <r_i_glide_lipo>
-2.13404384780648

> <r_i_glide_hbond>
-0.80772308876229

> <r_i_glide_metal>
0

> <r_i_glide_rewards>
-1.64834203855693

> <r_i_glide_evdw>
-54.684642791748

> <r_i_glide_ecoul>
-38.6014633178711

> <r_i_glide_erotb>
0.969681542615222

> <r_i_glide_esite>
-0.103796077925509

> <r_i_glide_emodel>
-142.784844416795

> <r_i_glide_energy>
-93.2861061096191

> <r_i_glide_einternal>
10.6716403961182

> <i_i_glide_confnum>
38

> <i_i_glide_posenum>
330

> <r_i_glide_eff_state_penalty>
0

> <s_user_duplicate_titles>
CHEMBL3972_lig11,CHEMBL3972_lig11

> <i_f3d_flags>
0

> <s_m_subgroup_title>
dock_pv

> <s_m_subgroupid>
dock_pv

> <b_m_subgroup_collapsed>
1

$$$$
CHEMBL3972_lig70
                    3D
 Schrodinger Suite 2021-1.
 55 57  0  0  1  0            999 V2000
   75.7143   24.2749   27.5224 C   0  0  0  0  0  0
   76.8456   23.7637   28.0571 C   0  0  0  0  0  0
   78.0390   24.4291   28.0907 N   0  0  0  0  0  0
   76.9821   26.1903   27.0683 N   0  0  0  0  0  0
   75.7867   25.5816   26.8911 C   0  0  0  0  0  0
   78.0740   25.6345   27.6512 C   0  0  0  0  0  0
   74.1079   23.4843   27.5951 S   0  0  0  0  0  0
   76.8885   22.5508   28.6720 N   0  0  0  0  0  0
   68.6485   17.2171   27.7163 C   0  0  0  0  0  0
   67.6251   16.6715   28.3892 N   0  0  0  0  0  0
   67.6466   14.1707   28.1968 C   0  0  0  0  0  0
   69.2116   18.4850   28.3098 C   0  0  0  0  0  0
   66.8447   15.4890   28.0322 C   0  0  1  0  0  0
   74.8902   26.1340   26.2556 O   0  0  0  0  0  0
   65.9820   16.7123   31.0384 C   0  0  0  0  0  0
   69.1142   16.7107   26.6914 O   0  0  0  0  0  0
   70.4623   18.9537   27.8834 C   0  0  0  0  0  0
   67.3586   13.2798   28.9685 O   0  0  0  0  0  0
   79.2317   26.4212   27.7558 N   0  0  0  0  0  0
   67.1698   16.8687   31.3134 O   0  0  0  0  0  0
   74.5746   21.8223   28.2063 C   0  0  1  0  0  0
   65.4707   15.5585   28.7721 C   0  0  0  0  0  0
   75.7286   21.8588   29.2192 C   0  0  0  0  0  0
   65.4454   15.4677   30.3247 C   0  0  0  0  0  0
   68.6844   14.1388   27.3105 O   0  0  0  0  0  0
   70.9876   20.1506   28.3778 C   0  0  0  0  0  0
   65.0196   17.6469   31.2883 O   0  0  0  0  0  0
   72.3133   20.6512   27.8334 C   0  0  0  0  0  0
   73.3145   21.1996   28.8625 C   0  0  0  0  0  0
   68.4922   19.2457   29.2503 C   0  0  0  0  0  0
   68.9925   20.4587   29.7047 C   0  0  0  0  0  0
   70.2425   20.9041   29.2884 C   0  0  0  0  0  0
   77.7773   22.2229   29.0173 H   0  0  0  0  0  0
   67.4146   17.0592   29.2989 H   0  0  0  0  0  0
   66.6121   15.5769   26.9644 H   0  0  0  0  0  0
   77.0504   27.1088   26.6561 H   0  0  0  0  0  0
   71.0193   18.4007   27.1407 H   0  0  0  0  0  0
   80.0593   25.9750   28.1273 H   0  0  0  0  0  0
   79.4759   26.9977   26.9628 H   0  0  0  0  0  0
   74.8804   21.2443   27.3344 H   0  0  0  0  0  0
   64.8137   14.7913   28.3642 H   0  0  0  0  0  0
   64.9715   16.4859   28.4798 H   0  0  0  0  0  0
   75.3665   22.3885   30.0912 H   0  0  0  0  0  0
   76.0133   20.8519   29.5301 H   0  0  0  0  0  0
   66.0167   14.6106   30.6772 H   0  0  0  0  0  0
   64.4241   15.2928   30.6588 H   0  0  0  0  0  0
   68.8098   15.0123   26.9089 H   0  0  0  0  0  0
   64.1484   17.3883   30.9845 H   0  0  0  0  0  0
   72.8085   19.8495   27.2897 H   0  0  0  0  0  0
   72.0626   21.4258   27.1184 H   0  0  0  0  0  0
   72.8408   21.9460   29.4968 H   0  0  0  0  0  0
   73.5903   20.3954   29.5384 H   0  0  0  0  0  0
   67.5161   18.9468   29.6037 H   0  0  0  0  0  0
   68.4074   21.0548   30.3924 H   0  0  0  0  0  0
   70.6061   21.8562   29.6445 H   0  0  0  0  0  0
  1  7  1  0  0  0
  1  2  2  0  0  0
  1  5  1  0  0  0
  2  8  1  0  0  0
  2  3  1  0  0  0
  3  6  2  0  0  0
  4  6  1  0  0  0
  4 36  1  0  0  0
  4  5  1  0  0  0
  5 14  2  0  0  0
  6 19  1  0  0  0
  7 21  1  0  0  0
  8 23  1  0  0  0
  8 33  1  0  0  0
  9 12  1  0  0  0
  9 10  1  0  0  0
  9 16  2  0  0  0
 10 13  1  0  0  0
 10 34  1  0  0  0
 11 13  1  0  0  0
 11 18  2  0  0  0
 11 25  1  0  0  0
 12 17  1  0  0  0
 12 30  2  0  0  0
 13 22  1  0  0  0
 13 35  1  0  0  0
 15 24  1  0  0  0
 15 20  2  0  0  0
 15 27  1  0  0  0
 17 26  2  0  0  0
 17 37  1  0  0  0
 19 38  1  0  0  0
 19 39  1  0  0  0
 21 23  1  0  0  0
 21 29  1  0  0  0
 21 40  1  0  0  0
 22 24  1  0  0  0
 22 41  1  0  0  0
 22 42  1  0  0  0
 23 43  1  0  0  0
 23 44  1  0  0  0
 24 45  1  0  0  0
 24 46  1  0  0  0
 25 47  1  0  0  0
 26 28  1  0  0  0
 26 32  1  0  0  0
 27 48  1  0  0  0
 28 29  1  0  0  0
 28 49  1  0  0  0
 28 50  1  0  0  0
 29 51  1  0  0  0
 29 52  1  0  0  0
 30 31  1  0  0  0
 30 53  1  0  0  0
 31 32  2  0  0  0
 31 54  1  0  0  0
 32 55  1  0  0  0
M  END
> <s_m_entry_id>
24913

> <s_m_entry_name>
dock_pv.66

> <s_m_Source_Path>
/home/csk/Desktop/cluster/DUD-E-result/pur2

> <s_m_Source_File>
dock_pv.maegz

> <i_m_Source_File_Index>
66

> <chembl_id>
CHEMBL82181

> <chembl_pref_name>
None

> <i_lp_mmshare_version>
53161

> <r_lp_tautomer_probability>
0.982539515805485

> <s_lp_Force_Field>
OPLS_2005

> <r_lp_Energy>
17.946121

> <b_lp_Chiralities_Consistent>
1

> <s_lp_Variant>
CHEMBL3972_lig70-3

> <s_i_glide_gridfile>
glide-grid_1njs

> <i_i_glide_lignum>
151

> <i_i_glide_rotatable_bonds>
12

> <r_i_docking_score>
-10.4537252423169

> <r_i_glide_ligand_efficiency>
-0.326678913822402

> <r_i_glide_ligand_efficiency_sa>
-1.03714090171687

> <r_i_glide_ligand_efficiency_ln>
-2.34087403954252

> <r_i_glide_gscore>
-10.4537252423169

> <r_i_glide_lipo>
-2.54616202520699

> <r_i_glide_hbond>
-0.829721434271474

> <r_i_glide_metal>
0

> <r_i_glide_rewards>
-2.50910902984429

> <r_i_glide_evdw>
-56.87255859375

> <r_i_glide_ecoul>
-15.6228609085083

> <r_i_glide_erotb>
0.661843766717366

> <r_i_glide_esite>
-0.0435194537477384

> <r_i_glide_emodel>
-114.260775585225

> <r_i_glide_energy>
-72.4954195022583

> <r_i_glide_einternal>
5.80056524276733

> <i_i_glide_confnum>
272

> <i_i_glide_posenum>
24

> <r_i_glide_eff_state_penalty>
0

> <s_user_duplicate_titles>
CHEMBL3972_lig70,CHEMBL3972_lig70

> <i_f3d_flags>
0

> <s_m_subgroup_title>
dock_pv

> <s_m_subgroupid>
dock_pv

> <b_m_subgroup_collapsed>
1

$$$$
CHEMBL3972_lig70
                    3D
 Schrodinger Suite 2021-1.
 55 57  0  0  1  0            999 V2000
   75.7160   24.0921   27.4505 C   0  0  0  0  0  0
   76.8330   23.6123   28.0385 C   0  0  0  0  0  0
   78.0056   24.3098   28.1202 N   0  0  0  0  0  0
   76.9404   26.0648   27.1103 N   0  0  0  0  0  0
   75.7678   25.4306   26.8918 C   0  0  0  0  0  0
   78.0387   25.5175   27.6880 C   0  0  0  0  0  0
   74.1878   23.1747   27.2912 S   0  0  0  0  0  0
   76.8887   22.3916   28.6358 N   0  0  0  0  0  0
   68.0896   17.9916   29.1096 C   0  0  0  0  0  0
   68.0333   17.3817   27.9121 N   0  0  0  0  0  0
   68.5079   15.0942   27.1028 C   0  0  0  0  0  0
   68.8920   19.2666   29.1248 C   0  0  0  0  0  0
   67.4122   16.1163   27.4787 C   0  0  1  0  0  0
   74.8826   25.9956   26.2604 O   0  0  0  0  0  0
   65.6273   14.8815   30.7712 C   0  0  0  0  0  0
   67.5306   17.5975   30.1322 O   0  0  0  0  0  0
   70.0860   19.3838   28.3912 C   0  0  0  0  0  0
   68.6210   13.9848   27.5814 O   0  0  0  0  0  0
   79.2000   26.3012   27.7689 N   0  0  0  0  0  0
   64.8947   13.9583   31.1213 O   0  0  0  0  0  0
   74.4199   21.8469   28.5376 C   0  0  2  0  0  0
   66.2495   15.5984   28.3868 C   0  0  0  0  0  0
   75.8896   21.3303   28.5761 C   0  0  0  0  0  0
   66.6429   14.7692   29.6383 C   0  0  0  0  0  0
   69.2889   15.5919   26.0955 O   0  0  0  0  0  0
   70.8795   20.5348   28.4842 C   0  0  0  0  0  0
   65.6428   16.1132   31.3547 O   0  0  0  0  0  0
   72.1051   20.6953   27.6165 C   0  0  0  0  0  0
   73.4766   20.6064   28.3144 C   0  0  0  0  0  0
   68.4900   20.3497   29.9130 C   0  0  0  0  0  0
   69.2738   21.5032   29.9700 C   0  0  0  0  0  0
   70.4892   21.5856   29.3023 C   0  0  0  0  0  0
   77.7565   22.1268   29.0810 H   0  0  0  0  0  0
   68.4401   17.9146   27.1589 H   0  0  0  0  0  0
   66.9245   16.3757   26.5350 H   0  0  0  0  0  0
   77.0015   26.9870   26.7084 H   0  0  0  0  0  0
   70.4186   18.5738   27.7577 H   0  0  0  0  0  0
   79.9720   25.9000   28.2803 H   0  0  0  0  0  0
   79.0803   27.2588   28.0631 H   0  0  0  0  0  0
   74.1818   22.3147   29.4935 H   0  0  0  0  0  0
   65.6023   14.9695   27.7722 H   0  0  0  0  0  0
   65.6071   16.4390   28.6582 H   0  0  0  0  0  0
   76.0373   20.6774   29.4365 H   0  0  0  0  0  0
   76.0886   20.7273   27.6911 H   0  0  0  0  0  0
   67.6156   15.0724   30.0249 H   0  0  0  0  0  0
   66.7482   13.7192   29.3685 H   0  0  0  0  0  0
   68.9663   16.4303   25.7611 H   0  0  0  0  0  0
   66.2981   16.7036   30.9526 H   0  0  0  0  0  0
   72.0593   19.8869   26.8903 H   0  0  0  0  0  0
   71.9856   21.5924   27.0324 H   0  0  0  0  0  0
   73.2890   20.1146   29.2707 H   0  0  0  0  0  0
   74.0314   19.8935   27.6950 H   0  0  0  0  0  0
   67.5615   20.3150   30.4676 H   0  0  0  0  0  0
   68.9217   22.3761   30.4910 H   0  0  0  0  0  0
   71.0699   22.4976   29.3446 H   0  0  0  0  0  0
  1  7  1  0  0  0
  1  2  2  0  0  0
  1  5  1  0  0  0
  2  8  1  0  0  0
  2  3  1  0  0  0
  3  6  2  0  0  0
  4  6  1  0  0  0
  4 36  1  0  0  0
  4  5  1  0  0  0
  5 14  2  0  0  0
  6 19  1  0  0  0
  7 21  1  0  0  0
  8 23  1  0  0  0
  8 33  1  0  0  0
  9 12  1  0  0  0
  9 10  1  0  0  0
  9 16  2  0  0  0
 10 13  1  0  0  0
 10 34  1  0  0  0
 11 13  1  0  0  0
 11 18  2  0  0  0
 11 25  1  0  0  0
 12 17  1  0  0  0
 12 30  2  0  0  0
 13 22  1  0  0  0
 13 35  1  0  0  0
 15 24  1  0  0  0
 15 20  2  0  0  0
 15 27  1  0  0  0
 17 26  2  0  0  0
 17 37  1  0  0  0
 19 38  1  0  0  0
 19 39  1  0  0  0
 21 23  1  0  0  0
 21 29  1  0  0  0
 21 40  1  0  0  0
 22 24  1  0  0  0
 22 41  1  0  0  0
 22 42  1  0  0  0
 23 43  1  0  0  0
 23 44  1  0  0  0
 24 45  1  0  0  0
 24 46  1  0  0  0
 25 47  1  0  0  0
 26 28  1  0  0  0
 26 32  1  0  0  0
 27 48  1  0  0  0
 28 29  1  0  0  0
 28 49  1  0  0  0
 28 50  1  0  0  0
 29 51  1  0  0  0
 29 52  1  0  0  0
 30 31  1  0  0  0
 30 53  1  0  0  0
 31 32  2  0  0  0
 31 54  1  0  0  0
 32 55  1  0  0  0
M  END
> <s_m_entry_id>
24914

> <s_m_entry_name>
dock_pv.67

> <s_m_Source_Path>
/home/csk/Desktop/cluster/DUD-E-result/pur2

> <s_m_Source_File>
dock_pv.maegz

> <i_m_Source_File_Index>
67

> <chembl_id>
CHEMBL82181

> <chembl_pref_name>
None

> <i_lp_mmshare_version>
53161

> <r_lp_tautomer_probability>
0.982539515805485

> <s_lp_Force_Field>
OPLS_2005

> <r_lp_Energy>
16.167245

> <b_lp_Chiralities_Consistent>
1

> <s_lp_Variant>
CHEMBL3972_lig70-1

> <s_i_glide_gridfile>
glide-grid_1njs

> <i_i_glide_lignum>
149

> <i_i_glide_rotatable_bonds>
12

> <r_i_docking_score>
-10.4008910965278

> <r_i_glide_ligand_efficiency>
-0.325027846766495

> <r_i_glide_ligand_efficiency_sa>
-1.03189909056009

> <r_i_glide_ligand_efficiency_ln>
-2.32904303409594

> <r_i_glide_gscore>
-10.4008910965278

> <r_i_glide_lipo>
-2.59691921516236

> <r_i_glide_hbond>
-0.850581634790255

> <r_i_glide_metal>
0

> <r_i_glide_rewards>
-2.47155210296132

> <r_i_glide_evdw>
-44.8222236633301

> <r_i_glide_ecoul>
-18.8800678253174

> <r_i_glide_erotb>
0.661843766717366

> <r_i_glide_esite>
-0.0705605533671588

> <r_i_glide_emodel>
-99.2921523452165

> <r_i_glide_energy>
-63.7022914886475

> <r_i_glide_einternal>
12.2801752090454

> <i_i_glide_confnum>
135

> <i_i_glide_posenum>
135

> <r_i_glide_eff_state_penalty>
0

> <s_user_duplicate_titles>
CHEMBL3972_lig70,135411

> <i_f3d_flags>
0

> <s_m_subgroup_title>
dock_pv

> <s_m_subgroupid>
dock_pv

> <b_m_subgroup_collapsed>
1

$$$$
CHEMBL3972_lig57 
                    3D
 Schrodinger Suite 2021-1.
 53 55  0  0  1  0            999 V2000
   79.0469   26.7908   27.9100 N   0  0  0  0  0  0
   77.8746   26.0418   27.6911 C   0  0  0  0  0  0
   76.8892   26.5925   26.8910 N   0  0  0  0  0  0
   77.7271   24.8636   28.1995 N   0  0  0  0  0  0
   76.5437   24.2410   27.9267 C   0  0  0  0  0  0
   76.1646   23.0056   28.3722 N   0  0  0  0  0  0
   74.9111   22.7143   27.8794 C   0  0  0  0  0  0
   74.2442   21.3935   28.1350 C   0  0  0  0  0  0
   73.4416   21.3287   29.4575 C   0  0  0  0  0  0
   72.0247   21.4727   29.3022 O   0  0  0  0  0  0
   71.2824   20.4306   28.7730 C   0  0  0  0  0  0
   71.8240   19.3940   28.0046 C   0  0  0  0  0  0
   71.0131   18.3910   27.5060 C   0  0  0  0  0  0
   69.6602   18.3195   27.8457 C   0  0  0  0  0  0
   68.8599   17.1171   27.3903 C   0  0  0  0  0  0
   67.7323   16.8214   28.0609 N   0  0  0  0  0  0
   66.8569   15.6712   27.7842 C   0  0  1  0  0  0
   67.3967   14.3640   28.4477 C   0  0  0  0  0  0
   68.6216   13.7164   27.7621 C   0  0  0  0  0  0
   68.7734   12.2274   28.0791 C   0  0  0  0  0  0
   69.2432   12.0102   29.3397 O   0  0  0  0  0  0
   68.4888   11.3245   27.2912 O   0  0  0  0  0  0
   65.4406   15.9911   28.3005 C   0  0  0  0  0  0
   64.5207   15.9910   27.2910 O   0  0  0  0  0  0
   65.1983   16.1768   29.4753 O   0  0  0  0  0  0
   69.2888   16.3949   26.4910 O   0  0  0  0  0  0
   69.1129   19.3559   28.6159 C   0  0  0  0  0  0
   69.9136   20.4153   29.0460 C   0  0  0  0  0  0
   74.4898   23.8097   27.1343 C   0  0  0  0  0  0
   75.5155   24.7508   27.1398 C   0  0  0  0  0  0
   75.6950   26.0341   26.4910 C   0  0  0  0  0  0
   74.9552   26.6054   25.6910 O   0  0  0  0  0  0
   79.7250   26.4553   28.5801 H   0  0  0  0  0  0
   79.0007   27.8005   27.8941 H   0  0  0  0  0  0
   77.0998   27.4741   26.4386 H   0  0  0  0  0  0
   76.7326   22.3968   28.9421 H   0  0  0  0  0  0
   74.9754   20.5853   28.0913 H   0  0  0  0  0  0
   73.5776   21.2375   27.2910 H   0  0  0  0  0  0
   73.7773   22.1077   30.1436 H   0  0  0  0  0  0
   73.6333   20.3911   29.9797 H   0  0  0  0  0  0
   72.8725   19.3234   27.7738 H   0  0  0  0  0  0
   71.4698   17.6299   26.8926 H   0  0  0  0  0  0
   67.4165   17.4374   28.7941 H   0  0  0  0  0  0
   66.8049   15.5272   26.7022 H   0  0  0  0  0  0
   66.5995   13.6235   28.4914 H   0  0  0  0  0  0
   67.6490   14.5716   29.4896 H   0  0  0  0  0  0
   69.5363   14.2465   28.0235 H   0  0  0  0  0  0
   68.5219   13.8055   26.6829 H   0  0  0  0  0  0
   69.4108   12.8256   29.8180 H   0  0  0  0  0  0
   64.8622   15.9483   26.3742 H   0  0  0  0  0  0
   68.0700   19.3588   28.8913 H   0  0  0  0  0  0
   69.4809   21.2104   29.6354 H   0  0  0  0  0  0
   73.5440   23.9070   26.6182 H   0  0  0  0  0  0
  1  2  1  0  0  0
  1 33  1  0  0  0
  1 34  1  0  0  0
  2  3  1  0  0  0
  2  4  2  0  0  0
  3 31  1  0  0  0
  3 35  1  0  0  0
  4  5  1  0  0  0
  5  6  1  0  0  0
  5 30  2  0  0  0
  6  7  1  0  0  0
  6 36  1  0  0  0
  7  8  1  0  0  0
  7 29  2  0  0  0
  8  9  1  0  0  0
  8 37  1  0  0  0
  8 38  1  0  0  0
  9 10  1  0  0  0
  9 39  1  0  0  0
  9 40  1  0  0  0
 10 11  1  0  0  0
 11 12  2  0  0  0
 11 28  1  0  0  0
 12 13  1  0  0  0
 12 41  1  0  0  0
 13 14  2  0  0  0
 13 42  1  0  0  0
 14 15  1  0  0  0
 14 27  1  0  0  0
 15 16  1  0  0  0
 15 26  2  0  0  0
 16 17  1  0  0  0
 16 43  1  0  0  0
 17 18  1  0  0  0
 17 23  1  0  0  0
 17 44  1  0  0  0
 18 19  1  0  0  0
 18 45  1  0  0  0
 18 46  1  0  0  0
 19 20  1  0  0  0
 19 47  1  0  0  0
 19 48  1  0  0  0
 20 21  1  0  0  0
 20 22  2  0  0  0
 21 49  1  0  0  0
 23 24  1  0  0  0
 23 25  2  0  0  0
 24 50  1  0  0  0
 27 28  2  0  0  0
 27 51  1  0  0  0
 28 52  1  0  0  0
 29 30  1  0  0  0
 29 53  1  0  0  0
 30 31  1  0  0  0
 31 32  2  0  0  0
M  END
> <s_m_entry_id>
24915

> <s_m_entry_name>
dock_pv.68

> <s_m_Source_Path>
/home/csk/Desktop/cluster/DUD-E-result/pur2

> <s_m_Source_File>
dock_pv.maegz

> <i_m_Source_File_Index>
68

> <chembl_id>
CHEMBL4447805

> <chembl_pref_name>
None

> <i_lp_mmshare_version>
53161

> <r_lp_tautomer_probability>
1

> <s_lp_Force_Field>
OPLS_2005

> <r_lp_Energy>
20.747561

> <b_lp_Chiralities_Consistent>
1

> <s_lp_Variant>
CHEMBL3972_lig57 -1

> <s_i_glide_gridfile>
glide-grid_1njs

> <i_i_glide_lignum>
127

> <i_i_glide_rotatable_bonds>
13

> <r_i_docking_score>
-10.3968739195759

> <r_i_glide_ligand_efficiency>
-0.324902309986746

> <r_i_glide_ligand_efficiency_sa>
-1.03150053612808

> <r_i_glide_ligand_efficiency_ln>
-2.32814347867229

> <r_i_glide_gscore>
-10.3968739195759

> <r_i_glide_lipo>
-2.1795962580224

> <r_i_glide_hbond>
-1.14862568439879

> <r_i_glide_metal>
0

> <r_i_glide_rewards>
-1.84566817160845

> <r_i_glide_evdw>
-59.4272651672363

> <r_i_glide_ecoul>
-22.0694751739502

> <r_i_glide_erotb>
1.11847321690265

> <r_i_glide_esite>
-0.0596724879945498

> <r_i_glide_emodel>
-132.556523151778

> <r_i_glide_energy>
-81.4967403411865

> <r_i_glide_einternal>
15.6882781982422

> <i_i_glide_confnum>
20

> <i_i_glide_posenum>
4

> <r_i_glide_eff_state_penalty>
0

> <s_user_duplicate_titles>
CHEMBL3972_lig57 

> <i_f3d_flags>
0

> <s_m_subgroup_title>
dock_pv

> <s_m_subgroupid>
dock_pv

> <b_m_subgroup_collapsed>
1

$$$$
CHEMBL3972_lig10 
                    3D
 Schrodinger Suite 2021-1.
 53 55  0  0  1  0            999 V2000
   76.9097   25.5843   27.0003 N   0  0  0  0  0  0
   75.6890   25.9908   26.4911 C   0  0  0  0  0  0
   74.6115   25.3337   26.7554 N   0  0  0  0  0  0
   77.1968   24.4743   27.7517 C   0  0  0  0  0  0
   75.9643   23.7615   28.0690 C   0  0  0  0  0  0
   74.7607   24.2370   27.5577 C   0  0  0  0  0  0
   73.7480   23.4727   28.0728 N   0  0  0  0  0  0
   74.2788   22.4998   28.9048 C   0  0  0  0  0  0
   75.6654   22.6287   28.8318 C   0  0  0  0  0  0
   78.3485   24.2069   28.0900 O   0  0  0  0  0  0
   75.6745   27.1401   25.6754 N   0  0  0  0  0  0
   73.4362   21.5671   29.7632 C   0  0  0  0  0  0
   72.1137   22.1170   30.1026 N   0  0  0  0  0  0
   72.2107   23.2910   30.9920 C   0  0  0  0  0  0
   70.8883   21.6751   29.6912 C   0  0  0  0  0  0
   69.8565   22.2095   30.0932 O   0  0  0  0  0  0
   70.7471   20.5224   28.8128 C   0  0  0  0  0  0
   69.2627   19.5972   28.8910 S   0  0  0  0  0  0
   69.8514   18.4104   27.7695 C   0  0  0  0  0  0
   71.1056   18.7907   27.2910 C   0  0  0  0  0  0
   71.5944   19.9748   27.8487 C   0  0  0  0  0  0
   69.0960   17.2441   27.3689 C   0  0  0  0  0  0
   67.9468   16.9625   28.0163 N   0  0  0  0  0  0
   69.5414   16.5273   26.4828 O   0  0  0  0  0  0
   67.0448   15.8371   27.6983 C   0  0  1  0  0  0
   67.5591   14.4715   28.2561 C   0  0  0  0  0  0
   65.6380   16.1266   28.2552 C   0  0  0  0  0  0
   64.6793   15.9907   27.2911 O   0  0  0  0  0  0
   65.4328   16.3903   29.4220 O   0  0  0  0  0  0
   68.7954   13.8889   27.5411 C   0  0  0  0  0  0
   68.9508   12.3683   27.5821 C   0  0  0  0  0  0
   70.1611   11.9899   27.0877 O   0  0  0  0  0  0
   68.0892   11.5675   27.9408 O   0  0  0  0  0  0
   77.7167   26.1440   26.7729 H   0  0  0  0  0  0
   72.7636   23.6753   27.9356 H   0  0  0  0  0  0
   76.3869   22.0202   29.3603 H   0  0  0  0  0  0
   74.7992   27.5607   25.4124 H   0  0  0  0  0  0
   76.4472   27.7995   25.6912 H   0  0  0  0  0  0
   73.9558   21.4009   30.7081 H   0  0  0  0  0  0
   73.3913   20.5633   29.3540 H   0  0  0  0  0  0
   71.2448   23.7057   31.2835 H   0  0  0  0  0  0
   72.7380   23.0250   31.9089 H   0  0  0  0  0  0
   72.7651   24.0974   30.5114 H   0  0  0  0  0  0
   71.6471   18.2439   26.5332 H   0  0  0  0  0  0
   72.5348   20.4000   27.5313 H   0  0  0  0  0  0
   67.6134   17.5944   28.7297 H   0  0  0  0  0  0
   66.9687   15.7742   26.6094 H   0  0  0  0  0  0
   66.7554   13.7415   28.2176 H   0  0  0  0  0  0
   67.7964   14.5813   29.3161 H   0  0  0  0  0  0
   64.9932   15.9338   26.3644 H   0  0  0  0  0  0
   69.6883   14.3465   27.9580 H   0  0  0  0  0  0
   68.7717   14.1627   26.4909 H   0  0  0  0  0  0
   70.2852   11.0422   27.1034 H   0  0  0  0  0  0
  1  2  1  0  0  0
  1  4  1  0  0  0
  1 34  1  0  0  0
  2  3  2  0  0  0
  2 11  1  0  0  0
  3  6  1  0  0  0
  4  5  1  0  0  0
  4 10  2  0  0  0
  5  6  2  0  0  0
  5  9  1  0  0  0
  6  7  1  0  0  0
  7  8  1  0  0  0
  7 35  1  0  0  0
  8  9  2  0  0  0
  8 12  1  0  0  0
  9 36  1  0  0  0
 11 37  1  0  0  0
 11 38  1  0  0  0
 12 13  1  0  0  0
 12 39  1  0  0  0
 12 40  1  0  0  0
 13 14  1  0  0  0
 13 15  1  0  0  0
 14 41  1  0  0  0
 14 42  1  0  0  0
 14 43  1  0  0  0
 15 16  2  0  0  0
 15 17  1  0  0  0
 17 18  1  0  0  0
 17 21  2  0  0  0
 18 19  1  0  0  0
 19 20  2  0  0  0
 19 22  1  0  0  0
 20 21  1  0  0  0
 20 44  1  0  0  0
 21 45  1  0  0  0
 22 23  1  0  0  0
 22 24  2  0  0  0
 23 25  1  0  0  0
 23 46  1  0  0  0
 25 26  1  0  0  0
 25 27  1  0  0  0
 25 47  1  0  0  0
 26 30  1  0  0  0
 26 48  1  0  0  0
 26 49  1  0  0  0
 27 28  1  0  0  0
 27 29  2  0  0  0
 28 50  1  0  0  0
 30 31  1  0  0  0
 30 51  1  0  0  0
 30 52  1  0  0  0
 31 32  1  0  0  0
 31 33  2  0  0  0
 32 53  1  0  0  0
M  END
> <s_m_entry_id>
24916

> <s_m_entry_name>
dock_pv.69

> <s_m_Source_Path>
/home/csk/Desktop/cluster/DUD-E-result/pur2

> <s_m_Source_File>
dock_pv.maegz

> <i_m_Source_File_Index>
69

> <chembl_id>
CHEMBL4515056

> <chembl_pref_name>
None

> <i_lp_mmshare_version>
53161

> <r_lp_tautomer_probability>
1

> <s_lp_Force_Field>
OPLS_2005

> <r_lp_Energy>
20.231218

> <b_lp_Chiralities_Consistent>
1

> <s_lp_Variant>
CHEMBL3972_lig10 -1

> <s_i_glide_gridfile>
glide-grid_1njs

> <i_i_glide_lignum>
11

> <i_i_glide_rotatable_bonds>
13

> <r_i_docking_score>
-10.3726329646077

> <r_i_glide_ligand_efficiency>
-0.314322211048717

> <r_i_glide_ligand_efficiency_sa>
-1.00819928144389

> <r_i_glide_ligand_efficiency_ln>
-2.30681986470957

> <r_i_glide_gscore>
-10.3726329646077

> <r_i_glide_lipo>
-1.94797144838372

> <r_i_glide_hbond>
-1.05285035983816

> <r_i_glide_metal>
0

> <r_i_glide_rewards>
-1.25882103096149

> <r_i_glide_evdw>
-58.2956695556641

> <r_i_glide_ecoul>
-27.3093490600586

> <r_i_glide_erotb>
0.981197244072378

> <r_i_glide_esite>
-0.179403891713454

> <r_i_glide_emodel>
-136.514072303635

> <r_i_glide_energy>
-85.6050186157227

> <r_i_glide_einternal>
10.0060901641846

> <i_i_glide_confnum>
85

> <i_i_glide_posenum>
239

> <r_i_glide_eff_state_penalty>
0

> <s_user_duplicate_titles>
CHEMBL3972_lig10 

> <i_f3d_flags>
0

> <s_m_subgroup_title>
dock_pv

> <s_m_subgroupid>
dock_pv

> <b_m_subgroup_collapsed>
1

$$$$
CHEMBL3972_lig90
                    3D
 Schrodinger Suite 2021-1.
 60 61  0  0  1  0            999 V2000
   72.6979   21.2621   28.9844 C   0  0  0  0  0  0
   71.5856   21.8013   29.6355 C   0  0  0  0  0  0
   70.3463   21.1900   29.5176 C   0  0  0  0  0  0
   70.1934   20.0343   28.7409 C   0  0  0  0  0  0
   71.2795   19.5857   27.9736 C   0  0  0  0  0  0
   72.5223   20.1951   28.0993 C   0  0  0  0  0  0
   74.1055   21.8205   29.2407 C   0  0  1  0  0  0
   74.2145   23.3482   29.0473 C   0  0  0  0  0  0
   74.0545   23.7819   27.5793 C   0  0  0  0  0  0
   75.3198   23.5790   26.7208 C   0  0  0  0  0  0
   76.4538   24.5277   27.1372 C   0  0  0  0  0  0
   77.6360   24.0908   27.7681 C   0  0  0  0  0  0
   78.6183   24.9714   28.0915 N   0  0  0  0  0  0
   78.3884   26.2803   27.8637 C   0  0  0  0  0  0
   77.2893   26.7909   27.2910 N   0  0  0  0  0  0
   76.3538   25.9052   26.8910 C   0  0  0  0  0  0
   77.7485   22.7598   28.0503 O   0  0  0  0  0  0
   79.3491   27.1909   28.2669 N   0  0  0  0  0  0
   75.3354   26.4220   26.0910 N   0  0  0  0  0  0
   68.9324   19.2151   28.8928 C   0  0  0  0  0  0
   68.0783   19.5435   29.7190 O   0  0  0  0  0  0
   68.8660   18.0500   28.2213 N   0  0  0  0  0  0
   67.8865   16.9992   28.5177 C   0  0  2  0  0  0
   68.3637   16.1919   29.7514 C   0  0  0  0  0  0
   68.0894   16.8861   30.8957 O   0  0  0  0  0  0
   68.8930   15.1010   29.6876 O   0  0  0  0  0  0
   67.6182   16.1371   27.2531 C   0  0  0  0  0  0
   66.6097   14.9745   27.4410 C   0  0  0  0  0  0
   65.3171   15.4034   28.1375 C   0  0  0  0  0  0
   64.4281   15.9868   27.2910 O   0  0  0  0  0  0
   65.1141   15.2318   29.3364 O   0  0  0  0  0  0
   74.6510   21.3988   30.4981 O   0  0  0  0  0  0
   73.9653   21.7327   31.6996 C   0  0  0  0  0  0
   71.6798   22.6597   30.2837 H   0  0  0  0  0  0
   69.5209   21.5877   30.0917 H   0  0  0  0  0  0
   71.2074   18.7214   27.3317 H   0  0  0  0  0  0
   73.3644   19.7926   27.5537 H   0  0  0  0  0  0
   74.7784   21.3550   28.5198 H   0  0  0  0  0  0
   73.4698   23.8642   29.6528 H   0  0  0  0  0  0
   75.1745   23.6950   29.4250 H   0  0  0  0  0  0
   73.2233   23.2398   27.1313 H   0  0  0  0  0  0
   73.7437   24.8266   27.5548 H   0  0  0  0  0  0
   75.6251   22.5350   26.7426 H   0  0  0  0  0  0
   75.0783   23.7632   25.6729 H   0  0  0  0  0  0
   76.9445   22.2863   27.8347 H   0  0  0  0  0  0
   80.2319   26.8540   28.6381 H   0  0  0  0  0  0
   79.1606   28.1810   28.1514 H   0  0  0  0  0  0
   74.6707   25.7821   25.6864 H   0  0  0  0  0  0
   75.4203   27.3901   25.8114 H   0  0  0  0  0  0
   69.5507   17.8479   27.5112 H   0  0  0  0  0  0
   66.9413   17.4835   28.7746 H   0  0  0  0  0  0
   67.7490   17.7682   30.7124 H   0  0  0  0  0  0
   68.5586   15.7274   26.8805 H   0  0  0  0  0  0
   67.2536   16.7858   26.4539 H   0  0  0  0  0  0
   67.0647   14.1930   28.0493 H   0  0  0  0  0  0
   66.3755   14.4988   26.4910 H   0  0  0  0  0  0
   64.7346   15.9904   26.3665 H   0  0  0  0  0  0
   74.6129   21.5185   32.5490 H   0  0  0  0  0  0
   73.6957   22.7875   31.7466 H   0  0  0  0  0  0
   73.0656   21.1290   31.8216 H   0  0  0  0  0  0
  1  6  1  0  0  0
  1  7  1  0  0  0
  1  2  2  0  0  0
  2  3  1  0  0  0
  2 34  1  0  0  0
  3  4  2  0  0  0
  3 35  1  0  0  0
  4 20  1  0  0  0
  4  5  1  0  0  0
  5  6  2  0  0  0
  5 36  1  0  0  0
  6 37  1  0  0  0
  7  8  1  0  0  0
  7 32  1  0  0  0
  7 38  1  0  0  0
  8  9  1  0  0  0
  8 39  1  0  0  0
  8 40  1  0  0  0
  9 10  1  0  0  0
  9 41  1  0  0  0
  9 42  1  0  0  0
 10 43  1  0  0  0
 10 44  1  0  0  0
 10 11  1  0  0  0
 11 16  2  0  0  0
 11 12  1  0  0  0
 12 13  2  0  0  0
 12 17  1  0  0  0
 13 14  1  0  0  0
 14 15  2  0  0  0
 14 18  1  0  0  0
 15 16  1  0  0  0
 16 19  1  0  0  0
 17 45  1  0  0  0
 18 46  1  0  0  0
 18 47  1  0  0  0
 19 48  1  0  0  0
 19 49  1  0  0  0
 20 21  2  0  0  0
 20 22  1  0  0  0
 22 23  1  0  0  0
 22 50  1  0  0  0
 23 24  1  0  0  0
 23 27  1  0  0  0
 23 51  1  0  0  0
 24 25  1  0  0  0
 24 26  2  0  0  0
 25 52  1  0  0  0
 27 28  1  0  0  0
 27 53  1  0  0  0
 27 54  1  0  0  0
 28 29  1  0  0  0
 28 55  1  0  0  0
 28 56  1  0  0  0
 29 30  1  0  0  0
 29 31  2  0  0  0
 30 57  1  0  0  0
 32 33  1  0  0  0
 33 58  1  0  0  0
 33 59  1  0  0  0
 33 60  1  0  0  0
M  END
> <s_m_entry_id>
24917

> <s_m_entry_name>
dock_pv.70

> <s_m_Source_Path>
/home/csk/Desktop/cluster/DUD-E-result/pur2

> <s_m_Source_File>
dock_pv.maegz

> <i_m_Source_File_Index>
70

> <chembl_id>
CHEMBL452324

> <chembl_pref_name>
None

> <i_lp_mmshare_version>
53161

> <r_lp_tautomer_probability>
0.0160304617775627

> <s_lp_Force_Field>
OPLS_2005

> <r_lp_Energy>
10.295111

> <b_lp_Chiralities_Consistent>
1

> <s_lp_Variant>
CHEMBL3972_lig90-2

> <s_i_glide_gridfile>
glide-grid_1njs

> <i_i_glide_lignum>
233

> <i_i_glide_rotatable_bonds>
16

> <r_i_docking_score>
-10.3350167726779

> <r_i_glide_ligand_efficiency>
-0.313182326444786

> <r_i_glide_ligand_efficiency_sa>
-1.00454306244881

> <r_i_glide_ligand_efficiency_ln>
-2.29845421839062

> <r_i_glide_gscore>
-10.3350167726779

> <r_i_glide_lipo>
-2.56214580028845

> <r_i_glide_hbond>
-0.88737955419798

> <r_i_glide_metal>
0

> <r_i_glide_rewards>
-2.46023416065832

> <r_i_glide_evdw>
-57.2423324584961

> <r_i_glide_ecoul>
-17.5695247650146

> <r_i_glide_erotb>
1.13469744973437

> <r_i_glide_esite>
-0.0624093695905614

> <r_i_glide_emodel>
-114.045862068318

> <r_i_glide_energy>
-74.8118572235107

> <r_i_glide_einternal>
12.889121055603

> <i_i_glide_confnum>
177

> <i_i_glide_posenum>
350

> <r_i_glide_eff_state_penalty>
0

> <s_user_duplicate_titles>
CHEMBL3972_lig90,451331

> <i_f3d_flags>
0

> <s_m_subgroup_title>
dock_pv

> <s_m_subgroupid>
dock_pv

> <b_m_subgroup_collapsed>
1

$$$$
CHEMBL3972_lig56 
                    3D
 Schrodinger Suite 2021-1.
 52 54  0  0  1  0            999 V2000
   76.9178   25.5144   26.9242 N   0  0  0  0  0  0
   75.6890   25.9797   26.4915 C   0  0  0  0  0  0
   74.6007   25.3879   26.8542 N   0  0  0  0  0  0
   77.1985   24.4126   27.6918 C   0  0  0  0  0  0
   75.9583   23.7655   28.0977 C   0  0  0  0  0  0
   74.7482   24.2987   27.6669 C   0  0  0  0  0  0
   73.7376   23.5897   28.2646 N   0  0  0  0  0  0
   74.2708   22.5776   29.0469 C   0  0  0  0  0  0
   75.6557   22.6505   28.8885 C   0  0  0  0  0  0
   75.6701   27.1339   25.6800 N   0  0  0  0  0  0
   78.3555   24.0999   27.9714 O   0  0  0  0  0  0
   73.4577   21.6093   29.8968 C   0  0  0  0  0  0
   72.0560   22.0873   30.3368 C   0  0  0  0  0  0
   70.9683   22.1274   29.2429 C   0  0  0  0  0  0
   70.6538   20.7730   28.6309 C   0  0  0  0  0  0
   69.5472   18.7362   28.2901 C   0  0  0  0  0  0
   68.6670   17.6214   28.4815 C   0  0  0  0  0  0
   68.4885   17.1650   29.6093 O   0  0  0  0  0  0
   68.1862   17.0769   27.3432 N   0  0  0  0  0  0
   67.4856   15.7898   27.1995 C   0  0  1  0  0  0
   68.5139   14.6526   27.4607 C   0  0  0  0  0  0
   66.1901   15.6676   28.0442 C   0  0  0  0  0  0
   67.9739   13.2119   27.3404 C   0  0  0  0  0  0
   69.1099   12.2114   27.1387 C   0  0  0  0  0  0
   69.2884   11.5905   26.0945 O   0  0  0  0  0  0
   69.9178   12.1113   28.2325 O   0  0  0  0  0  0
   66.1624   15.2706   29.1918 O   0  0  0  0  0  0
   65.0980   15.9910   27.2913 O   0  0  0  0  0  0
   69.5140   19.9895   28.9065 C   0  0  0  0  0  0
   71.4724   20.1322   27.7055 C   0  0  0  0  0  0
   70.9519   18.5440   27.2912 S   0  0  0  0  0  0
   68.5561   20.3752   29.7208 F   0  0  0  0  0  0
   77.7353   26.0294   26.6333 H   0  0  0  0  0  0
   72.7545   23.8125   28.1544 H   0  0  0  0  0  0
   76.3774   21.9928   29.3537 H   0  0  0  0  0  0
   74.8075   27.6411   25.5578 H   0  0  0  0  0  0
   76.4680   27.7608   25.6912 H   0  0  0  0  0  0
   74.0278   21.3992   30.8032 H   0  0  0  0  0  0
   73.3931   20.6409   29.4062 H   0  0  0  0  0  0
   72.1456   23.0766   30.7898 H   0  0  0  0  0  0
   71.7042   21.4381   31.1418 H   0  0  0  0  0  0
   71.2643   22.8154   28.4553 H   0  0  0  0  0  0
   70.0802   22.5668   29.6911 H   0  0  0  0  0  0
   68.3061   17.5984   26.4855 H   0  0  0  0  0  0
   67.2120   15.7254   26.1472 H   0  0  0  0  0  0
   68.9391   14.7662   28.4604 H   0  0  0  0  0  0
   69.3548   14.7846   26.7765 H   0  0  0  0  0  0
   67.2889   13.1338   26.4946 H   0  0  0  0  0  0
   67.3999   12.9500   28.2334 H   0  0  0  0  0  0
   70.7007   11.5892   28.0526 H   0  0  0  0  0  0
   65.2885   16.1286   26.3483 H   0  0  0  0  0  0
   72.4009   20.4980   27.2970 H   0  0  0  0  0  0
  1  2  1  0  0  0
  1  4  1  0  0  0
  1 33  1  0  0  0
  2  3  2  0  0  0
  2 10  1  0  0  0
  3  6  1  0  0  0
  4  5  1  0  0  0
  4 11  2  0  0  0
  5  6  2  0  0  0
  5  9  1  0  0  0
  6  7  1  0  0  0
  7  8  1  0  0  0
  7 34  1  0  0  0
  8  9  2  0  0  0
  8 12  1  0  0  0
  9 35  1  0  0  0
 10 36  1  0  0  0
 10 37  1  0  0  0
 12 13  1  0  0  0
 12 38  1  0  0  0
 12 39  1  0  0  0
 13 14  1  0  0  0
 13 40  1  0  0  0
 13 41  1  0  0  0
 14 15  1  0  0  0
 14 42  1  0  0  0
 14 43  1  0  0  0
 15 29  1  0  0  0
 15 30  2  0  0  0
 16 17  1  0  0  0
 16 29  2  0  0  0
 16 31  1  0  0  0
 17 18  2  0  0  0
 17 19  1  0  0  0
 19 20  1  0  0  0
 19 44  1  0  0  0
 20 21  1  0  0  0
 20 22  1  0  0  0
 20 45  1  0  0  0
 21 23  1  0  0  0
 21 46  1  0  0  0
 21 47  1  0  0  0
 22 27  2  0  0  0
 22 28  1  0  0  0
 23 24  1  0  0  0
 23 48  1  0  0  0
 23 49  1  0  0  0
 24 25  2  0  0  0
 24 26  1  0  0  0
 26 50  1  0  0  0
 28 51  1  0  0  0
 29 32  1  0  0  0
 30 31  1  0  0  0
 30 52  1  0  0  0
M  END
> <s_m_entry_id>
24919

> <s_m_entry_name>
dock_pv.72

> <s_m_Source_Path>
/home/csk/Desktop/cluster/DUD-E-result/pur2

> <s_m_Source_File>
dock_pv.maegz

> <i_m_Source_File_Index>
72

> <chembl_id>
CHEMBL4445651

> <chembl_pref_name>
None

> <i_lp_mmshare_version>
53161

> <r_lp_tautomer_probability>
1

> <s_lp_Force_Field>
OPLS_2005

> <r_lp_Energy>
16.395969

> <b_lp_Chiralities_Consistent>
1

> <s_lp_Variant>
CHEMBL3972_lig56 -1

> <s_i_glide_gridfile>
glide-grid_1njs

> <i_i_glide_lignum>
126

> <i_i_glide_rotatable_bonds>
13

> <r_i_docking_score>
-10.2634825317249

> <r_i_glide_ligand_efficiency>
-0.320733829116404

> <r_i_glide_ligand_efficiency_sa>
-1.01826643430599

> <r_i_glide_ligand_efficiency_ln>
-2.29827351082056

> <r_i_glide_gscore>
-10.2634825317249

> <r_i_glide_lipo>
-2.29295844226247

> <r_i_glide_hbond>
-1.24467962922667

> <r_i_glide_metal>
0

> <r_i_glide_rewards>
-1.85083148062967

> <r_i_glide_evdw>
-54.0723838806152

> <r_i_glide_ecoul>
-19.8039016723633

> <r_i_glide_erotb>
1.02395444191065

> <r_i_glide_esite>
-0.224762976631527

> <r_i_glide_emodel>
-121.437764394416

> <r_i_glide_energy>
-73.8762855529785

> <r_i_glide_einternal>
9.69143104553223

> <i_i_glide_confnum>
206

> <i_i_glide_posenum>
397

> <r_i_glide_eff_state_penalty>
0

> <s_user_duplicate_titles>
CHEMBL3972_lig56 

> <i_f3d_flags>
0

> <s_m_subgroup_title>
dock_pv

> <s_m_subgroupid>
dock_pv

> <b_m_subgroup_collapsed>
1

$$$$
CHEMBL3972_lig36
                    3D
 Schrodinger Suite 2021-1.
 55 57  0  0  1  0            999 V2000
   70.7835   20.7405   29.0819 C   0  0  0  0  0  0
   71.4360   19.9419   28.1398 C   0  0  0  0  0  0
   70.8293   18.7910   27.6579 C   0  0  0  0  0  0
   69.5508   18.4198   28.0910 C   0  0  0  0  0  0
   68.8864   19.2401   29.0111 C   0  0  0  0  0  0
   69.4972   20.3910   29.4984 C   0  0  0  0  0  0
   68.9017   17.1909   27.5037 C   0  0  0  0  0  0
   67.8315   16.6717   28.1258 N   0  0  0  0  0  0
   69.3705   16.6865   26.4910 O   0  0  0  0  0  0
   66.9411   15.6523   27.5532 C   0  0  1  0  0  0
   67.4395   14.1737   27.6904 C   0  0  0  0  0  0
   65.5479   15.8285   28.1943 C   0  0  0  0  0  0
   65.3810   16.1163   29.3626 O   0  0  0  0  0  0
   64.5551   15.5910   27.2910 O   0  0  0  0  0  0
   68.9220   13.8241   27.4079 C   0  0  0  0  0  0
   69.1833   12.3134   27.2909 C   0  0  0  0  0  0
   68.3258   11.4439   27.4458 O   0  0  0  0  0  0
   70.4731   12.0219   26.9512 O   0  0  0  0  0  0
   77.2046   26.7907   26.8910 N   0  0  0  0  0  0
   78.1263   26.1750   27.7136 C   0  0  0  0  0  0
   77.9119   24.9927   28.1862 N   0  0  0  0  0  0
   75.9807   26.3205   26.4910 C   0  0  0  0  0  0
   75.6862   25.0670   27.1647 C   0  0  0  0  0  0
   76.6781   24.4712   27.9331 C   0  0  0  0  0  0
   76.1596   23.3390   28.4945 N   0  0  0  0  0  0
   74.8261   23.2408   28.1680 C   0  0  0  0  0  0
   74.5647   24.2406   27.2304 C   0  0  0  0  0  0
   75.2862   26.9298   25.6821 O   0  0  0  0  0  0
   79.2917   26.8814   28.0373 N   0  0  0  0  0  0
   73.9172   22.2345   28.8370 C   0  0  0  0  0  0
   72.4520   22.7334   28.8158 C   0  0  0  0  0  0
   71.4408   21.9734   29.6970 C   0  0  0  0  0  0
   72.4108   20.1853   27.7588 H   0  0  0  0  0  0
   71.3608   18.2072   26.9199 H   0  0  0  0  0  0
   67.8861   19.0117   29.3501 H   0  0  0  0  0  0
   68.9654   21.0101   30.2045 H   0  0  0  0  0  0
   67.5040   17.0882   28.9846 H   0  0  0  0  0  0
   66.8583   15.8946   26.4910 H   0  0  0  0  0  0
   66.8461   13.5910   26.9886 H   0  0  0  0  0  0
   67.2037   13.7981   28.6884 H   0  0  0  0  0  0
   64.8325   15.5325   26.3523 H   0  0  0  0  0  0
   69.5505   14.2414   28.1944 H   0  0  0  0  0  0
   69.2398   14.2696   26.4689 H   0  0  0  0  0  0
   71.0433   12.7905   26.8540 H   0  0  0  0  0  0
   77.4713   27.6553   26.4280 H   0  0  0  0  0  0
   76.6466   22.7495   29.1523 H   0  0  0  0  0  0
   73.6143   24.4236   26.7478 H   0  0  0  0  0  0
   80.0615   26.4086   28.4915 H   0  0  0  0  0  0
   79.5813   27.6768   27.4891 H   0  0  0  0  0  0
   74.2185   22.0958   29.8766 H   0  0  0  0  0  0
   74.0407   21.2612   28.3693 H   0  0  0  0  0  0
   72.0806   22.7910   27.7917 H   0  0  0  0  0  0
   72.4581   23.7645   29.1770 H   0  0  0  0  0  0
   70.6430   22.6788   29.9404 H   0  0  0  0  0  0
   71.8938   21.6994   30.6505 H   0  0  0  0  0  0
  1  6  1  0  0  0
  1  2  2  0  0  0
  1 32  1  0  0  0
  2  3  1  0  0  0
  2 33  1  0  0  0
  3  4  2  0  0  0
  3 34  1  0  0  0
  4  5  1  0  0  0
  4  7  1  0  0  0
  5  6  2  0  0  0
  5 35  1  0  0  0
  6 36  1  0  0  0
  7  8  1  0  0  0
  7  9  2  0  0  0
  8 10  1  0  0  0
  8 37  1  0  0  0
 10 11  1  0  0  0
 10 12  1  0  0  0
 10 38  1  0  0  0
 11 15  1  0  0  0
 11 39  1  0  0  0
 11 40  1  0  0  0
 12 13  2  0  0  0
 12 14  1  0  0  0
 14 41  1  0  0  0
 15 16  1  0  0  0
 15 42  1  0  0  0
 15 43  1  0  0  0
 16 17  2  0  0  0
 16 18  1  0  0  0
 18 44  1  0  0  0
 19 20  1  0  0  0
 19 22  1  0  0  0
 19 45  1  0  0  0
 20 21  2  0  0  0
 20 29  1  0  0  0
 21 24  1  0  0  0
 22 23  1  0  0  0
 22 28  2  0  0  0
 23 24  2  0  0  0
 23 27  1  0  0  0
 24 25  1  0  0  0
 25 26  1  0  0  0
 25 46  1  0  0  0
 26 27  2  0  0  0
 26 30  1  0  0  0
 27 47  1  0  0  0
 29 48  1  0  0  0
 29 49  1  0  0  0
 30 31  1  0  0  0
 30 50  1  0  0  0
 30 51  1  0  0  0
 31 32  1  0  0  0
 31 52  1  0  0  0
 31 53  1  0  0  0
 32 54  1  0  0  0
 32 55  1  0  0  0
M  END
> <s_m_entry_id>
24920

> <s_m_entry_name>
dock_pv.73

> <s_m_Source_Path>
/home/csk/Desktop/cluster/DUD-E-result/pur2

> <s_m_Source_File>
dock_pv.maegz

> <i_m_Source_File_Index>
73

> <chembl_id>
CHEMBL192632

> <chembl_pref_name>
None

> <i_lp_mmshare_version>
53161

> <r_lp_tautomer_probability>
1

> <s_lp_Force_Field>
OPLS_2005

> <r_lp_Energy>
16.079468

> <b_lp_Chiralities_Consistent>
1

> <s_lp_Variant>
CHEMBL3972_lig36-1

> <s_i_glide_gridfile>
glide-grid_1njs

> <i_i_glide_lignum>
106

> <i_i_glide_rotatable_bonds>
13

> <r_i_docking_score>
-10.2608342651701

> <r_i_glide_ligand_efficiency>
-0.320651070786564

> <r_i_glide_ligand_efficiency_sa>
-1.0180036929866

> <r_i_glide_ligand_efficiency_ln>
-2.2976804917499

> <r_i_glide_gscore>
-10.2608342651701

> <r_i_glide_lipo>
-1.97115332003906

> <r_i_glide_hbond>
-1.21930876330825

> <r_i_glide_metal>
0

> <r_i_glide_rewards>
-1.80663432415176

> <r_i_glide_evdw>
-58.7238616943359

> <r_i_glide_ecoul>
-22.4757480621338

> <r_i_glide_erotb>
1.12756533099094

> <r_i_glide_esite>
-0.0837478946250679

> <r_i_glide_emodel>
-131.91359589247

> <r_i_glide_energy>
-81.1996097564697

> <r_i_glide_einternal>
8.52227401733398

> <i_i_glide_confnum>
23

> <i_i_glide_posenum>
63

> <r_i_glide_eff_state_penalty>
0

> <s_user_duplicate_titles>
CHEMBL3972_lig36,319088

> <i_f3d_flags>
0

> <s_m_subgroup_title>
dock_pv

> <s_m_subgroupid>
dock_pv

> <b_m_subgroup_collapsed>
1

$$$$
CHEMBL3972_lig2
                    3D
 Schrodinger Suite 2021-1.
 55 57  0  0  1  0            999 V2000
   66.2617   15.0475   28.2202 C   0  0  0  0  0  0
   67.4987   15.3206   27.3282 C   0  0  2  0  0  0
   68.6570   14.2852   27.4590 C   0  0  0  0  0  0
   68.2748   12.7972   27.3224 C   0  0  0  0  0  0
   69.5093   11.9289   27.0992 C   0  0  0  0  0  0
   66.2964   14.3910   29.2416 O   0  0  0  0  0  0
   65.1522   15.6413   27.6910 O   0  0  0  0  0  0
   69.6900   11.2552   26.0910 O   0  0  0  0  0  0
   70.3935   11.9910   28.1322 O   0  0  0  0  0  0
   68.0288   16.6646   27.5916 N   0  0  0  0  0  0
   68.4567   17.1015   28.7924 C   0  0  0  0  0  0
   68.4891   16.4226   29.8200 O   0  0  0  0  0  0
   68.4889   19.3149   29.8447 C   0  0  0  0  0  0
   68.8671   18.4624   28.8230 C   0  0  0  0  0  0
   69.7630   19.0788   27.9322 C   0  0  0  0  0  0
   70.0944   20.3910   28.2626 C   0  0  0  0  0  0
   69.2170   20.8558   29.6910 S   0  0  0  0  0  0
   71.0307   21.3487   27.5534 C   0  0  0  0  0  0
   71.8586   22.2614   28.4940 C   0  0  0  0  0  0
   73.0488   21.5807   29.2034 C   0  0  0  0  0  0
   74.3075   21.3685   28.3324 C   0  0  0  0  0  0
   77.8874   26.0459   27.6910 C   0  0  0  0  0  0
   77.7673   24.8652   28.1991 N   0  0  0  0  0  0
   76.6072   24.2078   27.9129 C   0  0  0  0  0  0
   75.5801   24.6804   27.1046 C   0  0  0  0  0  0
   75.7084   25.9910   26.4910 C   0  0  0  0  0  0
   76.8890   26.5763   26.8910 N   0  0  0  0  0  0
   76.2368   22.9867   28.4020 N   0  0  0  0  0  0
   74.6053   23.6861   27.0605 C   0  0  0  0  0  0
   74.9903   22.6536   27.9159 C   0  0  0  0  0  0
   74.9422   26.5555   25.7117 O   0  0  0  0  0  0
   79.0464   26.8139   27.9109 N   0  0  0  0  0  0
   67.1618   15.3119   26.2919 H   0  0  0  0  0  0
   69.1546   14.4002   28.4233 H   0  0  0  0  0  0
   69.4219   14.5338   26.7201 H   0  0  0  0  0  0
   67.5855   12.6559   26.4910 H   0  0  0  0  0  0
   67.7623   12.4505   28.2195 H   0  0  0  0  0  0
   65.2890   15.9913   26.7990 H   0  0  0  0  0  0
   71.2251   11.5638   27.9188 H   0  0  0  0  0  0
   67.9765   17.3194   26.8240 H   0  0  0  0  0  0
   67.8332   19.1051   30.6789 H   0  0  0  0  0  0
   70.1903   18.5807   27.0733 H   0  0  0  0  0  0
   71.6922   20.7910   26.8911 H   0  0  0  0  0  0
   70.4390   21.9801   26.8910 H   0  0  0  0  0  0
   72.2201   23.1151   27.9345 H   0  0  0  0  0  0
   71.2136   22.7249   29.2404 H   0  0  0  0  0  0
   73.3278   22.1785   30.0726 H   0  0  0  0  0  0
   72.7244   20.6204   29.6076 H   0  0  0  0  0  0
   75.0184   20.7910   28.9172 H   0  0  0  0  0  0
   74.0669   20.7567   27.4621 H   0  0  0  0  0  0
   77.0766   27.4673   26.4477 H   0  0  0  0  0  0
   76.7907   22.4262   29.0320 H   0  0  0  0  0  0
   73.6890   23.7433   26.4910 H   0  0  0  0  0  0
   79.7298   26.4876   28.5803 H   0  0  0  0  0  0
   78.9824   27.8227   27.8994 H   0  0  0  0  0  0
  1  2  1  0  0  0
  1  6  2  0  0  0
  1  7  1  0  0  0
  2  3  1  0  0  0
  2 10  1  0  0  0
  2 33  1  0  0  0
  3  4  1  0  0  0
  3 34  1  0  0  0
  3 35  1  0  0  0
  4  5  1  0  0  0
  4 36  1  0  0  0
  4 37  1  0  0  0
  5  8  2  0  0  0
  5  9  1  0  0  0
  7 38  1  0  0  0
  9 39  1  0  0  0
 10 11  1  0  0  0
 10 40  1  0  0  0
 11 12  2  0  0  0
 11 14  1  0  0  0
 13 14  2  0  0  0
 13 17  1  0  0  0
 13 41  1  0  0  0
 14 15  1  0  0  0
 15 16  2  0  0  0
 15 42  1  0  0  0
 16 17  1  0  0  0
 16 18  1  0  0  0
 18 19  1  0  0  0
 18 43  1  0  0  0
 18 44  1  0  0  0
 19 20  1  0  0  0
 19 45  1  0  0  0
 19 46  1  0  0  0
 20 21  1  0  0  0
 20 47  1  0  0  0
 20 48  1  0  0  0
 21 30  1  0  0  0
 21 49  1  0  0  0
 21 50  1  0  0  0
 22 23  2  0  0  0
 22 27  1  0  0  0
 22 32  1  0  0  0
 23 24  1  0  0  0
 24 25  2  0  0  0
 24 28  1  0  0  0
 25 26  1  0  0  0
 25 29  1  0  0  0
 26 27  1  0  0  0
 26 31  2  0  0  0
 27 51  1  0  0  0
 28 30  1  0  0  0
 28 52  1  0  0  0
 29 30  2  0  0  0
 29 53  1  0  0  0
 32 54  1  0  0  0
 32 55  1  0  0  0
M  END
> <s_m_entry_id>
24921

> <s_m_entry_name>
dock_pv.74

> <s_m_Source_Path>
/home/csk/Desktop/cluster/DUD-E-result/pur2

> <s_m_Source_File>
dock_pv.maegz

> <i_m_Source_File_Index>
74

> <chembl_id>
CHEMBL2158682

> <chembl_pref_name>
None

> <i_lp_mmshare_version>
53161

> <r_lp_tautomer_probability>
1

> <s_lp_Force_Field>
OPLS_2005

> <r_lp_Energy>
10.115492

> <b_lp_Chiralities_Consistent>
1

> <s_lp_Variant>
CHEMBL3972_lig2-1

> <s_i_glide_gridfile>
glide-grid_1njs

> <i_i_glide_lignum>
3

> <i_i_glide_rotatable_bonds>
14

> <r_i_docking_score>
-10.1978041112407

> <r_i_glide_ligand_efficiency>
-0.318681378476271

> <r_i_glide_ligand_efficiency_sa>
-1.011750309703

> <r_i_glide_ligand_efficiency_ln>
-2.28356632214801

> <r_i_glide_gscore>
-10.1978041112407

> <r_i_glide_lipo>
-2.59844738955931

> <r_i_glide_hbond>
-1.16989452233468

> <r_i_glide_metal>
0

> <r_i_glide_rewards>
-1.42665747563978

> <r_i_glide_evdw>
-60.1087493896484

> <r_i_glide_ecoul>
-20.3222198486328

> <r_i_glide_erotb>
1.13458931437263

> <r_i_glide_esite>
-0.0836235913022038

> <r_i_glide_emodel>
-131.496941866501

> <r_i_glide_energy>
-80.4309692382812

> <r_i_glide_einternal>
9.96601390838623

> <i_i_glide_confnum>
303

> <i_i_glide_posenum>
277

> <r_i_glide_eff_state_penalty>
0

> <s_user_duplicate_titles>
CHEMBL3972_lig2

> <i_f3d_flags>
0

> <s_m_subgroup_title>
dock_pv

> <s_m_subgroupid>
dock_pv

> <b_m_subgroup_collapsed>
1

$$$$
CHEMBL3972_lig30
                    3D
 Schrodinger Suite 2021-1.
 52 53  0  0  1  0            999 V2000
   78.0584   24.0376   28.0910 N   0  0  0  0  0  0
   76.9425   23.2703   28.0223 C   0  0  0  0  0  0
   76.7813   25.8889   27.2480 N   0  0  0  0  0  0
   75.7134   23.7520   27.5438 C   0  0  0  0  0  0
   75.6792   25.1051   27.1567 C   0  0  0  0  0  0
   77.9183   25.3223   27.6978 C   0  0  0  0  0  0
   69.2623   18.5005   28.5960 C   0  0  0  0  0  0
   70.7190   18.7908   27.6910 S   0  0  0  0  0  0
   68.6983   17.1946   28.6850 C   0  0  0  0  0  0
   70.8505   20.3757   28.3809 C   0  0  0  0  0  0
   67.9266   16.8158   27.6537 N   0  0  0  0  0  0
   68.8482   19.6295   29.2900 C   0  0  0  0  0  0
   68.2581   14.3337   27.2909 C   0  0  0  0  0  0
   69.7482   20.6908   29.1722 C   0  0  0  0  0  0
   67.2616   15.4997   27.5442 C   0  0  1  0  0  0
   74.4890   25.5908   26.6965 O   0  0  0  0  0  0
   64.9654   15.9846   30.7501 C   0  0  0  0  0  0
   68.8890   16.5031   29.6843 O   0  0  0  0  0  0
   77.0589   21.9688   28.4910 N   0  0  0  0  0  0
   68.0902   13.1943   27.6797 O   0  0  0  0  0  0
   79.0255   26.1519   27.7721 N   0  0  0  0  0  0
   64.8888   14.8508   31.2202 O   0  0  0  0  0  0
   66.3451   15.1742   28.7668 C   0  0  0  0  0  0
   71.9767   21.1199   28.1507 N   0  0  0  0  0  0
   65.4749   16.3037   29.3454 C   0  0  0  0  0  0
   74.4614   22.8617   27.4819 C   0  0  0  0  0  0
   69.2889   14.7484   26.4957 O   0  0  0  0  0  0
   64.6264   17.1107   31.4356 O   0  0  0  0  0  0
   72.2460   22.4163   28.7562 C   0  0  0  0  0  0
   73.7366   22.7858   28.8394 C   0  0  0  0  0  0
   66.6239   15.5669   26.6605 H   0  0  0  0  0  0
   67.7293   17.4778   26.9157 H   0  0  0  0  0  0
   67.9643   19.6664   29.9122 H   0  0  0  0  0  0
   69.6219   21.6311   29.6899 H   0  0  0  0  0  0
   73.7693   24.9670   26.8347 H   0  0  0  0  0  0
   76.2349   21.3890   28.5154 H   0  0  0  0  0  0
   77.9125   21.6776   28.9587 H   0  0  0  0  0  0
   78.9000   27.1174   27.5073 H   0  0  0  0  0  0
   79.8923   25.8303   28.1768 H   0  0  0  0  0  0
   66.9471   14.7524   29.5766 H   0  0  0  0  0  0
   65.6631   14.3906   28.4604 H   0  0  0  0  0  0
   72.5958   20.8826   27.3854 H   0  0  0  0  0  0
   64.6470   16.5539   28.6817 H   0  0  0  0  0  0
   66.0827   17.1910   29.4580 H   0  0  0  0  0  0
   74.7257   21.8595   27.1387 H   0  0  0  0  0  0
   73.7761   23.2352   26.7226 H   0  0  0  0  0  0
   69.2240   15.6937   26.3360 H   0  0  0  0  0  0
   64.3266   16.9106   32.3239 H   0  0  0  0  0  0
   71.7374   23.1516   28.1378 H   0  0  0  0  0  0
   71.7974   22.4750   29.7500 H   0  0  0  0  0  0
   73.7964   23.7543   29.3390 H   0  0  0  0  0  0
   74.2538   22.0823   29.4958 H   0  0  0  0  0  0
  1  2  2  0  0  0
  1  6  1  0  0  0
  2  4  1  0  0  0
  2 19  1  0  0  0
  3  6  2  0  0  0
  3  5  1  0  0  0
  4 26  1  0  0  0
  4  5  2  0  0  0
  5 16  1  0  0  0
  6 21  1  0  0  0
  7  8  1  0  0  0
  7  9  1  0  0  0
  7 12  2  0  0  0
  8 10  1  0  0  0
  9 11  1  0  0  0
  9 18  2  0  0  0
 10 24  1  0  0  0
 10 14  2  0  0  0
 11 15  1  0  0  0
 11 32  1  0  0  0
 12 14  1  0  0  0
 12 33  1  0  0  0
 13 15  1  0  0  0
 13 20  2  0  0  0
 13 27  1  0  0  0
 14 34  1  0  0  0
 15 23  1  0  0  0
 15 31  1  0  0  0
 16 35  1  0  0  0
 17 25  1  0  0  0
 17 22  2  0  0  0
 17 28  1  0  0  0
 19 36  1  0  0  0
 19 37  1  0  0  0
 21 38  1  0  0  0
 21 39  1  0  0  0
 23 25  1  0  0  0
 23 40  1  0  0  0
 23 41  1  0  0  0
 24 29  1  0  0  0
 24 42  1  0  0  0
 25 43  1  0  0  0
 25 44  1  0  0  0
 26 30  1  0  0  0
 26 45  1  0  0  0
 26 46  1  0  0  0
 27 47  1  0  0  0
 28 48  1  0  0  0
 29 30  1  0  0  0
 29 49  1  0  0  0
 29 50  1  0  0  0
 30 51  1  0  0  0
 30 52  1  0  0  0
M  END
> <s_m_entry_id>
24923

> <s_m_entry_name>
dock_pv.76

> <s_m_Source_Path>
/home/csk/Desktop/cluster/DUD-E-result/pur2

> <s_m_Source_File>
dock_pv.maegz

> <i_m_Source_File_Index>
76

> <chembl_id>
CHEMBL422406

> <chembl_pref_name>
None

> <i_lp_mmshare_version>
53161

> <r_lp_tautomer_probability>
0.0160304617775627

> <s_lp_Force_Field>
OPLS_2005

> <r_lp_Energy>
-0.40595

> <b_lp_Chiralities_Consistent>
1

> <s_lp_Variant>
CHEMBL3972_lig30-3

> <s_i_glide_gridfile>
glide-grid_1njs

> <i_i_glide_lignum>
99

> <i_i_glide_rotatable_bonds>
15

> <r_i_docking_score>
-10.1517052325521

> <r_i_glide_ligand_efficiency>
-0.338390174418404

> <r_i_glide_ligand_efficiency_sa>
-1.05145694845619

> <r_i_glide_ligand_efficiency_ln>
-2.30657804052365

> <r_i_glide_gscore>
-10.1517052325521

> <r_i_glide_lipo>
-2.15206953736482

> <r_i_glide_hbond>
-0.95545046083204

> <r_i_glide_metal>
0

> <r_i_glide_rewards>
-2.66197520417032

> <r_i_glide_evdw>
-52.3891181945801

> <r_i_glide_ecoul>
-17.0242919921875

> <r_i_glide_erotb>
0.871692717309128

> <r_i_glide_esite>
-0.0808030389369511

> <r_i_glide_emodel>
-103.948645020743

> <r_i_glide_energy>
-69.4134101867676

> <r_i_glide_einternal>
17.2304840087891

> <i_i_glide_confnum>
160

> <i_i_glide_posenum>
286

> <r_i_glide_eff_state_penalty>
0

> <s_user_duplicate_titles>
CHEMBL3972_lig30,CHEMBL3972_lig30

> <i_f3d_flags>
0

> <s_m_subgroup_title>
dock_pv

> <s_m_subgroupid>
dock_pv

> <b_m_subgroup_collapsed>
1

$$$$
CHEMBL3972_lig31
                    3D
 Schrodinger Suite 2021-1.
 49 51  0  0  1  0            999 V2000
   76.8890   26.6487   26.8910 N   0  0  0  0  0  0
   77.9412   26.1682   27.6528 C   0  0  0  0  0  0
   77.9345   24.9538   28.0911 N   0  0  0  0  0  0
   75.7440   25.9910   26.4914 C   0  0  0  0  0  0
   75.7299   24.6503   27.0510 C   0  0  0  0  0  0
   76.8259   24.2178   27.7911 C   0  0  0  0  0  0
   76.5973   22.9278   28.1766 N   0  0  0  0  0  0
   75.3643   22.5240   27.7139 C   0  0  0  0  0  0
   74.8214   23.5914   27.0022 C   0  0  0  0  0  0
   74.9193   26.5229   25.7511 O   0  0  0  0  0  0
   79.0307   27.0255   27.9068 N   0  0  0  0  0  0
   74.8503   21.1371   28.0107 C   0  0  0  0  0  0
   73.3440   21.0125   28.2188 C   0  0  0  0  0  0
   72.6722   19.9066   27.6920 C   0  0  0  0  0  0
   71.3325   19.6989   27.9848 C   0  0  0  0  0  0
   70.6535   20.5824   28.8356 C   0  0  0  0  0  0
   71.3131   21.7232   29.3105 C   0  0  0  0  0  0
   72.6535   21.9350   29.0074 C   0  0  0  0  0  0
   69.2475   20.2949   29.2910 C   0  0  0  0  0  0
   68.8883   18.9997   29.2911 N   0  0  0  0  0  0
   68.5082   21.1913   29.6917 O   0  0  0  0  0  0
   67.6232   18.4770   29.8144 C   0  0  1  0  0  0
   67.3010   17.0917   29.1888 C   0  0  0  0  0  0
   67.5419   18.3918   31.3442 C   0  0  0  0  0  0
   68.4899   18.3495   32.0909 O   0  0  0  0  0  0
   66.2384   18.3906   31.7391 O   0  0  0  0  0  0
   67.4203   16.9516   27.6522 C   0  0  0  0  0  0
   67.7621   15.5066   27.2912 C   0  0  0  0  0  0
   68.8873   15.0270   27.4157 O   0  0  0  0  0  0
   66.6836   14.7782   26.8910 O   0  0  0  0  0  0
   77.0060   27.5615   26.4699 H   0  0  0  0  0  0
   77.2328   22.3677   28.7255 H   0  0  0  0  0  0
   73.8591   23.6016   26.5085 H   0  0  0  0  0  0
   79.7570   26.7220   28.5406 H   0  0  0  0  0  0
   78.8866   28.0278   27.9336 H   0  0  0  0  0  0
   75.3076   20.7910   28.9370 H   0  0  0  0  0  0
   75.1781   20.4436   27.2351 H   0  0  0  0  0  0
   73.1973   19.1947   27.0722 H   0  0  0  0  0  0
   70.8479   18.8297   27.5638 H   0  0  0  0  0  0
   70.8063   22.4350   29.9486 H   0  0  0  0  0  0
   73.1588   22.7979   29.4159 H   0  0  0  0  0  0
   69.5547   18.3134   28.9781 H   0  0  0  0  0  0
   66.8906   19.2476   29.6153 H   0  0  0  0  0  0
   66.2855   16.8014   29.4665 H   0  0  0  0  0  0
   67.9504   16.3495   29.6619 H   0  0  0  0  0  0
   66.2105   18.4739   32.6962 H   0  0  0  0  0  0
   68.2226   17.5703   27.2513 H   0  0  0  0  0  0
   66.5069   17.2797   27.1530 H   0  0  0  0  0  0
   65.9241   15.3129   26.6247 H   0  0  0  0  0  0
  1  2  1  0  0  0
  1  4  1  0  0  0
  1 31  1  0  0  0
  2  3  2  0  0  0
  2 11  1  0  0  0
  3  6  1  0  0  0
  4  5  1  0  0  0
  4 10  2  0  0  0
  5  9  1  0  0  0
  5  6  2  0  0  0
  6  7  1  0  0  0
  7  8  1  0  0  0
  7 32  1  0  0  0
  8  9  2  0  0  0
  8 12  1  0  0  0
  9 33  1  0  0  0
 11 34  1  0  0  0
 11 35  1  0  0  0
 12 13  1  0  0  0
 12 36  1  0  0  0
 12 37  1  0  0  0
 13 18  1  0  0  0
 13 14  2  0  0  0
 14 15  1  0  0  0
 14 38  1  0  0  0
 15 16  2  0  0  0
 15 39  1  0  0  0
 16 17  1  0  0  0
 16 19  1  0  0  0
 17 18  2  0  0  0
 17 40  1  0  0  0
 18 41  1  0  0  0
 19 20  1  0  0  0
 19 21  2  0  0  0
 20 22  1  0  0  0
 20 42  1  0  0  0
 22 23  1  0  0  0
 22 24  1  0  0  0
 22 43  1  0  0  0
 23 27  1  0  0  0
 23 44  1  0  0  0
 23 45  1  0  0  0
 24 25  2  0  0  0
 24 26  1  0  0  0
 26 46  1  0  0  0
 27 28  1  0  0  0
 27 47  1  0  0  0
 27 48  1  0  0  0
 28 29  2  0  0  0
 28 30  1  0  0  0
 30 49  1  0  0  0
M  END
> <s_m_entry_id>
24924

> <s_m_entry_name>
dock_pv.77

> <s_m_Source_Path>
/home/csk/Desktop/cluster/DUD-E-result/pur2

> <s_m_Source_File>
dock_pv.maegz

> <i_m_Source_File_Index>
77

> <chembl_id>
CHEMBL498800

> <chembl_pref_name>
None

> <i_lp_mmshare_version>
53161

> <r_lp_tautomer_probability>
1

> <s_lp_Force_Field>
OPLS_2005

> <r_lp_Energy>
16.832711

> <b_lp_Chiralities_Consistent>
1

> <s_lp_Variant>
CHEMBL3972_lig31-1

> <s_i_glide_gridfile>
glide-grid_1njs

> <i_i_glide_lignum>
101

> <i_i_glide_rotatable_bonds>
11

> <r_i_docking_score>
-10.0009971819477

> <r_i_glide_ligand_efficiency>
-0.33336657273159

> <r_i_glide_ligand_efficiency_sa>
-1.03584745001565

> <r_i_glide_ligand_efficiency_ln>
-2.27233552933059

> <r_i_glide_gscore>
-10.0009971819477

> <r_i_glide_lipo>
-2.10932681007401

> <r_i_glide_hbond>
-0.98314472439124

> <r_i_glide_metal>
0

> <r_i_glide_rewards>
-2.61977920471085

> <r_i_glide_evdw>
-47.3504409790039

> <r_i_glide_ecoul>
-19.2673931121826

> <r_i_glide_erotb>
1.03899267871804

> <r_i_glide_esite>
-0.0701081057120522

> <r_i_glide_emodel>
-97.7919420411497

> <r_i_glide_energy>
-66.6178340911865

> <r_i_glide_einternal>
7.44065809249878

> <i_i_glide_confnum>
19

> <i_i_glide_posenum>
233

> <r_i_glide_eff_state_penalty>
0

> <s_user_duplicate_titles>
CHEMBL3972_lig31

> <i_f3d_flags>
0

> <s_m_subgroup_title>
dock_pv

> <s_m_subgroupid>
dock_pv

> <b_m_subgroup_collapsed>
1

$$$$
CHEMBL3972_lig60 
                    3D
 Schrodinger Suite 2021-1.
 56 58  0  0  1  0            999 V2000
   79.2036   26.7164   27.7982 N   0  0  0  0  0  0
   78.0576   25.9161   27.6272 C   0  0  0  0  0  0
   76.9809   26.4451   26.9305 N   0  0  0  0  0  0
   78.0157   24.7102   28.0909 N   0  0  0  0  0  0
   76.8501   24.0310   27.8836 C   0  0  0  0  0  0
   76.5642   22.7629   28.3130 N   0  0  0  0  0  0
   75.2801   22.4300   27.9325 C   0  0  0  0  0  0
   74.6758   21.0864   28.2699 C   0  0  0  0  0  0
   73.1700   20.9386   27.9104 C   0  0  0  0  0  0
   72.1134   21.4018   28.8560 N   0  0  0  0  0  0
   72.3729   22.5236   29.5962 C   0  0  0  0  0  0
   71.6559   23.0653   30.4361 O   0  0  0  0  0  0
   70.8770   20.6539   28.9088 C   0  0  0  0  0  0
   69.9503   20.7933   29.9569 C   0  0  0  0  0  0
   68.8669   19.9350   30.0920 C   0  0  0  0  0  0
   68.7083   18.8495   29.2287 C   0  0  0  0  0  0
   67.7614   17.7386   29.6340 C   0  0  0  0  0  0
   67.9965   16.5119   29.1284 N   0  0  0  0  0  0
   67.3066   15.2771   29.5479 C   0  0  1  0  0  0
   67.4527   14.1684   28.4685 C   0  0  0  0  0  0
   68.8987   13.8399   28.0229 C   0  0  0  0  0  0
   69.0361   12.5186   27.2581 C   0  0  0  0  0  0
   70.1801   12.4862   26.5229 O   0  0  0  0  0  0
   68.2401   11.5818   27.3022 O   0  0  0  0  0  0
   67.7201   14.7898   30.9656 C   0  0  0  0  0  0
   67.3956   15.7145   31.9147 O   0  0  0  0  0  0
   68.2152   13.7038   31.1889 O   0  0  0  0  0  0
   66.8936   17.9301   30.4919 O   0  0  0  0  0  0
   69.5252   18.7790   28.0915 C   0  0  0  0  0  0
   70.5795   19.6811   27.9311 C   0  0  0  0  0  0
   74.7661   23.5206   27.2348 C   0  0  0  0  0  0
   75.7352   24.5184   27.2134 C   0  0  0  0  0  0
   75.7708   25.8528   26.6512 C   0  0  0  0  0  0
   74.8909   26.4203   26.0109 O   0  0  0  0  0  0
   79.9264   26.3930   28.4273 H   0  0  0  0  0  0
   79.1036   27.7218   27.8305 H   0  0  0  0  0  0
   77.0970   27.3658   26.5284 H   0  0  0  0  0  0
   77.1980   22.1723   28.8317 H   0  0  0  0  0  0
   74.8378   20.7994   29.3106 H   0  0  0  0  0  0
   75.2198   20.3445   27.6835 H   0  0  0  0  0  0
   73.0566   19.8637   27.7818 H   0  0  0  0  0  0
   72.9779   21.3867   26.9359 H   0  0  0  0  0  0
   73.3596   22.9399   29.3679 H   0  0  0  0  0  0
   70.0881   21.4930   30.7600 H   0  0  0  0  0  0
   68.2381   20.0162   30.9672 H   0  0  0  0  0  0
   68.7154   16.4050   28.4314 H   0  0  0  0  0  0
   66.2396   15.5041   29.6115 H   0  0  0  0  0  0
   66.8660   14.4459   27.5902 H   0  0  0  0  0  0
   66.9738   13.2719   28.8649 H   0  0  0  0  0  0
   69.5570   13.7739   28.8901 H   0  0  0  0  0  0
   69.2840   14.6502   27.4017 H   0  0  0  0  0  0
   70.3298   11.6455   26.0903 H   0  0  0  0  0  0
   67.0662   16.5363   31.5239 H   0  0  0  0  0  0
   69.3942   18.0031   27.3510 H   0  0  0  0  0  0
   71.1836   19.5686   27.0425 H   0  0  0  0  0  0
   73.7797   23.5964   26.7968 H   0  0  0  0  0  0
  1  2  1  0  0  0
  1 35  1  0  0  0
  1 36  1  0  0  0
  2  3  1  0  0  0
  2  4  2  0  0  0
  3 33  1  0  0  0
  3 37  1  0  0  0
  4  5  1  0  0  0
  5  6  1  0  0  0
  5 32  2  0  0  0
  6  7  1  0  0  0
  6 38  1  0  0  0
  7  8  1  0  0  0
  7 31  2  0  0  0
  8  9  1  0  0  0
  8 39  1  0  0  0
  8 40  1  0  0  0
  9 10  1  0  0  0
  9 41  1  0  0  0
  9 42  1  0  0  0
 10 11  1  0  0  0
 10 13  1  0  0  0
 11 12  2  0  0  0
 11 43  1  0  0  0
 13 14  2  0  0  0
 13 30  1  0  0  0
 14 15  1  0  0  0
 14 44  1  0  0  0
 15 16  2  0  0  0
 15 45  1  0  0  0
 16 17  1  0  0  0
 16 29  1  0  0  0
 17 18  1  0  0  0
 17 28  2  0  0  0
 18 19  1  0  0  0
 18 46  1  0  0  0
 19 20  1  0  0  0
 19 25  1  0  0  0
 19 47  1  0  0  0
 20 21  1  0  0  0
 20 48  1  0  0  0
 20 49  1  0  0  0
 21 22  1  0  0  0
 21 50  1  0  0  0
 21 51  1  0  0  0
 22 23  1  0  0  0
 22 24  2  0  0  0
 23 52  1  0  0  0
 25 26  1  0  0  0
 25 27  2  0  0  0
 26 53  1  0  0  0
 29 30  2  0  0  0
 29 54  1  0  0  0
 30 55  1  0  0  0
 31 32  1  0  0  0
 31 56  1  0  0  0
 32 33  1  0  0  0
 33 34  2  0  0  0
M  END
> <s_m_entry_id>
24925

> <s_m_entry_name>
dock_pv.78

> <s_m_Source_Path>
/home/csk/Desktop/cluster/DUD-E-result/pur2

> <s_m_Source_File>
dock_pv.maegz

> <i_m_Source_File_Index>
78

> <chembl_id>
CHEMBL4471269

> <chembl_pref_name>
None

> <i_lp_mmshare_version>
53161

> <r_lp_tautomer_probability>
1

> <s_lp_Force_Field>
OPLS_2005

> <r_lp_Energy>
25.709044

> <b_lp_Chiralities_Consistent>
1

> <s_lp_Variant>
CHEMBL3972_lig60 -1

> <s_i_glide_gridfile>
glide-grid_1njs

> <i_i_glide_lignum>
130

> <i_i_glide_rotatable_bonds>
14

> <r_i_docking_score>
-9.96680992107814

> <r_i_glide_ligand_efficiency>
-0.293141468267004

> <r_i_glide_ligand_efficiency_sa>
-0.949664558925309

> <r_i_glide_ligand_efficiency_ln>
-2.20194787111513

> <r_i_glide_gscore>
-9.96680992107814

> <r_i_glide_lipo>
-2.13077400850129

> <r_i_glide_hbond>
-1.19438343361531

> <r_i_glide_metal>
0

> <r_i_glide_rewards>
-2.33869013401329

> <r_i_glide_evdw>
-55.6678123474121

> <r_i_glide_ecoul>
-16.7150707244873

> <r_i_glide_erotb>
1.00427427794515

> <r_i_glide_esite>
-0.0165853968496869

> <r_i_glide_emodel>
-102.138079332746

> <r_i_glide_energy>
-72.3828830718994

> <r_i_glide_einternal>
10.3886003494263

> <i_i_glide_confnum>
144

> <i_i_glide_posenum>
387

> <r_i_glide_eff_state_penalty>
0

> <s_user_duplicate_titles>
CHEMBL3972_lig60 

> <i_f3d_flags>
0

> <s_m_subgroup_title>
dock_pv

> <s_m_subgroupid>
dock_pv

> <b_m_subgroup_collapsed>
1

$$$$
CHEMBL3972_lig28
                    3D
 Schrodinger Suite 2021-1.
 56 58  0  0  1  0            999 V2000
   75.8805   22.6654   28.7675 C   0  0  0  0  0  0
   77.1609   22.8712   28.3982 N   0  0  0  0  0  0
   74.7995   23.4424   28.3109 C   0  0  0  0  0  0
   76.4084   24.7002   27.0367 N   0  0  0  0  0  0
   75.1216   24.4483   27.3859 C   0  0  0  0  0  0
   77.3646   23.9097   27.5763 C   0  0  0  0  0  0
   75.6997   21.5903   29.6449 N   0  0  0  0  0  0
   68.5290   17.2098   27.4135 C   0  0  0  0  0  0
   67.3522   16.7747   27.8984 N   0  0  0  0  0  0
   65.1501   15.6931   27.9633 C   0  0  0  0  0  0
   66.6456   15.5281   27.5660 C   0  0  2  0  0  0
   73.4004   23.2365   28.8974 C   0  0  0  0  0  0
   69.1120   18.4485   28.0743 C   0  0  0  0  0  0
   74.0894   25.1882   26.8765 O   0  0  0  0  0  0
   68.9534   12.3497   27.4368 C   0  0  0  0  0  0
   69.1432   16.6349   26.5019 O   0  0  0  0  0  0
   64.7976   15.6434   29.1314 O   0  0  0  0  0  0
   78.6756   24.2207   27.2871 N   0  0  0  0  0  0
   72.0601   21.8057   30.4961 N   0  0  1  0  0  0
   68.1807   11.4680   27.8114 O   0  0  0  0  0  0
   67.4091   14.3362   28.2620 C   0  0  0  0  0  0
   68.4932   19.0761   29.1631 C   0  0  0  0  0  0
   70.2949   19.0114   27.5656 C   0  0  0  0  0  0
   74.5000   21.5762   30.4727 C   0  0  0  0  0  0
   73.2501   21.8912   29.6445 C   0  0  2  0  0  0
   68.6894   13.8571   27.5170 C   0  0  0  0  0  0
   64.2985   15.8989   26.8911 O   0  0  0  0  0  0
   70.7792   22.0423   29.8379 C   0  0  0  0  0  0
   70.1992   20.7960   29.1862 C   0  0  0  0  0  0
   70.1547   12.1032   26.8441 O   0  0  0  0  0  0
   70.8214   20.1813   28.1006 C   0  0  0  0  0  0
   69.0064   20.2613   29.6899 C   0  0  0  0  0  0
   76.5299   21.1967   30.0691 H   0  0  0  0  0  0
   66.8719   17.3398   28.5774 H   0  0  0  0  0  0
   66.6829   15.3832   26.4875 H   0  0  0  0  0  0
   72.6545   23.3046   28.1082 H   0  0  0  0  0  0
   73.2234   24.0440   29.6054 H   0  0  0  0  0  0
   73.2002   24.8912   27.1520 H   0  0  0  0  0  0
   78.8024   24.9357   26.5886 H   0  0  0  0  0  0
   79.3314   23.4572   27.3597 H   0  0  0  0  0  0
   72.0336   20.9054   30.9575 H   0  0  0  0  0  0
   66.7746   13.5020   28.4874 H   0  0  0  0  0  0
   67.7228   14.6675   29.2541 H   0  0  0  0  0  0
   67.5791   18.6980   29.6095 H   0  0  0  0  0  0
   70.7845   18.5772   26.7032 H   0  0  0  0  0  0
   74.5888   22.2708   31.3082 H   0  0  0  0  0  0
   74.4085   20.5806   30.8917 H   0  0  0  0  0  0
   73.2103   21.0982   28.9013 H   0  0  0  0  0  0
   69.5780   14.3303   27.9493 H   0  0  0  0  0  0
   68.6410   14.1977   26.4886 H   0  0  0  0  0  0
   64.7177   15.8719   26.0161 H   0  0  0  0  0  0
   70.8288   22.8902   29.1507 H   0  0  0  0  0  0
   70.0992   22.3635   30.6281 H   0  0  0  0  0  0
   70.3862   11.1731   26.8163 H   0  0  0  0  0  0
   71.6868   20.6150   27.6333 H   0  0  0  0  0  0
   68.4752   20.7535   30.4854 H   0  0  0  0  0  0
  1  2  2  0  0  0
  1  3  1  0  0  0
  1  7  1  0  0  0
  2  6  1  0  0  0
  3  5  2  0  0  0
  3 12  1  0  0  0
  4  5  1  0  0  0
  4  6  2  0  0  0
  5 14  1  0  0  0
  6 18  1  0  0  0
  7 24  1  0  0  0
  7 33  1  0  0  0
  8 13  1  0  0  0
  8  9  1  0  0  0
  8 16  2  0  0  0
  9 11  1  0  0  0
  9 34  1  0  0  0
 10 11  1  0  0  0
 10 17  2  0  0  0
 10 27  1  0  0  0
 11 21  1  0  0  0
 11 35  1  0  0  0
 12 25  1  0  0  0
 12 36  1  0  0  0
 12 37  1  0  0  0
 13 22  1  0  0  0
 13 23  2  0  0  0
 14 38  1  0  0  0
 15 26  1  0  0  0
 15 20  2  0  0  0
 15 30  1  0  0  0
 18 39  1  0  0  0
 18 40  1  0  0  0
 19 25  1  0  0  0
 19 28  1  0  0  0
 19 41  1  0  0  0
 21 26  1  0  0  0
 21 42  1  0  0  0
 21 43  1  0  0  0
 22 32  2  0  0  0
 22 44  1  0  0  0
 23 31  1  0  0  0
 23 45  1  0  0  0
 24 25  1  0  0  0
 24 46  1  0  0  0
 24 47  1  0  0  0
 25 48  1  0  0  0
 26 49  1  0  0  0
 26 50  1  0  0  0
 27 51  1  0  0  0
 28 29  1  0  0  0
 28 52  1  0  0  0
 28 53  1  0  0  0
 29 31  2  0  0  0
 29 32  1  0  0  0
 30 54  1  0  0  0
 31 55  1  0  0  0
 32 56  1  0  0  0
M  END
> <s_m_entry_id>
24926

> <s_m_entry_name>
dock_pv.79

> <s_m_Source_Path>
/home/csk/Desktop/cluster/DUD-E-result/pur2

> <s_m_Source_File>
dock_pv.maegz

> <i_m_Source_File_Index>
79

> <chembl_id>
CHEMBL157230

> <chembl_pref_name>
None

> <i_lp_mmshare_version>
53161

> <r_lp_tautomer_probability>
0.0160306447209791

> <s_lp_Force_Field>
OPLS_2005

> <r_lp_Energy>
3.664057

> <b_lp_Chiralities_Consistent>
1

> <s_lp_Variant>
CHEMBL3972_lig28-6

> <s_i_glide_gridfile>
glide-grid_1njs

> <i_i_glide_lignum>
90

> <i_i_glide_rotatable_bonds>
13

> <r_i_docking_score>
-9.93356758269992

> <r_i_glide_ligand_efficiency>
-0.310423986959373

> <r_i_glide_ligand_efficiency_sa>
-0.985534725772407

> <r_i_glide_ligand_efficiency_ln>
-2.224396560592

> <r_i_glide_gscore>
-9.93356758269992

> <r_i_glide_lipo>
-2.01292911373267

> <r_i_glide_hbond>
-0.659979095241223

> <r_i_glide_metal>
0

> <r_i_glide_rewards>
-1.25059952324113

> <r_i_glide_evdw>
-57.9887733459473

> <r_i_glide_ecoul>
-31.4945430755615

> <r_i_glide_erotb>
1.01251359057351

> <r_i_glide_esite>
-0.123134773761052

> <r_i_glide_emodel>
-142.801092405889

> <r_i_glide_energy>
-89.4833164215088

> <r_i_glide_einternal>
8.78994941711426

> <i_i_glide_confnum>
96

> <i_i_glide_posenum>
285

> <r_i_glide_eff_state_penalty>
0

> <s_user_duplicate_titles>
CHEMBL3972_lig28,CHEMBL3972_lig28

> <i_f3d_flags>
0

> <s_m_subgroup_title>
dock_pv

> <s_m_subgroupid>
dock_pv

> <b_m_subgroup_collapsed>
1

$$$$
CHEMBL3972_lig74
                    3D
 Schrodinger Suite 2021-1.
 55 57  0  0  1  0            999 V2000
   78.4286   24.5564   27.8850 N   0  0  0  0  0  0
   76.1245   23.8637   27.5939 C   0  0  0  0  0  0
   77.4781   23.5975   27.8515 C   0  0  0  0  0  0
   76.7427   26.1589   27.2910 N   0  0  0  0  0  0
   75.7890   25.1910   27.2749 C   0  0  0  0  0  0
   78.0033   25.8053   27.6157 C   0  0  0  0  0  0
   69.4667   18.1780   27.8973 C   0  0  0  0  0  0
   71.0806   18.4005   27.2909 S   0  0  0  0  0  0
   71.2747   19.8669   28.1778 C   0  0  0  0  0  0
   70.1527   20.1695   28.9460 C   0  0  0  0  0  0
   68.7124   17.0125   27.4828 C   0  0  0  0  0  0
   69.1147   19.2400   28.7424 C   0  0  0  0  0  0
   74.9188   22.5487   27.6153 S   0  0  0  0  0  0
   67.6198   16.7431   28.2179 N   0  0  0  0  0  0
   65.3043   15.9910   28.3896 C   0  0  0  0  0  0
   66.7493   15.5704   28.0497 C   0  0  2  0  0  0
   74.4891   25.4541   26.9284 O   0  0  0  0  0  0
   68.7629   12.9264   27.5590 C   0  0  0  0  0  0
   72.5140   20.7281   28.0572 C   0  0  0  0  0  0
   69.1121   16.2610   26.5888 O   0  0  0  0  0  0
   77.9219   22.3082   28.0910 N   0  0  0  0  0  0
   70.1235   21.3797   29.8753 C   0  0  0  0  0  0
   64.9461   16.2473   29.5209 O   0  0  0  0  0  0
   78.9378   26.8197   27.6910 N   0  0  0  0  0  0
   68.4508   11.7354   27.5334 O   0  0  0  0  0  0
   67.2062   14.4100   28.9906 C   0  0  0  0  0  0
   73.6547   22.8902   28.8938 C   0  0  0  0  0  0
   68.6221   13.8195   28.7926 C   0  0  0  0  0  0
   64.4945   15.9910   27.2910 O   0  0  0  0  0  0
   72.5944   21.7785   29.1964 C   0  0  1  0  0  0
   69.2890   13.5889   26.4911 O   0  0  0  0  0  0
   71.1973   22.4028   29.4320 C   0  0  0  0  0  0
   68.1565   19.3258   29.2341 H   0  0  0  0  0  0
   67.3091   17.4116   28.9065 H   0  0  0  0  0  0
   66.7812   15.2283   27.0123 H   0  0  0  0  0  0
   73.9378   24.6674   26.9806 H   0  0  0  0  0  0
   73.4134   20.1119   28.0242 H   0  0  0  0  0  0
   72.4391   21.2492   27.1111 H   0  0  0  0  0  0
   77.2193   21.5885   28.1735 H   0  0  0  0  0  0
   78.8724   22.1418   28.3830 H   0  0  0  0  0  0
   69.1390   21.8488   29.9035 H   0  0  0  0  0  0
   70.3485   21.0511   30.8905 H   0  0  0  0  0  0
   78.6324   27.7630   27.4943 H   0  0  0  0  0  0
   79.8827   26.6107   27.9791 H   0  0  0  0  0  0
   66.4901   13.5912   28.9204 H   0  0  0  0  0  0
   67.1471   14.7486   30.0276 H   0  0  0  0  0  0
   73.1562   23.8160   28.6061 H   0  0  0  0  0  0
   74.1874   23.1293   29.8148 H   0  0  0  0  0  0
   68.8495   13.1899   29.6534 H   0  0  0  0  0  0
   69.3857   14.5958   28.8019 H   0  0  0  0  0  0
   64.9014   15.9209   26.4030 H   0  0  0  0  0  0
   72.9248   21.2574   30.0972 H   0  0  0  0  0  0
   69.3955   14.5431   26.6387 H   0  0  0  0  0  0
   71.2674   23.1931   30.1817 H   0  0  0  0  0  0
   70.8890   22.9236   28.5281 H   0  0  0  0  0  0
  1  3  2  0  0  0
  1  6  1  0  0  0
  2  3  1  0  0  0
  2 13  1  0  0  0
  2  5  2  0  0  0
  3 21  1  0  0  0
  4  6  2  0  0  0
  4  5  1  0  0  0
  5 17  1  0  0  0
  6 24  1  0  0  0
  7  8  1  0  0  0
  7 11  1  0  0  0
  7 12  2  0  0  0
  8  9  1  0  0  0
  9 19  1  0  0  0
  9 10  2  0  0  0
 10 22  1  0  0  0
 10 12  1  0  0  0
 11 14  1  0  0  0
 11 20  2  0  0  0
 12 33  1  0  0  0
 13 27  1  0  0  0
 14 16  1  0  0  0
 14 34  1  0  0  0
 15 16  1  0  0  0
 15 23  2  0  0  0
 15 29  1  0  0  0
 16 26  1  0  0  0
 16 35  1  0  0  0
 17 36  1  0  0  0
 18 28  1  0  0  0
 18 25  2  0  0  0
 18 31  1  0  0  0
 19 30  1  0  0  0
 19 37  1  0  0  0
 19 38  1  0  0  0
 21 39  1  0  0  0
 21 40  1  0  0  0
 22 32  1  0  0  0
 22 41  1  0  0  0
 22 42  1  0  0  0
 24 43  1  0  0  0
 24 44  1  0  0  0
 26 28  1  0  0  0
 26 45  1  0  0  0
 26 46  1  0  0  0
 27 30  1  0  0  0
 27 47  1  0  0  0
 27 48  1  0  0  0
 28 49  1  0  0  0
 28 50  1  0  0  0
 29 51  1  0  0  0
 30 32  1  0  0  0
 30 52  1  0  0  0
 31 53  1  0  0  0
 32 54  1  0  0  0
 32 55  1  0  0  0
M  END
> <s_m_entry_id>
24927

> <s_m_entry_name>
dock_pv.80

> <s_m_Source_Path>
/home/csk/Desktop/cluster/DUD-E-result/pur2

> <s_m_Source_File>
dock_pv.maegz

> <i_m_Source_File_Index>
80

> <chembl_id>
CHEMBL309415

> <chembl_pref_name>
None

> <i_lp_mmshare_version>
53161

> <r_lp_tautomer_probability>
0.0160304617775627

> <s_lp_Force_Field>
OPLS_2005

> <r_lp_Energy>
9.96209

> <b_lp_Chiralities_Consistent>
1

> <s_lp_Variant>
CHEMBL3972_lig74-4

> <s_i_glide_gridfile>
glide-grid_1njs

> <i_i_glide_lignum>
170

> <i_i_glide_rotatable_bonds>
13

> <r_i_docking_score>
-9.83025628826114

> <r_i_glide_ligand_efficiency>
-0.307195509008161

> <r_i_glide_ligand_efficiency_sa>
-0.975284947192228

> <r_i_glide_ligand_efficiency_ln>
-2.20126234560763

> <r_i_glide_gscore>
-9.83025628826114

> <r_i_glide_lipo>
-2.39634889892034

> <r_i_glide_hbond>
-0.671137018746614

> <r_i_glide_metal>
0

> <r_i_glide_rewards>
-1.95391652069204

> <r_i_glide_evdw>
-58.4640121459961

> <r_i_glide_ecoul>
-18.148265838623

> <r_i_glide_erotb>
0.874865380255986

> <r_i_glide_esite>
-0.0382787470648631

> <r_i_glide_emodel>
-119.23834328381

> <r_i_glide_energy>
-76.6122779846191

> <r_i_glide_einternal>
12.8666696548462

> <i_i_glide_confnum>
195

> <i_i_glide_posenum>
241

> <r_i_glide_eff_state_penalty>
0

> <s_user_duplicate_titles>
CHEMBL3972_lig74,CHEMBL3972_lig74

> <i_f3d_flags>
0

> <s_m_subgroup_title>
dock_pv

> <s_m_subgroupid>
dock_pv

> <b_m_subgroup_collapsed>
1

$$$$
CHEMBL3972_lig46
                    3D
 Schrodinger Suite 2021-1.
 55 57  0  0  1  0            999 V2000
   65.4689   15.9909   28.3365 C   0  0  0  0  0  0
   66.9114   15.6646   27.8690 C   0  0  2  0  0  0
   67.4980   14.5147   28.7365 C   0  0  0  0  0  0
   68.7291   13.8043   28.1257 C   0  0  0  0  0  0
   69.6004   13.0191   29.1417 C   0  0  0  0  0  0
   68.8657   11.9912   30.0115 C   0  0  0  0  0  0
   65.1574   16.1194   29.5023 O   0  0  0  0  0  0
   64.5895   15.9911   27.2910 O   0  0  0  0  0  0
   67.7432   11.5528   29.7711 O   0  0  0  0  0  0
   69.6163   11.6172   31.0816 O   0  0  0  0  0  0
   67.8142   16.8339   27.8132 N   0  0  0  0  0  0
   68.1864   17.6465   28.8279 C   0  0  0  0  0  0
   67.7429   17.5744   29.9732 O   0  0  0  0  0  0
   69.1855   18.6307   28.4736 C   0  0  0  0  0  0
   70.2575   18.4791   27.6032 C   0  0  0  0  0  0
   71.1421   19.5613   27.6223 C   0  0  0  0  0  0
   70.7935   20.5923   28.4911 C   0  0  0  0  0  0
   69.2890   20.1741   29.2891 S   0  0  0  0  0  0
   71.5257   21.8987   28.7740 C   0  0  0  0  0  0
   72.8553   21.7100   29.5459 C   0  0  0  0  0  0
   74.1051   21.3793   28.6904 C   0  0  0  0  0  0
   77.9027   25.8419   27.6748 C   0  0  0  0  0  0
   77.7597   24.6697   28.1997 N   0  0  0  0  0  0
   76.5539   24.0602   27.9936 C   0  0  0  0  0  0
   75.5015   24.5733   27.2474 C   0  0  0  0  0  0
   75.6840   25.8461   26.5610 C   0  0  0  0  0  0
   76.9022   26.3903   26.8912 N   0  0  0  0  0  0
   76.1515   22.8626   28.5225 N   0  0  0  0  0  0
   74.4456   23.6575   27.3437 C   0  0  0  0  0  0
   74.8399   22.6073   28.1742 C   0  0  0  0  0  0
   74.9050   26.4190   25.8043 O   0  0  0  0  0  0
   79.0862   26.5868   27.8483 N   0  0  0  0  0  0
   66.8407   15.2893   26.8469 H   0  0  0  0  0  0
   66.7295   13.7610   28.9130 H   0  0  0  0  0  0
   67.7573   14.9017   29.7241 H   0  0  0  0  0  0
   69.3634   14.5427   27.6349 H   0  0  0  0  0  0
   68.3997   13.1342   27.3301 H   0  0  0  0  0  0
   70.0881   13.7372   29.8032 H   0  0  0  0  0  0
   70.3994   12.4950   28.6167 H   0  0  0  0  0  0
   64.9547   15.9574   26.3846 H   0  0  0  0  0  0
   69.0970   11.0613   31.6656 H   0  0  0  0  0  0
   68.1288   17.0791   26.8864 H   0  0  0  0  0  0
   70.4188   17.6056   26.9895 H   0  0  0  0  0  0
   72.0258   19.5939   27.0018 H   0  0  0  0  0  0
   71.7107   22.4426   27.8482 H   0  0  0  0  0  0
   70.8887   22.5654   29.3566 H   0  0  0  0  0  0
   73.0592   22.6104   30.1286 H   0  0  0  0  0  0
   72.7149   20.9251   30.2917 H   0  0  0  0  0  0
   74.7825   20.7912   29.3102 H   0  0  0  0  0  0
   73.8402   20.7178   27.8663 H   0  0  0  0  0  0
   77.0965   27.2756   26.4408 H   0  0  0  0  0  0
   76.7216   22.2802   29.1177 H   0  0  0  0  0  0
   73.4709   23.7736   26.8902 H   0  0  0  0  0  0
   79.7777   26.2764   28.5170 H   0  0  0  0  0  0
   79.0420   27.5953   27.7956 H   0  0  0  0  0  0
  1  2  1  0  0  0
  1  7  2  0  0  0
  1  8  1  0  0  0
  2  3  1  0  0  0
  2 11  1  0  0  0
  2 33  1  0  0  0
  3  4  1  0  0  0
  3 34  1  0  0  0
  3 35  1  0  0  0
  4  5  1  0  0  0
  4 36  1  0  0  0
  4 37  1  0  0  0
  5  6  1  0  0  0
  5 38  1  0  0  0
  5 39  1  0  0  0
  6  9  2  0  0  0
  6 10  1  0  0  0
  8 40  1  0  0  0
 10 41  1  0  0  0
 11 12  1  0  0  0
 11 42  1  0  0  0
 12 13  2  0  0  0
 12 14  1  0  0  0
 14 15  2  0  0  0
 14 18  1  0  0  0
 15 16  1  0  0  0
 15 43  1  0  0  0
 16 17  2  0  0  0
 16 44  1  0  0  0
 17 18  1  0  0  0
 17 19  1  0  0  0
 19 20  1  0  0  0
 19 45  1  0  0  0
 19 46  1  0  0  0
 20 21  1  0  0  0
 20 47  1  0  0  0
 20 48  1  0  0  0
 21 30  1  0  0  0
 21 49  1  0  0  0
 21 50  1  0  0  0
 22 23  2  0  0  0
 22 27  1  0  0  0
 22 32  1  0  0  0
 23 24  1  0  0  0
 24 25  2  0  0  0
 24 28  1  0  0  0
 25 26  1  0  0  0
 25 29  1  0  0  0
 26 27  1  0  0  0
 26 31  2  0  0  0
 27 51  1  0  0  0
 28 30  1  0  0  0
 28 52  1  0  0  0
 29 30  2  0  0  0
 29 53  1  0  0  0
 32 54  1  0  0  0
 32 55  1  0  0  0
M  END
> <s_m_entry_id>
24928

> <s_m_entry_name>
dock_pv.81

> <s_m_Source_Path>
/home/csk/Desktop/cluster/DUD-E-result/pur2

> <s_m_Source_File>
dock_pv.maegz

> <i_m_Source_File_Index>
81

> <chembl_id>
CHEMBL3335605

> <chembl_pref_name>
None

> <i_lp_mmshare_version>
53161

> <r_lp_tautomer_probability>
1

> <s_lp_Force_Field>
OPLS_2005

> <r_lp_Energy>
11.594277

> <b_lp_Chiralities_Consistent>
1

> <s_lp_Variant>
CHEMBL3972_lig46-1

> <s_i_glide_gridfile>
glide-grid_1njs

> <i_i_glide_lignum>
116

> <i_i_glide_rotatable_bonds>
14

> <r_i_docking_score>
-9.82509820572247

> <r_i_glide_ligand_efficiency>
-0.307034318928827

> <r_i_glide_ligand_efficiency_sa>
-0.974773200589818

> <r_i_glide_ligand_efficiency_ln>
-2.2001073103232

> <r_i_glide_gscore>
-9.82509820572247

> <r_i_glide_lipo>
-2.01487127937432

> <r_i_glide_hbond>
-0.864768877131988

> <r_i_glide_metal>
0

> <r_i_glide_rewards>
-1.339027564402

> <r_i_glide_evdw>
-57.1719207763672

> <r_i_glide_ecoul>
-25.3981399536133

> <r_i_glide_erotb>
1.13458931437263

> <r_i_glide_esite>
-0.0727027673264448

> <r_i_glide_emodel>
-129.450447140444

> <r_i_glide_energy>
-82.5700607299805

> <r_i_glide_einternal>
10.4235744476318

> <i_i_glide_confnum>
250

> <i_i_glide_posenum>
379

> <r_i_glide_eff_state_penalty>
0

> <s_user_duplicate_titles>
CHEMBL3972_lig46

> <i_f3d_flags>
0

> <s_m_subgroup_title>
dock_pv

> <s_m_subgroupid>
dock_pv

> <b_m_subgroup_collapsed>
1

$$$$
CHEMBL3972_lig29
                    3D
 Schrodinger Suite 2021-1.
 51 52  0  0  1  0            999 V2000
   78.7750   24.9251   28.0306 N   0  0  0  0  0  0
   77.8261   23.9988   27.7633 C   0  0  0  0  0  0
   77.2560   26.6286   27.2885 N   0  0  0  0  0  0
   76.5737   24.3304   27.2328 C   0  0  0  0  0  0
   76.3242   25.6894   26.9913 C   0  0  0  0  0  0
   78.4352   26.2095   27.7860 C   0  0  0  0  0  0
   69.3923   19.9898   29.2886 C   0  0  0  0  0  0
   70.0888   21.4104   30.0261 S   0  0  0  0  0  0
   70.0962   19.5567   28.2647 N   0  0  0  0  0  0
   68.2371   19.3633   29.8962 C   0  0  0  0  0  0
   71.3885   21.3224   28.9010 C   0  0  0  0  0  0
   68.0874   18.0858   29.5004 N   0  0  0  0  0  0
   71.1955   20.2395   28.0665 C   0  0  0  0  0  0
   67.3761   16.6028   31.3665 C   0  0  0  0  0  0
   67.0922   17.1033   29.9334 C   0  0  2  0  0  0
   75.0972   25.9918   26.4711 O   0  0  0  0  0  0
   68.2237   16.5418   26.6926 C   0  0  0  0  0  0
   67.4980   19.9263   30.7043 O   0  0  0  0  0  0
   78.1233   22.6823   28.0911 N   0  0  0  0  0  0
   68.4864   16.3460   31.7851 O   0  0  0  0  0  0
   79.3568   27.1900   28.1145 N   0  0  0  0  0  0
   68.9853   15.6379   26.3588 O   0  0  0  0  0  0
   72.4075   22.2187   28.9244 N   0  0  0  0  0  0
   67.0522   15.9252   28.9159 C   0  0  0  0  0  0
   66.8937   16.3187   27.4226 C   0  0  0  0  0  0
   75.4979   23.2738   27.0062 C   0  0  0  0  0  0
   66.2129   16.4951   32.0679 O   0  0  0  0  0  0
   68.4884   17.8629   26.4911 O   0  0  0  0  0  0
   73.5725   22.0782   28.0814 C   0  0  0  0  0  0
   74.5071   23.2721   28.1744 C   0  0  0  0  0  0
   66.1193   17.5880   29.9333 H   0  0  0  0  0  0
   68.7169   17.7550   28.7864 H   0  0  0  0  0  0
   71.8718   19.9344   27.2849 H   0  0  0  0  0  0
   74.5706   25.1911   26.4075 H   0  0  0  0  0  0
   77.4010   21.9893   27.9749 H   0  0  0  0  0  0
   78.9926   22.4354   28.5375 H   0  0  0  0  0  0
   79.0789   28.1651   28.0744 H   0  0  0  0  0  0
   80.2532   26.9069   28.4961 H   0  0  0  0  0  0
   72.2518   23.1574   29.2582 H   0  0  0  0  0  0
   66.2247   15.2621   29.1742 H   0  0  0  0  0  0
   67.9537   15.3168   29.0230 H   0  0  0  0  0  0
   66.2417   17.1865   27.3060 H   0  0  0  0  0  0
   66.3914   15.5095   26.8912 H   0  0  0  0  0  0
   75.9385   22.2840   26.8964 H   0  0  0  0  0  0
   74.9828   23.4477   26.0596 H   0  0  0  0  0  0
   65.4507   16.8249   31.5895 H   0  0  0  0  0  0
   69.2811   18.0357   25.9756 H   0  0  0  0  0  0
   74.1097   21.1535   28.3057 H   0  0  0  0  0  0
   73.2371   21.9864   27.0507 H   0  0  0  0  0  0
   73.9311   24.1996   28.1705 H   0  0  0  0  0  0
   75.0304   23.2429   29.1329 H   0  0  0  0  0  0
  1  2  2  0  0  0
  1  6  1  0  0  0
  2  4  1  0  0  0
  2 19  1  0  0  0
  3  6  2  0  0  0
  3  5  1  0  0  0
  4 26  1  0  0  0
  4  5  2  0  0  0
  5 16  1  0  0  0
  6 21  1  0  0  0
  7  8  1  0  0  0
  7 10  1  0  0  0
  7  9  2  0  0  0
  8 11  1  0  0  0
  9 13  1  0  0  0
 10 12  1  0  0  0
 10 18  2  0  0  0
 11 23  1  0  0  0
 11 13  2  0  0  0
 12 15  1  0  0  0
 12 32  1  0  0  0
 13 33  1  0  0  0
 14 15  1  0  0  0
 14 20  2  0  0  0
 14 27  1  0  0  0
 15 24  1  0  0  0
 15 31  1  0  0  0
 16 34  1  0  0  0
 17 25  1  0  0  0
 17 22  2  0  0  0
 17 28  1  0  0  0
 19 35  1  0  0  0
 19 36  1  0  0  0
 21 37  1  0  0  0
 21 38  1  0  0  0
 23 29  1  0  0  0
 23 39  1  0  0  0
 24 25  1  0  0  0
 24 40  1  0  0  0
 24 41  1  0  0  0
 25 42  1  0  0  0
 25 43  1  0  0  0
 26 30  1  0  0  0
 26 44  1  0  0  0
 26 45  1  0  0  0
 27 46  1  0  0  0
 28 47  1  0  0  0
 29 30  1  0  0  0
 29 48  1  0  0  0
 29 49  1  0  0  0
 30 50  1  0  0  0
 30 51  1  0  0  0
M  END
> <s_m_entry_id>
24929

> <s_m_entry_name>
dock_pv.82

> <s_m_Source_Path>
/home/csk/Desktop/cluster/DUD-E-result/pur2

> <s_m_Source_File>
dock_pv.maegz

> <i_m_Source_File_Index>
82

> <chembl_id>
CHEMBL294768

> <chembl_pref_name>
None

> <i_lp_mmshare_version>
53161

> <r_lp_tautomer_probability>
0.0160304617775627

> <s_lp_Force_Field>
OPLS_2005

> <r_lp_Energy>
3.982224

> <b_lp_Chiralities_Consistent>
1

> <s_lp_Variant>
CHEMBL3972_lig29-4

> <s_i_glide_gridfile>
glide-grid_1njs

> <i_i_glide_lignum>
96

> <i_i_glide_rotatable_bonds>
15

> <r_i_docking_score>
-9.77679410009018

> <r_i_glide_ligand_efficiency>
-0.325893136669673

> <r_i_glide_ligand_efficiency_sa>
-1.01262574657922

> <r_i_glide_ligand_efficiency_ln>
-2.22139414624433

> <r_i_glide_gscore>
-9.77679410009018

> <r_i_glide_lipo>
-2.50590764523535

> <r_i_glide_hbond>
-1.29301200654967

> <r_i_glide_metal>
0

> <r_i_glide_rewards>
-2.75048722955774

> <r_i_glide_evdw>
-50.3763732910156

> <r_i_glide_ecoul>
-12.7214069366455

> <r_i_glide_erotb>
1.24019967669498

> <r_i_glide_esite>
-0.0405571903948053

> <r_i_glide_emodel>
-90.2361724431229

> <r_i_glide_energy>
-63.0977802276611

> <r_i_glide_einternal>
19.0727767944336

> <i_i_glide_confnum>
213

> <i_i_glide_posenum>
122

> <r_i_glide_eff_state_penalty>
0

> <s_user_duplicate_titles>
CHEMBL3972_lig29,CHEMBL3972_lig29,104482

> <i_f3d_flags>
0

> <s_m_subgroup_title>
dock_pv

> <s_m_subgroupid>
dock_pv

> <b_m_subgroup_collapsed>
1

$$$$
CHEMBL3972_lig6
                    3D
 Schrodinger Suite 2021-1.
 52 54  0  0  1  0            999 V2000
   76.9435   26.0077   26.9925 N   0  0  0  0  0  0
   77.9481   25.3708   27.6909 C   0  0  0  0  0  0
   77.7183   24.2493   28.2912 N   0  0  0  0  0  0
   75.6523   25.5910   26.7975 C   0  0  0  0  0  0
   75.3934   24.3700   27.5402 C   0  0  0  0  0  0
   76.4361   23.7735   28.2311 C   0  0  0  0  0  0
   75.9338   22.6747   28.8851 N   0  0  0  0  0  0
   74.5845   22.5393   28.6090 C   0  0  0  0  0  0
   74.2605   23.5808   27.7394 C   0  0  0  0  0  0
   74.8891   26.2425   26.0908 O   0  0  0  0  0  0
   79.2186   25.9782   27.7089 N   0  0  0  0  0  0
   73.7384   21.4330   29.2189 C   0  0  0  0  0  0
   73.0159   20.5608   28.1648 C   0  0  0  0  0  0
   71.6366   21.0805   27.6921 C   0  0  0  0  0  0
   70.4716   20.4550   28.4276 C   0  0  0  0  0  0
   69.9411   19.2043   28.0881 C   0  0  0  0  0  0
   68.8886   18.7925   28.8930 C   0  0  0  0  0  0
   68.4892   19.9911   30.0891 S   0  0  0  0  0  0
   69.7752   21.0016   29.5037 C   0  0  0  0  0  0
   68.2759   17.5041   28.9303 C   0  0  0  0  0  0
   68.0746   16.9288   30.0006 O   0  0  0  0  0  0
   67.9673   17.0027   27.7172 N   0  0  0  0  0  0
   67.3686   15.6877   27.4453 C   0  0  2  0  0  0
   66.0676   15.4697   28.2628 C   0  0  0  0  0  0
   68.4609   14.5913   27.6343 C   0  0  0  0  0  0
   67.9815   13.1421   27.4120 C   0  0  0  0  0  0
   69.1206   12.1558   27.1676 C   0  0  0  0  0  0
   69.8738   11.9315   28.2801 O   0  0  0  0  0  0
   69.2973   11.5909   26.0911 O   0  0  0  0  0  0
   65.0290   16.1438   27.6911 O   0  0  0  0  0  0
   66.0052   14.7908   29.2663 O   0  0  0  0  0  0
   77.1745   26.8690   26.5178 H   0  0  0  0  0  0
   76.4760   22.0616   29.4740 H   0  0  0  0  0  0
   73.2888   23.7817   27.3160 H   0  0  0  0  0  0
   79.9085   25.6578   28.3743 H   0  0  0  0  0  0
   79.2788   26.9775   27.5708 H   0  0  0  0  0  0
   73.0081   21.8509   29.9124 H   0  0  0  0  0  0
   74.3667   20.7915   29.8371 H   0  0  0  0  0  0
   72.8890   19.5525   28.5581 H   0  0  0  0  0  0
   73.6767   20.4334   27.3051 H   0  0  0  0  0  0
   71.5077   20.7938   26.6497 H   0  0  0  0  0  0
   71.5968   22.1703   27.7138 H   0  0  0  0  0  0
   70.3565   18.6008   27.2926 H   0  0  0  0  0  0
   69.9618   21.9569   29.9744 H   0  0  0  0  0  0
   68.1034   17.5917   26.9079 H   0  0  0  0  0  0
   67.0854   15.6846   26.3930 H   0  0  0  0  0  0
   68.8829   14.6661   28.6380 H   0  0  0  0  0  0
   69.2899   14.8066   26.9565 H   0  0  0  0  0  0
   67.3121   13.1052   26.5489 H   0  0  0  0  0  0
   67.4063   12.8017   28.2720 H   0  0  0  0  0  0
   69.6065   12.4776   29.0224 H   0  0  0  0  0  0
   65.2428   16.5079   26.8215 H   0  0  0  0  0  0
  1  2  1  0  0  0
  1  4  1  0  0  0
  1 32  1  0  0  0
  2  3  2  0  0  0
  2 11  1  0  0  0
  3  6  1  0  0  0
  4  5  1  0  0  0
  4 10  2  0  0  0
  5  6  2  0  0  0
  5  9  1  0  0  0
  6  7  1  0  0  0
  7  8  1  0  0  0
  7 33  1  0  0  0
  8  9  2  0  0  0
  8 12  1  0  0  0
  9 34  1  0  0  0
 11 35  1  0  0  0
 11 36  1  0  0  0
 12 13  1  0  0  0
 12 37  1  0  0  0
 12 38  1  0  0  0
 13 14  1  0  0  0
 13 39  1  0  0  0
 13 40  1  0  0  0
 14 15  1  0  0  0
 14 41  1  0  0  0
 14 42  1  0  0  0
 15 16  1  0  0  0
 15 19  2  0  0  0
 16 17  2  0  0  0
 16 43  1  0  0  0
 17 18  1  0  0  0
 17 20  1  0  0  0
 18 19  1  0  0  0
 19 44  1  0  0  0
 20 21  2  0  0  0
 20 22  1  0  0  0
 22 23  1  0  0  0
 22 45  1  0  0  0
 23 24  1  0  0  0
 23 25  1  0  0  0
 23 46  1  0  0  0
 24 30  1  0  0  0
 24 31  2  0  0  0
 25 26  1  0  0  0
 25 47  1  0  0  0
 25 48  1  0  0  0
 26 27  1  0  0  0
 26 49  1  0  0  0
 26 50  1  0  0  0
 27 28  1  0  0  0
 27 29  2  0  0  0
 28 51  1  0  0  0
 30 52  1  0  0  0
M  END
> <s_m_entry_id>
24930

> <s_m_entry_name>
dock_pv.83

> <s_m_Source_Path>
/home/csk/Desktop/cluster/DUD-E-result/pur2

> <s_m_Source_File>
dock_pv.maegz

> <i_m_Source_File_Index>
83

> <chembl_id>
CHEMBL3628344

> <chembl_pref_name>
None

> <i_lp_mmshare_version>
53161

> <r_lp_tautomer_probability>
1

> <s_lp_Force_Field>
OPLS_2005

> <r_lp_Energy>
13.042616

> <b_lp_Chiralities_Consistent>
1

> <s_lp_Variant>
CHEMBL3972_lig6-1

> <s_i_glide_gridfile>
glide-grid_1njs

> <i_i_glide_lignum>
7

> <i_i_glide_rotatable_bonds>
13

> <r_i_docking_score>
-9.77441743803202

> <r_i_glide_ligand_efficiency>
-0.315303788323613

> <r_i_glide_ligand_efficiency_sa>
-0.990489219131735

> <r_i_glide_ligand_efficiency_ln>
-2.20443068219611

> <r_i_glide_gscore>
-9.77441743803202

> <r_i_glide_lipo>
-2.15152264356472

> <r_i_glide_hbond>
-0.769192347496855

> <r_i_glide_metal>
0

> <r_i_glide_rewards>
-1.98405942626641

> <r_i_glide_evdw>
-58.3978042602539

> <r_i_glide_ecoul>
-19.8980865478516

> <r_i_glide_erotb>
1.10012410540408

> <r_i_glide_esite>
-0.0651639309176903

> <r_i_glide_emodel>
-121.2464093046

> <r_i_glide_energy>
-78.2958908081055

> <r_i_glide_einternal>
12.1864242553711

> <i_i_glide_confnum>
301

> <i_i_glide_posenum>
239

> <r_i_glide_eff_state_penalty>
0

> <s_user_duplicate_titles>
CHEMBL3972_lig6

> <i_f3d_flags>
0

> <s_m_subgroup_title>
dock_pv

> <s_m_subgroupid>
dock_pv

> <b_m_subgroup_collapsed>
1

$$$$
CHEMBL3972_lig61 
                    3D
 Schrodinger Suite 2021-1.
 54 56  0  0  1  0            999 V2000
   79.0599   26.5449   27.9484 N   0  0  0  0  0  0
   77.8536   25.8514   27.7038 C   0  0  0  0  0  0
   76.9149   26.4561   26.8900 N   0  0  0  0  0  0
   77.6256   24.6951   28.2293 N   0  0  0  0  0  0
   76.4025   24.1462   27.9638 C   0  0  0  0  0  0
   75.8898   22.9824   28.4904 N   0  0  0  0  0  0
   74.5958   22.7882   28.0636 C   0  0  0  0  0  0
   73.7188   21.6509   28.5523 C   0  0  0  0  0  0
   72.2594   21.8575   28.0879 C   0  0  0  0  0  0
   71.2269   21.1147   28.8029 N   0  0  0  0  0  0
   70.6196   19.9507   28.3061 C   0  0  0  0  0  0
   71.1632   19.1467   27.2974 C   0  0  0  0  0  0
   70.4712   17.9916   26.8881 C   0  0  0  0  0  0
   69.2365   17.6555   27.4628 C   0  0  0  0  0  0
   68.5185   16.3997   27.0221 C   0  0  0  0  0  0
   67.3597   16.1824   27.6555 N   0  0  0  0  0  0
   66.5366   14.9777   27.7073 C   0  0  1  0  0  0
   67.1030   14.0747   28.8561 C   0  0  0  0  0  0
   68.5935   13.5964   28.8279 C   0  0  0  0  0  0
   68.8970   12.3356   28.0011 C   0  0  0  0  0  0
   70.1908   11.9106   28.1560 O   0  0  0  0  0  0
   68.0902   11.7542   27.2778 O   0  0  0  0  0  0
   65.0901   15.4741   28.0103 C   0  0  0  0  0  0
   64.2711   15.5375   26.8943 O   0  0  0  0  0  0
   64.7434   15.7603   29.1422 O   0  0  0  0  0  0
   69.0455   15.5909   26.2555 O   0  0  0  0  0  0
   68.7327   18.4715   28.4826 C   0  0  0  0  0  0
   69.4073   19.6015   28.8940 C   0  0  0  0  0  0
   74.3315   23.8451   27.1794 C   0  0  0  0  0  0
   75.4244   24.7076   27.1524 C   0  0  0  0  0  0
   75.6854   25.9866   26.4906 C   0  0  0  0  0  0
   74.9695   26.6066   25.6942 O   0  0  0  0  0  0
   79.7205   26.1852   28.6120 H   0  0  0  0  0  0
   79.0751   27.5537   27.8853 H   0  0  0  0  0  0
   77.1658   27.3270   26.4461 H   0  0  0  0  0  0
   76.3753   22.3854   29.1458 H   0  0  0  0  0  0
   73.7595   21.5031   29.6390 H   0  0  0  0  0  0
   74.0842   20.7298   28.1036 H   0  0  0  0  0  0
   72.1992   21.5914   27.0381 H   0  0  0  0  0  0
   71.9861   22.9133   28.1190 H   0  0  0  0  0  0
   70.8339   21.5497   29.6201 H   0  0  0  0  0  0
   72.0982   19.4029   26.8189 H   0  0  0  0  0  0
   70.8827   17.4066   26.0848 H   0  0  0  0  0  0
   66.9758   16.9640   28.1659 H   0  0  0  0  0  0
   66.5426   14.4634   26.7421 H   0  0  0  0  0  0
   66.4886   13.1920   28.9155 H   0  0  0  0  0  0
   66.9609   14.5659   29.8180 H   0  0  0  0  0  0
   68.8858   13.3560   29.8591 H   0  0  0  0  0  0
   69.2800   14.3873   28.5547 H   0  0  0  0  0  0
   70.7125   12.4696   28.7382 H   0  0  0  0  0  0
   64.7292   15.3959   26.0380 H   0  0  0  0  0  0
   67.8087   18.2504   28.9890 H   0  0  0  0  0  0
   68.9906   20.1964   29.6880 H   0  0  0  0  0  0
   73.3948   24.0186   26.6550 H   0  0  0  0  0  0
  1  2  1  0  0  0
  1 33  1  0  0  0
  1 34  1  0  0  0
  2  3  1  0  0  0
  2  4  2  0  0  0
  3 31  1  0  0  0
  3 35  1  0  0  0
  4  5  1  0  0  0
  5  6  1  0  0  0
  5 30  2  0  0  0
  6  7  1  0  0  0
  6 36  1  0  0  0
  7  8  1  0  0  0
  7 29  2  0  0  0
  8  9  1  0  0  0
  8 37  1  0  0  0
  8 38  1  0  0  0
  9 10  1  0  0  0
  9 39  1  0  0  0
  9 40  1  0  0  0
 10 11  1  0  0  0
 10 41  1  0  0  0
 11 12  2  0  0  0
 11 28  1  0  0  0
 12 13  1  0  0  0
 12 42  1  0  0  0
 13 14  2  0  0  0
 13 43  1  0  0  0
 14 15  1  0  0  0
 14 27  1  0  0  0
 15 16  1  0  0  0
 15 26  2  0  0  0
 16 17  1  0  0  0
 16 44  1  0  0  0
 17 18  1  0  0  0
 17 23  1  0  0  0
 17 45  1  0  0  0
 18 19  1  0  0  0
 18 46  1  0  0  0
 18 47  1  0  0  0
 19 20  1  0  0  0
 19 48  1  0  0  0
 19 49  1  0  0  0
 20 21  1  0  0  0
 20 22  2  0  0  0
 21 50  1  0  0  0
 23 24  1  0  0  0
 23 25  2  0  0  0
 24 51  1  0  0  0
 27 28  2  0  0  0
 27 52  1  0  0  0
 28 53  1  0  0  0
 29 30  1  0  0  0
 29 54  1  0  0  0
 30 31  1  0  0  0
 31 32  2  0  0  0
M  END
> <s_m_entry_id>
24931

> <s_m_entry_name>
dock_pv.84

> <s_m_Source_Path>
/home/csk/Desktop/cluster/DUD-E-result/pur2

> <s_m_Source_File>
dock_pv.maegz

> <i_m_Source_File_Index>
84

> <chembl_id>
CHEMBL4437824

> <chembl_pref_name>
None

> <i_lp_mmshare_version>
53161

> <r_lp_tautomer_probability>
1

> <s_lp_Force_Field>
OPLS_2005

> <r_lp_Energy>
18.518407

> <b_lp_Chiralities_Consistent>
1

> <s_lp_Variant>
CHEMBL3972_lig61 -1

> <s_i_glide_gridfile>
glide-grid_1njs

> <i_i_glide_lignum>
131

> <i_i_glide_rotatable_bonds>
13

> <r_i_docking_score>
-9.75916986293566

> <r_i_glide_ligand_efficiency>
-0.30497405821674

> <r_i_glide_ligand_efficiency_sa>
-0.968232280553981

> <r_i_glide_ligand_efficiency_ln>
-2.18534415723449

> <r_i_glide_gscore>
-9.75916986293566

> <r_i_glide_lipo>
-1.56687356576949

> <r_i_glide_hbond>
-1.05486734119876

> <r_i_glide_metal>
0

> <r_i_glide_rewards>
-1.25803402362585

> <r_i_glide_evdw>
-57.0999221801758

> <r_i_glide_ecoul>
-31.8096733093262

> <r_i_glide_erotb>
1.12299782018332

> <r_i_glide_esite>
-0.147396643516106

> <r_i_glide_emodel>
-138.627594890662

> <r_i_glide_energy>
-88.909595489502

> <r_i_glide_einternal>
15.8423566818237

> <i_i_glide_confnum>
2

> <i_i_glide_posenum>
13

> <r_i_glide_eff_state_penalty>
0

> <s_user_duplicate_titles>
CHEMBL3972_lig61 

> <i_f3d_flags>
0

> <s_m_subgroup_title>
dock_pv

> <s_m_subgroupid>
dock_pv

> <b_m_subgroup_collapsed>
1

$$$$
CHEMBL3972_lig13
                    3D
 Schrodinger Suite 2021-1.
 58 59  0  0  1  0            999 V2000
   78.4058   24.5176   27.9117 N   0  0  0  0  0  0
   77.4819   23.5376   27.8095 C   0  0  0  0  0  0
   76.7109   26.0968   27.2910 N   0  0  0  0  0  0
   76.1407   23.7688   27.4584 C   0  0  0  0  0  0
   75.7868   25.1065   27.1949 C   0  0  0  0  0  0
   77.9683   25.7630   27.6475 C   0  0  0  0  0  0
   69.2889   17.4163   27.7492 C   0  0  0  0  0  0
   68.5891   16.8322   28.7449 N   0  0  0  0  0  0
   66.8884   15.4120   27.5264 C   0  0  0  0  0  0
   67.8738   15.5418   28.7142 C   0  0  1  0  0  0
   69.9027   18.7500   28.0911 C   0  0  0  0  0  0
   74.4893   25.3623   26.8385 O   0  0  0  0  0  0
   70.2921   12.7839   30.2356 C   0  0  0  0  0  0
   71.1945   21.1261   28.9170 C   0  0  0  0  0  0
   69.4972   16.8799   26.6603 O   0  0  0  0  0  0
   71.8786   22.2805   29.3941 N   0  0  0  0  0  0
   77.9413   22.2637   28.0910 N   0  0  0  0  0  0
   66.7502   14.3909   26.8922 O   0  0  0  0  0  0
   78.8891   26.7911   27.7512 N   0  0  0  0  0  0
   69.6349   11.7467   30.1541 O   0  0  0  0  0  0
   71.1434   19.1055   27.5567 C   0  0  0  0  0  0
   69.2722   19.6325   28.9749 C   0  0  0  0  0  0
   71.7726   20.2788   27.9605 C   0  0  0  0  0  0
   69.9182   20.7910   29.3940 C   0  0  0  0  0  0
   68.8476   14.3213   28.7857 C   0  0  0  0  0  0
   75.1347   22.6117   27.3510 C   0  0  0  0  0  0
   69.6892   14.1878   30.0758 C   0  0  0  0  0  0
   66.2245   16.5790   27.2912 O   0  0  0  0  0  0
   71.6340   12.7910   30.4908 O   0  0  0  0  0  0
   74.3095   22.3680   28.6350 C   0  0  0  0  0  0
   72.8835   22.9510   28.5624 C   0  0  0  0  0  0
   71.2882   23.1000   30.4529 C   0  0  0  0  0  0
   68.4796   17.3574   29.5974 H   0  0  0  0  0  0
   67.2418   15.5211   29.6024 H   0  0  0  0  0  0
   73.9304   24.5830   26.8913 H   0  0  0  0  0  0
   77.2680   21.5160   28.1509 H   0  0  0  0  0  0
   78.8888   22.1268   28.4059 H   0  0  0  0  0  0
   78.5864   27.7334   27.5448 H   0  0  0  0  0  0
   79.8292   26.5883   28.0604 H   0  0  0  0  0  0
   71.6411   18.4715   26.8359 H   0  0  0  0  0  0
   68.2920   19.4178   29.3768 H   0  0  0  0  0  0
   72.7316   20.4956   27.5200 H   0  0  0  0  0  0
   69.3996   21.4288   30.0917 H   0  0  0  0  0  0
   69.5189   14.3470   27.9261 H   0  0  0  0  0  0
   68.2685   13.4024   28.6725 H   0  0  0  0  0  0
   75.6606   21.6916   27.0984 H   0  0  0  0  0  0
   74.4884   22.7647   26.4885 H   0  0  0  0  0  0
   69.0629   14.3732   30.9491 H   0  0  0  0  0  0
   70.4756   14.9372   30.0905 H   0  0  0  0  0  0
   65.7691   16.5676   26.4312 H   0  0  0  0  0  0
   72.0412   13.6647   30.4900 H   0  0  0  0  0  0
   74.8190   22.7344   29.5272 H   0  0  0  0  0  0
   74.2548   21.2929   28.8066 H   0  0  0  0  0  0
   72.5242   22.8336   27.5403 H   0  0  0  0  0  0
   72.8978   24.0342   28.6877 H   0  0  0  0  0  0
   71.0044   22.4880   31.3094 H   0  0  0  0  0  0
   71.9753   23.8727   30.8019 H   0  0  0  0  0  0
   70.3847   23.5909   30.0904 H   0  0  0  0  0  0
  1  2  2  0  0  0
  1  6  1  0  0  0
  2  4  1  0  0  0
  2 17  1  0  0  0
  3  6  2  0  0  0
  3  5  1  0  0  0
  4 26  1  0  0  0
  4  5  2  0  0  0
  5 12  1  0  0  0
  6 19  1  0  0  0
  7 11  1  0  0  0
  7  8  1  0  0  0
  7 15  2  0  0  0
  8 10  1  0  0  0
  8 33  1  0  0  0
  9 10  1  0  0  0
  9 18  2  0  0  0
  9 28  1  0  0  0
 10 25  1  0  0  0
 10 34  1  0  0  0
 11 22  2  0  0  0
 11 21  1  0  0  0
 12 35  1  0  0  0
 13 27  1  0  0  0
 13 20  2  0  0  0
 13 29  1  0  0  0
 14 16  1  0  0  0
 14 23  1  0  0  0
 14 24  2  0  0  0
 16 31  1  0  0  0
 16 32  1  0  0  0
 17 36  1  0  0  0
 17 37  1  0  0  0
 19 38  1  0  0  0
 19 39  1  0  0  0
 21 23  2  0  0  0
 21 40  1  0  0  0
 22 24  1  0  0  0
 22 41  1  0  0  0
 23 42  1  0  0  0
 24 43  1  0  0  0
 25 27  1  0  0  0
 25 44  1  0  0  0
 25 45  1  0  0  0
 26 30  1  0  0  0
 26 46  1  0  0  0
 26 47  1  0  0  0
 27 48  1  0  0  0
 27 49  1  0  0  0
 28 50  1  0  0  0
 29 51  1  0  0  0
 30 31  1  0  0  0
 30 52  1  0  0  0
 30 53  1  0  0  0
 31 54  1  0  0  0
 31 55  1  0  0  0
 32 56  1  0  0  0
 32 57  1  0  0  0
 32 58  1  0  0  0
M  END
> <s_m_entry_id>
24932

> <s_m_entry_name>
dock_pv.85

> <s_m_Source_Path>
/home/csk/Desktop/cluster/DUD-E-result/pur2

> <s_m_Source_File>
dock_pv.maegz

> <i_m_Source_File_Index>
85

> <chembl_id>
CHEMBL153550

> <chembl_pref_name>
None

> <i_lp_mmshare_version>
53161

> <r_lp_tautomer_probability>
0.0160304617775627

> <s_lp_Force_Field>
OPLS_2005

> <r_lp_Energy>
8.021028

> <b_lp_Chiralities_Consistent>
1

> <s_lp_Variant>
CHEMBL3972_lig13-3

> <s_i_glide_gridfile>
glide-grid_1njs

> <i_i_glide_lignum>
26

> <i_i_glide_rotatable_bonds>
15

> <r_i_docking_score>
-9.70190683294117

> <r_i_glide_ligand_efficiency>
-0.303184588529411

> <r_i_glide_ligand_efficiency_sa>
-0.962551068432284

> <r_i_glide_ligand_efficiency_ln>
-2.17252140388748

> <r_i_glide_gscore>
-9.70190683294117

> <r_i_glide_lipo>
-2.45123305913664

> <r_i_glide_hbond>
-0.52226012453791

> <r_i_glide_metal>
0

> <r_i_glide_rewards>
-2.15565050018505

> <r_i_glide_evdw>
-56.6041793823242

> <r_i_glide_ecoul>
-18.9968700408936

> <r_i_glide_erotb>
1.20506820914985

> <r_i_glide_esite>
-0.098091882981173

> <r_i_glide_emodel>
-111.998909731378

> <r_i_glide_energy>
-75.6010494232178

> <r_i_glide_einternal>
13.5335550308228

> <i_i_glide_confnum>
58

> <i_i_glide_posenum>
70

> <r_i_glide_eff_state_penalty>
0

> <s_user_duplicate_titles>
CHEMBL3972_lig13

> <i_f3d_flags>
0

> <s_m_subgroup_title>
dock_pv

> <s_m_subgroupid>
dock_pv

> <b_m_subgroup_collapsed>
1

$$$$
CHEMBL3972_lig5
                    3D
 Schrodinger Suite 2021-1.
 52 54  0  0  1  0            999 V2000
   70.8071   20.4863   28.3393 C   0  0  0  0  0  0
   69.2905   19.9946   29.0644 S   0  0  0  0  0  0
   69.2792   18.4648   28.2267 C   0  0  0  0  0  0
   70.3659   18.3905   27.3648 C   0  0  0  0  0  0
   71.2240   19.4899   27.4612 C   0  0  0  0  0  0
   68.3288   17.4315   28.5886 C   0  0  0  0  0  0
   67.9976   16.5636   27.6051 N   0  0  0  0  0  0
   67.8843   17.3629   29.7343 O   0  0  0  0  0  0
   67.1406   15.3571   27.7266 C   0  0  1  0  0  0
   67.8545   14.2691   28.5939 C   0  0  0  0  0  0
   65.7179   15.6491   28.2824 C   0  0  0  0  0  0
   64.8446   15.9906   27.2910 O   0  0  0  0  0  0
   65.4138   15.5080   29.4499 O   0  0  0  0  0  0
   69.1805   13.7007   28.0314 C   0  0  0  0  0  0
   69.0543   12.3896   27.2442 C   0  0  0  0  0  0
   70.1618   12.1295   26.4911 O   0  0  0  0  0  0
   68.0890   11.6290   27.2932 O   0  0  0  0  0  0
   76.8947   26.3910   26.8910 N   0  0  0  0  0  0
   77.8989   25.8164   27.6515 C   0  0  0  0  0  0
   77.7463   24.6420   28.1669 N   0  0  0  0  0  0
   75.6708   25.8613   26.5591 C   0  0  0  0  0  0
   79.0965   26.5385   27.8176 N   0  0  0  0  0  0
   74.9000   26.4453   25.8014 O   0  0  0  0  0  0
   75.4758   24.5866   27.2399 C   0  0  0  0  0  0
   76.5292   24.0535   27.9706 C   0  0  0  0  0  0
   76.1197   22.8559   28.4921 N   0  0  0  0  0  0
   74.8066   22.6111   28.1427 C   0  0  0  0  0  0
   74.4114   23.6799   27.3358 C   0  0  0  0  0  0
   74.0793   21.3675   28.6294 C   0  0  0  0  0  0
   72.8071   21.6554   29.4685 C   0  0  0  0  0  0
   71.4791   21.8105   28.6867 C   0  0  0  0  0  0
   70.5719   17.5446   26.7269 H   0  0  0  0  0  0
   72.1349   19.5676   26.8908 H   0  0  0  0  0  0
   68.2807   16.7944   26.6647 H   0  0  0  0  0  0
   67.0128   14.9465   26.7233 H   0  0  0  0  0  0
   67.1663   13.4472   28.7934 H   0  0  0  0  0  0
   68.0657   14.6820   29.5821 H   0  0  0  0  0  0
   65.1781   15.9890   26.3744 H   0  0  0  0  0  0
   69.8313   13.4807   28.8791 H   0  0  0  0  0  0
   69.6885   14.4537   27.4292 H   0  0  0  0  0  0
   70.8562   12.7901   26.5677 H   0  0  0  0  0  0
   77.0966   27.2770   26.4463 H   0  0  0  0  0  0
   79.7833   26.2169   28.4861 H   0  0  0  0  0  0
   79.0687   27.5471   27.7654 H   0  0  0  0  0  0
   76.6913   22.2596   29.0707 H   0  0  0  0  0  0
   73.4344   23.8108   26.8911 H   0  0  0  0  0  0
   74.7594   20.7929   29.2572 H   0  0  0  0  0  0
   73.8502   20.7072   27.7938 H   0  0  0  0  0  0
   72.9782   22.5551   30.0609 H   0  0  0  0  0  0
   72.6811   20.8601   30.2056 H   0  0  0  0  0  0
   71.6506   22.4018   27.7876 H   0  0  0  0  0  0
   70.8073   22.4192   29.2945 H   0  0  0  0  0  0
  1  5  2  0  0  0
  1  2  1  0  0  0
  1 31  1  0  0  0
  2  3  1  0  0  0
  3  4  2  0  0  0
  3  6  1  0  0  0
  4  5  1  0  0  0
  4 32  1  0  0  0
  5 33  1  0  0  0
  6  8  2  0  0  0
  6  7  1  0  0  0
  7  9  1  0  0  0
  7 34  1  0  0  0
  9 10  1  0  0  0
  9 11  1  0  0  0
  9 35  1  0  0  0
 10 14  1  0  0  0
 10 36  1  0  0  0
 10 37  1  0  0  0
 11 12  1  0  0  0
 11 13  2  0  0  0
 12 38  1  0  0  0
 14 15  1  0  0  0
 14 39  1  0  0  0
 14 40  1  0  0  0
 15 16  1  0  0  0
 15 17  2  0  0  0
 16 41  1  0  0  0
 18 19  1  0  0  0
 18 21  1  0  0  0
 18 42  1  0  0  0
 19 20  2  0  0  0
 19 22  1  0  0  0
 20 25  1  0  0  0
 21 24  1  0  0  0
 21 23  2  0  0  0
 22 43  1  0  0  0
 22 44  1  0  0  0
 24 25  2  0  0  0
 24 28  1  0  0  0
 25 26  1  0  0  0
 26 27  1  0  0  0
 26 45  1  0  0  0
 27 28  2  0  0  0
 27 29  1  0  0  0
 28 46  1  0  0  0
 29 30  1  0  0  0
 29 47  1  0  0  0
 29 48  1  0  0  0
 30 31  1  0  0  0
 30 49  1  0  0  0
 30 50  1  0  0  0
 31 51  1  0  0  0
 31 52  1  0  0  0
M  END
> <s_m_entry_id>
24933

> <s_m_entry_name>
dock_pv.86

> <s_m_Source_Path>
/home/csk/Desktop/cluster/DUD-E-result/pur2

> <s_m_Source_File>
dock_pv.maegz

> <i_m_Source_File_Index>
86

> <chembl_id>
CHEMBL1834488

> <chembl_pref_name>
None

> <i_lp_mmshare_version>
53161

> <r_lp_tautomer_probability>
1

> <s_lp_Force_Field>
OPLS_2005

> <r_lp_Energy>
11.430305

> <b_lp_Chiralities_Consistent>
1

> <s_lp_Variant>
CHEMBL3972_lig5-1

> <s_i_glide_gridfile>
glide-grid_1njs

> <i_i_glide_lignum>
6

> <i_i_glide_rotatable_bonds>
13

> <r_i_docking_score>
-9.61733306876273

> <r_i_glide_ligand_efficiency>
-0.31023655060525

> <r_i_glide_ligand_efficiency_sa>
-0.974571096620419

> <r_i_glide_ligand_efficiency_ln>
-2.16900334286812

> <r_i_glide_gscore>
-9.61733306876273

> <r_i_glide_lipo>
-1.85938603589677

> <r_i_glide_hbond>
-1.07135620807648

> <r_i_glide_metal>
0

> <r_i_glide_rewards>
-1.42914345261391

> <r_i_glide_evdw>
-58.1434860229492

> <r_i_glide_ecoul>
-22.4853782653809

> <r_i_glide_erotb>
1.10012410540408

> <r_i_glide_esite>
-0.077590436625065

> <r_i_glide_emodel>
-124.471167034885

> <r_i_glide_energy>
-80.6288642883301

> <r_i_glide_einternal>
10.9315242767334

> <i_i_glide_confnum>
16

> <i_i_glide_posenum>
253

> <r_i_glide_eff_state_penalty>
0

> <s_user_duplicate_titles>
CHEMBL3972_lig5

> <i_f3d_flags>
0

> <s_m_subgroup_title>
dock_pv

> <s_m_subgroupid>
dock_pv

> <b_m_subgroup_collapsed>
1

$$$$
CHEMBL3972_lig21
                    3D
 Schrodinger Suite 2021-1.
 55 56  0  0  1  0            999 V2000
   68.6380   12.9183   26.8911 N   0  0  0  0  0  0
   67.9797   13.6886   27.7867 C   0  0  0  0  0  0
   70.0888   12.1686   28.6524 N   0  0  0  0  0  0
   68.3650   13.7814   29.1367 C   0  0  0  0  0  0
   69.4444   12.9671   29.5424 C   0  0  0  0  0  0
   69.6889   12.2238   27.3655 C   0  0  0  0  0  0
   72.7988   21.6940   28.9012 C   0  0  0  0  0  0
   73.7039   21.5578   27.9136 N   0  0  0  0  0  0
   71.5698   20.8185   28.8081 C   0  0  0  0  0  0
   76.0105   21.7260   28.8994 C   0  0  0  0  0  0
   75.0228   22.1993   27.8031 C   0  0  2  0  0  0
   69.2667   20.3959   29.4593 C   0  0  0  0  0  0
   70.4062   21.1941   29.4894 C   0  0  0  0  0  0
   69.8253   13.0325   30.8540 O   0  0  0  0  0  0
   76.0803   25.8908   26.7830 C   0  0  0  0  0  0
   69.2799   19.1718   28.7883 C   0  0  0  0  0  0
   72.9411   22.4739   29.8444 O   0  0  0  0  0  0
   66.8886   14.3935   27.2910 N   0  0  0  0  0  0
   75.7037   21.1974   29.9486 O   0  0  0  0  0  0
   71.5606   19.6117   28.0879 C   0  0  0  0  0  0
   70.4887   11.5909   26.4310 N   0  0  0  0  0  0
   75.1209   26.2471   26.0984 O   0  0  0  0  0  0
   70.4274   18.7942   28.0820 C   0  0  0  0  0  0
   74.8860   23.7482   27.6429 C   0  0  0  0  0  0
   76.2172   24.5187   27.4445 C   0  0  0  0  0  0
   68.1345   18.3674   28.8911 N   0  0  0  0  0  0
   68.1459   20.8211   30.0909 F   0  0  0  0  0  0
   67.6537   14.7414   30.1060 C   0  0  0  0  0  0
   77.2894   21.9342   28.4910 O   0  0  0  0  0  0
   77.2193   26.6309   26.9097 O   0  0  0  0  0  0
   68.1329   16.9200   28.7659 C   0  0  0  0  0  0
   68.2432   16.1720   30.1121 C   0  0  0  0  0  0
   73.4677   20.9542   27.1371 H   0  0  0  0  0  0
   75.4204   21.8129   26.8668 H   0  0  0  0  0  0
   70.3696   22.1239   30.0399 H   0  0  0  0  0  0
   69.3178   13.6919   31.3297 H   0  0  0  0  0  0
   66.4044   15.0418   27.8944 H   0  0  0  0  0  0
   66.6371   14.3370   26.3137 H   0  0  0  0  0  0
   72.4348   19.2777   27.5463 H   0  0  0  0  0  0
   71.4188   11.3973   26.7723 H   0  0  0  0  0  0
   70.3951   11.9774   25.5067 H   0  0  0  0  0  0
   70.4538   17.8718   27.5237 H   0  0  0  0  0  0
   74.3682   24.1706   28.5042 H   0  0  0  0  0  0
   74.2212   23.9425   26.7991 H   0  0  0  0  0  0
   76.8844   23.9421   26.8026 H   0  0  0  0  0  0
   76.7248   24.6347   28.4043 H   0  0  0  0  0  0
   67.3893   18.7566   29.4518 H   0  0  0  0  0  0
   67.6773   14.3416   31.1199 H   0  0  0  0  0  0
   66.5887   14.7885   29.8737 H   0  0  0  0  0  0
   77.8989   21.5895   29.1609 H   0  0  0  0  0  0
   77.2296   27.4365   26.3753 H   0  0  0  0  0  0
   67.1649   16.7070   28.3158 H   0  0  0  0  0  0
   68.8586   16.5420   28.0463 H   0  0  0  0  0  0
   69.2854   16.1517   30.4280 H   0  0  0  0  0  0
   67.7229   16.7443   30.8835 H   0  0  0  0  0  0
  1  2  2  0  0  0
  1  6  1  0  0  0
  2  4  1  0  0  0
  2 18  1  0  0  0
  3  6  2  0  0  0
  3  5  1  0  0  0
  4 28  1  0  0  0
  4  5  2  0  0  0
  5 14  1  0  0  0
  6 21  1  0  0  0
  7  9  1  0  0  0
  7  8  1  0  0  0
  7 17  2  0  0  0
  8 11  1  0  0  0
  8 33  1  0  0  0
  9 20  2  0  0  0
  9 13  1  0  0  0
 10 11  1  0  0  0
 10 19  2  0  0  0
 10 29  1  0  0  0
 11 24  1  0  0  0
 11 34  1  0  0  0
 12 16  1  0  0  0
 12 13  2  0  0  0
 12 27  1  0  0  0
 13 35  1  0  0  0
 14 36  1  0  0  0
 15 25  1  0  0  0
 15 22  2  0  0  0
 15 30  1  0  0  0
 16 26  1  0  0  0
 16 23  2  0  0  0
 18 37  1  0  0  0
 18 38  1  0  0  0
 20 23  1  0  0  0
 20 39  1  0  0  0
 21 40  1  0  0  0
 21 41  1  0  0  0
 23 42  1  0  0  0
 24 25  1  0  0  0
 24 43  1  0  0  0
 24 44  1  0  0  0
 25 45  1  0  0  0
 25 46  1  0  0  0
 26 31  1  0  0  0
 26 47  1  0  0  0
 28 32  1  0  0  0
 28 48  1  0  0  0
 28 49  1  0  0  0
 29 50  1  0  0  0
 30 51  1  0  0  0
 31 32  1  0  0  0
 31 52  1  0  0  0
 31 53  1  0  0  0
 32 54  1  0  0  0
 32 55  1  0  0  0
M  END
> <s_m_entry_id>
24934

> <s_m_entry_name>
dock_pv.87

> <s_m_Source_Path>
/home/csk/Desktop/cluster/DUD-E-result/pur2

> <s_m_Source_File>
dock_pv.maegz

> <i_m_Source_File_Index>
87

> <chembl_id>
CHEMBL285232

> <chembl_pref_name>
None

> <i_lp_mmshare_version>
53161

> <r_lp_tautomer_probability>
0.0160304617775627

> <s_lp_Force_Field>
OPLS_2005

> <r_lp_Energy>
5.498004

> <b_lp_Chiralities_Consistent>
1

> <s_lp_Variant>
CHEMBL3972_lig21-4

> <s_i_glide_gridfile>
glide-grid_1njs

> <i_i_glide_lignum>
59

> <i_i_glide_rotatable_bonds>
15

> <r_i_docking_score>
-9.58029885896644

> <r_i_glide_ligand_efficiency>
-0.299384339342701

> <r_i_glide_ligand_efficiency_sa>
-0.950486029332772

> <r_i_glide_ligand_efficiency_ln>
-2.14529006360636

> <r_i_glide_gscore>
-9.58029885896644

> <r_i_glide_lipo>
-2.103734457458

> <r_i_glide_hbond>
-0.944990210457994

> <r_i_glide_metal>
0

> <r_i_glide_rewards>
-2.26293366323956

> <r_i_glide_evdw>
-50.8609428405762

> <r_i_glide_ecoul>
-18.6241283416748

> <r_i_glide_erotb>
1.18586114611094

> <r_i_glide_esite>
-0.117835280641794

> <r_i_glide_emodel>
-106.046925533422

> <r_i_glide_energy>
-69.485071182251

> <r_i_glide_einternal>
11.3952474594116

> <i_i_glide_confnum>
37

> <i_i_glide_posenum>
271

> <r_i_glide_eff_state_penalty>
0

> <s_user_duplicate_titles>
CHEMBL3972_lig21,CHEMBL3972_lig21

> <i_f3d_flags>
0

> <s_m_subgroup_title>
dock_pv

> <s_m_subgroupid>
dock_pv

> <b_m_subgroup_collapsed>
1

$$$$
CHEMBL3972_lig66
                    3D
 Schrodinger Suite 2021-1.
 51 52  0  0  1  0            999 V2000
   77.7926   24.0254   28.0864 N   0  0  0  0  0  0
   76.6922   23.2439   28.2106 C   0  0  0  0  0  0
   75.4131   23.6666   27.8147 C   0  0  0  0  0  0
   76.4122   25.7264   27.0955 N   0  0  0  0  0  0
   75.3174   24.9341   27.2158 C   0  0  0  0  0  0
   77.5903   25.2463   27.5465 C   0  0  0  0  0  0
   69.2890   18.9131   28.4912 C   0  0  0  0  0  0
   68.5294   17.6971   28.6242 C   0  0  0  0  0  0
   69.0347   20.2437   29.5912 S   0  0  0  0  0  0
   68.2012   17.0955   27.4605 N   0  0  0  0  0  0
   70.3955   19.1512   27.6905 C   0  0  0  0  0  0
   66.2631   15.6063   28.1606 C   0  0  0  0  0  0
   70.4540   21.0836   29.0237 C   0  0  0  0  0  0
   67.5410   15.7844   27.2930 C   0  0  2  0  0  0
   71.0272   20.3631   27.9776 C   0  0  0  0  0  0
   74.0898   25.3300   26.7660 O   0  0  0  0  0  0
   69.2722   12.2309   27.1248 C   0  0  0  0  0  0
   73.9701   22.6521   28.0911 S   0  0  0  0  0  0
   68.2427   17.2547   29.7373 O   0  0  0  0  0  0
   76.8848   21.9904   28.7748 N   0  0  0  0  0  0
   66.1827   14.8532   29.1110 O   0  0  0  0  0  0
   78.6800   26.0958   27.4435 N   0  0  0  0  0  0
   69.4353   11.5908   26.0910 O   0  0  0  0  0  0
   68.6138   14.6711   27.4868 C   0  0  0  0  0  0
   68.1219   13.2122   27.3352 C   0  0  0  0  0  0
   65.2522   16.3907   27.6909 O   0  0  0  0  0  0
   70.0885   12.1358   28.2086 O   0  0  0  0  0  0
   70.8901   22.3951   29.6467 C   0  0  0  0  0  0
   73.3537   23.1781   29.7174 C   0  0  0  0  0  0
   72.2601   22.3048   30.3563 C   0  0  0  0  0  0
   68.3867   17.5981   26.6032 H   0  0  0  0  0  0
   70.7597   18.4660   26.9393 H   0  0  0  0  0  0
   67.2154   15.7411   26.2527 H   0  0  0  0  0  0
   71.9100   20.6936   27.4490 H   0  0  0  0  0  0
   73.3827   24.7247   27.0229 H   0  0  0  0  0  0
   76.0746   21.3987   28.8843 H   0  0  0  0  0  0
   77.7894   21.7224   29.1516 H   0  0  0  0  0  0
   79.5787   25.8151   27.8042 H   0  0  0  0  0  0
   78.5301   27.0108   27.0413 H   0  0  0  0  0  0
   69.0676   14.7792   28.4745 H   0  0  0  0  0  0
   69.4271   14.8493   26.7808 H   0  0  0  0  0  0
   67.4292   13.1265   26.4956 H   0  0  0  0  0  0
   67.5794   12.9030   28.2274 H   0  0  0  0  0  0
   65.4298   16.7786   26.8228 H   0  0  0  0  0  0
   70.8565   11.5919   28.0287 H   0  0  0  0  0  0
   70.9155   23.1818   28.8912 H   0  0  0  0  0  0
   70.1435   22.7404   30.3646 H   0  0  0  0  0  0
   73.0015   24.2078   29.6399 H   0  0  0  0  0  0
   74.2117   23.1947   30.3891 H   0  0  0  0  0  0
   72.1365   22.6170   31.3938 H   0  0  0  0  0  0
   72.6073   21.2709   30.4128 H   0  0  0  0  0  0
  1  2  2  0  0  0
  1  6  1  0  0  0
  2  3  1  0  0  0
  2 20  1  0  0  0
  3 18  1  0  0  0
  3  5  2  0  0  0
  4  6  2  0  0  0
  4  5  1  0  0  0
  5 16  1  0  0  0
  6 22  1  0  0  0
  7  9  1  0  0  0
  7  8  1  0  0  0
  7 11  2  0  0  0
  8 10  1  0  0  0
  8 19  2  0  0  0
  9 13  1  0  0  0
 10 14  1  0  0  0
 10 31  1  0  0  0
 11 15  1  0  0  0
 11 32  1  0  0  0
 12 14  1  0  0  0
 12 21  2  0  0  0
 12 26  1  0  0  0
 13 28  1  0  0  0
 13 15  2  0  0  0
 14 24  1  0  0  0
 14 33  1  0  0  0
 15 34  1  0  0  0
 16 35  1  0  0  0
 17 25  1  0  0  0
 17 23  2  0  0  0
 17 27  1  0  0  0
 18 29  1  0  0  0
 20 36  1  0  0  0
 20 37  1  0  0  0
 22 38  1  0  0  0
 22 39  1  0  0  0
 24 25  1  0  0  0
 24 40  1  0  0  0
 24 41  1  0  0  0
 25 42  1  0  0  0
 25 43  1  0  0  0
 26 44  1  0  0  0
 27 45  1  0  0  0
 28 30  1  0  0  0
 28 46  1  0  0  0
 28 47  1  0  0  0
 29 30  1  0  0  0
 29 48  1  0  0  0
 29 49  1  0  0  0
 30 50  1  0  0  0
 30 51  1  0  0  0
M  END
> <s_m_entry_id>
24936

> <s_m_entry_name>
dock_pv.89

> <s_m_Source_Path>
/home/csk/Desktop/cluster/DUD-E-result/pur2

> <s_m_Source_File>
dock_pv.maegz

> <i_m_Source_File_Index>
89

> <chembl_id>
CHEMBL85871

> <chembl_pref_name>
None

> <i_lp_mmshare_version>
53161

> <r_lp_tautomer_probability>
0.0160304617775627

> <s_lp_Force_Field>
OPLS_2005

> <r_lp_Energy>
-1.377674

> <b_lp_Chiralities_Consistent>
1

> <s_lp_Variant>
CHEMBL3972_lig66-2

> <s_i_glide_gridfile>
glide-grid_1njs

> <i_i_glide_lignum>
140

> <i_i_glide_rotatable_bonds>
15

> <r_i_docking_score>
-9.51418559005902

> <r_i_glide_ligand_efficiency>
-0.317139519668634

> <r_i_glide_ligand_efficiency_sa>
-0.985426223319763

> <r_i_glide_ligand_efficiency_ln>
-2.16172663141636

> <r_i_glide_gscore>
-9.51418559005902

> <r_i_glide_lipo>
-2.1410591328721

> <r_i_glide_hbond>
-1.00969132032228

> <r_i_glide_metal>
0

> <r_i_glide_rewards>
-1.88336075528785

> <r_i_glide_evdw>
-59.4422950744629

> <r_i_glide_ecoul>
-17.4146575927734

> <r_i_glide_erotb>
1.16186748059082

> <r_i_glide_esite>
-0.0576284695284436

> <r_i_glide_emodel>
-120.616835680172

> <r_i_glide_energy>
-76.8569526672363

> <r_i_glide_einternal>
13.2170600891113

> <i_i_glide_confnum>
106

> <i_i_glide_posenum>
398

> <r_i_glide_eff_state_penalty>
0

> <s_user_duplicate_titles>
CHEMBL3972_lig66,135782

> <i_f3d_flags>
0

> <s_m_subgroup_title>
dock_pv

> <s_m_subgroupid>
dock_pv

> <b_m_subgroup_collapsed>
1

$$$$
CHEMBL3972_lig16
                    3D
 Schrodinger Suite 2021-1.
 58 60  0  0  1  0            999 V2000
   76.7760   24.0236   27.3709 C   0  0  0  0  0  0
   76.3833   25.3513   27.0969 C   0  0  0  0  0  0
   77.2007   26.4174   27.2915 N   0  0  0  0  0  0
   78.8891   24.9093   28.0679 N   0  0  0  0  0  0
   78.0789   23.8468   27.8522 C   0  0  0  0  0  0
   78.4262   26.1413   27.7876 C   0  0  0  0  0  0
   75.8672   22.9418   27.2629 N   0  0  0  0  0  0
   75.1116   25.6379   26.5824 N   0  0  0  0  0  0
   68.5960   17.4874   28.4670 C   0  0  0  0  0  0
   67.4577   17.4645   29.1838 N   0  0  0  0  0  0
   65.7007   15.9898   28.1115 C   0  0  0  0  0  0
   66.5503   16.3191   29.3676 C   0  0  2  0  0  0
   69.4049   18.7693   28.4912 C   0  0  0  0  0  0
   78.4890   22.5686   28.0910 O   0  0  0  0  0  0
   65.4882   16.9281   33.1345 C   0  0  0  0  0  0
   69.0044   16.5037   27.8513 O   0  0  0  0  0  0
   64.4880   16.0126   28.0907 O   0  0  0  0  0  0
   79.2867   27.1910   28.0792 N   0  0  0  0  0  0
   64.6594   16.0473   33.3528 O   0  0  0  0  0  0
   74.4563   23.3006   27.1596 C   0  0  2  0  0  0
   65.6613   16.5584   30.6220 C   0  0  0  0  0  0
   69.0114   19.8900   29.2471 C   0  0  0  0  0  0
   70.6198   18.8247   27.7911 C   0  0  0  0  0  0
   74.2987   24.4927   26.1747 C   0  0  0  0  0  0
   66.4185   16.9255   31.9193 C   0  0  0  0  0  0
   71.7461   22.2564   28.5066 N   0  0  0  0  0  0
   66.4890   15.6278   27.0614 O   0  0  0  0  0  0
   71.0107   21.0689   28.5798 C   0  0  0  0  0  0
   65.6888   17.9910   33.9660 O   0  0  0  0  0  0
   69.8130   21.0285   29.2909 C   0  0  0  0  0  0
   71.4234   19.9578   27.8503 C   0  0  0  0  0  0
   73.8854   23.5041   28.5892 C   0  0  0  0  0  0
   73.0858   22.2800   29.0742 C   0  0  0  0  0  0
   73.9608   22.4416   26.7112 H   0  0  0  0  0  0
   76.0160   22.0642   27.7384 H   0  0  0  0  0  0
   74.9420   26.5264   26.1387 H   0  0  0  0  0  0
   67.1566   18.3211   29.6164 H   0  0  0  0  0  0
   67.1668   15.4401   29.5619 H   0  0  0  0  0  0
   77.8260   21.9208   27.8539 H   0  0  0  0  0  0
   80.1864   26.9671   28.4904 H   0  0  0  0  0  0
   78.9371   28.1431   28.0653 H   0  0  0  0  0  0
   65.0623   15.6622   30.7994 H   0  0  0  0  0  0
   64.9395   17.3530   30.4200 H   0  0  0  0  0  0
   68.0903   19.9025   29.8102 H   0  0  0  0  0  0
   70.9580   17.9910   27.1936 H   0  0  0  0  0  0
   73.2591   24.7960   26.0911 H   0  0  0  0  0  0
   74.6103   24.1833   25.1762 H   0  0  0  0  0  0
   67.2132   16.2033   32.1065 H   0  0  0  0  0  0
   66.8953   17.9005   31.8185 H   0  0  0  0  0  0
   71.2384   23.1132   28.6969 H   0  0  0  0  0  0
   65.9513   15.5908   26.2505 H   0  0  0  0  0  0
   66.3653   18.6257   33.6930 H   0  0  0  0  0  0
   69.4869   21.8891   29.8571 H   0  0  0  0  0  0
   72.3462   19.9909   27.2904 H   0  0  0  0  0  0
   73.2544   24.3910   28.6138 H   0  0  0  0  0  0
   74.6757   23.7237   29.3091 H   0  0  0  0  0  0
   73.6199   21.3652   28.8093 H   0  0  0  0  0  0
   73.0241   22.2462   30.1630 H   0  0  0  0  0  0
  1  2  1  0  0  0
  1  5  2  0  0  0
  1  7  1  0  0  0
  2  3  2  0  0  0
  2  8  1  0  0  0
  3  6  1  0  0  0
  4  5  1  0  0  0
  4  6  2  0  0  0
  5 14  1  0  0  0
  6 18  1  0  0  0
  7 20  1  0  0  0
  7 35  1  0  0  0
  8 24  1  0  0  0
  8 36  1  0  0  0
  9 13  1  0  0  0
  9 10  1  0  0  0
  9 16  2  0  0  0
 10 12  1  0  0  0
 10 37  1  0  0  0
 11 12  1  0  0  0
 11 17  2  0  0  0
 11 27  1  0  0  0
 12 21  1  0  0  0
 12 38  1  0  0  0
 13 23  2  0  0  0
 13 22  1  0  0  0
 14 39  1  0  0  0
 15 25  1  0  0  0
 15 19  2  0  0  0
 15 29  1  0  0  0
 18 40  1  0  0  0
 18 41  1  0  0  0
 20 24  1  0  0  0
 20 32  1  0  0  0
 20 34  1  0  0  0
 21 25  1  0  0  0
 21 42  1  0  0  0
 21 43  1  0  0  0
 22 30  2  0  0  0
 22 44  1  0  0  0
 23 31  1  0  0  0
 23 45  1  0  0  0
 24 46  1  0  0  0
 24 47  1  0  0  0
 25 48  1  0  0  0
 25 49  1  0  0  0
 26 33  1  0  0  0
 26 28  1  0  0  0
 26 50  1  0  0  0
 27 51  1  0  0  0
 28 30  1  0  0  0
 28 31  2  0  0  0
 29 52  1  0  0  0
 30 53  1  0  0  0
 31 54  1  0  0  0
 32 33  1  0  0  0
 32 55  1  0  0  0
 32 56  1  0  0  0
 33 57  1  0  0  0
 33 58  1  0  0  0
M  END
> <s_m_entry_id>
24937

> <s_m_entry_name>
dock_pv.90

> <s_m_Source_Path>
/home/csk/Desktop/cluster/DUD-E-result/pur2

> <s_m_Source_File>
dock_pv.maegz

> <i_m_Source_File_Index>
90

> <chembl_id>
CHEMBL23388

> <chembl_pref_name>
TETRAHYDROHOMOFOLATE

> <i_lp_mmshare_version>
53161

> <r_lp_tautomer_probability>
1

> <s_lp_Force_Field>
OPLS_2005

> <r_lp_Energy>
18.099667

> <b_lp_Chiralities_Consistent>
1

> <s_lp_Variant>
CHEMBL3972_lig16-2

> <s_i_glide_gridfile>
glide-grid_1njs

> <i_i_glide_lignum>
41

> <i_i_glide_rotatable_bonds>
14

> <r_i_docking_score>
-9.48093516669557

> <r_i_glide_ligand_efficiency>
-0.287301065657442

> <r_i_glide_ligand_efficiency_sa>
-0.921528030066586

> <r_i_glide_ligand_efficiency_ln>
-2.10851089141802

> <r_i_glide_gscore>
-9.48093516669557

> <r_i_glide_lipo>
-2.63436220844792

> <r_i_glide_hbond>
-1.10503354281223

> <r_i_glide_metal>
0

> <r_i_glide_rewards>
-1.23704511510464

> <r_i_glide_evdw>
-48.6750793457031

> <r_i_glide_ecoul>
-20.1384525299072

> <r_i_glide_erotb>
1.04845368541203

> <r_i_glide_esite>
-0.098426138971564

> <r_i_glide_emodel>
-101.47733170304

> <r_i_glide_energy>
-68.8135318756104

> <r_i_glide_einternal>
13.5792045593262

> <i_i_glide_confnum>
5

> <i_i_glide_posenum>
339

> <r_i_glide_eff_state_penalty>
0

> <s_user_duplicate_titles>
CHEMBL3972_lig16

> <i_f3d_flags>
0

> <s_m_subgroup_title>
dock_pv

> <s_m_subgroupid>
dock_pv

> <b_m_subgroup_collapsed>
1

$$$$
CHEMBL3972_lig94
                    3D
 Schrodinger Suite 2021-1.
 58 59  0  0  1  0            999 V2000
   72.8080   21.6219   28.9941 C   0  0  0  0  0  0
   72.3358   20.6695   28.0912 C   0  0  0  0  0  0
   71.0388   20.1812   28.2078 C   0  0  0  0  0  0
   70.2110   20.6371   29.2452 C   0  0  0  0  0  0
   70.6667   21.6521   30.0913 C   0  0  0  0  0  0
   71.9571   22.1324   29.9754 C   0  0  0  0  0  0
   74.2554   22.1009   28.9083 C   0  0  1  0  0  0
   74.3527   23.6376   28.7714 C   0  0  0  0  0  0
   74.2119   24.1097   27.3206 C   0  0  0  0  0  0
   75.5020   23.9068   26.5021 C   0  0  0  0  0  0
   76.6611   24.7644   27.0365 C   0  0  0  0  0  0
   77.7977   24.2251   27.6752 C   0  0  0  0  0  0
   78.8117   25.0288   28.0911 N   0  0  0  0  0  0
   78.6632   26.3604   27.9322 C   0  0  0  0  0  0
   77.6010   26.9643   27.3777 N   0  0  0  0  0  0
   76.6381   26.1594   26.8909 C   0  0  0  0  0  0
   77.8403   22.8700   27.8439 O   0  0  0  0  0  0
   79.6886   27.1911   28.3520 N   0  0  0  0  0  0
   75.6890   26.7909   26.0910 N   0  0  0  0  0  0
   68.8886   19.9857   29.5424 C   0  0  0  0  0  0
   67.9776   20.6076   30.0911 O   0  0  0  0  0  0
   68.8435   18.6617   29.2903 N   0  0  0  0  0  0
   67.7868   17.7372   29.7191 C   0  0  2  0  0  0
   67.8971   17.2173   31.1799 C   0  0  0  0  0  0
   68.4254   18.1539   32.0176 O   0  0  0  0  0  0
   67.5282   16.1156   31.5303 O   0  0  0  0  0  0
   67.6105   16.6223   28.6547 C   0  0  0  0  0  0
   68.7153   15.5355   28.6447 C   0  0  0  0  0  0
   68.8200   14.8380   27.2922 C   0  0  0  0  0  0
   69.2889   15.6805   26.3313 O   0  0  0  0  0  0
   68.5381   13.6574   27.0949 O   0  0  0  0  0  0
   75.0908   21.5909   30.0912 C   0  0  0  0  0  0
   74.6012   21.1915   31.1479 O   0  0  0  0  0  0
   72.9769   20.2881   27.3083 H   0  0  0  0  0  0
   70.7058   19.4264   27.5087 H   0  0  0  0  0  0
   70.0646   22.0499   30.8906 H   0  0  0  0  0  0
   72.3019   22.8770   30.6775 H   0  0  0  0  0  0
   74.7119   21.6370   28.0348 H   0  0  0  0  0  0
   73.5728   24.1158   29.3615 H   0  0  0  0  0  0
   75.2817   24.0272   29.1893 H   0  0  0  0  0  0
   73.3743   23.5908   26.8568 H   0  0  0  0  0  0
   73.9227   25.1606   27.3169 H   0  0  0  0  0  0
   75.7563   22.8488   26.4794 H   0  0  0  0  0  0
   75.3189   24.1695   25.4596 H   0  0  0  0  0  0
   77.0631   22.4542   27.4695 H   0  0  0  0  0  0
   80.5677   26.7926   28.6966 H   0  0  0  0  0  0
   79.5366   28.1921   28.3053 H   0  0  0  0  0  0
   75.0682   26.2240   25.5376 H   0  0  0  0  0  0
   75.8637   27.7692   25.8900 H   0  0  0  0  0  0
   69.6336   18.2408   28.8290 H   0  0  0  0  0  0
   66.8890   18.3320   29.7308 H   0  0  0  0  0  0
   68.3998   17.8569   32.9292 H   0  0  0  0  0  0
   67.5114   17.0869   27.6701 H   0  0  0  0  0  0
   66.6490   16.1304   28.8157 H   0  0  0  0  0  0
   68.5113   14.7874   29.4118 H   0  0  0  0  0  0
   69.6871   15.9620   28.8935 H   0  0  0  0  0  0
   69.3039   15.2833   25.4585 H   0  0  0  0  0  0
   76.1692   21.6374   29.9355 H   0  0  0  0  0  0
  1  6  1  0  0  0
  1  7  1  0  0  0
  1  2  2  0  0  0
  2  3  1  0  0  0
  2 34  1  0  0  0
  3  4  2  0  0  0
  3 35  1  0  0  0
  4 20  1  0  0  0
  4  5  1  0  0  0
  5  6  2  0  0  0
  5 36  1  0  0  0
  6 37  1  0  0  0
  7  8  1  0  0  0
  7 32  1  0  0  0
  7 38  1  0  0  0
  8  9  1  0  0  0
  8 39  1  0  0  0
  8 40  1  0  0  0
  9 10  1  0  0  0
  9 41  1  0  0  0
  9 42  1  0  0  0
 10 43  1  0  0  0
 10 44  1  0  0  0
 10 11  1  0  0  0
 11 16  2  0  0  0
 11 12  1  0  0  0
 12 13  2  0  0  0
 12 17  1  0  0  0
 13 14  1  0  0  0
 14 15  2  0  0  0
 14 18  1  0  0  0
 15 16  1  0  0  0
 16 19  1  0  0  0
 17 45  1  0  0  0
 18 46  1  0  0  0
 18 47  1  0  0  0
 19 48  1  0  0  0
 19 49  1  0  0  0
 20 21  2  0  0  0
 20 22  1  0  0  0
 22 23  1  0  0  0
 22 50  1  0  0  0
 23 24  1  0  0  0
 23 27  1  0  0  0
 23 51  1  0  0  0
 24 25  1  0  0  0
 24 26  2  0  0  0
 25 52  1  0  0  0
 27 28  1  0  0  0
 27 53  1  0  0  0
 27 54  1  0  0  0
 28 29  1  0  0  0
 28 55  1  0  0  0
 28 56  1  0  0  0
 29 30  1  0  0  0
 29 31  2  0  0  0
 30 57  1  0  0  0
 32 33  2  0  0  0
 32 58  1  0  0  0
M  END
> <s_m_entry_id>
24938

> <s_m_entry_name>
dock_pv.91

> <s_m_Source_Path>
/home/csk/Desktop/cluster/DUD-E-result/pur2

> <s_m_Source_File>
dock_pv.maegz

> <i_m_Source_File_Index>
91

> <chembl_id>
CHEMBL451819

> <chembl_pref_name>
None

> <i_lp_mmshare_version>
53161

> <r_lp_tautomer_probability>
0.0160304617775627

> <s_lp_Force_Field>
OPLS_2005

> <r_lp_Energy>
4.46621

> <b_lp_Chiralities_Consistent>
1

> <s_lp_Variant>
CHEMBL3972_lig94-3

> <s_i_glide_gridfile>
glide-grid_1njs

> <i_i_glide_lignum>
242

> <i_i_glide_rotatable_bonds>
16

> <r_i_docking_score>
-9.47924321529324

> <r_i_glide_ligand_efficiency>
-0.287249794402825

> <r_i_glide_ligand_efficiency_sa>
-0.921363575757454

> <r_i_glide_ligand_efficiency_ln>
-2.1081346101866

> <r_i_glide_gscore>
-9.47924321529324

> <r_i_glide_lipo>
-2.35124336997944

> <r_i_glide_hbond>
-1.27546759772367

> <r_i_glide_metal>
0

> <r_i_glide_rewards>
-2.62888272478186

> <r_i_glide_evdw>
-45.9003982543945

> <r_i_glide_ecoul>
-13.469464302063

> <r_i_glide_erotb>
1.14378261858447

> <r_i_glide_esite>
-0.0519925833635666

> <r_i_glide_emodel>
-82.930308986879

> <r_i_glide_energy>
-59.3698625564575

> <r_i_glide_einternal>
16.0161304473877

> <i_i_glide_confnum>
285

> <i_i_glide_posenum>
24

> <r_i_glide_eff_state_penalty>
0

> <s_user_duplicate_titles>
CHEMBL3972_lig94,CHEMBL3972_lig94,451384

> <i_f3d_flags>
0

> <s_m_subgroup_title>
dock_pv

> <s_m_subgroupid>
dock_pv

> <b_m_subgroup_collapsed>
1

$$$$
CHEMBL3972_lig14
                    3D
 Schrodinger Suite 2021-1.
 62 64  0  0  1  0            999 V2000
   75.3990   23.9693   27.7078 C   0  0  0  0  0  0
   76.6751   23.6076   28.2056 C   0  0  0  0  0  0
   77.7658   24.4022   28.0894 N   0  0  0  0  0  0
   76.4040   25.9911   26.8916 N   0  0  0  0  0  0
   75.3078   25.2001   27.0239 C   0  0  0  0  0  0
   77.5680   25.5673   27.4341 C   0  0  0  0  0  0
   74.2535   23.2096   28.0520 N   0  0  0  0  0  0
   76.8773   22.3795   28.8603 N   0  0  0  0  0  0
   68.8864   16.8509   27.6801 C   0  0  0  0  0  0
   68.4273   15.9583   28.5713 N   0  0  0  0  0  0
   68.6220   13.5587   27.6090 C   0  0  0  0  0  0
   67.7832   14.6664   28.2976 C   0  0  2  0  0  0
   69.2270   18.2088   28.2324 C   0  0  0  0  0  0
   74.0905   25.5788   26.5088 O   0  0  0  0  0  0
   65.2064   15.6713   29.6968 C   0  0  0  0  0  0
   74.4276   22.4379   29.2879 C   0  0  2  0  0  0
   69.0217   16.6005   26.4903 O   0  0  0  0  0  0
   69.5624   13.7294   26.8641 O   0  0  0  0  0  0
   78.6545   26.4130   27.2897 N   0  0  0  0  0  0
   65.2902   14.5765   30.2485 O   0  0  0  0  0  0
   75.6978   21.5553   29.1596 C   0  0  0  0  0  0
   66.4392   14.9166   27.5440 C   0  0  0  0  0  0
   68.4947   18.7673   29.2916 C   0  0  0  0  0  0
   70.2615   18.9475   27.6528 C   0  0  0  0  0  0
   65.4573   15.9162   28.2041 C   0  0  0  0  0  0
   73.1268   21.6758   29.6544 C   0  0  0  0  0  0
   68.1068   12.3427   27.9564 O   0  0  0  0  0  0
   70.0028   20.6627   29.3247 C   0  0  0  0  0  0
   70.5161   21.8664   30.1121 C   0  0  0  0  0  0
   71.8390   22.5666   29.6994 C   0  0  1  0  0  0
   64.8880   16.8144   30.3603 O   0  0  0  0  0  0
   70.6279   20.1822   28.1725 C   0  0  0  0  0  0
   68.8863   19.9890   29.8304 C   0  0  0  0  0  0
   72.0631   23.7470   30.6702 C   0  0  0  0  0  0
   73.3291   23.6125   27.9776 H   0  0  0  0  0  0
   77.7765   22.0547   29.1971 H   0  0  0  0  0  0
   68.4341   16.2353   29.5401 H   0  0  0  0  0  0
   67.5809   14.2829   29.2968 H   0  0  0  0  0  0
   73.3648   24.9910   26.7493 H   0  0  0  0  0  0
   74.6167   23.1501   30.0889 H   0  0  0  0  0  0
   78.5031   27.2787   26.7841 H   0  0  0  0  0  0
   79.5158   26.2238   27.7795 H   0  0  0  0  0  0
   75.5690   20.8115   28.3721 H   0  0  0  0  0  0
   75.8757   21.0105   30.0870 H   0  0  0  0  0  0
   65.9063   13.9917   27.3612 H   0  0  0  0  0  0
   66.6580   15.2971   26.5411 H   0  0  0  0  0  0
   67.6472   18.2554   29.7254 H   0  0  0  0  0  0
   70.7927   18.5737   26.7881 H   0  0  0  0  0  0
   65.8473   16.9264   28.0752 H   0  0  0  0  0  0
   64.5022   15.9006   27.6767 H   0  0  0  0  0  0
   73.2633   21.2163   30.6336 H   0  0  0  0  0  0
   73.0318   20.8364   28.9731 H   0  0  0  0  0  0
   67.4130   12.4570   28.6050 H   0  0  0  0  0  0
   70.6331   21.5352   31.1439 H   0  0  0  0  0  0
   69.7090   22.6028   30.1095 H   0  0  0  0  0  0
   71.6679   22.9826   28.7051 H   0  0  0  0  0  0
   64.6964   16.6594   31.2877 H   0  0  0  0  0  0
   71.4206   20.7248   27.6834 H   0  0  0  0  0  0
   68.3490   20.3785   30.6821 H   0  0  0  0  0  0
   72.3172   23.4016   31.6722 H   0  0  0  0  0  0
   72.8664   24.3913   30.3283 H   0  0  0  0  0  0
   71.1821   24.3768   30.7584 H   0  0  0  0  0  0
  1  2  1  0  0  0
  1  5  2  0  0  0
  1  7  1  0  0  0
  2  3  2  0  0  0
  2  8  1  0  0  0
  3  6  1  0  0  0
  4  5  1  0  0  0
  4  6  2  0  0  0
  5 14  1  0  0  0
  6 19  1  0  0  0
  7 16  1  0  0  0
  7 35  1  0  0  0
  8 21  1  0  0  0
  8 36  1  0  0  0
  9 13  1  0  0  0
  9 10  1  0  0  0
  9 17  2  0  0  0
 10 12  1  0  0  0
 10 37  1  0  0  0
 11 12  1  0  0  0
 11 18  2  0  0  0
 11 27  1  0  0  0
 12 22  1  0  0  0
 12 38  1  0  0  0
 13 23  1  0  0  0
 13 24  2  0  0  0
 14 39  1  0  0  0
 15 25  1  0  0  0
 15 20  2  0  0  0
 15 31  1  0  0  0
 16 21  1  0  0  0
 16 26  1  0  0  0
 16 40  1  0  0  0
 19 41  1  0  0  0
 19 42  1  0  0  0
 21 43  1  0  0  0
 21 44  1  0  0  0
 22 25  1  0  0  0
 22 45  1  0  0  0
 22 46  1  0  0  0
 23 33  2  0  0  0
 23 47  1  0  0  0
 24 32  1  0  0  0
 24 48  1  0  0  0
 25 49  1  0  0  0
 25 50  1  0  0  0
 26 30  1  0  0  0
 26 51  1  0  0  0
 26 52  1  0  0  0
 27 53  1  0  0  0
 28 29  1  0  0  0
 28 32  2  0  0  0
 28 33  1  0  0  0
 29 30  1  0  0  0
 29 54  1  0  0  0
 29 55  1  0  0  0
 30 34  1  0  0  0
 30 56  1  0  0  0
 31 57  1  0  0  0
 32 58  1  0  0  0
 33 59  1  0  0  0
 34 60  1  0  0  0
 34 61  1  0  0  0
 34 62  1  0  0  0
M  END
> <s_m_entry_id>
24939

> <s_m_entry_name>
dock_pv.92

> <s_m_Source_Path>
/home/csk/Desktop/cluster/DUD-E-result/pur2

> <s_m_Source_File>
dock_pv.maegz

> <i_m_Source_File_Index>
92

> <chembl_id>
CHEMBL23699

> <chembl_pref_name>
None

> <i_lp_mmshare_version>
53161

> <r_lp_tautomer_probability>
1

> <s_lp_Force_Field>
OPLS_2005

> <r_lp_Energy>
17.632085

> <b_lp_Chiralities_Consistent>
1

> <s_lp_Variant>
CHEMBL3972_lig14-2

> <s_i_glide_gridfile>
glide-grid_1njs

> <i_i_glide_lignum>
29

> <i_i_glide_rotatable_bonds>
14

> <r_i_docking_score>
-9.47715244749202

> <r_i_glide_ligand_efficiency>
-0.278739777867412

> <r_i_glide_ligand_efficiency_sa>
-0.903008672803288

> <r_i_glide_ligand_efficiency_ln>
-2.09376880077304

> <r_i_glide_gscore>
-9.47715244749202

> <r_i_glide_lipo>
-2.43178887146639

> <r_i_glide_hbond>
-1.16392983310958

> <r_i_glide_metal>
0

> <r_i_glide_rewards>
-1.81930897794554

> <r_i_glide_evdw>
-56.9482536315918

> <r_i_glide_ecoul>
-14.5180025100708

> <r_i_glide_erotb>
0.996301984216313

> <r_i_glide_esite>
-0.0333136910966169

> <r_i_glide_emodel>
-94.2831899422822

> <r_i_glide_energy>
-71.4662561416626

> <r_i_glide_einternal>
11.8316478729248

> <i_i_glide_confnum>
14

> <i_i_glide_posenum>
28

> <r_i_glide_eff_state_penalty>
0

> <s_user_duplicate_titles>
CHEMBL3972_lig14

> <i_f3d_flags>
0

> <s_m_subgroup_title>
dock_pv

> <s_m_subgroupid>
dock_pv

> <b_m_subgroup_collapsed>
1

$$$$
CHEMBL3972_lig80
                    3D
 Schrodinger Suite 2021-1.
 54 56  0  0  1  0            999 V2000
   72.1476   21.2210   29.3436 C   0  0  0  0  0  0
   72.4508   20.1569   28.4905 C   0  0  0  0  0  0
   71.4586   19.2974   28.0384 C   0  0  0  0  0  0
   70.1361   19.4765   28.4503 C   0  0  0  0  0  0
   69.8132   20.5744   29.2584 C   0  0  0  0  0  0
   70.8087   21.4490   29.6910 C   0  0  0  0  0  0
   73.3201   22.0899   29.8391 C   0  0  1  0  0  0
   69.0797   18.4538   28.1117 C   0  0  0  0  0  0
   68.1463   18.2584   28.8916 O   0  0  0  0  0  0
   69.2284   17.8059   26.9376 N   0  0  0  0  0  0
   68.3396   16.7971   26.3373 C   0  0  0  0  0  0
   67.5441   15.9356   27.2985 C   0  0  0  0  0  0
   73.7679   23.1508   28.8033 C   0  0  0  0  0  0
   73.0667   22.6938   31.2382 C   0  0  0  0  0  0
   74.4350   22.5093   27.5718 C   0  0  0  0  0  0
   74.9746   23.4918   26.5298 C   0  0  0  0  0  0
   76.0997   24.4384   26.9820 C   0  0  0  0  0  0
   77.3309   23.8961   27.5497 C   0  0  0  0  0  0
   78.2717   24.8292   27.8174 N   0  0  0  0  0  0
   78.1159   26.1698   27.6898 C   0  0  0  0  0  0
   77.0287   26.6355   27.2129 N   0  0  0  0  0  0
   76.0592   25.7755   26.8130 C   0  0  0  0  0  0
   79.1496   27.0332   28.0908 N   0  0  0  0  0  0
   75.0972   26.3910   26.0914 N   0  0  0  0  0  0
   77.5977   22.7199   27.7543 O   0  0  0  0  0  0
   73.5999   21.9066   32.4449 C   0  0  0  0  0  0
   72.4760   23.7667   31.3768 O   0  0  0  0  0  0
   74.8838   21.5910   32.2515 F   0  0  0  0  0  0
   73.4880   22.6252   33.5633 F   0  0  0  0  0  0
   72.8890   20.7910   32.5716 F   0  0  0  0  0  0
   66.1814   15.9969   27.3890 N   0  0  0  0  0  0
   68.0113   15.0842   28.1805 N   0  0  0  0  0  0
   66.8882   14.6046   28.8537 N   0  0  0  0  0  0
   65.7385   15.1909   28.3494 N   0  0  0  0  0  0
   73.4697   19.9837   28.1842 H   0  0  0  0  0  0
   71.7468   18.4703   27.4065 H   0  0  0  0  0  0
   68.7949   20.7444   29.5788 H   0  0  0  0  0  0
   70.5283   22.2854   30.3140 H   0  0  0  0  0  0
   74.1704   21.4141   29.9667 H   0  0  0  0  0  0
   69.8824   18.2348   26.2956 H   0  0  0  0  0  0
   67.6901   17.2991   25.6175 H   0  0  0  0  0  0
   68.9606   16.1388   25.7247 H   0  0  0  0  0  0
   74.4777   23.8438   29.2575 H   0  0  0  0  0  0
   72.9156   23.7580   28.4918 H   0  0  0  0  0  0
   73.6954   21.9060   27.0501 H   0  0  0  0  0  0
   75.2172   21.8161   27.8809 H   0  0  0  0  0  0
   74.1211   24.0571   26.1588 H   0  0  0  0  0  0
   75.2927   22.9167   25.6659 H   0  0  0  0  0  0
   79.0298   28.0381   28.0543 H   0  0  0  0  0  0
   80.0181   26.7112   28.4909 H   0  0  0  0  0  0
   74.3729   25.8427   25.6667 H   0  0  0  0  0  0
   75.2936   27.3331   25.7912 H   0  0  0  0  0  0
   79.1565   24.4589   28.0921 H   0  0  0  0  0  0
   65.5793   16.5372   26.7739 H   0  0  0  0  0  0
  1  6  1  0  0  0
  1  2  2  0  0  0
  1  7  1  0  0  0
  2  3  1  0  0  0
  2 35  1  0  0  0
  3  4  2  0  0  0
  3 36  1  0  0  0
  4  5  1  0  0  0
  4  8  1  0  0  0
  5  6  2  0  0  0
  5 37  1  0  0  0
  6 38  1  0  0  0
  7 13  1  0  0  0
  7 14  1  0  0  0
  7 39  1  0  0  0
  8  9  2  0  0  0
  8 10  1  0  0  0
 10 11  1  0  0  0
 10 40  1  0  0  0
 11 41  1  0  0  0
 11 42  1  0  0  0
 11 12  1  0  0  0
 12 32  2  0  0  0
 12 31  1  0  0  0
 13 15  1  0  0  0
 13 43  1  0  0  0
 13 44  1  0  0  0
 14 26  1  0  0  0
 14 27  2  0  0  0
 15 16  1  0  0  0
 15 45  1  0  0  0
 15 46  1  0  0  0
 16 47  1  0  0  0
 16 48  1  0  0  0
 16 17  1  0  0  0
 17 22  2  0  0  0
 17 18  1  0  0  0
 18 19  1  0  0  0
 18 25  2  0  0  0
 19 20  1  0  0  0
 19 53  1  0  0  0
 20 21  2  0  0  0
 20 23  1  0  0  0
 21 22  1  0  0  0
 22 24  1  0  0  0
 23 49  1  0  0  0
 23 50  1  0  0  0
 24 51  1  0  0  0
 24 52  1  0  0  0
 26 28  1  0  0  0
 26 29  1  0  0  0
 26 30  1  0  0  0
 31 34  1  0  0  0
 31 54  1  0  0  0
 32 33  1  0  0  0
 33 34  2  0  0  0
M  END
> <s_m_entry_id>
24941

> <s_m_entry_name>
dock_pv.94

> <s_m_Source_Path>
/home/csk/Desktop/cluster/DUD-E-result/pur2

> <s_m_Source_File>
dock_pv.maegz

> <i_m_Source_File_Index>
94

> <chembl_id>
CHEMBL381706

> <chembl_pref_name>
None

> <i_lp_mmshare_version>
53161

> <r_lp_tautomer_probability>
0.29476015212916

> <s_lp_Force_Field>
OPLS_2005

> <r_lp_Energy>
25.045044

> <b_lp_Chiralities_Consistent>
1

> <s_lp_Variant>
CHEMBL3972_lig80-2

> <s_i_glide_gridfile>
glide-grid_1njs

> <i_i_glide_lignum>
190

> <i_i_glide_rotatable_bonds>
11

> <r_i_docking_score>
-9.31585254659666

> <r_i_glide_ligand_efficiency>
-0.273995663135196

> <r_i_glide_ligand_efficiency_sa>
-0.887639582748251

> <r_i_glide_ligand_efficiency_ln>
-2.05813312835629

> <r_i_glide_gscore>
-9.31585254659666

> <r_i_glide_lipo>
-2.85580321091621

> <r_i_glide_hbond>
-0.712122790590162

> <r_i_glide_metal>
0

> <r_i_glide_rewards>
-2.2414193382947

> <r_i_glide_evdw>
-57.8691864013672

> <r_i_glide_ecoul>
-7.4037127494812

> <r_i_glide_erotb>
0.793790509640028

> <r_i_glide_esite>
-0.296281483945072

> <r_i_glide_emodel>
-94.24133871092

> <r_i_glide_energy>
-65.2728991508484

> <r_i_glide_einternal>
9.41475582122803

> <i_i_glide_confnum>
72

> <i_i_glide_posenum>
16

> <r_i_glide_eff_state_penalty>
0

> <s_user_duplicate_titles>
CHEMBL3972_lig80

> <i_f3d_flags>
0

> <s_m_subgroup_title>
dock_pv

> <s_m_subgroupid>
dock_pv

> <b_m_subgroup_collapsed>
1

$$$$
CHEMBL3972_lig7
                    3D
 Schrodinger Suite 2021-1.
 52 54  0  0  1  0            999 V2000
   76.9172   26.3904   26.8913 N   0  0  0  0  0  0
   77.9634   25.8447   27.6132 C   0  0  0  0  0  0
   77.8541   24.6732   28.1468 N   0  0  0  0  0  0
   75.6890   25.8339   26.6210 C   0  0  0  0  0  0
   75.5398   24.5740   27.3370 C   0  0  0  0  0  0
   76.6358   24.0667   28.0230 C   0  0  0  0  0  0
   76.2630   22.8821   28.5982 N   0  0  0  0  0  0
   74.9329   22.6283   28.3329 C   0  0  0  0  0  0
   74.4905   23.6592   27.5006 C   0  0  0  0  0  0
   74.8893   26.3912   25.8777 O   0  0  0  0  0  0
   79.1530   26.5914   27.7193 N   0  0  0  0  0  0
   74.2352   21.4094   28.9094 C   0  0  0  0  0  0
   73.0467   21.7482   29.8503 C   0  0  0  0  0  0
   71.6725   22.0408   29.1874 C   0  0  0  0  0  0
   70.8669   20.7931   28.8468 C   0  0  0  0  0  0
   69.6318   20.3541   29.3489 C   0  0  0  0  0  0
   69.2226   19.0768   28.8897 C   0  0  0  0  0  0
   70.0740   18.6322   27.8881 C   0  0  0  0  0  0
   71.4523   19.6359   27.6910 S   0  0  0  0  0  0
   68.0890   18.2825   29.3237 C   0  0  0  0  0  0
   67.7594   17.2704   28.6997 O   0  0  0  0  0  0
   67.4483   18.6669   30.4472 N   0  0  0  0  0  0
   66.2695   17.9547   30.9799 C   0  0  2  0  0  0
   65.2893   18.9245   31.6914 C   0  0  0  0  0  0
   66.7102   16.6992   31.7945 C   0  0  0  0  0  0
   65.7508   15.4889   31.6396 C   0  0  0  0  0  0
   66.2271   14.3921   30.6763 C   0  0  0  0  0  0
   66.7496   14.8537   29.5036 O   0  0  0  0  0  0
   66.0957   13.1925   30.9123 O   0  0  0  0  0  0
   64.3858   18.2374   32.4477 O   0  0  0  0  0  0
   65.3222   20.1325   31.5746 O   0  0  0  0  0  0
   77.0854   27.2725   26.4253 H   0  0  0  0  0  0
   76.8658   22.3067   29.1679 H   0  0  0  0  0  0
   73.4956   23.7634   27.0888 H   0  0  0  0  0  0
   79.8652   26.2937   28.3716 H   0  0  0  0  0  0
   79.1003   27.5985   27.6605 H   0  0  0  0  0  0
   74.9475   20.8013   29.4715 H   0  0  0  0  0  0
   73.9213   20.7591   28.0967 H   0  0  0  0  0  0
   73.3300   22.6047   30.4649 H   0  0  0  0  0  0
   72.9171   20.9299   30.5610 H   0  0  0  0  0  0
   71.8111   22.6626   28.3031 H   0  0  0  0  0  0
   71.0903   22.6638   29.8686 H   0  0  0  0  0  0
   69.0865   20.9220   30.0886 H   0  0  0  0  0  0
   69.9920   17.7241   27.3081 H   0  0  0  0  0  0
   67.6924   19.5279   30.9140 H   0  0  0  0  0  0
   65.7084   17.5909   30.1170 H   0  0  0  0  0  0
   66.8059   16.9588   32.8509 H   0  0  0  0  0  0
   67.7221   16.3931   31.5180 H   0  0  0  0  0  0
   64.7531   15.7969   31.3254 H   0  0  0  0  0  0
   65.6224   15.0139   32.6143 H   0  0  0  0  0  0
   66.8460   15.8114   29.4159 H   0  0  0  0  0  0
   64.5266   17.2911   32.4183 H   0  0  0  0  0  0
  1  2  1  0  0  0
  1  4  1  0  0  0
  1 32  1  0  0  0
  2  3  2  0  0  0
  2 11  1  0  0  0
  3  6  1  0  0  0
  4  5  1  0  0  0
  4 10  2  0  0  0
  5  6  2  0  0  0
  5  9  1  0  0  0
  6  7  1  0  0  0
  7  8  1  0  0  0
  7 33  1  0  0  0
  8  9  2  0  0  0
  8 12  1  0  0  0
  9 34  1  0  0  0
 11 35  1  0  0  0
 11 36  1  0  0  0
 12 13  1  0  0  0
 12 37  1  0  0  0
 12 38  1  0  0  0
 13 14  1  0  0  0
 13 39  1  0  0  0
 13 40  1  0  0  0
 14 15  1  0  0  0
 14 41  1  0  0  0
 14 42  1  0  0  0
 15 16  2  0  0  0
 15 19  1  0  0  0
 16 17  1  0  0  0
 16 43  1  0  0  0
 17 18  2  0  0  0
 17 20  1  0  0  0
 18 19  1  0  0  0
 18 44  1  0  0  0
 20 21  2  0  0  0
 20 22  1  0  0  0
 22 23  1  0  0  0
 22 45  1  0  0  0
 23 24  1  0  0  0
 23 25  1  0  0  0
 23 46  1  0  0  0
 24 30  1  0  0  0
 24 31  2  0  0  0
 25 26  1  0  0  0
 25 47  1  0  0  0
 25 48  1  0  0  0
 26 27  1  0  0  0
 26 49  1  0  0  0
 26 50  1  0  0  0
 27 28  1  0  0  0
 27 29  2  0  0  0
 28 51  1  0  0  0
 30 52  1  0  0  0
M  END
> <s_m_entry_id>
24944

> <s_m_entry_name>
dock_pv.97

> <s_m_Source_Path>
/home/csk/Desktop/cluster/DUD-E-result/pur2

> <s_m_Source_File>
dock_pv.maegz

> <i_m_Source_File_Index>
97

> <chembl_id>
CHEMBL3628346

> <chembl_pref_name>
None

> <i_lp_mmshare_version>
53161

> <r_lp_tautomer_probability>
1

> <s_lp_Force_Field>
OPLS_2005

> <r_lp_Energy>
7.062674

> <b_lp_Chiralities_Consistent>
1

> <s_lp_Variant>
CHEMBL3972_lig7-1

> <s_i_glide_gridfile>
glide-grid_1njs

> <i_i_glide_lignum>
8

> <i_i_glide_rotatable_bonds>
13

> <r_i_docking_score>
-9.08206086259927

> <r_i_glide_ligand_efficiency>
-0.292969705245138

> <r_i_glide_ligand_efficiency_sa>
-0.920329362740418

> <r_i_glide_ligand_efficiency_ln>
-2.0482830562552

> <r_i_glide_gscore>
-9.08206086259927

> <r_i_glide_lipo>
-2.02077749789398

> <r_i_glide_hbond>
-0.785248968228576

> <r_i_glide_metal>
0

> <r_i_glide_rewards>
-2.31021254375068

> <r_i_glide_evdw>
-50.7560920715332

> <r_i_glide_ecoul>
-16.7063446044922

> <r_i_glide_erotb>
1.10012410540408

> <r_i_glide_esite>
-0.0221896638796191

> <r_i_glide_emodel>
-98.7873676306028

> <r_i_glide_energy>
-67.4624366760254

> <r_i_glide_einternal>
7.2891731262207

> <i_i_glide_confnum>
278

> <i_i_glide_posenum>
90

> <r_i_glide_eff_state_penalty>
0

> <s_user_duplicate_titles>
CHEMBL3972_lig7

> <i_f3d_flags>
0

> <s_m_subgroup_title>
dock_pv

> <s_m_subgroupid>
dock_pv

> <b_m_subgroup_collapsed>
1

$$$$
CHEMBL3972_lig11
                    3D
 Schrodinger Suite 2021-1.
 58 60  0  0  1  0            999 V2000
   76.4430   23.7640   28.0470 C   0  0  0  0  0  0
   77.7199   24.2467   28.0909 N   0  0  0  0  0  0
   75.4088   24.4184   27.4698 C   0  0  0  0  0  0
   76.9515   26.1124   26.9959 N   0  0  0  0  0  0
   75.6914   25.6692   26.7956 C   0  0  0  0  0  0
   77.9450   25.4177   27.6130 C   0  0  0  0  0  0
   76.2679   22.5679   28.6793 N   0  0  0  0  0  0
   67.8984   17.2639   29.3397 C   0  0  0  0  0  0
   68.1685   15.9787   29.0526 N   0  0  0  0  0  0
   67.6891   13.6260   28.5558 C   0  0  0  0  0  0
   73.9706   23.9093   27.5501 C   0  0  0  0  0  0
   67.4404   14.7997   29.5271 C   0  0  1  0  0  0
   68.8481   18.2798   28.7380 C   0  0  0  0  0  0
   74.9053   26.3132   26.1021 O   0  0  0  0  0  0
   66.9865   17.5936   30.0964 O   0  0  0  0  0  0
   68.0818   12.5241   28.8849 O   0  0  0  0  0  0
   73.9252   22.3874   27.8313 C   0  0  1  0  0  0
   79.2137   26.0129   27.6900 N   0  0  0  0  0  0
   72.1542   20.6273   27.6915 N   0  0  0  0  0  0
   74.9827   21.8851   28.8605 C   0  0  0  0  0  0
   69.6894   17.9337   27.6721 C   0  0  0  0  0  0
   68.9629   19.5636   29.2936 C   0  0  0  0  0  0
   70.9631   19.9537   27.9894 C   0  0  0  0  0  0
   72.4809   21.9539   28.1964 C   0  0  0  0  0  0
   67.3502   13.9943   27.2872 O   0  0  0  0  0  0
   70.0278   20.3926   28.9328 C   0  0  0  0  0  0
   70.7525   18.7532   27.3206 C   0  0  0  0  0  0
   69.0738   12.4089   32.9607 N   0  0  0  0  0  0
   67.7240   14.4545   31.0185 C   0  0  0  0  0  0
   69.4807   13.7952   32.8170 C   0  0  0  0  0  0
   69.2196   14.3033   31.3893 C   0  0  0  0  0  0
   77.0810   22.1084   29.0592 H   0  0  0  0  0  0
   68.9677   15.7842   28.4697 H   0  0  0  0  0  0
   73.4176   24.1353   26.6347 H   0  0  0  0  0  0
   73.4484   24.4435   28.3469 H   0  0  0  0  0  0
   66.3741   15.0231   29.4515 H   0  0  0  0  0  0
   77.1592   26.9928   26.5498 H   0  0  0  0  0  0
   74.1757   21.9029   26.8901 H   0  0  0  0  0  0
   79.9420   25.6101   28.2594 H   0  0  0  0  0  0
   79.3310   26.9976   27.5094 H   0  0  0  0  0  0
   72.5659   20.3926   26.7875 H   0  0  0  0  0  0
   74.6249   22.0448   29.8788 H   0  0  0  0  0  0
   75.1112   20.8032   28.7657 H   0  0  0  0  0  0
   69.5928   16.9919   27.1528 H   0  0  0  0  0  0
   68.2996   19.8836   30.0858 H   0  0  0  0  0  0
   71.7496   22.6454   27.7731 H   0  0  0  0  0  0
   72.3188   22.0091   29.2738 H   0  0  0  0  0  0
   66.9922   14.8850   27.2334 H   0  0  0  0  0  0
   70.1518   21.3382   29.4382 H   0  0  0  0  0  0
   71.4358   18.4337   26.5463 H   0  0  0  0  0  0
   69.2330   12.1069   33.9120 H   0  0  0  0  0  0
   68.0779   12.3379   32.8082 H   0  0  0  0  0  0
   67.1801   13.5464   31.2830 H   0  0  0  0  0  0
   67.2867   15.2351   31.6441 H   0  0  0  0  0  0
   68.9564   14.4134   33.5464 H   0  0  0  0  0  0
   70.5449   13.8671   33.0476 H   0  0  0  0  0  0
   69.6885   15.2793   31.2972 H   0  0  0  0  0  0
   69.7353   13.6559   30.6781 H   0  0  0  0  0  0
  1  3  2  0  0  0
  1  7  1  0  0  0
  1  2  1  0  0  0
  2  6  2  0  0  0
  3 11  1  0  0  0
  3  5  1  0  0  0
  4  6  1  0  0  0
  4 37  1  0  0  0
  4  5  1  0  0  0
  5 14  2  0  0  0
  6 18  1  0  0  0
  7 20  1  0  0  0
  7 32  1  0  0  0
  8 13  1  0  0  0
  8  9  1  0  0  0
  8 15  2  0  0  0
  9 12  1  0  0  0
  9 33  1  0  0  0
 10 12  1  0  0  0
 10 16  2  0  0  0
 10 25  1  0  0  0
 11 17  1  0  0  0
 11 34  1  0  0  0
 11 35  1  0  0  0
 12 29  1  0  0  0
 12 36  1  0  0  0
 13 21  2  0  0  0
 13 22  1  0  0  0
 17 20  1  0  0  0
 17 24  1  0  0  0
 17 38  1  0  0  0
 18 39  1  0  0  0
 18 40  1  0  0  0
 19 24  1  0  0  0
 19 23  1  0  0  0
 19 41  1  0  0  0
 20 42  1  0  0  0
 20 43  1  0  0  0
 21 27  1  0  0  0
 21 44  1  0  0  0
 22 26  2  0  0  0
 22 45  1  0  0  0
 23 26  1  0  0  0
 23 27  2  0  0  0
 24 46  1  0  0  0
 24 47  1  0  0  0
 25 48  1  0  0  0
 26 49  1  0  0  0
 27 50  1  0  0  0
 28 30  1  0  0  0
 28 51  1  0  0  0
 28 52  1  0  0  0
 29 31  1  0  0  0
 29 53  1  0  0  0
 29 54  1  0  0  0
 30 31  1  0  0  0
 30 55  1  0  0  0
 30 56  1  0  0  0
 31 57  1  0  0  0
 31 58  1  0  0  0
M  END
> <s_m_entry_id>
24945

> <s_m_entry_name>
dock_pv.98

> <s_m_Source_Path>
/home/csk/Desktop/cluster/DUD-E-result/pur2

> <s_m_Source_File>
dock_pv.maegz

> <i_m_Source_File_Index>
98

> <chembl_id>
CHEMBL289923

> <chembl_pref_name>
None

> <i_lp_mmshare_version>
53161

> <r_lp_tautomer_probability>
0.982539515805485

> <s_lp_Force_Field>
OPLS_2005

> <r_lp_Energy>
25.487598

> <b_lp_Chiralities_Consistent>
1

> <s_lp_Variant>
CHEMBL3972_lig11-3

> <s_i_glide_gridfile>
glide-grid_1njs

> <i_i_glide_lignum>
14

> <i_i_glide_rotatable_bonds>
11

> <r_i_docking_score>
-9.08192756717173

> <r_i_glide_ligand_efficiency>
-0.292965405392636

> <r_i_glide_ligand_efficiency_sa>
-0.920315855266978

> <r_i_glide_ligand_efficiency_ln>
-2.04825299405127

> <r_i_glide_gscore>
-9.08192756717173

> <r_i_glide_lipo>
-2.13417594670377

> <r_i_glide_hbond>
-0.778019583148661

> <r_i_glide_metal>
0

> <r_i_glide_rewards>
-1.83628962422266

> <r_i_glide_evdw>
-47.9469718933105

> <r_i_glide_ecoul>
-19.1054859161377

> <r_i_glide_erotb>
0.969681542615222

> <r_i_glide_esite>
-0.0399524736256867

> <r_i_glide_emodel>
-90.8027377114877

> <r_i_glide_energy>
-67.0524578094482

> <r_i_glide_einternal>
12.6452207565308

> <i_i_glide_confnum>
10

> <i_i_glide_posenum>
94

> <r_i_glide_eff_state_penalty>
0

> <s_user_duplicate_titles>
CHEMBL3972_lig11

> <i_f3d_flags>
0

> <s_m_subgroup_title>
dock_pv

> <s_m_subgroupid>
dock_pv

> <b_m_subgroup_collapsed>
1

$$$$
CHEMBL3972_lig81
                    3D
 Schrodinger Suite 2021-1.
 63 65  0  0  1  0            999 V2000
   67.9353   18.2846   29.8920 C   0  0  0  0  0  0
   68.5783   18.0267   28.6704 C   0  0  0  0  0  0
   69.5103   18.9240   28.1365 C   0  0  0  0  0  0
   69.8224   20.0920   28.8393 C   0  0  0  0  0  0
   69.1292   20.3912   30.0044 C   0  0  0  0  0  0
   68.2191   19.4941   30.5420 C   0  0  0  0  0  0
   67.0183   17.1933   30.5132 C   0  0  1  0  0  0
   70.8906   21.0393   28.3748 C   0  0  0  0  0  0
   70.8239   21.5846   27.2906 O   0  0  0  0  0  0
   71.8462   21.3220   29.2653 N   0  0  0  0  0  0
   72.8952   22.3259   29.0902 C   0  0  1  0  0  0
   73.1700   22.8304   30.5136 C   0  0  0  0  0  0
   74.1257   21.7483   28.3307 C   0  0  0  0  0  0
   75.4421   22.5709   28.2927 C   0  0  0  0  0  0
   75.4146   23.9091   27.5729 C   0  0  0  0  0  0
   73.8316   22.2158   31.3248 O   0  0  0  0  0  0
   72.4869   23.9911   30.7424 O   0  0  0  0  0  0
   67.9303   16.0567   31.0905 C   0  0  0  0  0  0
   65.9029   17.7768   31.4631 C   0  0  0  0  0  0
   67.3419   14.6344   31.2903 C   0  0  0  0  0  0
   66.7300   13.9580   30.0423 C   0  0  0  0  0  0
   67.7479   13.4078   29.0311 C   0  0  0  0  0  0
   68.5130   12.2338   29.4196 C   0  0  0  0  0  0
   69.4129   11.8329   28.5007 N   0  0  0  0  0  0
   69.5917   12.3923   27.2789 C   0  0  0  0  0  0
   68.8710   13.3824   26.9060 N   0  0  0  0  0  0
   67.9668   13.9015   27.7881 C   0  0  0  0  0  0
   70.5770   11.8637   26.4353 N   0  0  0  0  0  0
   67.2886   14.9582   27.2895 N   0  0  0  0  0  0
   68.3732   11.5870   30.4516 O   0  0  0  0  0  0
   65.2590   16.9291   32.5794 C   0  0  0  0  0  0
   65.4697   18.9200   31.2913 O   0  0  0  0  0  0
   66.1878   16.5147   33.4408 F   0  0  0  0  0  0
   64.3684   17.6544   33.2603 F   0  0  0  0  0  0
   64.6158   15.8929   32.0381 F   0  0  0  0  0  0
   74.4899   24.2739   26.6996 N   0  0  0  0  0  0
   76.3843   24.7829   27.7384 N   0  0  0  0  0  0
   76.0238   25.7505   26.8914 N   0  0  3  0  0  0
   74.8891   25.5111   26.2355 N   0  0  0  0  0  0
   68.3856   17.1093   28.1369 H   0  0  0  0  0  0
   70.0123   18.6921   27.2059 H   0  0  0  0  0  0
   69.3235   21.3331   30.4907 H   0  0  0  0  0  0
   67.7638   19.7417   31.4870 H   0  0  0  0  0  0
   66.4676   16.7800   29.6698 H   0  0  0  0  0  0
   71.8643   20.8164   30.1400 H   0  0  0  0  0  0
   72.5088   23.1570   28.4924 H   0  0  0  0  0  0
   74.3751   20.7912   28.7818 H   0  0  0  0  0  0
   73.8296   21.5139   27.3040 H   0  0  0  0  0  0
   75.8132   22.7038   29.3066 H   0  0  0  0  0  0
   76.1984   21.9512   27.8093 H   0  0  0  0  0  0
   71.9678   24.3046   29.9904 H   0  0  0  0  0  0
   68.3741   16.3976   32.0277 H   0  0  0  0  0  0
   68.7840   15.9202   30.4227 H   0  0  0  0  0  0
   66.6024   14.6213   32.0827 H   0  0  0  0  0  0
   68.1328   13.9978   31.6904 H   0  0  0  0  0  0
   66.0187   14.6330   29.5670 H   0  0  0  0  0  0
   66.1125   13.1254   30.3847 H   0  0  0  0  0  0
   70.8481   12.4355   25.6495 H   0  0  0  0  0  0
   71.3857   11.4463   26.8668 H   0  0  0  0  0  0
   66.5221   15.3685   27.7947 H   0  0  0  0  0  0
   67.4382   15.2503   26.3383 H   0  0  0  0  0  0
   69.9701   11.0538   28.7917 H   0  0  0  0  0  0
   76.5723   26.5890   26.7480 H   0  0  0  0  0  0
  1  6  1  0  0  0
  1  2  2  0  0  0
  1  7  1  0  0  0
  2  3  1  0  0  0
  2 40  1  0  0  0
  3  4  2  0  0  0
  3 41  1  0  0  0
  4  5  1  0  0  0
  4  8  1  0  0  0
  5  6  2  0  0  0
  5 42  1  0  0  0
  6 43  1  0  0  0
  7 18  1  0  0  0
  7 19  1  0  0  0
  7 44  1  0  0  0
  8 10  1  0  0  0
  8  9  2  0  0  0
 10 11  1  0  0  0
 10 45  1  0  0  0
 11 12  1  0  0  0
 11 13  1  0  0  0
 11 46  1  0  0  0
 12 16  2  0  0  0
 12 17  1  0  0  0
 13 14  1  0  0  0
 13 47  1  0  0  0
 13 48  1  0  0  0
 14 49  1  0  0  0
 14 50  1  0  0  0
 14 15  1  0  0  0
 15 37  2  0  0  0
 15 36  1  0  0  0
 17 51  1  0  0  0
 18 20  1  0  0  0
 18 52  1  0  0  0
 18 53  1  0  0  0
 19 31  1  0  0  0
 19 32  2  0  0  0
 20 21  1  0  0  0
 20 54  1  0  0  0
 20 55  1  0  0  0
 21 56  1  0  0  0
 21 57  1  0  0  0
 21 22  1  0  0  0
 22 27  2  0  0  0
 22 23  1  0  0  0
 23 24  1  0  0  0
 23 30  2  0  0  0
 24 25  1  0  0  0
 24 62  1  0  0  0
 25 26  2  0  0  0
 25 28  1  0  0  0
 26 27  1  0  0  0
 27 29  1  0  0  0
 28 58  1  0  0  0
 28 59  1  0  0  0
 29 60  1  0  0  0
 29 61  1  0  0  0
 31 33  1  0  0  0
 31 34  1  0  0  0
 31 35  1  0  0  0
 36 39  2  0  0  0
 37 38  1  0  0  0
 38 63  1  0  0  0
 38 39  1  0  0  0
M  END
> <s_m_entry_id>
24948

> <s_m_entry_name>
dock_pv.101

> <s_m_Source_Path>
/home/csk/Desktop/cluster/DUD-E-result/pur2

> <s_m_Source_File>
dock_pv.maegz

> <i_m_Source_File_Index>
101

> <chembl_id>
CHEMBL424683

> <chembl_pref_name>
None

> <i_lp_mmshare_version>
53161

> <r_lp_tautomer_probability>
0.196506768086106

> <s_lp_Force_Field>
OPLS_2005

> <r_lp_Energy>
19.370996

> <b_lp_Chiralities_Consistent>
1

> <s_lp_Variant>
CHEMBL3972_lig81-8

> <s_i_glide_gridfile>
glide-grid_1njs

> <i_i_glide_lignum>
200

> <i_i_glide_rotatable_bonds>
15

> <r_i_docking_score>
-8.96530154864769

> <r_i_glide_ligand_efficiency>
-0.229879526888402

> <r_i_glide_ligand_efficiency_sa>
-0.779570081146632

> <r_i_glide_ligand_efficiency_ln>
-1.9224151472487

> <r_i_glide_gscore>
-8.96530154864769

> <r_i_glide_lipo>
-1.97660494562393

> <r_i_glide_hbond>
-0.602767185818047

> <r_i_glide_metal>
0

> <r_i_glide_rewards>
-1.17361671436535

> <r_i_glide_evdw>
-59.1649284362793

> <r_i_glide_ecoul>
-19.4295902252197

> <r_i_glide_erotb>
0.748102543305564

> <r_i_glide_esite>
-0.0877302905489996

> <r_i_glide_emodel>
-109.683230621134

> <r_i_glide_energy>
-78.594518661499

> <r_i_glide_einternal>
14.990270614624

> <i_i_glide_confnum>
55

> <i_i_glide_posenum>
127

> <r_i_glide_eff_state_penalty>
0

> <s_user_duplicate_titles>
CHEMBL3972_lig81,CHEMBL3972_lig81

> <i_f3d_flags>
0

> <s_m_subgroup_title>
dock_pv

> <s_m_subgroupid>
dock_pv

> <b_m_subgroup_collapsed>
1

$$$$
CHEMBL3972_lig22
                    3D
 Schrodinger Suite 2021-1.
 57 59  0  0  1  0            999 V2000
   75.9278   22.6597   28.7816 C   0  0  0  0  0  0
   77.2075   22.9116   28.4239 N   0  0  0  0  0  0
   74.8385   23.4045   28.2894 C   0  0  0  0  0  0
   76.4248   24.7483   27.0860 N   0  0  0  0  0  0
   75.1417   24.4550   27.4039 C   0  0  0  0  0  0
   77.3890   23.9693   27.6097 C   0  0  0  0  0  0
   75.7532   21.5910   29.6789 N   0  0  0  0  0  0
   68.5863   16.9381   28.1861 C   0  0  0  0  0  0
   67.7267   16.4120   29.0862 N   0  0  0  0  0  0
   66.4891   14.8173   27.6201 C   0  0  0  0  0  0
   67.0018   15.1345   29.0369 C   0  0  1  0  0  0
   73.4251   23.1234   28.7574 C   0  0  0  0  0  0
   69.0748   18.3327   28.4911 C   0  0  0  0  0  0
   74.0892   25.1781   26.9035 O   0  0  0  0  0  0
   69.7456   12.3082   29.6933 C   0  0  0  0  0  0
   68.9876   16.3407   27.1862 O   0  0  0  0  0  0
   66.9870   13.9911   26.8910 O   0  0  0  0  0  0
   78.6876   24.3066   27.2909 N   0  0  0  0  0  0
   69.1644   11.5765   30.4904 O   0  0  0  0  0  0
   67.7896   13.9749   29.7162 C   0  0  0  0  0  0
   70.1896   18.8500   27.8166 C   0  0  0  0  0  0
   68.4228   19.1362   29.4379 C   0  0  0  0  0  0
   74.5265   21.5491   30.4730 C   0  0  0  0  0  0
   69.2073   13.6505   29.1847 C   0  0  0  0  0  0
   65.4594   15.6447   27.2910 O   0  0  0  0  0  0
   73.2886   21.8382   29.6064 C   0  0  1  0  0  0
   70.0941   20.8416   29.1733 C   0  0  0  0  0  0
   70.9542   11.9910   29.1534 O   0  0  0  0  0  0
   70.6962   20.1012   28.1529 C   0  0  0  0  0  0
   68.9179   20.3877   29.7591 C   0  0  0  0  0  0
   70.7137   22.1318   29.6913 C   0  0  0  0  0  0
   72.0165   21.9030   30.4835 C   0  0  0  0  0  0
   76.5830   21.2089   30.1121 H   0  0  0  0  0  0
   67.4974   16.9874   29.8802 H   0  0  0  0  0  0
   66.1059   15.2847   29.6425 H   0  0  0  0  0  0
   72.7820   23.0501   27.8804 H   0  0  0  0  0  0
   73.0807   23.9902   29.3252 H   0  0  0  0  0  0
   73.2133   24.8698   27.1843 H   0  0  0  0  0  0
   78.7878   25.0453   26.6116 H   0  0  0  0  0  0
   79.3587   23.5566   27.3304 H   0  0  0  0  0  0
   67.1735   13.0757   29.6758 H   0  0  0  0  0  0
   67.8765   14.1999   30.7806 H   0  0  0  0  0  0
   70.6867   18.2822   27.0425 H   0  0  0  0  0  0
   67.5247   18.8131   29.9435 H   0  0  0  0  0  0
   74.5632   22.2091   31.3398 H   0  0  0  0  0  0
   74.4381   20.5501   30.8905 H   0  0  0  0  0  0
   69.8982   14.4405   29.4781 H   0  0  0  0  0  0
   69.2130   13.6200   28.0959 H   0  0  0  0  0  0
   65.2889   15.5913   26.3250 H   0  0  0  0  0  0
   73.2005   20.9819   28.9376 H   0  0  0  0  0  0
   71.2930   11.1740   29.5172 H   0  0  0  0  0  0
   71.5659   20.4692   27.6312 H   0  0  0  0  0  0
   68.3987   20.9837   30.4910 H   0  0  0  0  0  0
   70.8888   22.8252   28.8734 H   0  0  0  0  0  0
   69.9951   22.6419   30.3353 H   0  0  0  0  0  0
   72.1299   22.7237   31.1953 H   0  0  0  0  0  0
   71.9257   21.0037   31.0959 H   0  0  0  0  0  0
  1  2  2  0  0  0
  1  3  1  0  0  0
  1  7  1  0  0  0
  2  6  1  0  0  0
  3  5  2  0  0  0
  3 12  1  0  0  0
  4  5  1  0  0  0
  4  6  2  0  0  0
  5 14  1  0  0  0
  6 18  1  0  0  0
  7 23  1  0  0  0
  7 33  1  0  0  0
  8 13  1  0  0  0
  8  9  1  0  0  0
  8 16  2  0  0  0
  9 11  1  0  0  0
  9 34  1  0  0  0
 10 11  1  0  0  0
 10 17  2  0  0  0
 10 25  1  0  0  0
 11 20  1  0  0  0
 11 35  1  0  0  0
 12 26  1  0  0  0
 12 36  1  0  0  0
 12 37  1  0  0  0
 13 22  1  0  0  0
 13 21  2  0  0  0
 14 38  1  0  0  0
 15 24  1  0  0  0
 15 19  2  0  0  0
 15 28  1  0  0  0
 18 39  1  0  0  0
 18 40  1  0  0  0
 20 24  1  0  0  0
 20 41  1  0  0  0
 20 42  1  0  0  0
 21 29  1  0  0  0
 21 43  1  0  0  0
 22 30  2  0  0  0
 22 44  1  0  0  0
 23 26  1  0  0  0
 23 45  1  0  0  0
 23 46  1  0  0  0
 24 47  1  0  0  0
 24 48  1  0  0  0
 25 49  1  0  0  0
 26 32  1  0  0  0
 26 50  1  0  0  0
 27 31  1  0  0  0
 27 29  2  0  0  0
 27 30  1  0  0  0
 28 51  1  0  0  0
 29 52  1  0  0  0
 30 53  1  0  0  0
 31 32  1  0  0  0
 31 54  1  0  0  0
 31 55  1  0  0  0
 32 56  1  0  0  0
 32 57  1  0  0  0
M  END
> <s_m_entry_id>
24949

> <s_m_entry_name>
dock_pv.102

> <s_m_Source_Path>
/home/csk/Desktop/cluster/DUD-E-result/pur2

> <s_m_Source_File>
dock_pv.maegz

> <i_m_Source_File_Index>
102

> <chembl_id>
CHEMBL170101

> <chembl_pref_name>
None

> <i_lp_mmshare_version>
53161

> <r_lp_tautomer_probability>
0.0160306447209791

> <s_lp_Force_Field>
OPLS_2005

> <r_lp_Energy>
7.700646

> <b_lp_Chiralities_Consistent>
1

> <s_lp_Variant>
CHEMBL3972_lig22-7

> <s_i_glide_gridfile>
glide-grid_1njs

> <i_i_glide_lignum>
66

> <i_i_glide_rotatable_bonds>
13

> <r_i_docking_score>
-8.9634788767789

> <r_i_glide_ligand_efficiency>
-0.280108714899341

> <r_i_glide_ligand_efficiency_sa>
-0.889289736366

> <r_i_glide_ligand_efficiency_ln>
-2.00716725571689

> <r_i_glide_gscore>
-8.9634788767789

> <r_i_glide_lipo>
-2.27307078865764

> <r_i_glide_hbond>
-0.486807624062109

> <r_i_glide_metal>
0

> <r_i_glide_rewards>
-1.1256231182441

> <r_i_glide_evdw>
-48.9470024108887

> <r_i_glide_ecoul>
-23.5886039733887

> <r_i_glide_erotb>
1.01661454436344

> <r_i_glide_esite>
-0.108951173625745

> <r_i_glide_emodel>
-108.006014122307

> <r_i_glide_energy>
-72.5356063842773

> <r_i_glide_einternal>
6.74638700485229

> <i_i_glide_confnum>
166

> <i_i_glide_posenum>
157

> <r_i_glide_eff_state_penalty>
0

> <s_user_duplicate_titles>
CHEMBL3972_lig22,CHEMBL3972_lig22

> <i_f3d_flags>
0

> <s_m_subgroup_title>
dock_pv

> <s_m_subgroupid>
dock_pv

> <b_m_subgroup_collapsed>
1

$$$$
CHEMBL3972_lig30
                    3D
 Schrodinger Suite 2021-1.
 52 53  0  0  1  0            999 V2000
   78.1635   23.9875   27.8587 N   0  0  0  0  0  0
   77.0392   23.2639   28.1229 C   0  0  0  0  0  0
   76.7901   25.7402   27.3134 N   0  0  0  0  0  0
   75.7853   23.7645   28.0895 C   0  0  0  0  0  0
   75.6247   25.0892   27.5183 C   0  0  0  0  0  0
   78.0273   25.2122   27.5025 C   0  0  0  0  0  0
   69.1369   18.5311   28.4496 C   0  0  0  0  0  0
   70.6588   19.0562   27.7948 S   0  0  0  0  0  0
   68.5365   17.3179   27.9533 C   0  0  0  0  0  0
   70.6105   20.5290   28.7281 C   0  0  0  0  0  0
   67.6009   16.7883   28.7588 N   0  0  0  0  0  0
   68.6196   19.4875   29.3308 C   0  0  0  0  0  0
   65.7427   15.3871   29.5824 C   0  0  0  0  0  0
   69.4494   20.6074   29.4831 C   0  0  0  0  0  0
   66.7763   15.6111   28.4576 C   0  0  2  0  0  0
   74.5584   25.5910   27.1897 O   0  0  0  0  0  0
   69.1642   12.4480   28.8995 C   0  0  0  0  0  0
   68.8908   16.8068   26.8902 O   0  0  0  0  0  0
   77.2890   21.9935   28.4910 N   0  0  0  0  0  0
   65.6961   14.3973   30.2848 O   0  0  0  0  0  0
   79.1388   26.0377   27.2912 N   0  0  0  0  0  0
   68.5973   11.6272   28.1764 O   0  0  0  0  0  0
   67.6101   14.3416   28.1175 C   0  0  0  0  0  0
   71.6219   21.4566   28.6545 N   0  0  0  0  0  0
   68.6638   13.8766   29.1530 C   0  0  0  0  0  0
   74.5369   23.0482   28.6249 C   0  0  0  0  0  0
   64.8890   16.4466   29.6433 O   0  0  0  0  0  0
   70.2986   12.1674   29.6037 O   0  0  0  0  0  0
   72.8102   21.2934   27.8329 C   0  0  0  0  0  0
   73.5851   22.5806   27.5253 C   0  0  0  0  0  0
   66.2014   15.8526   27.5589 H   0  0  0  0  0  0
   67.4227   17.2296   29.6479 H   0  0  0  0  0  0
   67.6651   19.3988   29.8293 H   0  0  0  0  0  0
   69.2050   21.4520   30.1098 H   0  0  0  0  0  0
   76.6980   26.6635   26.9266 H   0  0  0  0  0  0
   76.5268   21.3832   28.7308 H   0  0  0  0  0  0
   78.2249   21.7196   28.7536 H   0  0  0  0  0  0
   80.0581   25.7366   27.5739 H   0  0  0  0  0  0
   79.0379   27.0360   27.1845 H   0  0  0  0  0  0
   68.1042   14.4726   27.1550 H   0  0  0  0  0  0
   66.8924   13.5543   27.9258 H   0  0  0  0  0  0
   71.6379   22.2768   29.2440 H   0  0  0  0  0  0
   68.2495   13.9044   30.1605 H   0  0  0  0  0  0
   69.5061   14.5690   29.1425 H   0  0  0  0  0  0
   74.0031   23.7054   29.3152 H   0  0  0  0  0  0
   74.8357   22.1963   29.2372 H   0  0  0  0  0  0
   65.0549   17.0896   28.9510 H   0  0  0  0  0  0
   70.6102   12.9125   30.1225 H   0  0  0  0  0  0
   73.4699   20.5611   28.3012 H   0  0  0  0  0  0
   72.4877   20.8569   26.8925 H   0  0  0  0  0  0
   74.1693   22.3986   26.6231 H   0  0  0  0  0  0
   72.8982   23.3892   27.2806 H   0  0  0  0  0  0
  1  2  1  0  0  0
  1  6  2  0  0  0
  2  4  2  0  0  0
  2 19  1  0  0  0
  3  6  1  0  0  0
  3 35  1  0  0  0
  3  5  1  0  0  0
  4 26  1  0  0  0
  4  5  1  0  0  0
  5 16  2  0  0  0
  6 21  1  0  0  0
  7  8  1  0  0  0
  7  9  1  0  0  0
  7 12  2  0  0  0
  8 10  1  0  0  0
  9 11  1  0  0  0
  9 18  2  0  0  0
 10 24  1  0  0  0
 10 14  2  0  0  0
 11 15  1  0  0  0
 11 32  1  0  0  0
 12 14  1  0  0  0
 12 33  1  0  0  0
 13 15  1  0  0  0
 13 20  2  0  0  0
 13 27  1  0  0  0
 14 34  1  0  0  0
 15 23  1  0  0  0
 15 31  1  0  0  0
 17 25  1  0  0  0
 17 22  2  0  0  0
 17 28  1  0  0  0
 19 36  1  0  0  0
 19 37  1  0  0  0
 21 38  1  0  0  0
 21 39  1  0  0  0
 23 25  1  0  0  0
 23 40  1  0  0  0
 23 41  1  0  0  0
 24 29  1  0  0  0
 24 42  1  0  0  0
 25 43  1  0  0  0
 25 44  1  0  0  0
 26 30  1  0  0  0
 26 45  1  0  0  0
 26 46  1  0  0  0
 27 47  1  0  0  0
 28 48  1  0  0  0
 29 30  1  0  0  0
 29 49  1  0  0  0
 29 50  1  0  0  0
 30 51  1  0  0  0
 30 52  1  0  0  0
M  END
> <s_m_entry_id>
24950

> <s_m_entry_name>
dock_pv.103

> <s_m_Source_Path>
/home/csk/Desktop/cluster/DUD-E-result/pur2

> <s_m_Source_File>
dock_pv.maegz

> <i_m_Source_File_Index>
103

> <chembl_id>
CHEMBL422406

> <chembl_pref_name>
None

> <i_lp_mmshare_version>
53161

> <r_lp_tautomer_probability>
0.982528302960407

> <s_lp_Force_Field>
OPLS_2005

> <r_lp_Energy>
10.836501

> <b_lp_Chiralities_Consistent>
1

> <s_lp_Variant>
CHEMBL3972_lig30-2

> <s_i_glide_gridfile>
glide-grid_1njs

> <i_i_glide_lignum>
98

> <i_i_glide_rotatable_bonds>
14

> <r_i_docking_score>
-8.96034905332639

> <r_i_glide_ligand_efficiency>
-0.298678301777546

> <r_i_glide_ligand_efficiency_sa>
-0.928062927054113

> <r_i_glide_ligand_efficiency_ln>
-2.03588893573831

> <r_i_glide_gscore>
-8.96034905332639

> <r_i_glide_lipo>
-2.04229769834748

> <r_i_glide_hbond>
-0.608396942201797

> <r_i_glide_metal>
0

> <r_i_glide_rewards>
-2.01652708508713

> <r_i_glide_evdw>
-52.9662094116211

> <r_i_glide_ecoul>
-16.6859931945801

> <r_i_glide_erotb>
0.871692717309128

> <r_i_glide_esite>
-0.0136105952310412

> <r_i_glide_emodel>
-101.014605302157

> <r_i_glide_energy>
-69.6522026062012

> <r_i_glide_einternal>
7.02081537246704

> <i_i_glide_confnum>
240

> <i_i_glide_posenum>
358

> <r_i_glide_eff_state_penalty>
0

> <s_user_duplicate_titles>
CHEMBL3972_lig30

> <i_f3d_flags>
0

> <s_m_subgroup_title>
dock_pv

> <s_m_subgroupid>
dock_pv

> <b_m_subgroup_collapsed>
1

$$$$
CHEMBL3972_lig91
                    3D
 Schrodinger Suite 2021-1.
 57 58  0  0  1  0            999 V2000
   72.5548   21.6857   29.6848 C   0  0  0  0  0  0
   71.4616   22.3713   30.2150 C   0  0  0  0  0  0
   70.1861   21.8413   30.0906 C   0  0  0  0  0  0
   69.9786   20.6177   29.4409 C   0  0  0  0  0  0
   71.0605   20.0164   28.7752 C   0  0  0  0  0  0
   72.3434   20.5409   28.9101 C   0  0  0  0  0  0
   73.9586   22.2066   29.9743 C   0  0  2  0  0  0
   74.4839   23.1628   28.8907 C   0  0  0  0  0  0
   74.8441   22.5398   27.5231 C   0  0  0  0  0  0
   75.2868   23.6113   26.5026 C   0  0  0  0  0  0
   76.3742   24.5823   26.9779 C   0  0  0  0  0  0
   77.6252   24.0499   27.5183 C   0  0  0  0  0  0
   78.5416   24.9993   27.7983 N   0  0  0  0  0  0
   78.3479   26.3344   27.7073 C   0  0  0  0  0  0
   77.2346   26.7909   27.2906 N   0  0  0  0  0  0
   76.2797   25.9258   26.8638 C   0  0  0  0  0  0
   77.9265   22.8759   27.6910 O   0  0  0  0  0  0
   79.3822   27.1910   28.0959 N   0  0  0  0  0  0
   75.3315   26.5261   26.0916 N   0  0  0  0  0  0
   68.6395   19.9269   29.5963 C   0  0  0  0  0  0
   67.6853   20.5169   30.0982 O   0  0  0  0  0  0
   68.5920   18.6164   29.2908 N   0  0  0  0  0  0
   67.5294   17.6789   29.6722 C   0  0  2  0  0  0
   68.0489   16.7836   30.8191 C   0  0  0  0  0  0
   68.0936   17.4978   31.9837 O   0  0  0  0  0  0
   68.3500   15.6153   30.6920 O   0  0  0  0  0  0
   66.9952   16.8990   28.4362 C   0  0  0  0  0  0
   68.0304   16.1113   27.5948 C   0  0  0  0  0  0
   67.6915   14.6256   27.5017 C   0  0  0  0  0  0
   66.4949   14.3913   26.8911 O   0  0  0  0  0  0
   68.4244   13.7287   27.9128 O   0  0  0  0  0  0
   74.8943   21.1926   30.3071 O   0  0  0  0  0  0
   71.5983   23.2980   30.7532 H   0  0  0  0  0  0
   69.3545   22.3853   30.5117 H   0  0  0  0  0  0
   70.9461   19.0981   28.2194 H   0  0  0  0  0  0
   73.1767   20.0268   28.4517 H   0  0  0  0  0  0
   73.8888   22.7911   30.8930 H   0  0  0  0  0  0
   73.7475   23.9543   28.7368 H   0  0  0  0  0  0
   75.3625   23.6663   29.2908 H   0  0  0  0  0  0
   75.6218   21.7858   27.6470 H   0  0  0  0  0  0
   73.9842   22.0055   27.1189 H   0  0  0  0  0  0
   75.6204   23.1910   25.5605 H   0  0  0  0  0  0
   74.3859   24.1636   26.2321 H   0  0  0  0  0  0
   79.4414   24.6624   28.0697 H   0  0  0  0  0  0
   79.2496   28.1949   28.0998 H   0  0  0  0  0  0
   80.2550   26.8628   28.4895 H   0  0  0  0  0  0
   74.7166   25.9525   25.5426 H   0  0  0  0  0  0
   75.5279   27.4782   25.8174 H   0  0  0  0  0  0
   69.3948   18.2021   28.8476 H   0  0  0  0  0  0
   66.6820   18.2197   30.0934 H   0  0  0  0  0  0
   67.8058   18.4091   31.8866 H   0  0  0  0  0  0
   66.4916   17.5910   27.7611 H   0  0  0  0  0  0
   66.1893   16.2453   28.7764 H   0  0  0  0  0  0
   69.0303   16.2030   28.0171 H   0  0  0  0  0  0
   68.0874   16.5225   26.5854 H   0  0  0  0  0  0
   66.0579   15.1682   26.5158 H   0  0  0  0  0  0
   74.8891   20.5122   29.6249 H   0  0  0  0  0  0
  1  6  1  0  0  0
  1  7  1  0  0  0
  1  2  2  0  0  0
  2  3  1  0  0  0
  2 33  1  0  0  0
  3  4  2  0  0  0
  3 34  1  0  0  0
  4 20  1  0  0  0
  4  5  1  0  0  0
  5  6  2  0  0  0
  5 35  1  0  0  0
  6 36  1  0  0  0
  7  8  1  0  0  0
  7 32  1  0  0  0
  7 37  1  0  0  0
  8  9  1  0  0  0
  8 38  1  0  0  0
  8 39  1  0  0  0
  9 10  1  0  0  0
  9 40  1  0  0  0
  9 41  1  0  0  0
 10 11  1  0  0  0
 10 42  1  0  0  0
 10 43  1  0  0  0
 11 12  1  0  0  0
 11 16  2  0  0  0
 12 17  2  0  0  0
 12 13  1  0  0  0
 13 14  1  0  0  0
 13 44  1  0  0  0
 14 15  2  0  0  0
 14 18  1  0  0  0
 15 16  1  0  0  0
 16 19  1  0  0  0
 18 45  1  0  0  0
 18 46  1  0  0  0
 19 47  1  0  0  0
 19 48  1  0  0  0
 20 21  2  0  0  0
 20 22  1  0  0  0
 22 23  1  0  0  0
 22 49  1  0  0  0
 23 24  1  0  0  0
 23 27  1  0  0  0
 23 50  1  0  0  0
 24 25  1  0  0  0
 24 26  2  0  0  0
 25 51  1  0  0  0
 27 28  1  0  0  0
 27 52  1  0  0  0
 27 53  1  0  0  0
 28 29  1  0  0  0
 28 54  1  0  0  0
 28 55  1  0  0  0
 29 30  1  0  0  0
 29 31  2  0  0  0
 30 56  1  0  0  0
 32 57  1  0  0  0
M  END
> <s_m_entry_id>
24951

> <s_m_entry_name>
dock_pv.104

> <s_m_Source_Path>
/home/csk/Desktop/cluster/DUD-E-result/pur2

> <s_m_Source_File>
dock_pv.maegz

> <i_m_Source_File_Index>
104

> <chembl_id>
CHEMBL453348

> <chembl_pref_name>
None

> <i_lp_mmshare_version>
53161

> <r_lp_tautomer_probability>
0.982528302960407

> <s_lp_Force_Field>
OPLS_2005

> <r_lp_Energy>
18.582438

> <b_lp_Chiralities_Consistent>
1

> <s_lp_Variant>
CHEMBL3972_lig91-1

> <s_i_glide_gridfile>
glide-grid_1njs

> <i_i_glide_lignum>
234

> <i_i_glide_rotatable_bonds>
15

> <r_i_docking_score>
-8.91150216402114

> <r_i_glide_ligand_efficiency>
-0.278484442625661

> <r_i_glide_ligand_efficiency_sa>
-0.884132993340112

> <r_i_glide_ligand_efficiency_ln>
-1.99552825289875

> <r_i_glide_gscore>
-8.91150216402114

> <r_i_glide_lipo>
-2.70251617266393

> <r_i_glide_hbond>
-0.787288462951476

> <r_i_glide_metal>
0

> <r_i_glide_rewards>
-2.08148830758362

> <r_i_glide_evdw>
-52.3188629150391

> <r_i_glide_ecoul>
-12.4709596633911

> <r_i_glide_erotb>
1.20025306043797

> <r_i_glide_esite>
-0.0538751859994685

> <r_i_glide_emodel>
-89.3878366157835

> <r_i_glide_energy>
-64.7898225784302

> <r_i_glide_einternal>
15.532787322998

> <i_i_glide_confnum>
151

> <i_i_glide_posenum>
94

> <r_i_glide_eff_state_penalty>
0

> <s_user_duplicate_titles>
CHEMBL3972_lig91,CHEMBL3972_lig91

> <i_f3d_flags>
0

> <s_m_subgroup_title>
dock_pv

> <s_m_subgroupid>
dock_pv

> <b_m_subgroup_collapsed>
1

$$$$
CHEMBL3972_lig22
                    3D
 Schrodinger Suite 2021-1.
 57 59  0  0  1  0            999 V2000
   68.6737   14.4235   29.9873 C   0  0  0  0  0  0
   69.1595   13.1722   29.8180 N   0  0  0  0  0  0
   67.9324   15.1101   29.0035 C   0  0  0  0  0  0
   68.2001   13.1470   27.6191 N   0  0  0  0  0  0
   67.6856   14.3887   27.8214 C   0  0  0  0  0  0
   68.9206   12.6095   28.6208 C   0  0  0  0  0  0
   69.0269   15.0341   31.1990 N   0  0  0  0  0  0
   73.6190   22.1143   29.0562 C   0  0  0  0  0  0
   74.2567   22.0522   27.8750 N   0  0  0  0  0  0
   76.8016   21.9907   28.2367 C   0  0  0  0  0  0
   75.5665   22.6391   27.5541 C   0  0  2  0  0  0
   67.4637   16.5508   29.2529 C   0  0  0  0  0  0
   72.2462   21.5077   29.0960 C   0  0  0  0  0  0
   66.8895   14.9857   26.8911 O   0  0  0  0  0  0
   76.4986   26.3800   26.8910 C   0  0  0  0  0  0
   74.0890   22.6512   30.0584 O   0  0  0  0  0  0
   77.9320   22.4072   28.0911 O   0  0  0  0  0  0
   69.5147   11.3862   28.3754 N   0  0  0  0  0  0
   75.6622   26.7848   26.0802 O   0  0  0  0  0  0
   75.5123   24.1850   27.7067 C   0  0  0  0  0  0
   71.9369   20.3360   28.3898 C   0  0  0  0  0  0
   71.2635   22.1324   29.8657 C   0  0  0  0  0  0
   68.5790   16.3939   31.4997 C   0  0  0  0  0  0
   76.7571   24.9065   27.1577 C   0  0  0  0  0  0
   76.4886   20.8361   28.8917 O   0  0  0  0  0  0
   68.4466   17.2498   30.2154 C   0  0  2  0  0  0
   69.7025   20.3810   29.3073 C   0  0  0  0  0  0
   77.2966   27.1909   27.6438 O   0  0  0  0  0  0
   70.6641   19.7780   28.4911 C   0  0  0  0  0  0
   69.9959   21.5790   29.9532 C   0  0  0  0  0  0
   68.3156   19.7662   29.4554 C   0  0  0  0  0  0
   68.0940   18.7181   30.5716 C   0  0  0  0  0  0
   69.3377   14.4712   31.9773 H   0  0  0  0  0  0
   73.7712   21.6212   27.0983 H   0  0  0  0  0  0
   75.6878   22.4304   26.4914 H   0  0  0  0  0  0
   66.4617   16.5430   29.6854 H   0  0  0  0  0  0
   67.3927   17.1106   28.3188 H   0  0  0  0  0  0
   66.5622   15.8581   27.1185 H   0  0  0  0  0  0
   69.6228   11.1690   27.3986 H   0  0  0  0  0  0
   70.2441   11.1587   29.0316 H   0  0  0  0  0  0
   75.3831   24.4598   28.7544 H   0  0  0  0  0  0
   74.6202   24.5576   27.1980 H   0  0  0  0  0  0
   72.6774   19.8394   27.7782 H   0  0  0  0  0  0
   71.4653   23.0632   30.3799 H   0  0  0  0  0  0
   69.2892   16.8427   32.1944 H   0  0  0  0  0  0
   67.6349   16.3717   32.0462 H   0  0  0  0  0  0
   77.0634   24.4143   26.2339 H   0  0  0  0  0  0
   77.5958   24.8139   27.8465 H   0  0  0  0  0  0
   75.5481   20.6389   28.8903 H   0  0  0  0  0  0
   69.4013   17.2636   29.6912 H   0  0  0  0  0  0
   77.9305   26.7251   28.1895 H   0  0  0  0  0  0
   70.4350   18.8689   27.9546 H   0  0  0  0  0  0
   69.2253   22.1059   30.4910 H   0  0  0  0  0  0
   67.6147   20.5772   29.6572 H   0  0  0  0  0  0
   68.0887   19.3312   28.4911 H   0  0  0  0  0  0
   68.6408   19.0401   31.4605 H   0  0  0  0  0  0
   67.0455   18.7441   30.8741 H   0  0  0  0  0  0
  1  2  2  0  0  0
  1  3  1  0  0  0
  1  7  1  0  0  0
  2  6  1  0  0  0
  3  5  2  0  0  0
  3 12  1  0  0  0
  4  5  1  0  0  0
  4  6  2  0  0  0
  5 14  1  0  0  0
  6 18  1  0  0  0
  7 23  1  0  0  0
  7 33  1  0  0  0
  8 13  1  0  0  0
  8  9  1  0  0  0
  8 16  2  0  0  0
  9 11  1  0  0  0
  9 34  1  0  0  0
 10 11  1  0  0  0
 10 17  2  0  0  0
 10 25  1  0  0  0
 11 20  1  0  0  0
 11 35  1  0  0  0
 12 26  1  0  0  0
 12 36  1  0  0  0
 12 37  1  0  0  0
 13 22  1  0  0  0
 13 21  2  0  0  0
 14 38  1  0  0  0
 15 24  1  0  0  0
 15 19  2  0  0  0
 15 28  1  0  0  0
 18 39  1  0  0  0
 18 40  1  0  0  0
 20 24  1  0  0  0
 20 41  1  0  0  0
 20 42  1  0  0  0
 21 29  1  0  0  0
 21 43  1  0  0  0
 22 30  2  0  0  0
 22 44  1  0  0  0
 23 26  1  0  0  0
 23 45  1  0  0  0
 23 46  1  0  0  0
 24 47  1  0  0  0
 24 48  1  0  0  0
 25 49  1  0  0  0
 26 32  1  0  0  0
 26 50  1  0  0  0
 27 31  1  0  0  0
 27 29  2  0  0  0
 27 30  1  0  0  0
 28 51  1  0  0  0
 29 52  1  0  0  0
 30 53  1  0  0  0
 31 32  1  0  0  0
 31 54  1  0  0  0
 31 55  1  0  0  0
 32 56  1  0  0  0
 32 57  1  0  0  0
M  END
> <s_m_entry_id>
24952

> <s_m_entry_name>
dock_pv.105

> <s_m_Source_Path>
/home/csk/Desktop/cluster/DUD-E-result/pur2

> <s_m_Source_File>
dock_pv.maegz

> <i_m_Source_File_Index>
105

> <chembl_id>
CHEMBL170101

> <chembl_pref_name>
None

> <i_lp_mmshare_version>
53161

> <r_lp_tautomer_probability>
0.0160306447209791

> <s_lp_Force_Field>
OPLS_2005

> <r_lp_Energy>
6.789067

> <b_lp_Chiralities_Consistent>
1

> <s_lp_Variant>
CHEMBL3972_lig22-6

> <s_i_glide_gridfile>
glide-grid_1njs

> <i_i_glide_lignum>
65

> <i_i_glide_rotatable_bonds>
13

> <r_i_docking_score>
-8.88994287637278

> <r_i_glide_ligand_efficiency>
-0.277810714886649

> <r_i_glide_ligand_efficiency_sa>
-0.88199404109929

> <r_i_glide_ligand_efficiency_ln>
-1.99070054071029

> <r_i_glide_gscore>
-8.88994287637278

> <r_i_glide_lipo>
-2.28189630287618

> <r_i_glide_hbond>
-0.242138006709728

> <r_i_glide_metal>
0

> <r_i_glide_rewards>
-1.11816587588266

> <r_i_glide_evdw>
-44.3593101501465

> <r_i_glide_ecoul>
-27.5415821075439

> <r_i_glide_erotb>
1.01661454436344

> <r_i_glide_esite>
-0.0463917277603247

> <r_i_glide_emodel>
-95.2005720704284

> <r_i_glide_energy>
-71.9008922576904

> <r_i_glide_einternal>
5.69646835327148

> <i_i_glide_confnum>
106

> <i_i_glide_posenum>
246

> <r_i_glide_eff_state_penalty>
0

> <s_user_duplicate_titles>
CHEMBL3972_lig22,CHEMBL3972_lig1

> <i_f3d_flags>
0

> <s_m_subgroup_title>
dock_pv

> <s_m_subgroupid>
dock_pv

> <b_m_subgroup_collapsed>
1

$$$$
CHEMBL3972_lig64
                    3D
 Schrodinger Suite 2021-1.
 58 60  0  0  1  0            999 V2000
   69.4956   15.9059   35.3999 N   0  0  0  0  0  0
   68.9201   16.7597   34.5205 C   0  0  0  0  0  0
   68.7537   16.4122   33.1414 C   0  0  0  0  0  0
   69.9043   14.7152   34.9305 C   0  0  0  0  0  0
   69.8092   14.2704   33.6629 N   0  0  0  0  0  0
   69.2365   15.1191   32.7676 C   0  0  0  0  0  0
   68.3065   17.8381   28.4967 N   0  0  0  0  0  0
   72.7448   21.5562   28.8224 C   0  0  0  0  0  0
   73.7123   21.4608   27.8891 N   0  0  0  0  0  0
   68.0434   16.9861   27.4494 C   0  0  0  0  0  0
   76.0051   21.6655   28.9235 C   0  0  0  0  0  0
   75.0182   22.1326   27.8256 C   0  0  2  0  0  0
   68.1713   17.2426   32.1368 C   0  0  0  0  0  0
   69.3941   18.7868   28.4904 C   0  0  0  0  0  0
   71.5642   20.6215   28.6464 C   0  0  0  0  0  0
   67.4860   17.7105   29.7353 C   0  0  0  0  0  0
   76.0889   25.8229   26.8910 C   0  0  0  0  0  0
   68.4890   17.9910   34.9343 O   0  0  0  0  0  0
   72.7985   22.3334   29.7768 O   0  0  0  0  0  0
   68.0883   16.8019   30.8110 C   0  0  0  0  0  0
   68.7897   16.8151   26.4910 O   0  0  0  0  0  0
   75.6895   21.2004   29.9997 O   0  0  0  0  0  0
   69.1273   14.6941   31.4287 C   0  0  0  0  0  0
   70.4593   13.8514   35.8541 N   0  0  0  0  0  0
   75.2091   26.1589   26.0955 O   0  0  0  0  0  0
   70.6035   18.5592   27.8048 C   0  0  0  0  0  0
   69.2871   19.9908   29.2135 C   0  0  0  0  0  0
   70.3546   20.8846   29.2977 C   0  0  0  0  0  0
   71.6653   19.4538   27.8798 C   0  0  0  0  0  0
   74.8653   23.6781   27.6930 C   0  0  0  0  0  0
   76.2039   24.4379   27.5193 C   0  0  0  0  0  0
   77.2882   21.8330   28.4910 O   0  0  0  0  0  0
   68.5629   15.5309   30.4747 C   0  0  0  0  0  0
   77.1560   26.6103   27.2129 O   0  0  0  0  0  0
   66.7378   16.1805   27.4070 C   0  0  0  0  0  0
   73.5261   20.8551   27.1004 H   0  0  0  0  0  0
   75.4354   21.7699   26.8890 H   0  0  0  0  0  0
   67.8065   18.2256   32.3986 H   0  0  0  0  0  0
   66.4894   17.3213   29.5348 H   0  0  0  0  0  0
   67.2895   18.6825   30.1791 H   0  0  0  0  0  0
   68.0420   18.5324   34.2741 H   0  0  0  0  0  0
   69.4993   13.7191   31.1505 H   0  0  0  0  0  0
   70.5862   12.8960   35.5651 H   0  0  0  0  0  0
   70.3603   14.1169   36.8209 H   0  0  0  0  0  0
   70.7841   17.6617   27.2395 H   0  0  0  0  0  0
   68.3823   20.2691   29.7279 H   0  0  0  0  0  0
   70.2352   21.7857   29.8846 H   0  0  0  0  0  0
   72.5781   19.1966   27.3617 H   0  0  0  0  0  0
   74.2054   23.8887   26.8492 H   0  0  0  0  0  0
   74.3452   24.0784   28.5643 H   0  0  0  0  0  0
   76.7067   24.5242   28.4836 H   0  0  0  0  0  0
   76.8690   23.8706   26.8675 H   0  0  0  0  0  0
   77.9066   21.5389   29.1757 H   0  0  0  0  0  0
   68.5152   15.1749   29.4579 H   0  0  0  0  0  0
   77.1708   27.4381   26.7176 H   0  0  0  0  0  0
   66.6186   15.5220   28.2649 H   0  0  0  0  0  0
   65.8811   16.8519   27.3474 H   0  0  0  0  0  0
   66.7166   15.5581   26.5124 H   0  0  0  0  0  0
  1  2  2  0  0  0
  1  4  1  0  0  0
  2  3  1  0  0  0
  2 18  1  0  0  0
  3 13  2  0  0  0
  3  6  1  0  0  0
  4  5  2  0  0  0
  4 24  1  0  0  0
  5  6  1  0  0  0
  6 23  2  0  0  0
  7 16  1  0  0  0
  7 10  1  0  0  0
  7 14  1  0  0  0
  8 15  1  0  0  0
  8  9  1  0  0  0
  8 19  2  0  0  0
  9 12  1  0  0  0
  9 36  1  0  0  0
 10 21  2  0  0  0
 10 35  1  0  0  0
 11 12  1  0  0  0
 11 22  2  0  0  0
 11 32  1  0  0  0
 12 30  1  0  0  0
 12 37  1  0  0  0
 13 20  1  0  0  0
 13 38  1  0  0  0
 14 26  2  0  0  0
 14 27  1  0  0  0
 15 28  1  0  0  0
 15 29  2  0  0  0
 16 20  1  0  0  0
 16 39  1  0  0  0
 16 40  1  0  0  0
 17 31  1  0  0  0
 17 25  2  0  0  0
 17 34  1  0  0  0
 18 41  1  0  0  0
 20 33  2  0  0  0
 23 33  1  0  0  0
 23 42  1  0  0  0
 24 43  1  0  0  0
 24 44  1  0  0  0
 26 29  1  0  0  0
 26 45  1  0  0  0
 27 28  2  0  0  0
 27 46  1  0  0  0
 28 47  1  0  0  0
 29 48  1  0  0  0
 30 31  1  0  0  0
 30 49  1  0  0  0
 30 50  1  0  0  0
 31 51  1  0  0  0
 31 52  1  0  0  0
 32 53  1  0  0  0
 33 54  1  0  0  0
 34 55  1  0  0  0
 35 56  1  0  0  0
 35 57  1  0  0  0
 35 58  1  0  0  0
M  END
> <s_m_entry_id>
24954

> <s_m_entry_name>
dock_pv.107

> <s_m_Source_Path>
/home/csk/Desktop/cluster/DUD-E-result/pur2

> <s_m_Source_File>
dock_pv.maegz

> <i_m_Source_File_Index>
107

> <chembl_id>
CHEMBL22344

> <chembl_pref_name>
None

> <i_lp_mmshare_version>
53161

> <r_lp_tautomer_probability>
1

> <s_lp_Force_Field>
OPLS_2005

> <r_lp_Energy>
25.88542

> <b_lp_Chiralities_Consistent>
1

> <s_lp_Variant>
CHEMBL3972_lig64-2

> <s_i_glide_gridfile>
glide-grid_1njs

> <i_i_glide_lignum>
136

> <i_i_glide_rotatable_bonds>
14

> <r_i_docking_score>
-8.8294325191134

> <r_i_glide_ligand_efficiency>
-0.252269500546097

> <r_i_glide_ligand_efficiency_sa>
-0.825190263346495

> <r_i_glide_ligand_efficiency_ln>
-1.93825639664218

> <r_i_glide_gscore>
-8.8294325191134

> <r_i_glide_lipo>
-2.22600321783587

> <r_i_glide_hbond>
-0.882779529502012

> <r_i_glide_metal>
0

> <r_i_glide_rewards>
-1.55179485009041

> <r_i_glide_evdw>
-51.0425453186035

> <r_i_glide_ecoul>
-16.5289649963379

> <r_i_glide_erotb>
0.87516369617402

> <r_i_glide_esite>
-0.0125466024782697

> <r_i_glide_emodel>
-98.8304329957431

> <r_i_glide_energy>
-67.5715103149414

> <r_i_glide_einternal>
9.52830982208252

> <i_i_glide_confnum>
141

> <i_i_glide_posenum>
325

> <r_i_glide_eff_state_penalty>
0

> <s_user_duplicate_titles>
CHEMBL3972_lig64

> <i_f3d_flags>
0

> <s_m_subgroup_title>
dock_pv

> <s_m_subgroupid>
dock_pv

> <b_m_subgroup_collapsed>
1

$$$$
CHEMBL3972_lig82
                    3D
 Schrodinger Suite 2021-1.
 61 62  0  0  1  0            999 V2000
   67.6957   17.8727   29.9995 C   0  0  0  0  0  0
   68.1891   17.6689   28.7014 C   0  0  0  0  0  0
   69.0599   18.5977   28.1173 C   0  0  0  0  0  0
   69.4666   19.7272   28.8404 C   0  0  0  0  0  0
   68.8874   19.9790   30.0811 C   0  0  0  0  0  0
   68.0452   19.0485   30.6734 C   0  0  0  0  0  0
   66.8883   16.7594   30.7134 C   0  0  1  0  0  0
   70.5769   20.6373   28.3847 C   0  0  0  0  0  0
   70.5592   21.1894   27.2909 O   0  0  0  0  0  0
   71.5284   20.8357   29.3175 N   0  0  0  0  0  0
   72.6218   21.8021   29.2618 C   0  0  1  0  0  0
   73.1236   22.0575   30.6943 C   0  0  0  0  0  0
   72.6574   22.9064   31.4230 O   0  0  0  0  0  0
   74.1294   21.1942   31.0141 O   0  0  0  0  0  0
   67.8446   15.8334   31.5399 C   0  0  0  0  0  0
   65.6744   17.3270   31.5270 C   0  0  0  0  0  0
   68.7148   14.8663   30.7060 C   0  0  0  0  0  0
   67.9475   13.6398   30.1678 C   0  0  0  0  0  0
   68.6554   12.9616   28.9902 C   0  0  0  0  0  0
   69.7552   12.0493   29.2705 C   0  0  0  0  0  0
   70.4348   11.6690   28.1688 N   0  0  0  0  0  0
   70.1102   11.9932   26.8919 C   0  0  0  0  0  0
   69.0553   12.6718   26.6414 N   0  0  0  0  0  0
   68.3557   13.1873   27.6893 C   0  0  0  0  0  0
   70.9639   11.5899   25.8614 N   0  0  0  0  0  0
   67.3518   13.9993   27.2932 N   0  0  0  0  0  0
   70.0821   11.6043   30.3635 O   0  0  0  0  0  0
   65.0176   16.4561   32.6180 C   0  0  0  0  0  0
   65.2162   18.4490   31.2917 O   0  0  0  0  0  0
   64.7467   15.2432   32.1249 F   0  0  0  0  0  0
   65.8404   16.3530   33.6625 F   0  0  0  0  0  0
   63.8879   17.0178   33.0413 F   0  0  0  0  0  0
   73.7136   21.3848   28.2319 C   0  0  0  0  0  0
   74.9131   22.3479   28.0236 C   0  0  0  0  0  0
   74.5107   23.6363   27.3083 C   0  0  0  0  0  0
   74.8429   23.9334   26.1602 O   0  0  0  0  0  0
   73.6892   24.3830   28.0914 O   0  0  0  0  0  0
   67.9375   16.7743   28.1560 H   0  0  0  0  0  0
   69.4752   18.4029   27.1373 H   0  0  0  0  0  0
   69.2232   20.8105   30.6446 H   0  0  0  0  0  0
   67.7053   19.2254   31.6847 H   0  0  0  0  0  0
   66.4214   16.1479   29.9423 H   0  0  0  0  0  0
   71.4575   20.3215   30.1831 H   0  0  0  0  0  0
   72.1616   22.7333   28.9282 H   0  0  0  0  0  0
   74.3290   20.5802   30.2975 H   0  0  0  0  0  0
   67.3105   15.2096   32.2494 H   0  0  0  0  0  0
   68.4975   16.4583   32.1530 H   0  0  0  0  0  0
   69.5390   14.5108   31.3233 H   0  0  0  0  0  0
   69.1847   15.4160   29.8943 H   0  0  0  0  0  0
   66.9547   13.9550   29.8558 H   0  0  0  0  0  0
   67.7702   12.9210   30.9679 H   0  0  0  0  0  0
   70.8345   12.0582   24.9783 H   0  0  0  0  0  0
   71.9471   11.4854   26.0719 H   0  0  0  0  0  0
   66.8354   14.5337   27.9701 H   0  0  0  0  0  0
   67.1806   14.1914   26.3205 H   0  0  0  0  0  0
   71.2520   11.1243   28.3665 H   0  0  0  0  0  0
   74.0874   20.3931   28.4589 H   0  0  0  0  0  0
   73.2141   21.2549   27.2827 H   0  0  0  0  0  0
   75.4038   22.5986   28.9650 H   0  0  0  0  0  0
   75.6701   21.8566   27.4111 H   0  0  0  0  0  0
   73.0612   24.9414   27.6085 H   0  0  0  0  0  0
  1  6  1  0  0  0
  1  2  2  0  0  0
  1  7  1  0  0  0
  2  3  1  0  0  0
  2 38  1  0  0  0
  3  4  2  0  0  0
  3 39  1  0  0  0
  4  5  1  0  0  0
  4  8  1  0  0  0
  5  6  2  0  0  0
  5 40  1  0  0  0
  6 41  1  0  0  0
  7 15  1  0  0  0
  7 16  1  0  0  0
  7 42  1  0  0  0
  8  9  2  0  0  0
  8 10  1  0  0  0
 10 11  1  0  0  0
 10 43  1  0  0  0
 11 12  1  0  0  0
 11 33  1  0  0  0
 11 44  1  0  0  0
 12 13  2  0  0  0
 12 14  1  0  0  0
 14 45  1  0  0  0
 15 17  1  0  0  0
 15 46  1  0  0  0
 15 47  1  0  0  0
 16 28  1  0  0  0
 16 29  2  0  0  0
 17 18  1  0  0  0
 17 48  1  0  0  0
 17 49  1  0  0  0
 18 50  1  0  0  0
 18 51  1  0  0  0
 18 19  1  0  0  0
 19 24  2  0  0  0
 19 20  1  0  0  0
 20 21  1  0  0  0
 20 27  2  0  0  0
 21 22  1  0  0  0
 21 56  1  0  0  0
 22 23  2  0  0  0
 22 25  1  0  0  0
 23 24  1  0  0  0
 24 26  1  0  0  0
 25 52  1  0  0  0
 25 53  1  0  0  0
 26 54  1  0  0  0
 26 55  1  0  0  0
 28 30  1  0  0  0
 28 31  1  0  0  0
 28 32  1  0  0  0
 33 34  1  0  0  0
 33 57  1  0  0  0
 33 58  1  0  0  0
 34 35  1  0  0  0
 34 59  1  0  0  0
 34 60  1  0  0  0
 35 36  2  0  0  0
 35 37  1  0  0  0
 37 61  1  0  0  0
M  END
> <s_m_entry_id>
24957

> <s_m_entry_name>
dock_pv.110

> <s_m_Source_Path>
/home/csk/Desktop/cluster/DUD-E-result/pur2

> <s_m_Source_File>
dock_pv.maegz

> <i_m_Source_File_Index>
110

> <chembl_id>
CHEMBL379094

> <chembl_pref_name>
None

> <i_lp_mmshare_version>
53161

> <r_lp_tautomer_probability>
0.982528302960407

> <s_lp_Force_Field>
OPLS_2005

> <r_lp_Energy>
21.188439

> <b_lp_Chiralities_Consistent>
1

> <s_lp_Variant>
CHEMBL3972_lig82-4

> <s_i_glide_gridfile>
glide-grid_1njs

> <i_i_glide_lignum>
204

> <i_i_glide_rotatable_bonds>
16

> <r_i_docking_score>
-8.72835868327194

> <r_i_glide_ligand_efficiency>
-0.235901586034377

> <r_i_glide_ligand_efficiency_sa>
-0.786076418875535

> <r_i_glide_ligand_efficiency_ln>
-1.89297637664221

> <r_i_glide_gscore>
-8.72835868327194

> <r_i_glide_lipo>
-1.81205749508715

> <r_i_glide_hbond>
-0.706549275144625

> <r_i_glide_metal>
0

> <r_i_glide_rewards>
-1.1162314429556

> <r_i_glide_evdw>
-52.0547561645508

> <r_i_glide_ecoul>
-21.791446685791

> <r_i_glide_erotb>
0.962383803886315

> <r_i_glide_esite>
-0.184449462874685

> <r_i_glide_emodel>
-99.9432199681321

> <r_i_glide_energy>
-73.8462028503418

> <r_i_glide_einternal>
19.8433856964111

> <i_i_glide_confnum>
218

> <i_i_glide_posenum>
281

> <r_i_glide_eff_state_penalty>
0

> <s_user_duplicate_titles>
CHEMBL3972_lig82

> <i_f3d_flags>
0

> <s_m_subgroup_title>
dock_pv

> <s_m_subgroupid>
dock_pv

> <b_m_subgroup_collapsed>
1

$$$$
CHEMBL3972_lig48
                    3D
 Schrodinger Suite 2021-1.
 52 54  0  0  1  0            999 V2000
   77.1068   26.4088   27.1846 N   0  0  0  0  0  0
   78.3763   26.1323   27.5782 C   0  0  0  0  0  0
   78.8890   24.9212   27.8869 N   0  0  0  0  0  0
   76.2402   25.3656   27.1172 C   0  0  0  0  0  0
   76.6356   24.0759   27.4920 C   0  0  0  0  0  0
   77.9909   23.9473   27.8352 C   0  0  0  0  0  0
   78.3068   22.6706   28.1478 O   0  0  0  0  0  0
   77.1299   21.9940   28.0925 C   0  0  0  0  0  0
   76.0721   22.7691   27.6222 C   0  0  0  0  0  0
   74.9734   25.6132   26.6085 N   0  0  0  0  0  0
   79.2558   27.1909   27.6997 N   0  0  0  0  0  0
   74.6474   22.3770   27.3151 C   0  0  0  0  0  0
   74.2862   20.9280   27.7214 C   0  0  0  0  0  0
   72.8381   20.7388   28.2291 C   0  0  0  0  0  0
   72.5836   21.5667   29.4737 C   0  0  0  0  0  0
   73.1081   21.2962   30.7492 C   0  0  0  0  0  0
   72.8516   22.2911   31.7017 C   0  0  0  0  0  0
   71.9354   23.5827   30.9959 S   0  0  0  0  0  0
   71.8403   22.7380   29.4970 C   0  0  0  0  0  0
   73.2890   22.4085   33.0731 C   0  0  0  0  0  0
   73.2395   23.4783   33.6846 O   0  0  0  0  0  0
   73.6863   21.2551   33.6382 N   0  0  0  0  0  0
   74.1588   21.0715   35.0179 C   0  0  1  0  0  0
   75.3910   21.9788   35.2933 C   0  0  0  0  0  0
   73.0377   21.1248   36.0756 C   0  0  0  0  0  0
   76.2428   21.5299   36.4905 C   0  0  0  0  0  0
   77.5854   22.2471   36.4853 C   0  0  0  0  0  0
   77.6885   23.1900   37.4635 O   0  0  0  0  0  0
   78.4889   21.9912   35.6911 O   0  0  0  0  0  0
   72.7502   22.4032   36.4453 O   0  0  0  0  0  0
   72.4895   20.1313   36.5020 O   0  0  0  0  0  0
   77.2071   20.9521   28.3631 H   0  0  0  0  0  0
   74.3422   24.8340   26.4802 H   0  0  0  0  0  0
   74.8888   26.4653   26.0796 H   0  0  0  0  0  0
   78.8887   28.1331   27.6315 H   0  0  0  0  0  0
   80.1652   27.0118   28.1093 H   0  0  0  0  0  0
   74.4887   22.5126   26.2483 H   0  0  0  0  0  0
   73.9851   23.0884   27.8075 H   0  0  0  0  0  0
   74.9522   20.6049   28.5143 H   0  0  0  0  0  0
   74.4907   20.2475   26.8948 H   0  0  0  0  0  0
   72.6589   19.6822   28.4296 H   0  0  0  0  0  0
   72.1412   21.0012   27.4310 H   0  0  0  0  0  0
   73.6931   20.4093   30.9358 H   0  0  0  0  0  0
   71.3105   23.1909   28.6724 H   0  0  0  0  0  0
   73.6430   20.4137   33.0851 H   0  0  0  0  0  0
   74.4887   20.0359   35.0541 H   0  0  0  0  0  0
   75.0822   23.0163   35.4349 H   0  0  0  0  0  0
   76.0220   21.9911   34.4021 H   0  0  0  0  0  0
   76.4442   20.4611   36.4106 H   0  0  0  0  0  0
   75.7100   21.6805   37.4292 H   0  0  0  0  0  0
   76.8780   23.2953   37.9689 H   0  0  0  0  0  0
   71.9544   22.4083   36.9802 H   0  0  0  0  0  0
  1  2  1  0  0  0
  1  4  2  0  0  0
  2  3  2  0  0  0
  2 11  1  0  0  0
  3  6  1  0  0  0
  4  5  1  0  0  0
  4 10  1  0  0  0
  5  6  2  0  0  0
  5  9  1  0  0  0
  6  7  1  0  0  0
  7  8  1  0  0  0
  8  9  2  0  0  0
  8 32  1  0  0  0
  9 12  1  0  0  0
 10 33  1  0  0  0
 10 34  1  0  0  0
 11 35  1  0  0  0
 11 36  1  0  0  0
 12 13  1  0  0  0
 12 37  1  0  0  0
 12 38  1  0  0  0
 13 14  1  0  0  0
 13 39  1  0  0  0
 13 40  1  0  0  0
 14 15  1  0  0  0
 14 41  1  0  0  0
 14 42  1  0  0  0
 15 16  1  0  0  0
 15 19  2  0  0  0
 16 17  2  0  0  0
 16 43  1  0  0  0
 17 18  1  0  0  0
 17 20  1  0  0  0
 18 19  1  0  0  0
 19 44  1  0  0  0
 20 21  2  0  0  0
 20 22  1  0  0  0
 22 23  1  0  0  0
 22 45  1  0  0  0
 23 24  1  0  0  0
 23 25  1  0  0  0
 23 46  1  0  0  0
 24 26  1  0  0  0
 24 47  1  0  0  0
 24 48  1  0  0  0
 25 30  1  0  0  0
 25 31  2  0  0  0
 26 27  1  0  0  0
 26 49  1  0  0  0
 26 50  1  0  0  0
 27 28  1  0  0  0
 27 29  2  0  0  0
 28 51  1  0  0  0
 30 52  1  0  0  0
M  END
> <s_m_entry_id>
24959

> <s_m_entry_name>
dock_pv.112

> <s_m_Source_Path>
/home/csk/Desktop/cluster/DUD-E-result/pur2

> <s_m_Source_File>
dock_pv.maegz

> <i_m_Source_File_Index>
112

> <chembl_id>
CHEMBL3628345

> <chembl_pref_name>
None

> <i_lp_mmshare_version>
53161

> <r_lp_tautomer_probability>
1

> <s_lp_Force_Field>
OPLS_2005

> <r_lp_Energy>
2.596666

> <b_lp_Chiralities_Consistent>
1

> <s_lp_Variant>
CHEMBL3972_lig48-1

> <s_i_glide_gridfile>
glide-grid_1njs

> <i_i_glide_lignum>
118

> <i_i_glide_rotatable_bonds>
13

> <r_i_docking_score>
-8.70228992738284

> <r_i_glide_ligand_efficiency>
-0.280719029915575

> <r_i_glide_ligand_efficiency_sa>
-0.881845328325454

> <r_i_glide_ligand_efficiency_ln>
-1.96263307178247

> <r_i_glide_gscore>
-8.70228992738284

> <r_i_glide_lipo>
-2.3417400483573

> <r_i_glide_hbond>
-0.96868668360583

> <r_i_glide_metal>
0

> <r_i_glide_rewards>
-2.46498338629003

> <r_i_glide_evdw>
-46.0569305419922

> <r_i_glide_ecoul>
-10.8452396392822

> <r_i_glide_erotb>
1.10012410540408

> <r_i_glide_esite>
-0.0973714415418162

> <r_i_glide_emodel>
-83.424756363574

> <r_i_glide_energy>
-56.9021701812744

> <r_i_glide_einternal>
8.38943195343018

> <i_i_glide_confnum>
30

> <i_i_glide_posenum>
254

> <r_i_glide_eff_state_penalty>
0

> <s_user_duplicate_titles>
CHEMBL3972_lig48

> <i_f3d_flags>
0

> <s_m_subgroup_title>
dock_pv

> <s_m_subgroupid>
dock_pv

> <b_m_subgroup_collapsed>
1

$$$$
CHEMBL3972_lig79
                    3D
 Schrodinger Suite 2021-1.
 55 57  0  0  1  0            999 V2000
   68.1790   14.5171   29.0169 C   0  0  0  0  0  0
   69.0639   14.0015   29.9855 C   0  0  0  0  0  0
   69.8074   12.8890   29.7668 N   0  0  0  0  0  0
   68.8558   12.7212   27.5633 N   0  0  0  0  0  0
   68.0865   13.8154   27.8037 C   0  0  0  0  0  0
   69.6890   12.3251   28.5475 C   0  0  0  0  0  0
   67.1652   15.9422   29.3345 S   0  0  0  0  0  0
   69.3001   14.6307   31.2224 N   0  0  0  0  0  0
   72.8005   22.2290   29.4673 C   0  0  0  0  0  0
   73.6041   22.0930   28.4085 N   0  0  0  0  0  0
   76.0804   22.2311   28.7177 C   0  0  0  0  0  0
   74.8036   22.8743   28.1420 C   0  0  1  0  0  0
   71.5135   21.4518   29.3881 C   0  0  0  0  0  0
   67.1854   14.2850   26.8912 O   0  0  0  0  0  0
   75.6986   25.4220   26.7288 C   0  0  0  0  0  0
   73.0433   22.9805   30.4148 O   0  0  0  0  0  0
   76.0907   21.1912   29.3359 O   0  0  0  0  0  0
   70.5615   11.3001   28.2404 N   0  0  0  0  0  0
   76.5831   25.8790   27.4460 O   0  0  0  0  0  0
   68.3751   16.7867   30.3863 C   0  0  2  0  0  0
   74.8015   23.0854   26.6102 C   0  0  0  0  0  0
   71.3831   20.2984   28.5936 C   0  0  0  0  0  0
   70.4065   21.9274   30.0909 C   0  0  0  0  0  0
   68.6205   15.8740   31.6068 C   0  0  0  0  0  0
   75.8015   24.0845   26.0288 C   0  0  0  0  0  0
   77.1623   23.0331   28.4894 O   0  0  0  0  0  0
   69.1250   20.0136   29.3819 C   0  0  0  0  0  0
   74.4895   25.9912   26.4967 O   0  0  0  0  0  0
   69.2154   21.2164   30.0735 C   0  0  0  0  0  0
   70.1831   19.5911   28.5751 C   0  0  0  0  0  0
   67.8644   19.1837   29.5426 C   0  0  0  0  0  0
   67.8856   18.2049   30.7408 C   0  0  0  0  0  0
   69.7187   14.1032   31.9747 H   0  0  0  0  0  0
   73.3623   21.4101   27.7078 H   0  0  0  0  0  0
   74.6788   23.8322   28.6505 H   0  0  0  0  0  0
   66.7455   15.0926   27.1782 H   0  0  0  0  0  0
   70.6785   11.1178   27.2561 H   0  0  0  0  0  0
   71.3235   11.1774   28.8891 H   0  0  0  0  0  0
   69.2879   16.8837   29.7976 H   0  0  0  0  0  0
   73.8133   23.4626   26.3440 H   0  0  0  0  0  0
   74.8893   22.1296   26.0919 H   0  0  0  0  0  0
   72.2071   19.9165   28.0082 H   0  0  0  0  0  0
   70.4522   22.8642   30.6315 H   0  0  0  0  0  0
   69.2381   16.3830   32.3489 H   0  0  0  0  0  0
   67.6812   15.6359   32.1090 H   0  0  0  0  0  0
   75.5558   24.2627   24.9876 H   0  0  0  0  0  0
   76.8232   23.7063   26.0553 H   0  0  0  0  0  0
   76.9321   23.8667   28.0693 H   0  0  0  0  0  0
   73.8768   25.3879   26.0677 H   0  0  0  0  0  0
   68.3221   21.6469   30.4912 H   0  0  0  0  0  0
   70.1037   18.6841   27.9943 H   0  0  0  0  0  0
   67.0392   19.8804   29.6962 H   0  0  0  0  0  0
   67.6751   18.6519   28.6128 H   0  0  0  0  0  0
   68.4793   18.6260   31.5550 H   0  0  0  0  0  0
   66.8751   18.1259   31.1450 H   0  0  0  0  0  0
  1  2  1  0  0  0
  1  5  2  0  0  0
  1  7  1  0  0  0
  2  3  2  0  0  0
  2  8  1  0  0  0
  3  6  1  0  0  0
  4  5  1  0  0  0
  4  6  2  0  0  0
  5 14  1  0  0  0
  6 18  1  0  0  0
  7 20  1  0  0  0
  8 24  1  0  0  0
  8 33  1  0  0  0
  9 13  1  0  0  0
  9 10  1  0  0  0
  9 16  2  0  0  0
 10 12  1  0  0  0
 10 34  1  0  0  0
 11 12  1  0  0  0
 11 17  2  0  0  0
 11 26  1  0  0  0
 12 21  1  0  0  0
 12 35  1  0  0  0
 13 22  1  0  0  0
 13 23  2  0  0  0
 14 36  1  0  0  0
 15 25  1  0  0  0
 15 19  2  0  0  0
 15 28  1  0  0  0
 18 37  1  0  0  0
 18 38  1  0  0  0
 20 24  1  0  0  0
 20 32  1  0  0  0
 20 39  1  0  0  0
 21 25  1  0  0  0
 21 40  1  0  0  0
 21 41  1  0  0  0
 22 30  2  0  0  0
 22 42  1  0  0  0
 23 29  1  0  0  0
 23 43  1  0  0  0
 24 44  1  0  0  0
 24 45  1  0  0  0
 25 46  1  0  0  0
 25 47  1  0  0  0
 26 48  1  0  0  0
 27 31  1  0  0  0
 27 29  2  0  0  0
 27 30  1  0  0  0
 28 49  1  0  0  0
 29 50  1  0  0  0
 30 51  1  0  0  0
 31 32  1  0  0  0
 31 52  1  0  0  0
 31 53  1  0  0  0
 32 54  1  0  0  0
 32 55  1  0  0  0
M  END
> <s_m_entry_id>
24961

> <s_m_entry_name>
dock_pv.114

> <s_m_Source_Path>
/home/csk/Desktop/cluster/DUD-E-result/pur2

> <s_m_Source_File>
dock_pv.maegz

> <i_m_Source_File_Index>
114

> <chembl_id>
CHEMBL315076

> <chembl_pref_name>
None

> <i_lp_mmshare_version>
53161

> <r_lp_tautomer_probability>
0.0160306447209791

> <s_lp_Force_Field>
OPLS_2005

> <r_lp_Energy>
8.062997

> <b_lp_Chiralities_Consistent>
1

> <s_lp_Variant>
CHEMBL3972_lig79-5

> <s_i_glide_gridfile>
glide-grid_1njs

> <i_i_glide_lignum>
185

> <i_i_glide_rotatable_bonds>
13

> <r_i_docking_score>
-8.65704428075735

> <r_i_glide_ligand_efficiency>
-0.270532633773667

> <r_i_glide_ligand_efficiency_sa>
-0.858887573895868

> <r_i_glide_ligand_efficiency_ln>
-1.93854819657605

> <r_i_glide_gscore>
-8.65704428075735

> <r_i_glide_lipo>
-2.12681649062547

> <r_i_glide_hbond>
-0.0353687567101495

> <r_i_glide_metal>
0

> <r_i_glide_rewards>
-1.49430020869074

> <r_i_glide_evdw>
-42.5282325744629

> <r_i_glide_ecoul>
-24.9968299865723

> <r_i_glide_erotb>
0.945491095310523

> <r_i_glide_esite>
-0.070113793332531

> <r_i_glide_emodel>
-80.4160661914837

> <r_i_glide_energy>
-67.5250625610352

> <r_i_glide_einternal>
8.08979988098145

> <i_i_glide_confnum>
36

> <i_i_glide_posenum>
21

> <r_i_glide_eff_state_penalty>
0

> <s_user_duplicate_titles>
CHEMBL3972_lig79

> <i_f3d_flags>
0

> <s_m_subgroup_title>
dock_pv

> <s_m_subgroupid>
dock_pv

> <b_m_subgroup_collapsed>
1

$$$$
CHEMBL3972_lig34
                    3D
 Schrodinger Suite 2021-1.
 61 63  0  0  1  0            999 V2000
   69.1844   19.3396   28.6805 C   0  0  0  0  0  0
   68.2911   18.8279   29.6284 C   0  0  0  0  0  0
   67.8856   17.5006   29.5542 C   0  0  0  0  0  0
   68.3838   16.6733   28.5431 C   0  0  0  0  0  0
   69.2668   17.1907   27.5903 C   0  0  0  0  0  0
   69.6712   18.5202   27.6638 C   0  0  0  0  0  0
   67.9780   15.2299   28.5000 C   0  0  0  0  0  0
   68.9660   14.3757   28.8215 N   0  0  0  0  0  0
   66.8241   14.8929   28.2379 O   0  0  0  0  0  0
   68.8949   12.9081   28.9024 C   0  0  1  0  0  0
   67.8320   12.4632   29.9658 C   0  0  0  0  0  0
   68.7922   12.2493   27.5013 C   0  0  0  0  0  0
   69.2779   12.7206   26.4912 O   0  0  0  0  0  0
   68.1467   11.0481   27.5803 O   0  0  0  0  0  0
   68.1735   12.8853   31.4128 C   0  0  0  0  0  0
   69.2923   12.0407   32.0272 C   0  0  0  0  0  0
   69.6890   10.9837   31.5424 O   0  0  0  0  0  0
   69.7890   12.5815   33.1740 O   0  0  0  0  0  0
   76.9409   26.4490   26.8916 N   0  0  0  0  0  0
   78.0384   25.9622   27.5812 C   0  0  0  0  0  0
   78.0217   24.7772   28.0920 N   0  0  0  0  0  0
   75.7392   25.8315   26.6552 C   0  0  0  0  0  0
   75.7029   24.5327   27.3178 C   0  0  0  0  0  0
   76.8510   24.0888   27.9659 C   0  0  0  0  0  0
   76.5964   22.8551   28.4911 N   0  0  0  0  0  0
   75.2911   22.4994   28.2295 C   0  0  0  0  0  0
   74.7348   23.5288   27.4678 C   0  0  0  0  0  0
   74.8890   26.3838   25.9680 O   0  0  0  0  0  0
   79.1759   26.7846   27.6912 N   0  0  0  0  0  0
   74.7452   21.1921   28.7586 C   0  0  0  0  0  0
   73.3975   21.3092   29.5059 C   0  0  0  0  0  0
   72.1486   20.9969   28.6582 C   0  0  0  0  0  0
   70.8477   21.1681   29.4687 C   0  0  0  0  0  0
   69.5502   20.8125   28.7145 C   0  0  0  0  0  0
   67.8946   19.4622   30.4090 H   0  0  0  0  0  0
   67.1866   17.1196   30.2846 H   0  0  0  0  0  0
   69.6428   16.5728   26.7871 H   0  0  0  0  0  0
   70.3351   18.9139   26.9044 H   0  0  0  0  0  0
   69.8665   14.7775   29.0282 H   0  0  0  0  0  0
   69.8780   12.5939   29.2560 H   0  0  0  0  0  0
   67.6947   11.3816   29.9794 H   0  0  0  0  0  0
   66.8508   12.8662   29.7174 H   0  0  0  0  0  0
   67.9359   10.8788   28.4993 H   0  0  0  0  0  0
   67.2901   12.7696   32.0430 H   0  0  0  0  0  0
   68.4420   13.9397   31.4478 H   0  0  0  0  0  0
   69.3627   13.4034   33.4255 H   0  0  0  0  0  0
   77.0452   27.3471   26.4382 H   0  0  0  0  0  0
   77.2594   22.3086   29.0202 H   0  0  0  0  0  0
   73.7232   23.5640   27.0834 H   0  0  0  0  0  0
   79.9039   26.5242   28.3415 H   0  0  0  0  0  0
   79.0661   27.7880   27.6300 H   0  0  0  0  0  0
   75.4713   20.7910   29.4658 H   0  0  0  0  0  0
   74.6763   20.4483   27.9628 H   0  0  0  0  0  0
   73.3103   22.2970   29.9615 H   0  0  0  0  0  0
   73.4085   20.6068   30.3430 H   0  0  0  0  0  0
   72.2178   19.9782   28.2747 H   0  0  0  0  0  0
   72.1260   21.6522   27.7860 H   0  0  0  0  0  0
   70.7830   22.2149   29.7703 H   0  0  0  0  0  0
   70.8992   20.6013   30.4000 H   0  0  0  0  0  0
   69.5891   21.1891   27.6908 H   0  0  0  0  0  0
   68.7176   21.3421   29.1813 H   0  0  0  0  0  0
  1  6  1  0  0  0
  1  2  2  0  0  0
  1 34  1  0  0  0
  2  3  1  0  0  0
  2 35  1  0  0  0
  3  4  2  0  0  0
  3 36  1  0  0  0
  4  5  1  0  0  0
  4  7  1  0  0  0
  5  6  2  0  0  0
  5 37  1  0  0  0
  6 38  1  0  0  0
  7  9  2  0  0  0
  7  8  1  0  0  0
  8 10  1  0  0  0
  8 39  1  0  0  0
 10 11  1  0  0  0
 10 12  1  0  0  0
 10 40  1  0  0  0
 11 15  1  0  0  0
 11 41  1  0  0  0
 11 42  1  0  0  0
 12 13  2  0  0  0
 12 14  1  0  0  0
 14 43  1  0  0  0
 15 16  1  0  0  0
 15 44  1  0  0  0
 15 45  1  0  0  0
 16 17  2  0  0  0
 16 18  1  0  0  0
 18 46  1  0  0  0
 19 20  1  0  0  0
 19 22  1  0  0  0
 19 47  1  0  0  0
 20 21  2  0  0  0
 20 29  1  0  0  0
 21 24  1  0  0  0
 22 23  1  0  0  0
 22 28  2  0  0  0
 23 24  2  0  0  0
 23 27  1  0  0  0
 24 25  1  0  0  0
 25 26  1  0  0  0
 25 48  1  0  0  0
 26 27  2  0  0  0
 26 30  1  0  0  0
 27 49  1  0  0  0
 29 50  1  0  0  0
 29 51  1  0  0  0
 30 31  1  0  0  0
 30 52  1  0  0  0
 30 53  1  0  0  0
 31 32  1  0  0  0
 31 54  1  0  0  0
 31 55  1  0  0  0
 32 33  1  0  0  0
 32 56  1  0  0  0
 32 57  1  0  0  0
 33 34  1  0  0  0
 33 58  1  0  0  0
 33 59  1  0  0  0
 34 60  1  0  0  0
 34 61  1  0  0  0
M  END
> <s_m_entry_id>
24962

> <s_m_entry_name>
dock_pv.115

> <s_m_Source_Path>
/home/csk/Desktop/cluster/DUD-E-result/pur2

> <s_m_Source_File>
dock_pv.maegz

> <i_m_Source_File_Index>
115

> <chembl_id>
CHEMBL502528

> <chembl_pref_name>
None

> <i_lp_mmshare_version>
53161

> <r_lp_tautomer_probability>
1

> <s_lp_Force_Field>
OPLS_2005

> <r_lp_Energy>
16.758307

> <b_lp_Chiralities_Consistent>
1

> <s_lp_Variant>
CHEMBL3972_lig34-1

> <s_i_glide_gridfile>
glide-grid_1njs

> <i_i_glide_lignum>
104

> <i_i_glide_rotatable_bonds>
15

> <r_i_docking_score>
-8.53154642492244

> <r_i_glide_ligand_efficiency>
-0.250927836027131

> <r_i_glide_ligand_efficiency_sa>
-0.812908777906977

> <r_i_glide_ligand_efficiency_ln>
-1.8848579070369

> <r_i_glide_gscore>
-8.53154642492244

> <r_i_glide_lipo>
-2.57132608822334

> <r_i_glide_hbond>
-1.47647078351035

> <r_i_glide_metal>
0

> <r_i_glide_rewards>
-1.82716686925602

> <r_i_glide_evdw>
-54.7424240112305

> <r_i_glide_ecoul>
-6.96411561965942

> <r_i_glide_erotb>
1.19123198690961

> <r_i_glide_esite>
-0.0660761273319031

> <r_i_glide_emodel>
-95.3114490807713

> <r_i_glide_energy>
-61.7065396308899

> <r_i_glide_einternal>
11.5178499221802

> <i_i_glide_confnum>
182

> <i_i_glide_posenum>
8

> <r_i_glide_eff_state_penalty>
0

> <s_user_duplicate_titles>
CHEMBL3972_lig34,510345

> <i_f3d_flags>
0

> <s_m_subgroup_title>
dock_pv

> <s_m_subgroupid>
dock_pv

> <b_m_subgroup_collapsed>
1

$$$$
CHEMBL3972_lig3
                    3D
 Schrodinger Suite 2021-1.
 55 57  0  0  1  0            999 V2000
   65.4663   15.6052   28.3899 C   0  0  0  0  0  0
   66.9132   15.1933   28.0392 C   0  0  2  0  0  0
   67.4685   14.1733   29.0881 C   0  0  0  0  0  0
   68.8445   13.5253   28.8225 C   0  0  0  0  0  0
   68.8496   12.5791   27.6234 C   0  0  0  0  0  0
   65.0240   15.5715   29.5194 O   0  0  0  0  0  0
   64.7581   15.9919   27.2910 O   0  0  0  0  0  0
   68.4905   11.4017   27.6676 O   0  0  0  0  0  0
   69.2892   13.1920   26.4913 O   0  0  0  0  0  0
   67.7259   16.4132   28.0365 N   0  0  0  0  0  0
   68.8173   16.6731   27.2939 C   0  0  0  0  0  0
   69.2889   15.8676   26.4908 O   0  0  0  0  0  0
   69.4587   17.9351   27.6068 C   0  0  0  0  0  0
   69.0265   18.9189   28.4922 C   0  0  0  0  0  0
   69.9070   19.9919   28.6550 C   0  0  0  0  0  0
   70.9848   19.8790   27.7826 C   0  0  0  0  0  0
   71.0004   18.3899   26.9224 S   0  0  0  0  0  0
   69.6858   21.0668   29.6911 C   0  0  0  0  0  0
   70.9070   21.9670   29.9666 C   0  0  0  0  0  0
   72.0974   21.1909   30.5786 C   0  0  0  0  0  0
   73.3359   22.0404   30.8903 C   0  0  0  0  0  0
   75.6335   25.5448   26.7443 C   0  0  0  0  0  0
   74.5298   25.1637   27.2893 N   0  0  0  0  0  0
   74.5952   24.0441   28.0699 C   0  0  0  0  0  0
   75.7285   23.2708   28.2901 C   0  0  0  0  0  0
   76.9753   23.6503   27.6295 C   0  0  0  0  0  0
   76.7887   24.7983   26.9007 N   0  0  0  0  0  0
   73.6037   23.5909   28.8960 N   0  0  0  0  0  0
   75.3621   22.2631   29.1932 C   0  0  0  0  0  0
   74.0881   22.5658   29.6811 C   0  0  0  0  0  0
   78.0780   23.1114   27.6929 O   0  0  0  0  0  0
   75.6889   26.7295   25.9760 N   0  0  0  0  0  0
   66.9036   14.7382   27.0465 H   0  0  0  0  0  0
   66.7490   13.3652   29.2256 H   0  0  0  0  0  0
   67.5255   14.6627   30.0632 H   0  0  0  0  0  0
   69.1199   12.9332   29.6957 H   0  0  0  0  0  0
   69.6272   14.2775   28.7294 H   0  0  0  0  0  0
   65.1773   15.9756   26.4033 H   0  0  0  0  0  0
   69.4701   14.1387   26.6116 H   0  0  0  0  0  0
   67.3670   17.1501   28.6228 H   0  0  0  0  0  0
   68.1129   18.8499   29.0642 H   0  0  0  0  0  0
   71.8153   20.5588   27.6576 H   0  0  0  0  0  0
   68.8044   21.6554   29.4449 H   0  0  0  0  0  0
   69.4310   20.5518   30.6137 H   0  0  0  0  0  0
   71.1986   22.4678   29.0431 H   0  0  0  0  0  0
   70.6095   22.7638   30.6505 H   0  0  0  0  0  0
   71.7612   20.7266   31.5074 H   0  0  0  0  0  0
   72.4061   20.3612   29.9436 H   0  0  0  0  0  0
   73.0486   22.8686   31.5395 H   0  0  0  0  0  0
   74.0158   21.4360   31.4931 H   0  0  0  0  0  0
   77.6262   25.1313   26.4513 H   0  0  0  0  0  0
   72.6962   24.0304   28.9818 H   0  0  0  0  0  0
   76.0210   21.4977   29.5801 H   0  0  0  0  0  0
   74.9196   27.3774   26.0150 H   0  0  0  0  0  0
   76.5705   27.2236   25.8971 H   0  0  0  0  0  0
  1  2  1  0  0  0
  1  6  2  0  0  0
  1  7  1  0  0  0
  2  3  1  0  0  0
  2 10  1  0  0  0
  2 33  1  0  0  0
  3  4  1  0  0  0
  3 34  1  0  0  0
  3 35  1  0  0  0
  4  5  1  0  0  0
  4 36  1  0  0  0
  4 37  1  0  0  0
  5  8  2  0  0  0
  5  9  1  0  0  0
  7 38  1  0  0  0
  9 39  1  0  0  0
 10 11  1  0  0  0
 10 40  1  0  0  0
 11 12  2  0  0  0
 11 13  1  0  0  0
 13 14  2  0  0  0
 13 17  1  0  0  0
 14 15  1  0  0  0
 14 41  1  0  0  0
 15 16  2  0  0  0
 15 18  1  0  0  0
 16 17  1  0  0  0
 16 42  1  0  0  0
 18 19  1  0  0  0
 18 43  1  0  0  0
 18 44  1  0  0  0
 19 20  1  0  0  0
 19 45  1  0  0  0
 19 46  1  0  0  0
 20 21  1  0  0  0
 20 47  1  0  0  0
 20 48  1  0  0  0
 21 30  1  0  0  0
 21 49  1  0  0  0
 21 50  1  0  0  0
 22 23  2  0  0  0
 22 27  1  0  0  0
 22 32  1  0  0  0
 23 24  1  0  0  0
 24 25  2  0  0  0
 24 28  1  0  0  0
 25 26  1  0  0  0
 25 29  1  0  0  0
 26 27  1  0  0  0
 26 31  2  0  0  0
 27 51  1  0  0  0
 28 30  1  0  0  0
 28 52  1  0  0  0
 29 30  2  0  0  0
 29 53  1  0  0  0
 32 54  1  0  0  0
 32 55  1  0  0  0
M  END
> <s_m_entry_id>
24963

> <s_m_entry_name>
dock_pv.116

> <s_m_Source_Path>
/home/csk/Desktop/cluster/DUD-E-result/pur2

> <s_m_Source_File>
dock_pv.maegz

> <i_m_Source_File_Index>
116

> <chembl_id>
CHEMBL2158681

> <chembl_pref_name>
None

> <i_lp_mmshare_version>
53161

> <r_lp_tautomer_probability>
1

> <s_lp_Force_Field>
OPLS_2005

> <r_lp_Energy>
13.065156

> <b_lp_Chiralities_Consistent>
1

> <s_lp_Variant>
CHEMBL3972_lig3-1

> <s_i_glide_gridfile>
glide-grid_1njs

> <i_i_glide_lignum>
4

> <i_i_glide_rotatable_bonds>
14

> <r_i_docking_score>
-8.51027351580071

> <r_i_glide_ligand_efficiency>
-0.265946047368772

> <r_i_glide_ligand_efficiency_sa>
-0.844326069744543

> <r_i_glide_ligand_efficiency_ln>
-1.90568222148231

> <r_i_glide_gscore>
-8.51027351580071

> <r_i_glide_lipo>
-2.41775557075674

> <r_i_glide_hbond>
-0.529705587317036

> <r_i_glide_metal>
0

> <r_i_glide_rewards>
-1.42859502603354

> <r_i_glide_evdw>
-54.1017074584961

> <r_i_glide_ecoul>
-16.1097106933594

> <r_i_glide_erotb>
1.13458931437263

> <r_i_glide_esite>
-0.147264669137306

> <r_i_glide_emodel>
-110.184436527278

> <r_i_glide_energy>
-70.2114181518555

> <r_i_glide_einternal>
8.72740840911865

> <i_i_glide_confnum>
399

> <i_i_glide_posenum>
201

> <r_i_glide_eff_state_penalty>
0

> <s_user_duplicate_titles>
CHEMBL3972_lig3

> <i_f3d_flags>
0

> <s_m_subgroup_title>
dock_pv

> <s_m_subgroupid>
dock_pv

> <b_m_subgroup_collapsed>
1

$$$$
CHEMBL3972_lig75
                    3D
 Schrodinger Suite 2021-1.
 54 55  0  0  1  0            999 V2000
   69.4695   14.2525   31.4016 N   0  0  0  0  0  0
   68.6468   14.4701   30.3424 C   0  0  0  0  0  0
   68.7310   13.8021   29.1637 C   0  0  0  0  0  0
   70.4840   12.6082   30.1795 N   0  0  0  0  0  0
   69.6882   12.7073   29.0921 C   0  0  0  0  0  0
   70.3884   13.3745   31.2981 C   0  0  0  0  0  0
   72.7379   21.6033   29.0371 C   0  0  0  0  0  0
   73.6138   21.3731   28.0408 N   0  0  0  0  0  0
   75.9770   21.5910   28.9629 C   0  0  0  0  0  0
   71.3958   20.9098   28.9407 C   0  0  0  0  0  0
   74.9498   21.9672   27.8612 C   0  0  2  0  0  0
   69.8178   11.9075   28.1683 O   0  0  0  0  0  0
   75.8849   25.6447   26.7304 C   0  0  0  0  0  0
   67.7559   14.2025   27.7111 S   0  0  0  0  0  0
   72.9791   22.3618   29.9789 O   0  0  0  0  0  0
   67.7716   15.4690   30.5864 N   0  0  0  0  0  0
   71.1643   19.8017   28.0989 C   0  0  0  0  0  0
   75.6992   21.1912   30.0742 O   0  0  0  0  0  0
   71.3050   13.1906   32.3398 N   0  0  0  0  0  0
   74.8890   25.9997   26.1051 O   0  0  0  0  0  0
   74.8046   23.4978   27.6181 C   0  0  0  0  0  0
   76.1128   24.2395   27.2758 C   0  0  0  0  0  0
   77.2500   21.7254   28.4910 O   0  0  0  0  0  0
   76.9834   26.4332   26.9014 O   0  0  0  0  0  0
   69.9126   19.1675   28.0766 C   0  0  0  0  0  0
   70.3367   21.3855   29.7260 C   0  0  0  0  0  0
   69.0900   20.7729   29.6910 C   0  0  0  0  0  0
   68.7172   15.5590   26.9592 C   0  0  0  0  0  0
   68.8889   19.6578   28.8908 C   0  0  0  0  0  0
   69.6483   17.9761   27.1522 C   0  0  0  0  0  0
   68.8891   16.8150   27.8318 C   0  0  0  0  0  0
   73.3117   20.7924   27.2701 H   0  0  0  0  0  0
   75.3103   21.5175   26.9348 H   0  0  0  0  0  0
   71.1996   11.9100   30.1091 H   0  0  0  0  0  0
   67.1254   15.7711   29.8760 H   0  0  0  0  0  0
   67.8236   15.9549   31.4676 H   0  0  0  0  0  0
   71.9499   19.4164   27.4650 H   0  0  0  0  0  0
   71.1398   13.7860   33.1365 H   0  0  0  0  0  0
   71.4002   12.2452   32.6701 H   0  0  0  0  0  0
   74.3559   23.9795   28.4895 H   0  0  0  0  0  0
   74.0834   23.6475   26.8111 H   0  0  0  0  0  0
   76.6744   23.6836   26.5237 H   0  0  0  0  0  0
   76.7447   24.3096   28.1614 H   0  0  0  0  0  0
   77.8821   21.4383   29.1681 H   0  0  0  0  0  0
   76.9158   27.2912   26.4652 H   0  0  0  0  0  0
   70.4666   22.2483   30.3654 H   0  0  0  0  0  0
   68.2763   21.1575   30.2902 H   0  0  0  0  0  0
   68.2046   15.8422   26.0387 H   0  0  0  0  0  0
   69.6886   15.1652   26.6637 H   0  0  0  0  0  0
   67.9138   19.1972   28.8926 H   0  0  0  0  0  0
   69.0737   18.3337   26.2971 H   0  0  0  0  0  0
   70.5951   17.6072   26.7587 H   0  0  0  0  0  0
   69.4159   16.5575   28.7478 H   0  0  0  0  0  0
   67.8955   17.1451   28.1339 H   0  0  0  0  0  0
  1  2  1  0  0  0
  1  6  2  0  0  0
  2  3  2  0  0  0
  2 16  1  0  0  0
  3 14  1  0  0  0
  3  5  1  0  0  0
  4  6  1  0  0  0
  4 34  1  0  0  0
  4  5  1  0  0  0
  5 12  2  0  0  0
  6 19  1  0  0  0
  7 10  1  0  0  0
  7  8  1  0  0  0
  7 15  2  0  0  0
  8 11  1  0  0  0
  8 32  1  0  0  0
  9 11  1  0  0  0
  9 18  2  0  0  0
  9 23  1  0  0  0
 10 17  1  0  0  0
 10 26  2  0  0  0
 11 21  1  0  0  0
 11 33  1  0  0  0
 13 22  1  0  0  0
 13 20  2  0  0  0
 13 24  1  0  0  0
 14 28  1  0  0  0
 16 35  1  0  0  0
 16 36  1  0  0  0
 17 25  2  0  0  0
 17 37  1  0  0  0
 19 38  1  0  0  0
 19 39  1  0  0  0
 21 22  1  0  0  0
 21 40  1  0  0  0
 21 41  1  0  0  0
 22 42  1  0  0  0
 22 43  1  0  0  0
 23 44  1  0  0  0
 24 45  1  0  0  0
 25 30  1  0  0  0
 25 29  1  0  0  0
 26 27  1  0  0  0
 26 46  1  0  0  0
 27 29  2  0  0  0
 27 47  1  0  0  0
 28 31  1  0  0  0
 28 48  1  0  0  0
 28 49  1  0  0  0
 29 50  1  0  0  0
 30 31  1  0  0  0
 30 51  1  0  0  0
 30 52  1  0  0  0
 31 53  1  0  0  0
 31 54  1  0  0  0
M  END
> <s_m_entry_id>
24964

> <s_m_entry_name>
dock_pv.117

> <s_m_Source_Path>
/home/csk/Desktop/cluster/DUD-E-result/pur2

> <s_m_Source_File>
dock_pv.maegz

> <i_m_Source_File_Index>
117

> <chembl_id>
CHEMBL84045

> <chembl_pref_name>
None

> <i_lp_mmshare_version>
53161

> <r_lp_tautomer_probability>
0.982528302960407

> <s_lp_Force_Field>
OPLS_2005

> <r_lp_Energy>
17.031867

> <b_lp_Chiralities_Consistent>
1

> <s_lp_Variant>
CHEMBL3972_lig75-1

> <s_i_glide_gridfile>
glide-grid_1njs

> <i_i_glide_lignum>
171

> <i_i_glide_rotatable_bonds>
14

> <r_i_docking_score>
-8.38449811849954

> <r_i_glide_ligand_efficiency>
-0.270467681241921

> <r_i_glide_ligand_efficiency_sa>
-0.849641939977979

> <r_i_glide_ligand_efficiency_ln>
-1.89096127972997

> <r_i_glide_gscore>
-8.38449811849954

> <r_i_glide_lipo>
-2.00912207604284

> <r_i_glide_hbond>
-0.469751316580821

> <r_i_glide_metal>
0

> <r_i_glide_rewards>
-1.96527039910251

> <r_i_glide_evdw>
-55.5561294555664

> <r_i_glide_ecoul>
-15.6861171722412

> <r_i_glide_erotb>
1.19036972184113

> <r_i_glide_esite>
0

> <r_i_glide_emodel>
-102.13577819416

> <r_i_glide_energy>
-71.2422466278076

> <r_i_glide_einternal>
8.66764068603516

> <i_i_glide_confnum>
144

> <i_i_glide_posenum>
206

> <r_i_glide_eff_state_penalty>
0

> <s_user_duplicate_titles>
CHEMBL3972_lig75,CHEMBL3972_lig75,135378

> <i_f3d_flags>
0

> <s_m_subgroup_title>
dock_pv

> <s_m_subgroupid>
dock_pv

> <b_m_subgroup_collapsed>
1

$$$$
CHEMBL3972_lig49
                    3D
 Schrodinger Suite 2021-1.
 52 54  0  0  1  0            999 V2000
   77.0671   26.4044   27.2154 N   0  0  0  0  0  0
   78.3532   26.1342   27.5589 C   0  0  0  0  0  0
   78.8891   24.9268   27.8259 N   0  0  0  0  0  0
   76.2080   25.3522   27.1711 C   0  0  0  0  0  0
   76.6280   24.0627   27.5239 C   0  0  0  0  0  0
   78.0008   23.9470   27.8026 C   0  0  0  0  0  0
   78.3513   22.6761   28.0913 O   0  0  0  0  0  0
   77.1816   21.9907   28.0910 C   0  0  0  0  0  0
   76.0859   22.7479   27.6868 C   0  0  0  0  0  0
   74.9249   25.5908   26.7013 N   0  0  0  0  0  0
   79.2322   27.1908   27.6915 N   0  0  0  0  0  0
   74.6506   22.3158   27.4921 C   0  0  0  0  0  0
   74.4290   20.7983   27.7134 C   0  0  0  0  0  0
   72.9886   20.4118   28.1097 C   0  0  0  0  0  0
   72.5234   21.1200   29.3613 C   0  0  0  0  0  0
   73.2252   21.4838   30.5155 C   0  0  0  0  0  0
   72.4936   22.2720   31.4271 C   0  0  0  0  0  0
   71.2512   22.5726   30.8910 C   0  0  0  0  0  0
   70.8893   21.6678   29.4747 S   0  0  0  0  0  0
   72.9598   22.7893   32.6944 C   0  0  0  0  0  0
   72.4722   23.7948   33.2120 O   0  0  0  0  0  0
   73.8865   22.0106   33.2832 N   0  0  0  0  0  0
   74.4661   22.0996   34.6288 C   0  0  1  0  0  0
   74.8375   23.5400   35.0952 C   0  0  0  0  0  0
   75.7421   23.6444   36.3562 C   0  0  0  0  0  0
   76.9079   22.6435   36.4221 C   0  0  0  0  0  0
   76.6182   21.5510   37.1901 O   0  0  0  0  0  0
   77.9822   22.7901   35.8449 O   0  0  0  0  0  0
   73.6563   21.2603   35.6393 C   0  0  0  0  0  0
   72.7443   22.0343   36.2977 O   0  0  0  0  0  0
   73.8512   20.0786   35.8269 O   0  0  0  0  0  0
   77.2854   20.9521   28.3653 H   0  0  0  0  0  0
   74.3167   24.7967   26.5570 H   0  0  0  0  0  0
   74.8520   26.4214   26.1372 H   0  0  0  0  0  0
   78.8694   28.1350   27.6470 H   0  0  0  0  0  0
   80.1488   27.0029   28.0765 H   0  0  0  0  0  0
   74.3164   22.5820   26.4921 H   0  0  0  0  0  0
   74.0286   22.9031   28.1676 H   0  0  0  0  0  0
   75.0934   20.4401   28.4914 H   0  0  0  0  0  0
   74.7413   20.2443   26.8313 H   0  0  0  0  0  0
   72.8908   19.3330   28.2310 H   0  0  0  0  0  0
   72.3206   20.6623   27.2904 H   0  0  0  0  0  0
   74.2569   21.2003   30.6613 H   0  0  0  0  0  0
   70.4906   23.2117   31.3080 H   0  0  0  0  0  0
   74.1992   21.2041   32.7640 H   0  0  0  0  0  0
   75.4156   21.5905   34.4995 H   0  0  0  0  0  0
   73.9325   24.1161   35.2884 H   0  0  0  0  0  0
   75.2887   24.0840   34.2727 H   0  0  0  0  0  0
   75.1308   23.5294   37.2524 H   0  0  0  0  0  0
   76.1560   24.6532   36.4129 H   0  0  0  0  0  0
   75.7279   21.5677   37.5464 H   0  0  0  0  0  0
   72.6655   22.9136   35.9198 H   0  0  0  0  0  0
  1  2  1  0  0  0
  1  4  2  0  0  0
  2  3  2  0  0  0
  2 11  1  0  0  0
  3  6  1  0  0  0
  4  5  1  0  0  0
  4 10  1  0  0  0
  5  6  2  0  0  0
  5  9  1  0  0  0
  6  7  1  0  0  0
  7  8  1  0  0  0
  8  9  2  0  0  0
  8 32  1  0  0  0
  9 12  1  0  0  0
 10 33  1  0  0  0
 10 34  1  0  0  0
 11 35  1  0  0  0
 11 36  1  0  0  0
 12 13  1  0  0  0
 12 37  1  0  0  0
 12 38  1  0  0  0
 13 14  1  0  0  0
 13 39  1  0  0  0
 13 40  1  0  0  0
 14 15  1  0  0  0
 14 41  1  0  0  0
 14 42  1  0  0  0
 15 16  2  0  0  0
 15 19  1  0  0  0
 16 17  1  0  0  0
 16 43  1  0  0  0
 17 18  2  0  0  0
 17 20  1  0  0  0
 18 19  1  0  0  0
 18 44  1  0  0  0
 20 21  2  0  0  0
 20 22  1  0  0  0
 22 23  1  0  0  0
 22 45  1  0  0  0
 23 24  1  0  0  0
 23 29  1  0  0  0
 23 46  1  0  0  0
 24 25  1  0  0  0
 24 47  1  0  0  0
 24 48  1  0  0  0
 25 26  1  0  0  0
 25 49  1  0  0  0
 25 50  1  0  0  0
 26 27  1  0  0  0
 26 28  2  0  0  0
 27 51  1  0  0  0
 29 30  1  0  0  0
 29 31  2  0  0  0
 30 52  1  0  0  0
M  END
> <s_m_entry_id>
24965

> <s_m_entry_name>
dock_pv.118

> <s_m_Source_Path>
/home/csk/Desktop/cluster/DUD-E-result/pur2

> <s_m_Source_File>
dock_pv.maegz

> <i_m_Source_File_Index>
118

> <chembl_id>
CHEMBL3628347

> <chembl_pref_name>
None

> <i_lp_mmshare_version>
53161

> <r_lp_tautomer_probability>
1

> <s_lp_Force_Field>
OPLS_2005

> <r_lp_Energy>
0.172427

> <b_lp_Chiralities_Consistent>
1

> <s_lp_Variant>
CHEMBL3972_lig49-1

> <s_i_glide_gridfile>
glide-grid_1njs

> <i_i_glide_lignum>
119

> <i_i_glide_rotatable_bonds>
13

> <r_i_docking_score>
-8.35078636538106

> <r_i_glide_ligand_efficiency>
-0.269380205334873

> <r_i_glide_ligand_efficiency_sa>
-0.846225764207547

> <r_i_glide_ligand_efficiency_ln>
-1.88335824626059

> <r_i_glide_gscore>
-8.35078636538106

> <r_i_glide_lipo>
-2.59701359574351

> <r_i_glide_hbond>
-0.86035084729951

> <r_i_glide_metal>
0

> <r_i_glide_rewards>
-2.45866209452861

> <r_i_glide_evdw>
-47.5840454101562

> <r_i_glide_ecoul>
-7.33029079437256

> <r_i_glide_erotb>
1.10012410540408

> <r_i_glide_esite>
-0.0561380435498088

> <r_i_glide_emodel>
-75.3431330032518

> <r_i_glide_energy>
-54.9143362045288

> <r_i_glide_einternal>
7.22087812423706

> <i_i_glide_confnum>
272

> <i_i_glide_posenum>
114

> <r_i_glide_eff_state_penalty>
0

> <s_user_duplicate_titles>
CHEMBL3972_lig49

> <i_f3d_flags>
0

> <s_m_subgroup_title>
dock_pv

> <s_m_subgroupid>
dock_pv

> <b_m_subgroup_collapsed>
1

$$$$
CHEMBL3972_lig70
                    3D
 Schrodinger Suite 2021-1.
 55 57  0  0  1  0            999 V2000
   75.0627   23.6522   28.2882 C   0  0  0  0  0  0
   76.1005   22.8215   28.5547 C   0  0  0  0  0  0
   77.3653   23.0214   28.0910 N   0  0  0  0  0  0
   76.5983   24.9324   27.0819 N   0  0  0  0  0  0
   75.3024   24.7844   27.4088 C   0  0  0  0  0  0
   77.5975   24.0796   27.4124 C   0  0  0  0  0  0
   73.4477   23.4824   29.0246 S   0  0  0  0  0  0
   76.0075   21.7468   29.3879 N   0  0  0  0  0  0
   68.2315   17.3111   28.6031 C   0  0  0  0  0  0
   67.8083   16.4363   27.6645 N   0  0  0  0  0  0
   65.5978   15.5914   28.5192 C   0  0  0  0  0  0
   69.2879   18.3025   28.1750 C   0  0  0  0  0  0
   66.9617   15.2441   27.8741 C   0  0  2  0  0  0
   74.4891   25.5909   26.9714 O   0  0  0  0  0  0
   69.0181   12.3936   27.2601 C   0  0  0  0  0  0
   67.8508   17.2858   29.7733 O   0  0  0  0  0  0
   69.4832   19.4966   28.8910 C   0  0  0  0  0  0
   65.2440   15.1910   29.6092 O   0  0  0  0  0  0
   78.8890   24.3976   27.0034 N   0  0  0  0  0  0
   68.0891   11.5907   27.2929 O   0  0  0  0  0  0
   73.5521   21.7308   29.5056 C   0  0  1  0  0  0
   67.7449   14.1667   28.6940 C   0  0  0  0  0  0
   74.8666   21.4384   30.2542 C   0  0  0  0  0  0
   69.0891   13.6828   28.0860 C   0  0  0  0  0  0
   64.8663   16.3895   27.6909 O   0  0  0  0  0  0
   70.5936   20.3125   28.6365 C   0  0  0  0  0  0
   70.1290   12.2033   26.4911 O   0  0  0  0  0  0
   70.9156   21.5047   29.5286 C   0  0  0  0  0  0
   72.2660   21.3678   30.2977 C   0  0  0  0  0  0
   70.1890   17.9858   27.1506 C   0  0  0  0  0  0
   71.2884   18.7912   26.8910 C   0  0  0  0  0  0
   71.4543   19.9720   27.5962 C   0  0  0  0  0  0
   76.8515   21.2177   29.5490 H   0  0  0  0  0  0
   68.0414   16.6394   26.7039 H   0  0  0  0  0  0
   66.7397   14.8242   26.8907 H   0  0  0  0  0  0
   76.7930   25.7482   26.5290 H   0  0  0  0  0  0
   68.8221   19.7460   29.7100 H   0  0  0  0  0  0
   79.5636   23.6660   27.1597 H   0  0  0  0  0  0
   78.9886   24.7392   26.0597 H   0  0  0  0  0  0
   73.6237   21.1607   28.5897 H   0  0  0  0  0  0
   67.0981   13.3101   28.8856 H   0  0  0  0  0  0
   67.9612   14.5668   29.6872 H   0  0  0  0  0  0
   74.8996   21.9910   31.1905 H   0  0  0  0  0  0
   74.9222   20.3911   30.5256 H   0  0  0  0  0  0
   69.7699   13.4743   28.9110 H   0  0  0  0  0  0
   69.5524   14.4738   27.4979 H   0  0  0  0  0  0
   65.2589   16.5426   26.8200 H   0  0  0  0  0  0
   70.7997   12.8839   26.5896 H   0  0  0  0  0  0
   70.8889   22.4166   28.9317 H   0  0  0  0  0  0
   70.1127   21.6251   30.2571 H   0  0  0  0  0  0
   72.2213   22.0184   31.1731 H   0  0  0  0  0  0
   72.3543   20.3596   30.7046 H   0  0  0  0  0  0
   70.0850   17.0795   26.5721 H   0  0  0  0  0  0
   71.9701   18.5485   26.0883 H   0  0  0  0  0  0
   72.2561   20.6163   27.2911 H   0  0  0  0  0  0
  1  7  1  0  0  0
  1  2  2  0  0  0
  1  5  1  0  0  0
  2  8  1  0  0  0
  2  3  1  0  0  0
  3  6  2  0  0  0
  4  6  1  0  0  0
  4 36  1  0  0  0
  4  5  1  0  0  0
  5 14  2  0  0  0
  6 19  1  0  0  0
  7 21  1  0  0  0
  8 23  1  0  0  0
  8 33  1  0  0  0
  9 12  1  0  0  0
  9 10  1  0  0  0
  9 16  2  0  0  0
 10 13  1  0  0  0
 10 34  1  0  0  0
 11 13  1  0  0  0
 11 18  2  0  0  0
 11 25  1  0  0  0
 12 17  1  0  0  0
 12 30  2  0  0  0
 13 22  1  0  0  0
 13 35  1  0  0  0
 15 24  1  0  0  0
 15 20  2  0  0  0
 15 27  1  0  0  0
 17 26  2  0  0  0
 17 37  1  0  0  0
 19 38  1  0  0  0
 19 39  1  0  0  0
 21 23  1  0  0  0
 21 29  1  0  0  0
 21 40  1  0  0  0
 22 24  1  0  0  0
 22 41  1  0  0  0
 22 42  1  0  0  0
 23 43  1  0  0  0
 23 44  1  0  0  0
 24 45  1  0  0  0
 24 46  1  0  0  0
 25 47  1  0  0  0
 26 28  1  0  0  0
 26 32  1  0  0  0
 27 48  1  0  0  0
 28 29  1  0  0  0
 28 49  1  0  0  0
 28 50  1  0  0  0
 29 51  1  0  0  0
 29 52  1  0  0  0
 30 31  1  0  0  0
 30 53  1  0  0  0
 31 32  2  0  0  0
 31 54  1  0  0  0
 32 55  1  0  0  0
M  END
> <s_m_entry_id>
24966

> <s_m_entry_name>
dock_pv.119

> <s_m_Source_Path>
/home/csk/Desktop/cluster/DUD-E-result/pur2

> <s_m_Source_File>
dock_pv.maegz

> <i_m_Source_File_Index>
119

> <chembl_id>
CHEMBL82181

> <chembl_pref_name>
None

> <i_lp_mmshare_version>
53161

> <r_lp_tautomer_probability>
0.982539515805485

> <s_lp_Force_Field>
OPLS_2005

> <r_lp_Energy>
19.048033

> <b_lp_Chiralities_Consistent>
1

> <s_lp_Variant>
CHEMBL3972_lig70-4

> <s_i_glide_gridfile>
glide-grid_1njs

> <i_i_glide_lignum>
152

> <i_i_glide_rotatable_bonds>
12

> <r_i_docking_score>
-8.34702400308898

> <r_i_glide_ligand_efficiency>
-0.260844500096531

> <r_i_glide_ligand_efficiency_sa>
-0.828129666750011

> <r_i_glide_ligand_efficiency_ln>
-1.86912620557251

> <r_i_glide_gscore>
-8.34702400308898

> <r_i_glide_lipo>
-2.17470479511594

> <r_i_glide_hbond>
-0.759618649193435

> <r_i_glide_metal>
0

> <r_i_glide_rewards>
-1.61175611271633

> <r_i_glide_evdw>
-56.4191131591797

> <r_i_glide_ecoul>
-12.3528671264648

> <r_i_glide_erotb>
0.945491095310523

> <r_i_glide_esite>
-0.0725498144450894

> <r_i_glide_emodel>
-105.336801978015

> <r_i_glide_energy>
-68.7719802856445

> <r_i_glide_einternal>
6.4072699546814

> <i_i_glide_confnum>
267

> <i_i_glide_posenum>
91

> <r_i_glide_eff_state_penalty>
0

> <s_user_duplicate_titles>
CHEMBL3972_lig70

> <i_f3d_flags>
0

> <s_m_subgroup_title>
dock_pv

> <s_m_subgroupid>
dock_pv

> <b_m_subgroup_collapsed>
1

$$$$
CHEMBL3972_lig63
                    3D
 Schrodinger Suite 2021-1.
 53 55  0  0  1  0            999 V2000
   76.3203   24.6237   26.9101 N   0  0  0  0  0  0
   75.0842   24.4949   27.4256 C   0  0  0  0  0  0
   74.7910   23.5144   28.4207 C   0  0  0  0  0  0
   77.2447   23.7515   27.3299 C   0  0  0  0  0  0
   77.0786   22.7160   28.1700 N   0  0  0  0  0  0
   75.8486   22.6039   28.7319 C   0  0  0  0  0  0
   69.2815   17.6043   27.4515 C   0  0  0  0  0  0
   68.1573   17.0272   27.9114 N   0  0  0  0  0  0
   66.0536   15.7718   28.0802 C   0  0  0  0  0  0
   67.3543   15.9766   27.2776 C   0  0  2  0  0  0
   73.5699   23.4102   29.1326 C   0  0  0  0  0  0
   69.7441   18.8430   28.1795 C   0  0  0  0  0  0
   69.1070   12.4605   27.9766 C   0  0  0  0  0  0
   74.0889   25.3323   27.0197 O   0  0  0  0  0  0
   69.9154   17.1794   26.4910 O   0  0  0  0  0  0
   65.9227   16.0607   29.2528 O   0  0  0  0  0  0
   75.6421   21.5915   29.6910 C   0  0  0  0  0  0
   70.9457   22.3843   30.0949 N   0  0  0  0  0  0
   78.5172   23.9914   26.8917 N   0  0  0  0  0  0
   68.7222   11.7976   27.0114 O   0  0  0  0  0  0
   68.1178   14.6379   27.0457 C   0  0  0  0  0  0
   68.8741   19.5725   29.0011 C   0  0  0  0  0  0
   71.0500   19.3148   27.9976 C   0  0  0  0  0  0
   73.4215   22.4534   30.1374 C   0  0  0  0  0  0
   70.5870   21.1955   29.4470 C   0  0  0  0  0  0
   68.6388   13.8885   28.2943 C   0  0  0  0  0  0
   65.1053   15.1919   27.2910 O   0  0  0  0  0  0
   72.1339   22.3698   30.9404 C   0  0  0  0  0  0
   69.9656   11.9775   28.9188 O   0  0  0  0  0  0
   74.4486   21.5515   30.4035 C   0  0  0  0  0  0
   71.4711   20.4761   28.6359 C   0  0  0  0  0  0
   69.2805   20.7542   29.6039 C   0  0  0  0  0  0
   67.7383   17.4017   28.7497 H   0  0  0  0  0  0
   67.0707   16.3854   26.3048 H   0  0  0  0  0  0
   72.7599   24.0942   28.9235 H   0  0  0  0  0  0
   73.1901   25.0843   27.2914 H   0  0  0  0  0  0
   76.4380   20.8931   29.9097 H   0  0  0  0  0  0
   70.1754   22.9168   30.4728 H   0  0  0  0  0  0
   78.6565   24.7657   26.2623 H   0  0  0  0  0  0
   79.2310   23.3094   27.0888 H   0  0  0  0  0  0
   68.9626   14.8175   26.3808 H   0  0  0  0  0  0
   67.4504   13.9752   26.4913 H   0  0  0  0  0  0
   67.8500   19.2646   29.1569 H   0  0  0  0  0  0
   71.7462   18.7982   27.3511 H   0  0  0  0  0  0
   67.8557   13.8153   29.0492 H   0  0  0  0  0  0
   69.4505   14.4620   28.7420 H   0  0  0  0  0  0
   65.2876   15.1998   26.3234 H   0  0  0  0  0  0
   72.0882   23.2127   31.6312 H   0  0  0  0  0  0
   72.1290   21.4687   31.5565 H   0  0  0  0  0  0
   70.1601   12.6174   29.6076 H   0  0  0  0  0  0
   74.3182   20.7925   31.1606 H   0  0  0  0  0  0
   72.4777   20.8153   28.4563 H   0  0  0  0  0  0
   68.5716   21.3167   30.1926 H   0  0  0  0  0  0
  1  2  2  0  0  0
  1  4  1  0  0  0
  2  3  1  0  0  0
  2 14  1  0  0  0
  3 11  2  0  0  0
  3  6  1  0  0  0
  4  5  2  0  0  0
  4 19  1  0  0  0
  5  6  1  0  0  0
  6 17  2  0  0  0
  7 12  1  0  0  0
  7  8  1  0  0  0
  7 15  2  0  0  0
  8 10  1  0  0  0
  8 33  1  0  0  0
  9 10  1  0  0  0
  9 16  2  0  0  0
  9 27  1  0  0  0
 10 21  1  0  0  0
 10 34  1  0  0  0
 11 24  1  0  0  0
 11 35  1  0  0  0
 12 22  2  0  0  0
 12 23  1  0  0  0
 13 26  1  0  0  0
 13 20  2  0  0  0
 13 29  1  0  0  0
 14 36  1  0  0  0
 17 30  1  0  0  0
 17 37  1  0  0  0
 18 28  1  0  0  0
 18 25  1  0  0  0
 18 38  1  0  0  0
 19 39  1  0  0  0
 19 40  1  0  0  0
 21 26  1  0  0  0
 21 41  1  0  0  0
 21 42  1  0  0  0
 22 32  1  0  0  0
 22 43  1  0  0  0
 23 31  2  0  0  0
 23 44  1  0  0  0
 24 28  1  0  0  0
 24 30  2  0  0  0
 25 31  1  0  0  0
 25 32  2  0  0  0
 26 45  1  0  0  0
 26 46  1  0  0  0
 27 47  1  0  0  0
 28 48  1  0  0  0
 28 49  1  0  0  0
 29 50  1  0  0  0
 30 51  1  0  0  0
 31 52  1  0  0  0
 32 53  1  0  0  0
M  END
> <s_m_entry_id>
24968

> <s_m_entry_name>
dock_pv.121

> <s_m_Source_Path>
/home/csk/Desktop/cluster/DUD-E-result/pur2

> <s_m_Source_File>
dock_pv.maegz

> <i_m_Source_File_Index>
121

> <chembl_id>
CHEMBL23977

> <chembl_pref_name>
DIDEAZAFOLATE

> <i_lp_mmshare_version>
53161

> <r_lp_tautomer_probability>
1

> <s_lp_Force_Field>
OPLS_2005

> <r_lp_Energy>
8.278282

> <b_lp_Chiralities_Consistent>
1

> <s_lp_Variant>
CHEMBL3972_lig63-2

> <s_i_glide_gridfile>
glide-grid_1njs

> <i_i_glide_lignum>
134

> <i_i_glide_rotatable_bonds>
13

> <r_i_docking_score>
-8.29468850496579

> <r_i_glide_ligand_efficiency>
-0.259209015780181

> <r_i_glide_ligand_efficiency_sa>
-0.822937327707508

> <r_i_glide_ligand_efficiency_ln>
-1.85740686093093

> <r_i_glide_gscore>
-8.29468850496579

> <r_i_glide_lipo>
-2.18016990582291

> <r_i_glide_hbond>
-0.684327333670816

> <r_i_glide_metal>
0

> <r_i_glide_rewards>
-0.846990149689135

> <r_i_glide_evdw>
-53.6537132263184

> <r_i_glide_ecoul>
-19.0046100616455

> <r_i_glide_erotb>
1.03361027205353

> <r_i_glide_esite>
-0.083434217273718

> <r_i_glide_emodel>
-103.914884098711

> <r_i_glide_energy>
-72.6583232879639

> <r_i_glide_einternal>
10.2075500488281

> <i_i_glide_confnum>
152

> <i_i_glide_posenum>
31

> <r_i_glide_eff_state_penalty>
0

> <s_user_duplicate_titles>
CHEMBL3972_lig63

> <i_f3d_flags>
0

> <s_m_subgroup_title>
dock_pv

> <s_m_subgroupid>
dock_pv

> <b_m_subgroup_collapsed>
1

$$$$
CHEMBL3972_lig27
                    3D
 Schrodinger Suite 2021-1.
 53 55  0  0  1  0            999 V2000
   76.9558   22.7482   28.4547 N   0  0  0  0  0  0
   76.3308   24.7017   27.2018 N   0  0  0  0  0  0
   75.6723   22.6229   28.8725 C   0  0  0  0  0  0
   75.0452   24.5583   27.5818 C   0  0  0  0  0  0
   74.6477   23.5365   28.4910 C   0  0  0  0  0  0
   77.2099   23.8036   27.6663 C   0  0  0  0  0  0
   68.0329   16.9485   28.7116 C   0  0  0  0  0  0
   75.4473   21.5910   29.7186 N   0  0  0  0  0  0
   68.8890   15.9681   28.3988 N   0  0  0  0  0  0
   67.7307   13.8709   27.4911 C   0  0  0  0  0  0
   68.7373   14.5093   28.4581 C   0  0  2  0  0  0
   73.3613   23.3553   29.0722 C   0  0  0  0  0  0
   68.6554   18.3216   28.8139 C   0  0  0  0  0  0
   70.4858   12.3513   30.0910 C   0  0  0  0  0  0
   74.0890   25.3943   27.0899 O   0  0  0  0  0  0
   66.8576   16.7344   29.0092 O   0  0  0  0  0  0
   67.9876   12.8446   26.8910 O   0  0  0  0  0  0
   78.5170   23.9910   27.2910 N   0  0  0  0  0  0
   69.8066   11.3517   29.8652 O   0  0  0  0  0  0
   68.5643   14.0228   29.9276 C   0  0  0  0  0  0
   69.8141   18.6795   28.0949 C   0  0  0  0  0  0
   68.0890   19.2511   29.6910 C   0  0  0  0  0  0
   74.2003   21.4317   30.2199 C   0  0  0  0  0  0
   73.1342   22.2754   29.9296 C   0  0  0  0  0  0
   69.9035   13.6690   30.6117 C   0  0  0  0  0  0
   66.5577   14.5622   27.4368 O   0  0  0  0  0  0
   69.9014   20.7910   29.2679 C   0  0  0  0  0  0
   71.8368   12.3910   29.9087 O   0  0  0  0  0  0
   68.6851   20.4896   29.8753 C   0  0  0  0  0  0
   70.4491   19.8984   28.3448 C   0  0  0  0  0  0
   71.7703   22.0510   30.5763 C   0  0  0  0  0  0
   70.5815   22.1198   29.5920 C   0  0  0  0  0  0
   69.8042   16.2758   28.1170 H   0  0  0  0  0  0
   69.6890   14.1419   28.0765 H   0  0  0  0  0  0
   72.5653   24.0613   28.8910 H   0  0  0  0  0  0
   73.1721   25.1467   27.2910 H   0  0  0  0  0  0
   78.6809   24.7034   26.5972 H   0  0  0  0  0  0
   79.1147   23.1851   27.3744 H   0  0  0  0  0  0
   67.9179   13.1436   29.9765 H   0  0  0  0  0  0
   68.0401   14.7655   30.5312 H   0  0  0  0  0  0
   70.2612   18.0120   27.3730 H   0  0  0  0  0  0
   67.1793   19.0270   30.2307 H   0  0  0  0  0  0
   74.0675   20.5932   30.8860 H   0  0  0  0  0  0
   69.7462   13.5548   31.6847 H   0  0  0  0  0  0
   70.6166   14.4841   30.4893 H   0  0  0  0  0  0
   66.5707   15.3754   27.9616 H   0  0  0  0  0  0
   72.2392   13.2493   30.0910 H   0  0  0  0  0  0
   68.1931   21.2227   30.4910 H   0  0  0  0  0  0
   71.3653   20.1441   27.8258 H   0  0  0  0  0  0
   71.6551   22.8397   31.3219 H   0  0  0  0  0  0
   71.7470   21.1178   31.1428 H   0  0  0  0  0  0
   70.8890   22.5856   28.6554 H   0  0  0  0  0  0
   69.8408   22.7993   30.0216 H   0  0  0  0  0  0
  1  3  2  0  0  0
  1  6  1  0  0  0
  2  6  2  0  0  0
  2  4  1  0  0  0
  3  5  1  0  0  0
  3  8  1  0  0  0
  4 15  1  0  0  0
  4  5  2  0  0  0
  5 12  1  0  0  0
  6 18  1  0  0  0
  7 13  1  0  0  0
  7  9  1  0  0  0
  7 16  2  0  0  0
  8 23  2  0  0  0
  9 11  1  0  0  0
  9 33  1  0  0  0
 10 11  1  0  0  0
 10 17  2  0  0  0
 10 26  1  0  0  0
 11 20  1  0  0  0
 11 34  1  0  0  0
 12 24  2  0  0  0
 12 35  1  0  0  0
 13 21  1  0  0  0
 13 22  2  0  0  0
 14 25  1  0  0  0
 14 19  2  0  0  0
 14 28  1  0  0  0
 15 36  1  0  0  0
 18 37  1  0  0  0
 18 38  1  0  0  0
 20 25  1  0  0  0
 20 39  1  0  0  0
 20 40  1  0  0  0
 21 30  2  0  0  0
 21 41  1  0  0  0
 22 29  1  0  0  0
 22 42  1  0  0  0
 23 24  1  0  0  0
 23 43  1  0  0  0
 24 31  1  0  0  0
 25 44  1  0  0  0
 25 45  1  0  0  0
 26 46  1  0  0  0
 27 32  1  0  0  0
 27 29  2  0  0  0
 27 30  1  0  0  0
 28 47  1  0  0  0
 29 48  1  0  0  0
 30 49  1  0  0  0
 31 32  1  0  0  0
 31 50  1  0  0  0
 31 51  1  0  0  0
 32 52  1  0  0  0
 32 53  1  0  0  0
M  END
> <s_m_entry_id>
24970

> <s_m_entry_name>
dock_pv.123

> <s_m_Source_Path>
/home/csk/Desktop/cluster/DUD-E-result/pur2

> <s_m_Source_File>
dock_pv.maegz

> <i_m_Source_File_Index>
123

> <chembl_id>
CHEMBL350097

> <chembl_pref_name>
None

> <i_lp_mmshare_version>
53161

> <r_lp_tautomer_probability>
1

> <s_lp_Force_Field>
OPLS_2005

> <r_lp_Energy>
5.878901

> <b_lp_Chiralities_Consistent>
1

> <s_lp_Variant>
CHEMBL3972_lig27-1

> <s_i_glide_gridfile>
glide-grid_1njs

> <i_i_glide_lignum>
84

> <i_i_glide_rotatable_bonds>
13

> <r_i_docking_score>
-8.2634902383307

> <r_i_glide_ligand_efficiency>
-0.258234069947834

> <r_i_glide_ligand_efficiency_sa>
-0.819842067631325

> <r_i_glide_ligand_efficiency_ln>
-1.8504207185987

> <r_i_glide_gscore>
-8.2634902383307

> <r_i_glide_lipo>
-1.9431336502582

> <r_i_glide_hbond>
-0.710992009887358

> <r_i_glide_metal>
0

> <r_i_glide_rewards>
-1.94609734529038

> <r_i_glide_evdw>
-48.3519744873047

> <r_i_glide_ecoul>
-14.8462228775024

> <r_i_glide_erotb>
1.03361027205353

> <r_i_glide_esite>
-0.0523453489576829

> <r_i_glide_emodel>
-86.0780657309973

> <r_i_glide_energy>
-63.1981973648071

> <r_i_glide_einternal>
15.1687994003296

> <i_i_glide_confnum>
148

> <i_i_glide_posenum>
355

> <r_i_glide_eff_state_penalty>
0

> <s_user_duplicate_titles>
CHEMBL3972_lig27,285983

> <i_f3d_flags>
0

> <s_m_subgroup_title>
dock_pv

> <s_m_subgroupid>
dock_pv

> <b_m_subgroup_collapsed>
1

$$$$
CHEMBL3972_lig79
                    3D
 Schrodinger Suite 2021-1.
 55 57  0  0  1  0            999 V2000
   67.4965   14.4224   30.1637 C   0  0  0  0  0  0
   66.4228   14.9316   30.9250 C   0  0  0  0  0  0
   65.6309   14.1399   31.6850 N   0  0  0  0  0  0
   66.9195   12.2344   30.9930 N   0  0  0  0  0  0
   67.7041   13.0304   30.2217 C   0  0  0  0  0  0
   65.9296   12.8278   31.6911 C   0  0  0  0  0  0
   68.4724   15.4491   29.0802 S   0  0  0  0  0  0
   66.1278   16.2987   31.0370 N   0  0  0  0  0  0
   73.7714   22.4680   28.6788 C   0  0  0  0  0  0
   73.6897   23.6177   27.9723 N   0  0  0  0  0  0
   74.8690   24.8550   26.1182 C   0  0  0  0  0  0
   74.7274   24.6290   27.6362 C   0  0  2  0  0  0
   72.4655   21.7733   28.9288 C   0  0  0  0  0  0
   68.7145   12.5219   29.4518 O   0  0  0  0  0  0
   78.4982   25.1753   27.8185 C   0  0  0  0  0  0
   74.7993   21.9910   29.1579 O   0  0  0  0  0  0
   74.7158   23.9910   25.2920 O   0  0  0  0  0  0
   65.1407   12.0083   32.4761 N   0  0  0  0  0  0
   78.8890   24.0215   27.6830 O   0  0  0  0  0  0
   68.2073   17.0433   29.9030 C   0  0  2  0  0  0
   76.1159   24.3533   28.2573 C   0  0  0  0  0  0
   71.7526   21.1907   27.8813 C   0  0  0  0  0  0
   71.9890   21.6472   30.2335 C   0  0  0  0  0  0
   66.6923   17.2568   30.0908 C   0  0  0  0  0  0
   77.1022   25.5447   28.2750 C   0  0  0  0  0  0
   75.1953   26.1530   25.8407 O   0  0  0  0  0  0
   70.0835   20.3934   29.4121 C   0  0  0  0  0  0
   79.2890   26.2740   27.6903 O   0  0  0  0  0  0
   70.8075   20.9549   30.4695 C   0  0  0  0  0  0
   70.5564   20.5241   28.1094 C   0  0  0  0  0  0
   68.8390   19.5601   29.7007 C   0  0  0  0  0  0
   68.8767   18.1492   29.0565 C   0  0  0  0  0  0
   65.2191   16.5453   31.4025 H   0  0  0  0  0  0
   72.7540   23.9073   27.6909 H   0  0  0  0  0  0
   74.3320   25.5449   28.0704 H   0  0  0  0  0  0
   69.1625   13.2444   29.0038 H   0  0  0  0  0  0
   65.4115   11.0468   32.5982 H   0  0  0  0  0  0
   64.4462   12.4425   33.0649 H   0  0  0  0  0  0
   68.7030   16.9860   30.8744 H   0  0  0  0  0  0
   76.5357   23.4627   27.7839 H   0  0  0  0  0  0
   75.9889   24.0660   29.2911 H   0  0  0  0  0  0
   72.1560   21.1910   26.8910 H   0  0  0  0  0  0
   72.5424   22.0576   31.0668 H   0  0  0  0  0  0
   66.4958   18.2524   30.4910 H   0  0  0  0  0  0
   66.1640   17.1910   29.1383 H   0  0  0  0  0  0
   77.2147   25.9010   29.2910 H   0  0  0  0  0  0
   76.7718   26.3999   27.6951 H   0  0  0  0  0  0
   75.4457   26.6574   26.6147 H   0  0  0  0  0  0
   80.2078   26.0542   27.5162 H   0  0  0  0  0  0
   70.4891   20.8054   31.4871 H   0  0  0  0  0  0
   70.0331   20.0656   27.2834 H   0  0  0  0  0  0
   68.7275   19.4663   30.7827 H   0  0  0  0  0  0
   67.9596   20.1076   29.3639 H   0  0  0  0  0  0
   68.4311   18.1897   28.0610 H   0  0  0  0  0  0
   69.9146   17.8546   28.8910 H   0  0  0  0  0  0
  1  2  1  0  0  0
  1  5  2  0  0  0
  1  7  1  0  0  0
  2  3  2  0  0  0
  2  8  1  0  0  0
  3  6  1  0  0  0
  4  5  1  0  0  0
  4  6  2  0  0  0
  5 14  1  0  0  0
  6 18  1  0  0  0
  7 20  1  0  0  0
  8 24  1  0  0  0
  8 33  1  0  0  0
  9 13  1  0  0  0
  9 10  1  0  0  0
  9 16  2  0  0  0
 10 12  1  0  0  0
 10 34  1  0  0  0
 11 12  1  0  0  0
 11 17  2  0  0  0
 11 26  1  0  0  0
 12 21  1  0  0  0
 12 35  1  0  0  0
 13 22  1  0  0  0
 13 23  2  0  0  0
 14 36  1  0  0  0
 15 25  1  0  0  0
 15 19  2  0  0  0
 15 28  1  0  0  0
 18 37  1  0  0  0
 18 38  1  0  0  0
 20 24  1  0  0  0
 20 32  1  0  0  0
 20 39  1  0  0  0
 21 25  1  0  0  0
 21 40  1  0  0  0
 21 41  1  0  0  0
 22 30  2  0  0  0
 22 42  1  0  0  0
 23 29  1  0  0  0
 23 43  1  0  0  0
 24 44  1  0  0  0
 24 45  1  0  0  0
 25 46  1  0  0  0
 25 47  1  0  0  0
 26 48  1  0  0  0
 27 31  1  0  0  0
 27 29  2  0  0  0
 27 30  1  0  0  0
 28 49  1  0  0  0
 29 50  1  0  0  0
 30 51  1  0  0  0
 31 32  1  0  0  0
 31 52  1  0  0  0
 31 53  1  0  0  0
 32 54  1  0  0  0
 32 55  1  0  0  0
M  END
> <s_m_entry_id>
24972

> <s_m_entry_name>
dock_pv.125

> <s_m_Source_Path>
/home/csk/Desktop/cluster/DUD-E-result/pur2

> <s_m_Source_File>
dock_pv.maegz

> <i_m_Source_File_Index>
125

> <chembl_id>
CHEMBL315076

> <chembl_pref_name>
None

> <i_lp_mmshare_version>
53161

> <r_lp_tautomer_probability>
0.0160306447209791

> <s_lp_Force_Field>
OPLS_2005

> <r_lp_Energy>
7.192176

> <b_lp_Chiralities_Consistent>
1

> <s_lp_Variant>
CHEMBL3972_lig79-6

> <s_i_glide_gridfile>
glide-grid_1njs

> <i_i_glide_lignum>
186

> <i_i_glide_rotatable_bonds>
13

> <r_i_docking_score>
-8.19956798785116

> <r_i_glide_ligand_efficiency>
-0.256236499620349

> <r_i_glide_ligand_efficiency_sa>
-0.813500177160189

> <r_i_glide_ligand_efficiency_ln>
-1.8361067842616

> <r_i_glide_gscore>
-8.19956798785116

> <r_i_glide_lipo>
-2.26318081823437

> <r_i_glide_hbond>
-0.559271686355492

> <r_i_glide_metal>
0

> <r_i_glide_rewards>
-1.65462410272385

> <r_i_glide_evdw>
-42.4078674316406

> <r_i_glide_ecoul>
-16.0305576324463

> <r_i_glide_erotb>
0.945491095310523

> <r_i_glide_esite>
-0.143005459399001

> <r_i_glide_emodel>
-75.2346114000088

> <r_i_glide_energy>
-58.4384250640869

> <r_i_glide_einternal>
14.4968194961548

> <i_i_glide_confnum>
345

> <i_i_glide_posenum>
181

> <r_i_glide_eff_state_penalty>
0

> <s_user_duplicate_titles>
CHEMBL3972_lig79,135393

> <i_f3d_flags>
0

> <s_m_subgroup_title>
dock_pv

> <s_m_subgroupid>
dock_pv

> <b_m_subgroup_collapsed>
1

$$$$
CHEMBL3972_lig39
                    3D
 Schrodinger Suite 2021-1.
 57 59  0  0  1  0            999 V2000
   71.0917   11.3750   27.2593 N   0  0  0  0  0  0
   71.9001   11.5910   28.3456 C   0  0  0  0  0  0
   71.4269   11.9543   29.4814 N   0  0  0  0  0  0
   69.7602   11.6435   27.1551 C   0  0  0  0  0  0
   69.2527   12.1557   28.4229 C   0  0  0  0  0  0
   70.1037   12.2557   29.5144 C   0  0  0  0  0  0
   69.3419   13.0003   30.8770 S   0  0  0  0  0  0
   67.8959   13.2882   29.9414 C   0  0  0  0  0  0
   68.0065   12.6702   28.6979 C   0  0  0  0  0  0
   66.8069   14.2314   30.3957 C   0  0  0  0  0  0
   67.0176   15.6462   29.8003 C   0  0  0  0  0  0
   67.3521   15.6598   28.2832 C   0  0  0  0  0  0
   67.3940   17.0273   27.6003 C   0  0  0  0  0  0
   68.4371   17.9914   28.1485 C   0  0  0  0  0  0
   69.1693   11.4914   26.0897 O   0  0  0  0  0  0
   73.2692   11.5907   28.1535 N   0  0  0  0  0  0
   68.1229   18.7299   29.2912 C   0  0  0  0  0  0
   68.8903   19.8292   29.6384 C   0  0  0  0  0  0
   70.0476   20.1464   28.9095 C   0  0  0  0  0  0
   70.3981   19.3565   27.8019 C   0  0  0  0  0  0
   69.5873   18.2907   27.4172 C   0  0  0  0  0  0
   70.8814   21.3281   29.3496 C   0  0  0  0  0  0
   72.1583   21.3745   28.9299 N   0  0  0  0  0  0
   70.3924   22.1842   30.0894 O   0  0  0  0  0  0
   73.1097   22.4562   29.2176 C   0  0  1  0  0  0
   73.3141   22.6757   30.7497 C   0  0  0  0  0  0
   73.7000   21.4315   31.5860 C   0  0  0  0  0  0
   73.6890   21.7072   33.0961 C   0  0  0  0  0  0
   73.3540   20.6129   33.8348 O   0  0  0  0  0  0
   73.9603   22.7904   33.6056 O   0  0  0  0  0  0
   74.4344   22.2399   28.4540 C   0  0  0  0  0  0
   75.1585   23.3976   28.4563 O   0  0  0  0  0  0
   74.7610   21.1979   27.9234 O   0  0  0  0  0  0
   71.5338   11.1602   26.3809 H   0  0  0  0  0  0
   67.2890   12.7702   27.9097 H   0  0  0  0  0  0
   66.7636   14.2939   31.4838 H   0  0  0  0  0  0
   65.8301   13.8583   30.0901 H   0  0  0  0  0  0
   67.8276   16.1340   30.3448 H   0  0  0  0  0  0
   66.1246   16.2442   29.9888 H   0  0  0  0  0  0
   66.6188   15.0491   27.7527 H   0  0  0  0  0  0
   68.3261   15.1987   28.1127 H   0  0  0  0  0  0
   66.4130   17.4989   27.6572 H   0  0  0  0  0  0
   67.5585   16.8921   26.5288 H   0  0  0  0  0  0
   73.6885   12.2692   28.7591 H   0  0  0  0  0  0
   73.5685   11.8017   27.2083 H   0  0  0  0  0  0
   67.2296   18.5176   29.8562 H   0  0  0  0  0  0
   68.5859   20.4255   30.4851 H   0  0  0  0  0  0
   71.2632   19.5853   27.1943 H   0  0  0  0  0  0
   69.8194   17.7483   26.5125 H   0  0  0  0  0  0
   72.5248   20.6358   28.3452 H   0  0  0  0  0  0
   72.6589   23.3622   28.8030 H   0  0  0  0  0  0
   72.4204   23.1341   31.1760 H   0  0  0  0  0  0
   74.0768   23.4365   30.8869 H   0  0  0  0  0  0
   74.6901   21.0795   31.2951 H   0  0  0  0  0  0
   73.0017   20.6219   31.3764 H   0  0  0  0  0  0
   73.1378   19.8385   33.3104 H   0  0  0  0  0  0
   74.6897   24.1165   28.8836 H   0  0  0  0  0  0
  1  2  1  0  0  0
  1  4  1  0  0  0
  1 34  1  0  0  0
  2 16  1  0  0  0
  2  3  2  0  0  0
  3  6  1  0  0  0
  4  5  1  0  0  0
  4 15  2  0  0  0
  5  9  1  0  0  0
  5  6  2  0  0  0
  6  7  1  0  0  0
  7  8  1  0  0  0
  8  9  2  0  0  0
  8 10  1  0  0  0
  9 35  1  0  0  0
 10 11  1  0  0  0
 10 36  1  0  0  0
 10 37  1  0  0  0
 11 12  1  0  0  0
 11 38  1  0  0  0
 11 39  1  0  0  0
 12 13  1  0  0  0
 12 40  1  0  0  0
 12 41  1  0  0  0
 13 14  1  0  0  0
 13 42  1  0  0  0
 13 43  1  0  0  0
 14 17  2  0  0  0
 14 21  1  0  0  0
 16 44  1  0  0  0
 16 45  1  0  0  0
 17 18  1  0  0  0
 17 46  1  0  0  0
 18 19  2  0  0  0
 18 47  1  0  0  0
 19 20  1  0  0  0
 19 22  1  0  0  0
 20 21  2  0  0  0
 20 48  1  0  0  0
 21 49  1  0  0  0
 22 23  1  0  0  0
 22 24  2  0  0  0
 23 25  1  0  0  0
 23 50  1  0  0  0
 25 26  1  0  0  0
 25 31  1  0  0  0
 25 51  1  0  0  0
 26 27  1  0  0  0
 26 52  1  0  0  0
 26 53  1  0  0  0
 27 28  1  0  0  0
 27 54  1  0  0  0
 27 55  1  0  0  0
 28 29  1  0  0  0
 28 30  2  0  0  0
 29 56  1  0  0  0
 31 32  1  0  0  0
 31 33  2  0  0  0
 32 57  1  0  0  0
M  END
> <s_m_entry_id>
24974

> <s_m_entry_name>
dock_pv.127

> <s_m_Source_Path>
/home/csk/Desktop/cluster/DUD-E-result/pur2

> <s_m_Source_File>
dock_pv.maegz

> <i_m_Source_File_Index>
127

> <chembl_id>
CHEMBL491104

> <chembl_pref_name>
None

> <i_lp_mmshare_version>
53161

> <r_lp_tautomer_probability>
1

> <s_lp_Force_Field>
OPLS_2005

> <r_lp_Energy>
11.762457

> <b_lp_Chiralities_Consistent>
1

> <s_lp_Variant>
CHEMBL3972_lig39-1

> <s_i_glide_gridfile>
glide-grid_1njs

> <i_i_glide_lignum>
109

> <i_i_glide_rotatable_bonds>
14

> <r_i_docking_score>
-8.15270232654489

> <r_i_glide_ligand_efficiency>
-0.247051585652875

> <r_i_glide_ligand_efficiency_sa>
-0.792426441337927

> <r_i_glide_ligand_efficiency_ln>
-1.8131187849901

> <r_i_glide_gscore>
-8.15270232654489

> <r_i_glide_lipo>
-1.50302484024216

> <r_i_glide_hbond>
-0.655611150068229

> <r_i_glide_metal>
0

> <r_i_glide_rewards>
-1.97401607253358

> <r_i_glide_evdw>
-48.4056510925293

> <r_i_glide_ecoul>
-14.5368709564209

> <r_i_glide_erotb>
0.760751176184936

> <r_i_glide_esite>
-0.179988241796246

> <r_i_glide_emodel>
-88.2341985616885

> <r_i_glide_energy>
-62.9425220489502

> <r_i_glide_einternal>
8.66612529754639

> <i_i_glide_confnum>
114

> <i_i_glide_posenum>
384

> <r_i_glide_eff_state_penalty>
0

> <s_user_duplicate_titles>
CHEMBL3972_lig39,461019

> <i_f3d_flags>
0

> <s_m_subgroup_title>
dock_pv

> <s_m_subgroupid>
dock_pv

> <b_m_subgroup_collapsed>
1

$$$$
CHEMBL3972_lig22
                    3D
 Schrodinger Suite 2021-1.
 57 59  0  0  1  0            999 V2000
   73.6976   21.5092   28.5311 C   0  0  0  0  0  0
   74.8959   21.6852   27.9090 N   0  0  0  0  0  0
   73.5231   21.4352   29.8673 C   0  0  0  0  0  0
   75.8480   21.5910   29.9827 N   0  0  0  0  0  0
   74.6976   21.5401   30.6910 C   0  0  0  0  0  0
   75.9437   21.7385   28.6381 C   0  0  0  0  0  0
   72.6586   21.3643   27.6911 N   0  0  0  0  0  0
   67.8054   14.5561   28.9693 C   0  0  0  0  0  0
   68.7215   13.8524   28.2823 N   0  0  0  0  0  0
   69.6016   11.8264   27.1683 C   0  0  0  0  0  0
   68.9082   12.4078   28.4144 C   0  0  1  0  0  0
   72.1660   21.1892   30.5140 C   0  0  0  0  0  0
   68.0272   16.0478   29.0125 C   0  0  0  0  0  0
   74.6989   21.5905   31.9157 O   0  0  0  0  0  0
   70.9806   12.9607   31.7602 C   0  0  0  0  0  0
   66.9098   14.0215   29.6281 O   0  0  0  0  0  0
   69.0050   11.5916   26.1391 O   0  0  0  0  0  0
   77.2092   21.9917   28.0914 N   0  0  0  0  0  0
   70.2822   12.3656   32.5759 O   0  0  0  0  0  0
   69.5437   12.0787   29.8052 C   0  0  0  0  0  0
   68.6554   16.7365   27.9621 C   0  0  0  0  0  0
   67.6327   16.7552   30.1546 C   0  0  0  0  0  0
   71.2624   21.3670   28.0836 C   0  0  0  0  0  0
   70.7398   12.9674   30.2525 C   0  0  0  0  0  0
   70.9244   11.5909   27.3917 O   0  0  0  0  0  0
   71.1240   20.6948   29.4710 C   0  0  2  0  0  0
   68.4779   18.8006   29.2012 C   0  0  0  0  0  0
   72.0891   13.6778   32.0914 O   0  0  0  0  0  0
   68.8895   18.1060   28.0622 C   0  0  0  0  0  0
   67.8577   18.1226   30.2497 C   0  0  0  0  0  0
   68.5628   20.3174   29.2576 C   0  0  0  0  0  0
   69.7263   20.8652   30.0818 C   0  0  0  0  0  0
   72.8892   21.1399   26.7258 H   0  0  0  0  0  0
   69.3851   14.3468   27.7070 H   0  0  0  0  0  0
   67.9206   11.9418   28.4072 H   0  0  0  0  0  0
   71.8315   22.1251   30.9678 H   0  0  0  0  0  0
   72.2482   20.4686   31.3308 H   0  0  0  0  0  0
   76.6841   21.6233   30.5373 H   0  0  0  0  0  0
   77.3271   21.9898   27.0909 H   0  0  0  0  0  0
   78.0389   21.7539   28.6158 H   0  0  0  0  0  0
   69.8394   11.0298   29.8440 H   0  0  0  0  0  0
   68.7478   12.1539   30.5491 H   0  0  0  0  0  0
   68.9546   16.2304   27.0556 H   0  0  0  0  0  0
   67.1475   16.2523   30.9796 H   0  0  0  0  0  0
   70.6721   20.8417   27.3321 H   0  0  0  0  0  0
   70.8890   22.3902   28.1086 H   0  0  0  0  0  0
   70.5596   14.0146   30.0134 H   0  0  0  0  0  0
   71.6616   12.6793   29.7480 H   0  0  0  0  0  0
   71.2036   11.9290   28.2436 H   0  0  0  0  0  0
   71.2804   19.6292   29.2917 H   0  0  0  0  0  0
   72.5202   14.0925   31.3351 H   0  0  0  0  0  0
   69.3458   18.6324   27.2346 H   0  0  0  0  0  0
   67.5222   18.6581   31.1266 H   0  0  0  0  0  0
   68.5893   20.7311   28.2510 H   0  0  0  0  0  0
   67.6318   20.6864   29.6912 H   0  0  0  0  0  0
   69.5478   21.9281   30.2561 H   0  0  0  0  0  0
   69.7206   20.3738   31.0480 H   0  0  0  0  0  0
  1  3  2  0  0  0
  1  7  1  0  0  0
  1  2  1  0  0  0
  2  6  2  0  0  0
  3 12  1  0  0  0
  3  5  1  0  0  0
  4  6  1  0  0  0
  4 38  1  0  0  0
  4  5  1  0  0  0
  5 14  2  0  0  0
  6 18  1  0  0  0
  7 23  1  0  0  0
  7 33  1  0  0  0
  8 13  1  0  0  0
  8  9  1  0  0  0
  8 16  2  0  0  0
  9 11  1  0  0  0
  9 34  1  0  0  0
 10 11  1  0  0  0
 10 17  2  0  0  0
 10 25  1  0  0  0
 11 20  1  0  0  0
 11 35  1  0  0  0
 12 26  1  0  0  0
 12 36  1  0  0  0
 12 37  1  0  0  0
 13 22  1  0  0  0
 13 21  2  0  0  0
 15 24  1  0  0  0
 15 19  2  0  0  0
 15 28  1  0  0  0
 18 39  1  0  0  0
 18 40  1  0  0  0
 20 24  1  0  0  0
 20 41  1  0  0  0
 20 42  1  0  0  0
 21 29  1  0  0  0
 21 43  1  0  0  0
 22 30  2  0  0  0
 22 44  1  0  0  0
 23 26  1  0  0  0
 23 45  1  0  0  0
 23 46  1  0  0  0
 24 47  1  0  0  0
 24 48  1  0  0  0
 25 49  1  0  0  0
 26 32  1  0  0  0
 26 50  1  0  0  0
 27 31  1  0  0  0
 27 29  2  0  0  0
 27 30  1  0  0  0
 28 51  1  0  0  0
 29 52  1  0  0  0
 30 53  1  0  0  0
 31 32  1  0  0  0
 31 54  1  0  0  0
 31 55  1  0  0  0
 32 56  1  0  0  0
 32 57  1  0  0  0
M  END
> <s_m_entry_id>
24977

> <s_m_entry_name>
dock_pv.130

> <s_m_Source_Path>
/home/csk/Desktop/cluster/DUD-E-result/pur2

> <s_m_Source_File>
dock_pv.maegz

> <i_m_Source_File_Index>
130

> <chembl_id>
CHEMBL170101

> <chembl_pref_name>
None

> <i_lp_mmshare_version>
53161

> <r_lp_tautomer_probability>
0.982539515805485

> <s_lp_Force_Field>
OPLS_2005

> <r_lp_Energy>
17.855836

> <b_lp_Chiralities_Consistent>
1

> <s_lp_Variant>
CHEMBL3972_lig22-1

> <s_i_glide_gridfile>
glide-grid_1njs

> <i_i_glide_lignum>
60

> <i_i_glide_rotatable_bonds>
12

> <r_i_docking_score>
-7.98197164767436

> <r_i_glide_ligand_efficiency>
-0.249436613989824

> <r_i_glide_ligand_efficiency_sa>
-0.791911885978812

> <r_i_glide_ligand_efficiency_ln>
-1.7873810322438

> <r_i_glide_gscore>
-7.98197164767436

> <r_i_glide_lipo>
-2.174802376613

> <r_i_glide_hbond>
-1.3115348323956

> <r_i_glide_metal>
0

> <r_i_glide_rewards>
-1.05773220789951

> <r_i_glide_evdw>
-43.3449211120605

> <r_i_glide_ecoul>
-14.7215003967285

> <r_i_glide_erotb>
1.01661454436344

> <r_i_glide_esite>
-0.0790456600173821

> <r_i_glide_emodel>
-77.2399414642813

> <r_i_glide_energy>
-58.0664215087891

> <r_i_glide_einternal>
5.50101852416992

> <i_i_glide_confnum>
128

> <i_i_glide_posenum>
114

> <r_i_glide_eff_state_penalty>
0

> <s_user_duplicate_titles>
CHEMBL3972_lig22

> <i_f3d_flags>
0

> <s_m_subgroup_title>
dock_pv

> <s_m_subgroupid>
dock_pv

> <b_m_subgroup_collapsed>
1

$$$$
CHEMBL3972_lig55 
                    3D
 Schrodinger Suite 2021-1.
 55 57  0  0  1  0            999 V2000
   68.5229   12.1525   28.6201 N   0  0  0  0  0  0
   68.0390   12.7988   29.7437 C   0  0  0  0  0  0
   67.9098   14.0818   29.7648 N   0  0  0  0  0  0
   68.9406   12.7072   27.4361 C   0  0  0  0  0  0
   68.8756   14.1657   27.5159 C   0  0  0  0  0  0
   68.3381   14.7513   28.6568 C   0  0  0  0  0  0
   68.3313   16.1123   28.4893 N   0  0  0  0  0  0
   68.8889   16.4313   27.2702 C   0  0  0  0  0  0
   69.2211   15.2215   26.6611 C   0  0  0  0  0  0
   67.6608   12.0263   30.8580 N   0  0  0  0  0  0
   69.2888   11.9983   26.4911 O   0  0  0  0  0  0
   69.0378   17.8444   26.7445 C   0  0  0  0  0  0
   69.6572   18.9108   27.6568 C   0  0  0  0  0  0
   68.9575   19.1938   28.9867 C   0  0  0  0  0  0
   69.2178   20.6118   29.5368 C   0  0  0  0  0  0
   70.6842   21.0126   29.6885 C   0  0  0  0  0  0
   71.3849   20.9698   30.8860 C   0  0  0  0  0  0
   72.9993   21.5785   30.8051 S   0  0  0  0  0  0
   72.8106   21.8127   29.1023 C   0  0  0  0  0  0
   71.5256   21.4898   28.6637 C   0  0  0  0  0  0
   73.9020   22.3100   28.3315 C   0  0  0  0  0  0
   74.4898   21.6009   27.5155 O   0  0  0  0  0  0
   74.2201   23.5932   28.5851 N   0  0  0  0  0  0
   75.2944   24.3919   27.9622 C   0  0  1  0  0  0
   76.6933   23.7378   28.2215 C   0  0  0  0  0  0
   74.9944   24.7590   26.4896 C   0  0  0  0  0  0
   77.9277   24.2791   27.4563 C   0  0  0  0  0  0
   78.3282   25.7200   27.7829 C   0  0  0  0  0  0
   77.5409   26.6069   28.0906 O   0  0  0  0  0  0
   79.6732   25.9097   27.6914 O   0  0  0  0  0  0
   74.8896   25.9019   26.0915 O   0  0  0  0  0  0
   74.8942   23.6363   25.7265 O   0  0  0  0  0  0
   71.1277   21.6143   27.4200 F   0  0  0  0  0  0
   68.5860   11.1500   28.6446 H   0  0  0  0  0  0
   67.9764   16.7728   29.1632 H   0  0  0  0  0  0
   69.6879   15.1325   25.6908 H   0  0  0  0  0  0
   67.4732   12.5327   31.7126 H   0  0  0  0  0  0
   68.1919   11.1923   31.0550 H   0  0  0  0  0  0
   68.0937   18.1939   26.3249 H   0  0  0  0  0  0
   69.7395   17.8174   25.9213 H   0  0  0  0  0  0
   69.6486   19.8273   27.0696 H   0  0  0  0  0  0
   70.7094   18.6797   27.8350 H   0  0  0  0  0  0
   69.2828   18.4375   29.6909 H   0  0  0  0  0  0
   67.8812   19.0580   28.8908 H   0  0  0  0  0  0
   68.6993   20.7008   30.4903 H   0  0  0  0  0  0
   68.7070   21.3191   28.8901 H   0  0  0  0  0  0
   71.0137   20.5832   31.8162 H   0  0  0  0  0  0
   73.5959   24.1087   29.1894 H   0  0  0  0  0  0
   75.2906   25.3456   28.4880 H   0  0  0  0  0  0
   76.6667   22.6674   28.0258 H   0  0  0  0  0  0
   76.8888   23.8078   29.2900 H   0  0  0  0  0  0
   77.7678   24.1918   26.3852 H   0  0  0  0  0  0
   78.7779   23.6343   27.6788 H   0  0  0  0  0  0
   79.9342   26.8010   27.9385 H   0  0  0  0  0  0
   74.8639   22.8397   26.2753 H   0  0  0  0  0  0
  1  2  1  0  0  0
  1  4  1  0  0  0
  1 34  1  0  0  0
  2  3  2  0  0  0
  2 10  1  0  0  0
  3  6  1  0  0  0
  4  5  1  0  0  0
  4 11  2  0  0  0
  5  6  2  0  0  0
  5  9  1  0  0  0
  6  7  1  0  0  0
  7  8  1  0  0  0
  7 35  1  0  0  0
  8  9  2  0  0  0
  8 12  1  0  0  0
  9 36  1  0  0  0
 10 37  1  0  0  0
 10 38  1  0  0  0
 12 13  1  0  0  0
 12 39  1  0  0  0
 12 40  1  0  0  0
 13 14  1  0  0  0
 13 41  1  0  0  0
 13 42  1  0  0  0
 14 15  1  0  0  0
 14 43  1  0  0  0
 14 44  1  0  0  0
 15 16  1  0  0  0
 15 45  1  0  0  0
 15 46  1  0  0  0
 16 17  2  0  0  0
 16 20  1  0  0  0
 17 18  1  0  0  0
 17 47  1  0  0  0
 18 19  1  0  0  0
 19 20  2  0  0  0
 19 21  1  0  0  0
 20 33  1  0  0  0
 21 22  2  0  0  0
 21 23  1  0  0  0
 23 24  1  0  0  0
 23 48  1  0  0  0
 24 25  1  0  0  0
 24 26  1  0  0  0
 24 49  1  0  0  0
 25 27  1  0  0  0
 25 50  1  0  0  0
 25 51  1  0  0  0
 26 31  2  0  0  0
 26 32  1  0  0  0
 27 28  1  0  0  0
 27 52  1  0  0  0
 27 53  1  0  0  0
 28 29  2  0  0  0
 28 30  1  0  0  0
 30 54  1  0  0  0
 32 55  1  0  0  0
M  END
> <s_m_entry_id>
24979

> <s_m_entry_name>
dock_pv.132

> <s_m_Source_Path>
/home/csk/Desktop/cluster/DUD-E-result/pur2

> <s_m_Source_File>
dock_pv.maegz

> <i_m_Source_File_Index>
132

> <chembl_id>
CHEMBL4465095

> <chembl_pref_name>
None

> <i_lp_mmshare_version>
53161

> <r_lp_tautomer_probability>
1

> <s_lp_Force_Field>
OPLS_2005

> <r_lp_Energy>
14.133275

> <b_lp_Chiralities_Consistent>
1

> <s_lp_Variant>
CHEMBL3972_lig55 -1

> <s_i_glide_gridfile>
glide-grid_1njs

> <i_i_glide_lignum>
125

> <i_i_glide_rotatable_bonds>
14

> <r_i_docking_score>
-7.96030211643695

> <r_i_glide_ligand_efficiency>
-0.241221276255665

> <r_i_glide_ligand_efficiency_sa>
-0.773725523813674

> <r_i_glide_ligand_efficiency_ln>
-1.77032997445707

> <r_i_glide_gscore>
-7.96030211643695

> <r_i_glide_lipo>
-2.32892034681921

> <r_i_glide_hbond>
-0.40883435533323

> <r_i_glide_metal>
0

> <r_i_glide_rewards>
-1.29917383506098

> <r_i_glide_evdw>
-53.530704498291

> <r_i_glide_ecoul>
-14.3559904098511

> <r_i_glide_erotb>
1.05811639789568

> <r_i_glide_esite>
-0.151556190727001

> <r_i_glide_emodel>
-90.4146852247869

> <r_i_glide_energy>
-67.8866949081421

> <r_i_glide_einternal>
10.9269514083862

> <i_i_glide_confnum>
87

> <i_i_glide_posenum>
154

> <r_i_glide_eff_state_penalty>
0

> <s_user_duplicate_titles>
CHEMBL3972_lig55 

> <i_f3d_flags>
0

> <s_m_subgroup_title>
dock_pv

> <s_m_subgroupid>
dock_pv

> <b_m_subgroup_collapsed>
1

$$$$
CHEMBL3972_lig14
                    3D
 Schrodinger Suite 2021-1.
 62 64  0  0  1  0            999 V2000
   68.3752   14.0344   29.1426 C   0  0  0  0  0  0
   67.9357   13.7765   27.8255 C   0  0  0  0  0  0
   68.5764   12.9167   26.9954 N   0  0  0  0  0  0
   70.0908   12.3909   28.7919 N   0  0  0  0  0  0
   69.4812   13.2938   29.6030 C   0  0  0  0  0  0
   69.6501   12.2912   27.5195 C   0  0  0  0  0  0
   67.7876   15.0644   29.9141 N   0  0  0  0  0  0
   66.8248   14.4491   27.2910 N   0  0  0  0  0  0
   73.9811   22.0080   29.2149 C   0  0  0  0  0  0
   74.5084   22.5039   28.0809 N   0  0  0  0  0  0
   77.0838   22.4983   28.1731 C   0  0  0  0  0  0
   75.7601   23.2688   27.9577 C   0  0  1  0  0  0
   72.6744   21.2952   29.0437 C   0  0  0  0  0  0
   69.9360   13.5386   30.8713 O   0  0  0  0  0  0
   75.6885   26.5317   26.0910 C   0  0  0  0  0  0
   66.8833   15.9953   29.2253 C   0  0  2  0  0  0
   74.4878   22.1205   30.3287 O   0  0  0  0  0  0
   78.1719   23.0295   28.0910 O   0  0  0  0  0  0
   70.4544   11.5877   26.6426 N   0  0  0  0  0  0
   75.2889   27.1910   25.1334 O   0  0  0  0  0  0
   65.9936   15.2041   28.2318 C   0  0  0  0  0  0
   75.7581   24.0398   26.6129 C   0  0  0  0  0  0
   71.5754   21.6428   29.8368 C   0  0  0  0  0  0
   72.5537   20.2814   28.0910 C   0  0  0  0  0  0
   74.9265   25.3403   26.6672 C   0  0  0  0  0  0
   67.6496   17.1255   28.4897 C   0  0  0  0  0  0
   76.8890   21.1910   28.4910 O   0  0  0  0  0  0
   70.2428   19.9910   28.6910 C   0  0  0  0  0  0
   68.9199   19.2920   28.4458 C   0  0  0  0  0  0
   68.6615   18.0017   29.2620 C   0  0  1  0  0  0
   76.8499   26.7910   26.7590 O   0  0  0  0  0  0
   71.3425   19.6304   27.9147 C   0  0  0  0  0  0
   70.3552   20.9992   29.6502 C   0  0  0  0  0  0
   68.1982   18.3425   30.6985 C   0  0  0  0  0  0
   68.2565   15.4186   30.7370 H   0  0  0  0  0  0
   66.4622   14.3228   26.3545 H   0  0  0  0  0  0
   74.0046   22.3405   27.2225 H   0  0  0  0  0  0
   75.7740   23.9931   28.7744 H   0  0  0  0  0  0
   70.7412   13.0494   31.0482 H   0  0  0  0  0  0
   66.2329   16.4458   29.9765 H   0  0  0  0  0  0
   71.3989   11.5013   26.9893 H   0  0  0  0  0  0
   70.3444   11.8957   25.6911 H   0  0  0  0  0  0
   65.3436   15.8792   27.6716 H   0  0  0  0  0  0
   65.3435   14.5230   28.7775 H   0  0  0  0  0  0
   75.3703   23.4036   25.8149 H   0  0  0  0  0  0
   76.7791   24.2670   26.2998 H   0  0  0  0  0  0
   71.6537   22.4294   30.5751 H   0  0  0  0  0  0
   73.3963   19.9914   27.4774 H   0  0  0  0  0  0
   73.9859   25.2034   26.1314 H   0  0  0  0  0  0
   74.6487   25.5911   27.6907 H   0  0  0  0  0  0
   66.8878   17.7808   28.0810 H   0  0  0  0  0  0
   68.1625   16.7196   27.6160 H   0  0  0  0  0  0
   77.7159   20.8185   28.8148 H   0  0  0  0  0  0
   68.8891   19.0843   27.3736 H   0  0  0  0  0  0
   68.1120   19.9911   28.6394 H   0  0  0  0  0  0
   69.5902   17.4302   29.2913 H   0  0  0  0  0  0
   77.3079   27.5294   26.3298 H   0  0  0  0  0  0
   71.2571   18.8619   27.1599 H   0  0  0  0  0  0
   69.4985   21.2922   30.2373 H   0  0  0  0  0  0
   67.2185   18.8217   30.6965 H   0  0  0  0  0  0
   68.1295   17.4532   31.3240 H   0  0  0  0  0  0
   68.8876   19.0243   31.1979 H   0  0  0  0  0  0
  1  2  1  0  0  0
  1  5  2  0  0  0
  1  7  1  0  0  0
  2  3  2  0  0  0
  2  8  1  0  0  0
  3  6  1  0  0  0
  4  5  1  0  0  0
  4  6  2  0  0  0
  5 14  1  0  0  0
  6 19  1  0  0  0
  7 16  1  0  0  0
  7 35  1  0  0  0
  8 21  1  0  0  0
  8 36  1  0  0  0
  9 13  1  0  0  0
  9 10  1  0  0  0
  9 17  2  0  0  0
 10 12  1  0  0  0
 10 37  1  0  0  0
 11 12  1  0  0  0
 11 18  2  0  0  0
 11 27  1  0  0  0
 12 22  1  0  0  0
 12 38  1  0  0  0
 13 23  1  0  0  0
 13 24  2  0  0  0
 14 39  1  0  0  0
 15 25  1  0  0  0
 15 20  2  0  0  0
 15 31  1  0  0  0
 16 21  1  0  0  0
 16 26  1  0  0  0
 16 40  1  0  0  0
 19 41  1  0  0  0
 19 42  1  0  0  0
 21 43  1  0  0  0
 21 44  1  0  0  0
 22 25  1  0  0  0
 22 45  1  0  0  0
 22 46  1  0  0  0
 23 33  2  0  0  0
 23 47  1  0  0  0
 24 32  1  0  0  0
 24 48  1  0  0  0
 25 49  1  0  0  0
 25 50  1  0  0  0
 26 30  1  0  0  0
 26 51  1  0  0  0
 26 52  1  0  0  0
 27 53  1  0  0  0
 28 29  1  0  0  0
 28 32  2  0  0  0
 28 33  1  0  0  0
 29 30  1  0  0  0
 29 54  1  0  0  0
 29 55  1  0  0  0
 30 34  1  0  0  0
 30 56  1  0  0  0
 31 57  1  0  0  0
 32 58  1  0  0  0
 33 59  1  0  0  0
 34 60  1  0  0  0
 34 61  1  0  0  0
 34 62  1  0  0  0
M  END
> <s_m_entry_id>
24983

> <s_m_entry_name>
dock_pv.136

> <s_m_Source_Path>
/home/csk/Desktop/cluster/DUD-E-result/pur2

> <s_m_Source_File>
dock_pv.maegz

> <i_m_Source_File_Index>
136

> <chembl_id>
CHEMBL23699

> <chembl_pref_name>
None

> <i_lp_mmshare_version>
53161

> <r_lp_tautomer_probability>
1

> <s_lp_Force_Field>
OPLS_2005

> <r_lp_Energy>
15.745434

> <b_lp_Chiralities_Consistent>
1

> <s_lp_Variant>
CHEMBL3972_lig14-1

> <s_i_glide_gridfile>
glide-grid_1njs

> <i_i_glide_lignum>
28

> <i_i_glide_rotatable_bonds>
14

> <r_i_docking_score>
-7.80867989330101

> <r_i_glide_ligand_efficiency>
-0.229667055685324

> <r_i_glide_ligand_efficiency_sa>
-0.744032103088253

> <r_i_glide_ligand_efficiency_ln>
-1.72515641448229

> <r_i_glide_gscore>
-7.80867989330101

> <r_i_glide_lipo>
-2.35208191955824

> <r_i_glide_hbond>
-0.432604567802467

> <r_i_glide_metal>
0

> <r_i_glide_rewards>
-0.983937011229915

> <r_i_glide_evdw>
-52.3891754150391

> <r_i_glide_ecoul>
-15.3850955963135

> <r_i_glide_erotb>
0.996301984216313

> <r_i_glide_esite>
-0.109135268727722

> <r_i_glide_emodel>
-94.2034953951736

> <r_i_glide_energy>
-67.7742710113525

> <r_i_glide_einternal>
11.8687467575073

> <i_i_glide_confnum>
36

> <i_i_glide_posenum>
230

> <r_i_glide_eff_state_penalty>
0

> <s_user_duplicate_titles>
CHEMBL3972_lig14

> <i_f3d_flags>
0

> <s_m_subgroup_title>
dock_pv

> <s_m_subgroupid>
dock_pv

> <b_m_subgroup_collapsed>
1

$$$$
CHEMBL3972_lig17
                    3D
 Schrodinger Suite 2021-1.
 59 61  0  0  1  0            999 V2000
   76.7036   23.8967   27.3876 C   0  0  0  0  0  0
   76.3222   25.2266   27.1226 C   0  0  0  0  0  0
   77.1678   26.2728   27.2912 N   0  0  0  0  0  0
   78.8871   24.7214   27.9552 N   0  0  0  0  0  0
   78.0230   23.6828   27.8136 C   0  0  0  0  0  0
   78.4174   25.9632   27.7059 C   0  0  0  0  0  0
   75.7808   22.8330   27.2911 N   0  0  0  0  0  0
   75.0360   25.5348   26.6507 N   0  0  0  0  0  0
   73.8673   23.1482   35.0531 C   0  0  0  0  0  0
   75.1344   22.7887   35.3403 N   0  0  0  0  0  0
   77.2889   22.3864   36.5094 C   0  0  0  0  0  0
   75.8553   22.9657   36.6104 C   0  0  1  0  0  0
   73.3864   22.7927   33.6678 C   0  0  0  0  0  0
   78.3731   22.3911   28.0904 O   0  0  0  0  0  0
   76.6243   26.8394   36.7418 C   0  0  0  0  0  0
   73.1322   23.7459   35.8379 O   0  0  0  0  0  0
   77.8139   21.9932   35.4860 O   0  0  0  0  0  0
   79.2889   27.0086   27.9491 N   0  0  0  0  0  0
   77.6731   27.1532   37.3004 O   0  0  0  0  0  0
   75.8555   24.4465   37.1048 C   0  0  0  0  0  0
   73.8081   21.6085   33.0524 C   0  0  0  0  0  0
   72.5018   23.6419   32.9844 C   0  0  0  0  0  0
   74.3684   23.1723   27.1524 C   0  0  2  0  0  0
   74.2314   24.3945   26.1942 C   0  0  0  0  0  0
   76.3899   25.4787   36.0938 C   0  0  0  0  0  0
   77.8795   22.3910   37.7411 O   0  0  0  0  0  0
   75.5356   27.6535   36.6512 O   0  0  0  0  0  0
   72.0628   23.3132   31.7015 C   0  0  0  0  0  0
   73.3575   21.2856   31.7809 C   0  0  0  0  0  0
   72.4836   22.1227   31.1069 C   0  0  0  0  0  0
   72.2698   22.7905   28.6484 C   0  0  0  0  0  0
   72.0303   21.7136   29.7120 C   0  0  0  0  0  0
   73.7224   23.3352   28.5519 C   0  0  0  0  0  0
   75.9866   21.9315   27.6993 H   0  0  0  0  0  0
   74.8876   26.4249   26.2042 H   0  0  0  0  0  0
   75.6628   22.3091   34.6241 H   0  0  0  0  0  0
   75.3227   22.3592   37.3451 H   0  0  0  0  0  0
   79.2780   22.2832   28.3837 H   0  0  0  0  0  0
   80.1956   26.7950   28.3496 H   0  0  0  0  0  0
   78.9361   27.9549   27.9138 H   0  0  0  0  0  0
   76.4128   24.5342   38.0392 H   0  0  0  0  0  0
   74.8417   24.7348   37.3876 H   0  0  0  0  0  0
   74.4819   20.9258   33.5497 H   0  0  0  0  0  0
   72.1602   24.5622   33.4386 H   0  0  0  0  0  0
   73.9304   22.2998   26.6790 H   0  0  0  0  0  0
   73.1937   24.6978   26.0907 H   0  0  0  0  0  0
   74.5670   24.1115   25.1968 H   0  0  0  0  0  0
   77.3455   25.1475   35.6890 H   0  0  0  0  0  0
   75.6950   25.5883   35.2602 H   0  0  0  0  0  0
   77.2847   22.7114   38.4234 H   0  0  0  0  0  0
   75.6944   28.5056   37.0662 H   0  0  0  0  0  0
   71.3910   23.9783   31.1765 H   0  0  0  0  0  0
   73.6897   20.3912   31.2914 H   0  0  0  0  0  0
   71.9246   22.4114   27.6901 H   0  0  0  0  0  0
   71.5810   23.5912   28.8912 H   0  0  0  0  0  0
   70.9682   21.4686   29.7566 H   0  0  0  0  0  0
   72.5340   20.7966   29.3958 H   0  0  0  0  0  0
   74.3398   22.8525   29.3102 H   0  0  0  0  0  0
   73.7234   24.3888   28.8290 H   0  0  0  0  0  0
  1  2  1  0  0  0
  1  5  2  0  0  0
  1  7  1  0  0  0
  2  3  2  0  0  0
  2  8  1  0  0  0
  3  6  1  0  0  0
  4  5  1  0  0  0
  4  6  2  0  0  0
  5 14  1  0  0  0
  6 18  1  0  0  0
  7 23  1  0  0  0
  7 34  1  0  0  0
  8 24  1  0  0  0
  8 35  1  0  0  0
  9 13  1  0  0  0
  9 10  1  0  0  0
  9 16  2  0  0  0
 10 12  1  0  0  0
 10 36  1  0  0  0
 11 12  1  0  0  0
 11 17  2  0  0  0
 11 26  1  0  0  0
 12 20  1  0  0  0
 12 37  1  0  0  0
 13 21  1  0  0  0
 13 22  2  0  0  0
 14 38  1  0  0  0
 15 25  1  0  0  0
 15 19  2  0  0  0
 15 27  1  0  0  0
 18 39  1  0  0  0
 18 40  1  0  0  0
 20 25  1  0  0  0
 20 41  1  0  0  0
 20 42  1  0  0  0
 21 29  2  0  0  0
 21 43  1  0  0  0
 22 28  1  0  0  0
 22 44  1  0  0  0
 23 24  1  0  0  0
 23 33  1  0  0  0
 23 45  1  0  0  0
 24 46  1  0  0  0
 24 47  1  0  0  0
 25 48  1  0  0  0
 25 49  1  0  0  0
 26 50  1  0  0  0
 27 51  1  0  0  0
 28 30  2  0  0  0
 28 52  1  0  0  0
 29 30  1  0  0  0
 29 53  1  0  0  0
 30 32  1  0  0  0
 31 33  1  0  0  0
 31 32  1  0  0  0
 31 54  1  0  0  0
 31 55  1  0  0  0
 32 56  1  0  0  0
 32 57  1  0  0  0
 33 58  1  0  0  0
 33 59  1  0  0  0
M  END
> <s_m_entry_id>
24987

> <s_m_entry_name>
dock_pv.140

> <s_m_Source_Path>
/home/csk/Desktop/cluster/DUD-E-result/pur2

> <s_m_Source_File>
dock_pv.maegz

> <i_m_Source_File_Index>
140

> <chembl_id>
CHEMBL279302

> <chembl_pref_name>
None

> <i_lp_mmshare_version>
53161

> <r_lp_tautomer_probability>
1

> <s_lp_Force_Field>
OPLS_2005

> <r_lp_Energy>
14.37821

> <b_lp_Chiralities_Consistent>
1

> <s_lp_Variant>
CHEMBL3972_lig17-1

> <s_i_glide_gridfile>
glide-grid_1njs

> <i_i_glide_lignum>
42

> <i_i_glide_rotatable_bonds>
14

> <r_i_docking_score>
-7.74348490587682

> <r_i_glide_ligand_efficiency>
-0.234651057753843

> <r_i_glide_ligand_efficiency_sa>
-0.752651322438068

> <r_i_glide_ligand_efficiency_ln>
-1.72211094944793

> <r_i_glide_gscore>
-7.74348490587682

> <r_i_glide_lipo>
-2.66385942490091

> <r_i_glide_hbond>
-0.817519019949693

> <r_i_glide_metal>
0

> <r_i_glide_rewards>
-1.9127717269176

> <r_i_glide_evdw>
-45.9169616699219

> <r_i_glide_ecoul>
-6.86941623687744

> <r_i_glide_erotb>
1.05257220231975

> <r_i_glide_esite>
-0.0756464174006723

> <r_i_glide_emodel>
-78.6417185404307

> <r_i_glide_energy>
-52.7863779067993

> <r_i_glide_einternal>
8.63487720489502

> <i_i_glide_confnum>
158

> <i_i_glide_posenum>
118

> <r_i_glide_eff_state_penalty>
0

> <s_user_duplicate_titles>
CHEMBL3972_lig17

> <i_f3d_flags>
0

> <s_m_subgroup_title>
dock_pv

> <s_m_subgroupid>
dock_pv

> <b_m_subgroup_collapsed>
1

$$$$
CHEMBL3972_lig37
                    3D
 Schrodinger Suite 2021-1.
 51 53  0  0  1  0            999 V2000
   76.3206   24.4700   27.1819 N   0  0  0  0  0  0
   77.1484   23.5089   27.6918 C   0  0  0  0  0  0
   76.7127   22.5961   28.4872 N   0  0  0  0  0  0
   75.0019   24.6638   27.4459 C   0  0  0  0  0  0
   74.5256   23.6841   28.4289 C   0  0  0  0  0  0
   75.3988   22.6842   28.8514 C   0  0  0  0  0  0
   74.6426   21.5911   29.9660 S   0  0  0  0  0  0
   73.1681   22.5282   29.9582 C   0  0  0  0  0  0
   73.2889   23.5900   29.0607 C   0  0  0  0  0  0
   78.4890   23.5839   27.3304 N   0  0  0  0  0  0
   74.4253   25.5909   26.8912 O   0  0  0  0  0  0
   71.9945   22.1866   30.8518 C   0  0  0  0  0  0
   70.6309   22.3352   30.1414 C   0  0  0  0  0  0
   70.1914   21.0877   29.3834 C   0  0  0  0  0  0
   70.9717   20.5620   28.3520 C   0  0  0  0  0  0
   70.5745   19.3957   27.7058 C   0  0  0  0  0  0
   69.4001   18.7320   28.0914 C   0  0  0  0  0  0
   68.6127   19.2843   29.1128 C   0  0  0  0  0  0
   68.9922   20.4664   29.7284 C   0  0  0  0  0  0
   69.0186   17.4328   27.4191 C   0  0  0  0  0  0
   67.9670   16.7657   27.9243 N   0  0  0  0  0  0
   69.6890   16.9925   26.4910 O   0  0  0  0  0  0
   67.4710   15.4556   27.4955 C   0  0  1  0  0  0
   68.5863   14.3749   27.6614 C   0  0  0  0  0  0
   66.1982   15.1910   28.3188 C   0  0  0  0  0  0
   65.1056   15.7145   27.6910 O   0  0  0  0  0  0
   66.1975   14.6030   29.3818 O   0  0  0  0  0  0
   68.1823   12.9104   27.3887 C   0  0  0  0  0  0
   69.4088   12.0329   27.1468 C   0  0  0  0  0  0
   69.6266   11.4485   26.0910 O   0  0  0  0  0  0
   70.2469   11.9910   28.2177 O   0  0  0  0  0  0
   76.7080   25.1611   26.5620 H   0  0  0  0  0  0
   72.4933   24.3021   28.8923 H   0  0  0  0  0  0
   79.0474   22.7611   27.5017 H   0  0  0  0  0  0
   78.7239   24.0234   26.4544 H   0  0  0  0  0  0
   72.0104   22.8570   31.7117 H   0  0  0  0  0  0
   72.0839   21.1845   31.2747 H   0  0  0  0  0  0
   70.6226   23.1920   29.4702 H   0  0  0  0  0  0
   69.8827   22.5814   30.8910 H   0  0  0  0  0  0
   71.8896   21.0457   28.0507 H   0  0  0  0  0  0
   71.1975   19.0123   26.9080 H   0  0  0  0  0  0
   67.6899   18.8259   29.4375 H   0  0  0  0  0  0
   68.3528   20.8825   30.4910 H   0  0  0  0  0  0
   67.4476   17.1888   28.6766 H   0  0  0  0  0  0
   67.2059   15.5172   26.4387 H   0  0  0  0  0  0
   69.0024   14.4405   28.6694 H   0  0  0  0  0  0
   69.4168   14.6136   26.9962 H   0  0  0  0  0  0
   65.2805   16.0277   26.7912 H   0  0  0  0  0  0
   67.5384   12.8491   26.5067 H   0  0  0  0  0  0
   67.6302   12.5084   28.2361 H   0  0  0  0  0  0
   71.0816   11.5752   27.9959 H   0  0  0  0  0  0
  1  2  1  0  0  0
  1  4  1  0  0  0
  1 32  1  0  0  0
  2 10  1  0  0  0
  2  3  2  0  0  0
  3  6  1  0  0  0
  4  5  1  0  0  0
  4 11  2  0  0  0
  5  9  1  0  0  0
  5  6  2  0  0  0
  6  7  1  0  0  0
  7  8  1  0  0  0
  8  9  2  0  0  0
  8 12  1  0  0  0
  9 33  1  0  0  0
 10 34  1  0  0  0
 10 35  1  0  0  0
 12 13  1  0  0  0
 12 36  1  0  0  0
 12 37  1  0  0  0
 13 14  1  0  0  0
 13 38  1  0  0  0
 13 39  1  0  0  0
 14 15  2  0  0  0
 14 19  1  0  0  0
 15 16  1  0  0  0
 15 40  1  0  0  0
 16 17  2  0  0  0
 16 41  1  0  0  0
 17 18  1  0  0  0
 17 20  1  0  0  0
 18 19  2  0  0  0
 18 42  1  0  0  0
 19 43  1  0  0  0
 20 21  1  0  0  0
 20 22  2  0  0  0
 21 23  1  0  0  0
 21 44  1  0  0  0
 23 24  1  0  0  0
 23 25  1  0  0  0
 23 45  1  0  0  0
 24 28  1  0  0  0
 24 46  1  0  0  0
 24 47  1  0  0  0
 25 26  1  0  0  0
 25 27  2  0  0  0
 26 48  1  0  0  0
 28 29  1  0  0  0
 28 49  1  0  0  0
 28 50  1  0  0  0
 29 30  2  0  0  0
 29 31  1  0  0  0
 31 51  1  0  0  0
M  END
> <s_m_entry_id>
24988

> <s_m_entry_name>
dock_pv.141

> <s_m_Source_Path>
/home/csk/Desktop/cluster/DUD-E-result/pur2

> <s_m_Source_File>
dock_pv.maegz

> <i_m_Source_File_Index>
141

> <chembl_id>
CHEMBL522455

> <chembl_pref_name>
None

> <i_lp_mmshare_version>
53161

> <r_lp_tautomer_probability>
1

> <s_lp_Force_Field>
OPLS_2005

> <r_lp_Energy>
11.642606

> <b_lp_Chiralities_Consistent>
1

> <s_lp_Variant>
CHEMBL3972_lig37-1

> <s_i_glide_gridfile>
glide-grid_1njs

> <i_i_glide_lignum>
107

> <i_i_glide_rotatable_bonds>
12

> <r_i_docking_score>
-7.71768292920545

> <r_i_glide_ligand_efficiency>
-0.248957513845337

> <r_i_glide_ligand_efficiency_sa>
-0.782070316365997

> <r_i_glide_ligand_efficiency_ln>
-1.7405740191128

> <r_i_glide_gscore>
-7.71768292920545

> <r_i_glide_lipo>
-1.91261263819687

> <r_i_glide_hbond>
-0.601040354417855

> <r_i_glide_metal>
0

> <r_i_glide_rewards>
-1.53006859554229

> <r_i_glide_evdw>
-58.1128921508789

> <r_i_glide_ecoul>
-11.4312238693237

> <r_i_glide_erotb>
1.0124273622127

> <r_i_glide_esite>
-0.0660605153186362

> <r_i_glide_emodel>
-99.614045464422

> <r_i_glide_energy>
-69.5441160202026

> <r_i_glide_einternal>
10.2177095413208

> <i_i_glide_confnum>
402

> <i_i_glide_posenum>
228

> <r_i_glide_eff_state_penalty>
0

> <s_user_duplicate_titles>
CHEMBL3972_lig37,461017

> <i_f3d_flags>
0

> <s_m_subgroup_title>
dock_pv

> <s_m_subgroupid>
dock_pv

> <b_m_subgroup_collapsed>
1

$$$$
CHEMBL3972_lig28
                    3D
 Schrodinger Suite 2021-1.
 56 58  0  0  1  0            999 V2000
   68.5658   14.7661   29.8435 C   0  0  0  0  0  0
   69.0051   13.4965   29.6794 N   0  0  0  0  0  0
   68.0097   15.5350   28.8014 C   0  0  0  0  0  0
   68.4938   13.6755   27.3398 N   0  0  0  0  0  0
   68.0261   14.9379   27.5299 C   0  0  0  0  0  0
   68.9489   13.0175   28.4227 C   0  0  0  0  0  0
   68.8240   15.3246   31.1058 N   0  0  0  0  0  0
   73.6668   22.3933   29.2126 C   0  0  0  0  0  0
   73.8821   23.2489   28.1937 N   0  0  0  0  0  0
   74.9302   24.7837   26.5890 C   0  0  0  0  0  0
   75.1085   24.0160   27.9148 C   0  0  2  0  0  0
   67.4915   16.9484   29.0840 C   0  0  0  0  0  0
   72.3183   21.7284   29.2598 C   0  0  0  0  0  0
   67.5912   15.7053   26.4910 O   0  0  0  0  0  0
   78.1455   25.0110   27.6910 C   0  0  0  0  0  0
   74.4897   22.1508   30.0910 O   0  0  0  0  0  0
   74.8889   25.9910   26.4910 O   0  0  0  0  0  0
   69.4689   11.7546   28.2095 N   0  0  0  0  0  0
   68.0890   18.9811   30.5016 N   0  0  1  0  0  0
   77.5562   25.7252   28.4910 O   0  0  0  0  0  0
   76.3890   23.1086   27.9541 C   0  0  0  0  0  0
   71.6383   21.3751   28.0910 C   0  0  0  0  0  0
   71.7565   21.4000   30.4934 C   0  0  0  0  0  0
   68.3891   16.6928   31.4097 C   0  0  0  0  0  0
   68.3911   17.5948   30.1486 C   0  0  1  0  0  0
   77.6845   23.6139   27.2651 C   0  0  0  0  0  0
   74.8890   23.9015   25.5589 O   0  0  0  0  0  0
   68.3672   19.9728   29.4620 C   0  0  0  0  0  0
   69.7934   20.5132   29.3808 C   0  0  0  0  0  0
   79.2890   25.3910   27.0650 O   0  0  0  0  0  0
   70.5122   20.7910   30.5375 C   0  0  0  0  0  0
   70.3748   20.7910   28.1441 C   0  0  0  0  0  0
   69.0300   14.7265   31.8920 H   0  0  0  0  0  0
   73.0751   23.5246   27.6467 H   0  0  0  0  0  0
   75.1993   24.7677   28.6990 H   0  0  0  0  0  0
   66.4776   16.8652   29.4788 H   0  0  0  0  0  0
   67.3976   17.5760   28.1993 H   0  0  0  0  0  0
   67.1293   16.5097   26.7356 H   0  0  0  0  0  0
   69.7402   11.5816   27.2560 H   0  0  0  0  0  0
   70.0416   11.4244   28.9692 H   0  0  0  0  0  0
   67.1668   19.0908   30.9026 H   0  0  0  0  0  0
   76.1552   22.1271   27.5386 H   0  0  0  0  0  0
   76.6463   22.9153   28.9963 H   0  0  0  0  0  0
   72.1032   21.5326   27.1366 H   0  0  0  0  0  0
   72.2882   21.5856   31.4164 H   0  0  0  0  0  0
   69.0395   17.1028   32.1836 H   0  0  0  0  0  0
   67.3901   16.6538   31.8469 H   0  0  0  0  0  0
   69.3775   17.5910   29.6910 H   0  0  0  0  0  0
   77.5560   23.6114   26.1828 H   0  0  0  0  0  0
   78.4901   22.9098   27.4714 H   0  0  0  0  0  0
   74.9156   22.9983   25.8813 H   0  0  0  0  0  0
   67.7332   20.8338   29.6821 H   0  0  0  0  0  0
   68.0890   19.5890   28.4910 H   0  0  0  0  0  0
   79.5495   26.2772   27.3312 H   0  0  0  0  0  0
   70.1384   20.3919   31.4702 H   0  0  0  0  0  0
   69.8564   20.5551   27.2264 H   0  0  0  0  0  0
  1  2  2  0  0  0
  1  3  1  0  0  0
  1  7  1  0  0  0
  2  6  1  0  0  0
  3  5  2  0  0  0
  3 12  1  0  0  0
  4  5  1  0  0  0
  4  6  2  0  0  0
  5 14  1  0  0  0
  6 18  1  0  0  0
  7 24  1  0  0  0
  7 33  1  0  0  0
  8 13  1  0  0  0
  8  9  1  0  0  0
  8 16  2  0  0  0
  9 11  1  0  0  0
  9 34  1  0  0  0
 10 11  1  0  0  0
 10 17  2  0  0  0
 10 27  1  0  0  0
 11 21  1  0  0  0
 11 35  1  0  0  0
 12 25  1  0  0  0
 12 36  1  0  0  0
 12 37  1  0  0  0
 13 22  1  0  0  0
 13 23  2  0  0  0
 14 38  1  0  0  0
 15 26  1  0  0  0
 15 20  2  0  0  0
 15 30  1  0  0  0
 18 39  1  0  0  0
 18 40  1  0  0  0
 19 25  1  0  0  0
 19 28  1  0  0  0
 19 41  1  0  0  0
 21 26  1  0  0  0
 21 42  1  0  0  0
 21 43  1  0  0  0
 22 32  2  0  0  0
 22 44  1  0  0  0
 23 31  1  0  0  0
 23 45  1  0  0  0
 24 25  1  0  0  0
 24 46  1  0  0  0
 24 47  1  0  0  0
 25 48  1  0  0  0
 26 49  1  0  0  0
 26 50  1  0  0  0
 27 51  1  0  0  0
 28 29  1  0  0  0
 28 52  1  0  0  0
 28 53  1  0  0  0
 29 31  2  0  0  0
 29 32  1  0  0  0
 30 54  1  0  0  0
 31 55  1  0  0  0
 32 56  1  0  0  0
M  END
> <s_m_entry_id>
24989

> <s_m_entry_name>
dock_pv.142

> <s_m_Source_Path>
/home/csk/Desktop/cluster/DUD-E-result/pur2

> <s_m_Source_File>
dock_pv.maegz

> <i_m_Source_File_Index>
142

> <chembl_id>
CHEMBL157230

> <chembl_pref_name>
None

> <i_lp_mmshare_version>
53161

> <r_lp_tautomer_probability>
0.0160306447209791

> <s_lp_Force_Field>
OPLS_2005

> <r_lp_Energy>
5.718792

> <b_lp_Chiralities_Consistent>
1

> <s_lp_Variant>
CHEMBL3972_lig28-8

> <s_i_glide_gridfile>
glide-grid_1njs

> <i_i_glide_lignum>
92

> <i_i_glide_rotatable_bonds>
13

> <r_i_docking_score>
-7.69665193228802

> <r_i_glide_ligand_efficiency>
-0.240520372884001

> <r_i_glide_ligand_efficiency_sa>
-0.763604584989542

> <r_i_glide_ligand_efficiency_ln>
-1.7234901704471

> <r_i_glide_gscore>
-7.69665193228802

> <r_i_glide_lipo>
-2.44377151730584

> <r_i_glide_hbond>
-0.472102801479539

> <r_i_glide_metal>
0

> <r_i_glide_rewards>
-1.96297303139445

> <r_i_glide_evdw>
-48.4179191589355

> <r_i_glide_ecoul>
-9.23030090332031

> <r_i_glide_erotb>
1.01251359057351

> <r_i_glide_esite>
-0.0248770792368743

> <r_i_glide_emodel>
-77.3715469547292

> <r_i_glide_energy>
-57.6482200622559

> <r_i_glide_einternal>
8.08175086975098

> <i_i_glide_confnum>
65

> <i_i_glide_posenum>
130

> <r_i_glide_eff_state_penalty>
0

> <s_user_duplicate_titles>
CHEMBL3972_lig28

> <i_f3d_flags>
0

> <s_m_subgroup_title>
dock_pv

> <s_m_subgroupid>
dock_pv

> <b_m_subgroup_collapsed>
1

$$$$
CHEMBL3972_lig78
                    3D
 Schrodinger Suite 2021-1.
 55 57  0  0  1  0            999 V2000
   75.4322   23.8995   27.6751 C   0  0  0  0  0  0
   76.6368   23.3804   28.1726 C   0  0  0  0  0  0
   77.8060   24.0704   28.0910 N   0  0  0  0  0  0
   76.6270   25.8761   27.0299 N   0  0  0  0  0  0
   75.4800   25.1569   27.0607 C   0  0  0  0  0  0
   77.7337   25.3035   27.5425 C   0  0  0  0  0  0
   69.2882   18.0888   28.1101 C   0  0  0  0  0  0
   70.8122   18.7932   27.6912 S   0  0  0  0  0  0
   70.5254   20.2022   28.6849 C   0  0  0  0  0  0
   68.9446   16.7909   27.6139 C   0  0  0  0  0  0
   73.9191   22.9943   27.6913 S   0  0  0  0  0  0
   68.5635   18.9481   28.9066 C   0  0  0  0  0  0
   76.6946   22.1746   28.8909 N   0  0  0  0  0  0
   69.2045   20.1712   29.1688 C   0  0  0  0  0  0
   68.4732   15.9619   28.5669 N   0  0  0  0  0  0
   67.2056   14.0474   29.5025 C   0  0  0  0  0  0
   68.3472   14.4846   28.5648 C   0  0  1  0  0  0
   74.3158   25.5910   26.4919 O   0  0  0  0  0  0
   69.7252   11.7763   27.2061 C   0  0  0  0  0  0
   69.2896   16.4444   26.4910 O   0  0  0  0  0  0
   71.5985   21.2733   28.8816 C   0  0  0  0  0  0
   67.3020   13.1204   30.2767 O   0  0  0  0  0  0
   78.8868   26.0680   27.5059 N   0  0  0  0  0  0
   70.1334   11.0957   28.1428 O   0  0  0  0  0  0
   74.2034   21.8088   29.0082 C   0  0  2  0  0  0
   68.1847   13.8353   27.1567 C   0  0  0  0  0  0
   75.6127   21.1898   28.7919 C   0  0  0  0  0  0
   68.2907   12.2957   27.0831 C   0  0  0  0  0  0
   66.0868   14.7996   29.2888 O   0  0  0  0  0  0
   73.0693   20.7471   28.9162 C   0  0  0  0  0  0
   70.4894   12.1306   26.1360 O   0  0  0  0  0  0
   68.5544   21.2530   29.9968 C   0  0  0  0  0  0
   67.5730   18.7254   29.2721 H   0  0  0  0  0  0
   77.6086   21.7846   29.0889 H   0  0  0  0  0  0
   68.2184   16.3904   29.4448 H   0  0  0  0  0  0
   69.2771   14.1281   29.0083 H   0  0  0  0  0  0
   73.5885   24.9882   26.6990 H   0  0  0  0  0  0
   71.4628   22.0004   28.0776 H   0  0  0  0  0  0
   71.4231   21.8376   29.7994 H   0  0  0  0  0  0
   78.8142   26.9967   27.1135 H   0  0  0  0  0  0
   79.7416   25.7336   27.9228 H   0  0  0  0  0  0
   74.1498   22.3437   29.9576 H   0  0  0  0  0  0
   68.9689   14.1827   26.4907 H   0  0  0  0  0  0
   67.2475   14.1679   26.7047 H   0  0  0  0  0  0
   75.8123   20.4001   29.5205 H   0  0  0  0  0  0
   75.6677   20.7047   27.8172 H   0  0  0  0  0  0
   67.8998   11.9909   26.1160 H   0  0  0  0  0  0
   67.6889   11.8149   27.8513 H   0  0  0  0  0  0
   66.2121   15.4487   28.5920 H   0  0  0  0  0  0
   73.1587   20.0753   29.7699 H   0  0  0  0  0  0
   73.2575   20.1378   28.0288 H   0  0  0  0  0  0
   71.4203   11.9171   26.2508 H   0  0  0  0  0  0
   69.2798   21.8948   30.4909 H   0  0  0  0  0  0
   67.9200   21.9125   29.4052 H   0  0  0  0  0  0
   67.9066   20.8229   30.7613 H   0  0  0  0  0  0
  1  2  1  0  0  0
  1  5  2  0  0  0
  1 11  1  0  0  0
  2  3  2  0  0  0
  2 13  1  0  0  0
  3  6  1  0  0  0
  4  5  1  0  0  0
  4  6  2  0  0  0
  5 18  1  0  0  0
  6 23  1  0  0  0
  7  8  1  0  0  0
  7 10  1  0  0  0
  7 12  2  0  0  0
  8  9  1  0  0  0
  9 21  1  0  0  0
  9 14  2  0  0  0
 10 15  1  0  0  0
 10 20  2  0  0  0
 11 25  1  0  0  0
 12 14  1  0  0  0
 12 33  1  0  0  0
 13 27  1  0  0  0
 13 34  1  0  0  0
 14 32  1  0  0  0
 15 17  1  0  0  0
 15 35  1  0  0  0
 16 17  1  0  0  0
 16 22  2  0  0  0
 16 29  1  0  0  0
 17 26  1  0  0  0
 17 36  1  0  0  0
 18 37  1  0  0  0
 19 28  1  0  0  0
 19 24  2  0  0  0
 19 31  1  0  0  0
 21 30  1  0  0  0
 21 38  1  0  0  0
 21 39  1  0  0  0
 23 40  1  0  0  0
 23 41  1  0  0  0
 25 27  1  0  0  0
 25 30  1  0  0  0
 25 42  1  0  0  0
 26 28  1  0  0  0
 26 43  1  0  0  0
 26 44  1  0  0  0
 27 45  1  0  0  0
 27 46  1  0  0  0
 28 47  1  0  0  0
 28 48  1  0  0  0
 29 49  1  0  0  0
 30 50  1  0  0  0
 30 51  1  0  0  0
 31 52  1  0  0  0
 32 53  1  0  0  0
 32 54  1  0  0  0
 32 55  1  0  0  0
M  END
> <s_m_entry_id>
24992

> <s_m_entry_name>
dock_pv.145

> <s_m_Source_Path>
/home/csk/Desktop/cluster/DUD-E-result/pur2

> <s_m_Source_File>
dock_pv.maegz

> <i_m_Source_File_Index>
145

> <chembl_id>
CHEMBL82261

> <chembl_pref_name>
None

> <i_lp_mmshare_version>
53161

> <r_lp_tautomer_probability>
0.0160306447209791

> <s_lp_Force_Field>
OPLS_2005

> <r_lp_Energy>
1.438564

> <b_lp_Chiralities_Consistent>
1

> <s_lp_Variant>
CHEMBL3972_lig78-3

> <s_i_glide_gridfile>
glide-grid_1njs

> <i_i_glide_lignum>
179

> <i_i_glide_rotatable_bonds>
13

> <r_i_docking_score>
-7.61021297681777

> <r_i_glide_ligand_efficiency>
-0.237819155525555

> <r_i_glide_ligand_efficiency_sa>
-0.755028754446668

> <r_i_glide_ligand_efficiency_ln>
-1.70413413208037

> <r_i_glide_gscore>
-7.61021297681777

> <r_i_glide_lipo>
-2.61312094952668

> <r_i_glide_hbond>
-0.856490726096304

> <r_i_glide_metal>
0

> <r_i_glide_rewards>
-2.037867744055

> <r_i_glide_evdw>
-53.874340057373

> <r_i_glide_ecoul>
-1.68833899497986

> <r_i_glide_erotb>
0.874865380255986

> <r_i_glide_esite>
-0.0306310852801516

> <r_i_glide_emodel>
-75.8998997174565

> <r_i_glide_energy>
-55.5626790523529

> <r_i_glide_einternal>
13.3088874816895

> <i_i_glide_confnum>
126

> <i_i_glide_posenum>
178

> <r_i_glide_eff_state_penalty>
0

> <s_user_duplicate_titles>
CHEMBL3972_lig78,135312

> <i_f3d_flags>
0

> <s_m_subgroup_title>
dock_pv

> <s_m_subgroupid>
dock_pv

> <b_m_subgroup_collapsed>
1

$$$$
CHEMBL3972_lig82
                    3D
 Schrodinger Suite 2021-1.
 61 62  0  0  1  0            999 V2000
   69.3236   18.9124   28.6540 C   0  0  0  0  0  0
   69.1828   20.1809   29.2301 C   0  0  0  0  0  0
   70.2677   21.0527   29.3144 C   0  0  0  0  0  0
   71.5122   20.6988   28.7801 C   0  0  0  0  0  0
   71.6257   19.4855   28.0909 C   0  0  0  0  0  0
   70.5467   18.6049   28.0372 C   0  0  0  0  0  0
   68.2039   17.8551   28.8486 C   0  0  2  0  0  0
   72.7192   21.5731   29.0375 C   0  0  0  0  0  0
   72.7873   22.2305   30.0770 O   0  0  0  0  0  0
   73.6825   21.5706   28.0914 N   0  0  0  0  0  0
   74.9993   22.2442   28.1198 C   0  0  2  0  0  0
   76.0194   21.5908   29.0647 C   0  0  0  0  0  0
   75.7592   21.1910   30.1788 O   0  0  0  0  0  0
   77.2593   21.6076   28.4910 O   0  0  0  0  0  0
   68.1993   17.2376   30.2888 C   0  0  0  0  0  0
   68.1805   16.8004   27.6954 C   0  0  0  0  0  0
   67.6950   18.1185   31.4580 C   0  0  0  0  0  0
   66.1826   18.0112   31.7633 C   0  0  0  0  0  0
   65.7742   16.6402   32.3323 C   0  0  0  0  0  0
   65.1438   15.6488   31.5498 C   0  0  0  0  0  0
   64.8209   14.4387   32.0789 N   0  0  0  0  0  0
   65.1207   14.2272   33.3776 C   0  0  0  0  0  0
   65.7125   15.1072   34.2077 N   0  0  0  0  0  0
   66.0333   16.3062   33.6743 C   0  0  0  0  0  0
   64.8016   12.9894   33.9104 N   0  0  0  0  0  0
   66.6524   17.1910   34.5481 N   0  0  0  0  0  0
   64.8891   15.9503   30.2407 O   0  0  0  0  0  0
   68.2448   15.2813   27.9924 C   0  0  0  0  0  0
   68.0889   17.1901   26.5310 O   0  0  0  0  0  0
   67.0569   14.8589   28.4250 F   0  0  0  0  0  0
   68.5574   14.6018   26.8911 F   0  0  0  0  0  0
   69.1766   15.0080   28.9059 F   0  0  0  0  0  0
   74.9134   23.7610   28.4558 C   0  0  0  0  0  0
   74.0888   24.5870   27.4634 C   0  0  0  0  0  0
   74.9270   25.1912   26.3551 C   0  0  0  0  0  0
   74.9510   26.3904   26.0871 O   0  0  0  0  0  0
   75.6294   24.2385   25.6910 O   0  0  0  0  0  0
   68.2455   20.4816   29.6729 H   0  0  0  0  0  0
   70.1422   21.9947   29.8317 H   0  0  0  0  0  0
   72.5660   19.1777   27.6543 H   0  0  0  0  0  0
   70.6961   17.6549   27.5502 H   0  0  0  0  0  0
   67.2717   18.3911   28.7291 H   0  0  0  0  0  0
   73.5032   21.0338   27.2530 H   0  0  0  0  0  0
   75.3813   22.1042   27.1100 H   0  0  0  0  0  0
   77.9047   21.2554   29.1247 H   0  0  0  0  0  0
   69.2093   16.9053   30.5231 H   0  0  0  0  0  0
   67.6146   16.3215   30.3225 H   0  0  0  0  0  0
   67.9568   19.1616   31.3161 H   0  0  0  0  0  0
   68.2463   17.8363   32.3561 H   0  0  0  0  0  0
   65.5924   18.2784   30.8908 H   0  0  0  0  0  0
   65.9105   18.7759   32.4908 H   0  0  0  0  0  0
   64.9613   12.8397   34.8941 H   0  0  0  0  0  0
   64.3269   12.3148   33.3329 H   0  0  0  0  0  0
   66.8881   18.1251   34.2314 H   0  0  0  0  0  0
   66.7991   16.9019   35.5023 H   0  0  0  0  0  0
   65.1428   16.8496   30.0324 H   0  0  0  0  0  0
   74.4957   23.9121   29.4520 H   0  0  0  0  0  0
   75.9182   24.1880   28.5178 H   0  0  0  0  0  0
   73.2891   23.9910   27.0254 H   0  0  0  0  0  0
   73.6059   25.4056   27.9938 H   0  0  0  0  0  0
   75.4633   23.3638   26.0425 H   0  0  0  0  0  0
  1  6  1  0  0  0
  1  2  2  0  0  0
  1  7  1  0  0  0
  2  3  1  0  0  0
  2 38  1  0  0  0
  3  4  2  0  0  0
  3 39  1  0  0  0
  4  5  1  0  0  0
  4  8  1  0  0  0
  5  6  2  0  0  0
  5 40  1  0  0  0
  6 41  1  0  0  0
  7 15  1  0  0  0
  7 16  1  0  0  0
  7 42  1  0  0  0
  8  9  2  0  0  0
  8 10  1  0  0  0
 10 11  1  0  0  0
 10 43  1  0  0  0
 11 12  1  0  0  0
 11 33  1  0  0  0
 11 44  1  0  0  0
 12 13  2  0  0  0
 12 14  1  0  0  0
 14 45  1  0  0  0
 15 17  1  0  0  0
 15 46  1  0  0  0
 15 47  1  0  0  0
 16 28  1  0  0  0
 16 29  2  0  0  0
 17 18  1  0  0  0
 17 48  1  0  0  0
 17 49  1  0  0  0
 18 19  1  0  0  0
 18 50  1  0  0  0
 18 51  1  0  0  0
 19 20  1  0  0  0
 19 24  2  0  0  0
 20 21  2  0  0  0
 20 27  1  0  0  0
 21 22  1  0  0  0
 22 23  2  0  0  0
 22 25  1  0  0  0
 23 24  1  0  0  0
 24 26  1  0  0  0
 25 52  1  0  0  0
 25 53  1  0  0  0
 26 54  1  0  0  0
 26 55  1  0  0  0
 27 56  1  0  0  0
 28 30  1  0  0  0
 28 31  1  0  0  0
 28 32  1  0  0  0
 33 34  1  0  0  0
 33 57  1  0  0  0
 33 58  1  0  0  0
 34 35  1  0  0  0
 34 59  1  0  0  0
 34 60  1  0  0  0
 35 36  2  0  0  0
 35 37  1  0  0  0
 37 61  1  0  0  0
M  END
> <s_m_entry_id>
24993

> <s_m_entry_name>
dock_pv.146

> <s_m_Source_Path>
/home/csk/Desktop/cluster/DUD-E-result/pur2

> <s_m_Source_File>
dock_pv.maegz

> <i_m_Source_File_Index>
146

> <chembl_id>
CHEMBL379094

> <chembl_pref_name>
None

> <i_lp_mmshare_version>
53161

> <r_lp_tautomer_probability>
0.0160304617775627

> <s_lp_Force_Field>
OPLS_2005

> <r_lp_Energy>
9.231636

> <b_lp_Chiralities_Consistent>
1

> <s_lp_Variant>
CHEMBL3972_lig82-5

> <s_i_glide_gridfile>
glide-grid_1njs

> <i_i_glide_lignum>
205

> <i_i_glide_rotatable_bonds>
17

> <r_i_docking_score>
-7.58869977195522

> <r_i_glide_ligand_efficiency>
-0.205099993836628

> <r_i_glide_ligand_efficiency_sa>
-0.683438680412247

> <r_i_glide_ligand_efficiency_ln>
-1.64581107617319

> <r_i_glide_gscore>
-7.58869977195522

> <r_i_glide_lipo>
-1.76968940881911

> <r_i_glide_hbond>
-0.830812707546191

> <r_i_glide_metal>
0

> <r_i_glide_rewards>
-0.837092024405863

> <r_i_glide_evdw>
-49.1332550048828

> <r_i_glide_ecoul>
-16.7941474914551

> <r_i_glide_erotb>
0.962383803886315

> <r_i_glide_esite>
-0.137704561107972

> <r_i_glide_emodel>
-86.5506819023295

> <r_i_glide_energy>
-65.9274024963379

> <r_i_glide_einternal>
15.8995008468628

> <i_i_glide_confnum>
269

> <i_i_glide_posenum>
182

> <r_i_glide_eff_state_penalty>
0

> <s_user_duplicate_titles>
CHEMBL3972_lig82,CHEMBL3972_lig87

> <i_f3d_flags>
0

> <s_m_subgroup_title>
dock_pv

> <s_m_subgroupid>
dock_pv

> <b_m_subgroup_collapsed>
1

$$$$
CHEMBL3972_lig58 
                    3D
 Schrodinger Suite 2021-1.
 59 61  0  0  1  0            999 V2000
   72.5842   12.7973   34.4407 N   0  0  0  0  0  0
   71.6707   13.3113   33.5023 C   0  0  0  0  0  0
   71.6893   12.7952   32.2225 N   0  0  0  0  0  0
   70.8349   14.2368   33.8267 N   0  0  0  0  0  0
   70.0070   14.6714   32.8328 C   0  0  0  0  0  0
   69.1004   15.6880   32.9347 N   0  0  0  0  0  0
   68.4701   15.8757   31.7238 C   0  0  0  0  0  0
   67.4578   16.9960   31.5739 C   0  0  0  0  0  0
   66.6922   17.0775   30.2264 C   0  0  0  0  0  0
   67.5074   17.1625   28.9785 N   0  0  0  0  0  0
   67.2266   16.3434   27.9014 C   0  0  0  0  0  0
   66.2199   15.1696   28.0058 C   0  0  0  0  0  0
   67.7573   16.4910   26.7961 O   0  0  0  0  0  0
   68.4893   18.2098   28.8889 C   0  0  0  0  0  0
   68.3156   19.4003   29.6128 C   0  0  0  0  0  0
   69.2648   20.4128   29.5630 C   0  0  0  0  0  0
   70.4351   20.2546   28.8159 C   0  0  0  0  0  0
   71.5228   21.2903   28.9274 C   0  0  0  0  0  0
   72.7570   20.8932   28.5570 N   0  0  0  0  0  0
   74.0189   21.6203   28.7241 C   0  0  1  0  0  0
   73.9741   22.9778   27.9668 C   0  0  0  0  0  0
   75.2386   23.8517   28.0969 C   0  0  0  0  0  0
   75.2919   25.0346   27.1279 C   0  0  0  0  0  0
   74.0904   25.3699   26.5750 O   0  0  0  0  0  0
   76.3281   25.6450   26.8914 O   0  0  0  0  0  0
   74.3939   21.7338   30.2226 C   0  0  0  0  0  0
   75.6244   21.1909   30.4466 O   0  0  0  0  0  0
   73.6927   22.2524   31.0681 O   0  0  0  0  0  0
   71.2834   22.3916   29.4160 O   0  0  0  0  0  0
   70.5966   19.0991   28.0463 C   0  0  0  0  0  0
   69.6452   18.0906   28.0918 C   0  0  0  0  0  0
   68.9903   14.9151   30.8511 C   0  0  0  0  0  0
   69.9725   14.1865   31.5307 C   0  0  0  0  0  0
   70.8808   13.1090   31.1595 C   0  0  0  0  0  0
   70.9729   12.5085   30.0910 O   0  0  0  0  0  0
   64.9765   15.6427   28.1033 F   0  0  0  0  0  0
   66.3038   14.3910   26.9237 F   0  0  0  0  0  0
   66.4892   14.3995   29.0619 F   0  0  0  0  0  0
   72.7022   13.3272   35.2915 H   0  0  0  0  0  0
   73.4514   12.4089   34.0951 H   0  0  0  0  0  0
   72.3676   12.0808   32.0188 H   0  0  0  0  0  0
   68.9470   16.2368   33.7673 H   0  0  0  0  0  0
   66.7082   16.9088   32.3615 H   0  0  0  0  0  0
   67.9405   17.9492   31.7881 H   0  0  0  0  0  0
   65.9839   16.2541   30.2213 H   0  0  0  0  0  0
   66.0623   17.9655   30.2770 H   0  0  0  0  0  0
   67.4368   19.5770   30.2118 H   0  0  0  0  0  0
   69.0942   21.3142   30.1349 H   0  0  0  0  0  0
   72.8554   19.9592   28.1936 H   0  0  0  0  0  0
   74.7635   20.9969   28.2239 H   0  0  0  0  0  0
   73.7873   22.7687   26.9113 H   0  0  0  0  0  0
   73.1263   23.5735   28.3080 H   0  0  0  0  0  0
   75.3116   24.2492   29.1096 H   0  0  0  0  0  0
   76.1331   23.2498   27.9313 H   0  0  0  0  0  0
   73.3399   24.8518   26.8917 H   0  0  0  0  0  0
   75.9693   20.7209   29.6849 H   0  0  0  0  0  0
   71.4690   18.9430   27.4277 H   0  0  0  0  0  0
   69.8527   17.2036   27.5181 H   0  0  0  0  0  0
   68.7392   14.7865   29.8108 H   0  0  0  0  0  0
  1  2  1  0  0  0
  1 39  1  0  0  0
  1 40  1  0  0  0
  2  3  1  0  0  0
  2  4  2  0  0  0
  3 34  1  0  0  0
  3 41  1  0  0  0
  4  5  1  0  0  0
  5  6  1  0  0  0
  5 33  2  0  0  0
  6  7  1  0  0  0
  6 42  1  0  0  0
  7  8  1  0  0  0
  7 32  2  0  0  0
  8  9  1  0  0  0
  8 43  1  0  0  0
  8 44  1  0  0  0
  9 10  1  0  0  0
  9 45  1  0  0  0
  9 46  1  0  0  0
 10 11  1  0  0  0
 10 14  1  0  0  0
 11 12  1  0  0  0
 11 13  2  0  0  0
 12 36  1  0  0  0
 12 37  1  0  0  0
 12 38  1  0  0  0
 14 15  2  0  0  0
 14 31  1  0  0  0
 15 16  1  0  0  0
 15 47  1  0  0  0
 16 17  2  0  0  0
 16 48  1  0  0  0
 17 18  1  0  0  0
 17 30  1  0  0  0
 18 19  1  0  0  0
 18 29  2  0  0  0
 19 20  1  0  0  0
 19 49  1  0  0  0
 20 21  1  0  0  0
 20 26  1  0  0  0
 20 50  1  0  0  0
 21 22  1  0  0  0
 21 51  1  0  0  0
 21 52  1  0  0  0
 22 23  1  0  0  0
 22 53  1  0  0  0
 22 54  1  0  0  0
 23 24  1  0  0  0
 23 25  2  0  0  0
 24 55  1  0  0  0
 26 27  1  0  0  0
 26 28  2  0  0  0
 27 56  1  0  0  0
 30 31  2  0  0  0
 30 57  1  0  0  0
 31 58  1  0  0  0
 32 33  1  0  0  0
 32 59  1  0  0  0
 33 34  1  0  0  0
 34 35  2  0  0  0
M  END
> <s_m_entry_id>
24995

> <s_m_entry_name>
dock_pv.148

> <s_m_Source_Path>
/home/csk/Desktop/cluster/DUD-E-result/pur2

> <s_m_Source_File>
dock_pv.maegz

> <i_m_Source_File_Index>
148

> <chembl_id>
CHEMBL4553188

> <chembl_pref_name>
None

> <i_lp_mmshare_version>
53161

> <r_lp_tautomer_probability>
1

> <s_lp_Force_Field>
OPLS_2005

> <r_lp_Energy>
39.860024

> <b_lp_Chiralities_Consistent>
1

> <s_lp_Variant>
CHEMBL3972_lig58 -1

> <s_i_glide_gridfile>
glide-grid_1njs

> <i_i_glide_lignum>
128

> <i_i_glide_rotatable_bonds>
15

> <r_i_docking_score>
-7.57424209978795

> <r_i_glide_ligand_efficiency>
-0.199322160520736

> <r_i_glide_ligand_efficiency_sa>
-0.670116200888213

> <r_i_glide_ligand_efficiency_ln>
-1.63322940834264

> <r_i_glide_gscore>
-7.57424209978795

> <r_i_glide_lipo>
-1.84615180506087

> <r_i_glide_hbond>
-0.245938208630873

> <r_i_glide_metal>
0

> <r_i_glide_rewards>
-1.75113339398412

> <r_i_glide_evdw>
-55.6304168701172

> <r_i_glide_ecoul>
-10.5651245117188

> <r_i_glide_erotb>
0.855263257262129

> <r_i_glide_esite>
-0.219992429110548

> <r_i_glide_emodel>
-87.356820221762

> <r_i_glide_energy>
-66.1955413818359

> <r_i_glide_einternal>
11.2948503494263

> <i_i_glide_confnum>
40

> <i_i_glide_posenum>
302

> <r_i_glide_eff_state_penalty>
0

> <s_user_duplicate_titles>
CHEMBL3972_lig58 

> <i_f3d_flags>
0

> <s_m_subgroup_title>
dock_pv

> <s_m_subgroupid>
dock_pv

> <b_m_subgroup_collapsed>
1

$$$$
CHEMBL3972_lig28
                    3D
 Schrodinger Suite 2021-1.
 56 58  0  0  1  0            999 V2000
   68.4332   14.9749   29.9648 C   0  0  0  0  0  0
   68.7796   13.6939   29.6982 N   0  0  0  0  0  0
   67.7575   15.7955   29.0439 C   0  0  0  0  0  0
   67.8524   13.9435   27.4918 N   0  0  0  0  0  0
   67.5009   15.2247   27.7835 C   0  0  0  0  0  0
   68.4756   13.2472   28.4625 C   0  0  0  0  0  0
   68.8846   15.4799   31.1968 N   0  0  0  0  0  0
   73.9841   21.8583   28.9067 C   0  0  0  0  0  0
   74.1110   22.7095   27.8774 N   0  0  0  0  0  0
   74.7497   24.5043   26.4723 C   0  0  0  0  0  0
   75.2868   23.4729   27.4572 C   0  0  1  0  0  0
   67.3512   17.2278   29.4216 C   0  0  0  0  0  0
   72.5896   21.3276   29.1214 C   0  0  0  0  0  0
   66.8867   16.0483   26.8913 O   0  0  0  0  0  0
   78.3503   24.7480   27.6903 C   0  0  0  0  0  0
   74.8924   21.5885   29.6898 O   0  0  0  0  0  0
   74.8901   24.3914   25.2905 O   0  0  0  0  0  0
   68.8815   11.9625   28.1459 N   0  0  0  0  0  0
   68.1840   19.1859   30.8473 N   0  0  1  0  0  0
   78.7047   23.5748   27.6946 O   0  0  0  0  0  0
   76.0363   24.1351   28.6454 C   0  0  0  0  0  0
   71.7407   21.0055   28.0537 C   0  0  0  0  0  0
   72.1221   21.1853   30.4281 C   0  0  0  0  0  0
   68.4916   16.8296   31.6202 C   0  0  0  0  0  0
   68.3724   17.7968   30.4141 C   0  0  1  0  0  0
   77.0613   25.2514   28.3407 C   0  0  0  0  0  0
   74.0885   25.5137   27.1013 O   0  0  0  0  0  0
   68.4616   20.2022   29.8298 C   0  0  0  0  0  0
   69.9389   20.5287   29.5917 C   0  0  0  0  0  0
   79.0905   25.7503   27.1369 O   0  0  0  0  0  0
   70.8098   20.7995   30.6573 C   0  0  0  0  0  0
   70.4237   20.6139   28.2853 C   0  0  0  0  0  0
   69.1572   14.8415   31.9241 H   0  0  0  0  0  0
   73.2902   22.8732   27.3145 H   0  0  0  0  0  0
   75.9705   22.8091   26.9273 H   0  0  0  0  0  0
   66.3690   17.1920   29.8939 H   0  0  0  0  0  0
   67.2491   17.8804   28.5520 H   0  0  0  0  0  0
   66.4522   15.6317   26.1324 H   0  0  0  0  0  0
   68.9392   11.7735   27.1586 H   0  0  0  0  0  0
   69.5603   11.5746   28.7807 H   0  0  0  0  0  0
   67.3328   19.3484   31.3710 H   0  0  0  0  0  0
   76.5385   23.3630   29.2310 H   0  0  0  0  0  0
   75.2893   24.5758   29.2922 H   0  0  0  0  0  0
   72.0858   21.0533   27.0317 H   0  0  0  0  0  0
   72.7670   21.3983   31.2712 H   0  0  0  0  0  0
   69.2235   17.1925   32.3437 H   0  0  0  0  0  0
   67.5444   16.7661   32.1533 H   0  0  0  0  0  0
   69.2890   17.7698   29.8316 H   0  0  0  0  0  0
   77.2923   25.7238   29.2907 H   0  0  0  0  0  0
   76.6329   26.0294   27.7109 H   0  0  0  0  0  0
   73.8875   25.2787   28.0098 H   0  0  0  0  0  0
   67.9836   21.1348   30.1370 H   0  0  0  0  0  0
   68.0049   19.9125   28.8914 H   0  0  0  0  0  0
   78.6889   26.6189   27.2062 H   0  0  0  0  0  0
   70.4901   20.7076   31.6826 H   0  0  0  0  0  0
   69.7774   20.3993   27.4422 H   0  0  0  0  0  0
  1  2  2  0  0  0
  1  3  1  0  0  0
  1  7  1  0  0  0
  2  6  1  0  0  0
  3  5  2  0  0  0
  3 12  1  0  0  0
  4  5  1  0  0  0
  4  6  2  0  0  0
  5 14  1  0  0  0
  6 18  1  0  0  0
  7 24  1  0  0  0
  7 33  1  0  0  0
  8 13  1  0  0  0
  8  9  1  0  0  0
  8 16  2  0  0  0
  9 11  1  0  0  0
  9 34  1  0  0  0
 10 11  1  0  0  0
 10 17  2  0  0  0
 10 27  1  0  0  0
 11 21  1  0  0  0
 11 35  1  0  0  0
 12 25  1  0  0  0
 12 36  1  0  0  0
 12 37  1  0  0  0
 13 22  1  0  0  0
 13 23  2  0  0  0
 14 38  1  0  0  0
 15 26  1  0  0  0
 15 20  2  0  0  0
 15 30  1  0  0  0
 18 39  1  0  0  0
 18 40  1  0  0  0
 19 25  1  0  0  0
 19 28  1  0  0  0
 19 41  1  0  0  0
 21 26  1  0  0  0
 21 42  1  0  0  0
 21 43  1  0  0  0
 22 32  2  0  0  0
 22 44  1  0  0  0
 23 31  1  0  0  0
 23 45  1  0  0  0
 24 25  1  0  0  0
 24 46  1  0  0  0
 24 47  1  0  0  0
 25 48  1  0  0  0
 26 49  1  0  0  0
 26 50  1  0  0  0
 27 51  1  0  0  0
 28 29  1  0  0  0
 28 52  1  0  0  0
 28 53  1  0  0  0
 29 31  2  0  0  0
 29 32  1  0  0  0
 30 54  1  0  0  0
 31 55  1  0  0  0
 32 56  1  0  0  0
M  END
> <s_m_entry_id>
24996

> <s_m_entry_name>
dock_pv.149

> <s_m_Source_Path>
/home/csk/Desktop/cluster/DUD-E-result/pur2

> <s_m_Source_File>
dock_pv.maegz

> <i_m_Source_File_Index>
149

> <chembl_id>
CHEMBL157230

> <chembl_pref_name>
None

> <i_lp_mmshare_version>
53161

> <r_lp_tautomer_probability>
0.0160306447209791

> <s_lp_Force_Field>
OPLS_2005

> <r_lp_Energy>
6.546138

> <b_lp_Chiralities_Consistent>
1

> <s_lp_Variant>
CHEMBL3972_lig28-7

> <s_i_glide_gridfile>
glide-grid_1njs

> <i_i_glide_lignum>
91

> <i_i_glide_rotatable_bonds>
13

> <r_i_docking_score>
-7.54129965869624

> <r_i_glide_ligand_efficiency>
-0.235665614334258

> <r_i_glide_ligand_efficiency_sa>
-0.74819168734952

> <r_i_glide_ligand_efficiency_ln>
-1.68870256164686

> <r_i_glide_gscore>
-7.54129965869624

> <r_i_glide_lipo>
-2.71087114848436

> <r_i_glide_hbond>
-0.4373353552943

> <r_i_glide_metal>
0

> <r_i_glide_rewards>
-1.90905931962569

> <r_i_glide_evdw>
-44.0037841796875

> <r_i_glide_ecoul>
-8.29768943786621

> <r_i_glide_erotb>
1.01251359057351

> <r_i_glide_esite>
-0.051704801201096

> <r_i_glide_emodel>
-66.8053096876092

> <r_i_glide_energy>
-52.3014736175537

> <r_i_glide_einternal>
10.8318519592285

> <i_i_glide_confnum>
156

> <i_i_glide_posenum>
251

> <r_i_glide_eff_state_penalty>
0

> <s_user_duplicate_titles>
CHEMBL3972_lig28

> <i_f3d_flags>
0

> <s_m_subgroup_title>
dock_pv

> <s_m_subgroupid>
dock_pv

> <b_m_subgroup_collapsed>
1

$$$$
CHEMBL3972_lig67
                    3D
 Schrodinger Suite 2021-1.
 52 54  0  0  1  0            999 V2000
   68.7357   15.5755   27.8445 C   0  0  0  0  0  0
   68.3871   15.0357   29.0978 C   0  0  0  0  0  0
   68.4503   13.7087   29.3607 N   0  0  0  0  0  0
   69.2890   13.3388   27.1382 N   0  0  0  0  0  0
   69.2314   14.6726   26.8909 C   0  0  0  0  0  0
   68.8924   12.9266   28.3576 C   0  0  0  0  0  0
   72.4585   21.8149   28.7208 C   0  0  0  0  0  0
   68.4866   17.2879   27.4281 S   0  0  0  0  0  0
   73.7510   21.7677   28.0986 C   0  0  0  0  0  0
   71.4176   20.4245   28.6189 S   0  0  0  0  0  0
   68.0935   15.8238   30.2202 N   0  0  0  0  0  0
   74.4368   22.9280   28.0213 N   0  0  0  0  0  0
   71.9038   22.7892   29.5401 C   0  0  0  0  0  0
   70.2616   21.1130   29.7194 C   0  0  0  0  0  0
   76.7935   22.1974   28.4910 C   0  0  0  0  0  0
   75.8318   22.9598   27.5422 C   0  0  2  0  0  0
   70.6846   22.3896   30.0910 C   0  0  0  0  0  0
   69.6890   15.2133   25.7179 O   0  0  0  0  0  0
   77.8517   26.2682   27.6910 C   0  0  0  0  0  0
   74.2107   20.7023   27.6910 O   0  0  0  0  0  0
   76.4379   21.5910   29.4776 O   0  0  0  0  0  0
   69.0075   11.5761   28.6176 N   0  0  0  0  0  0
   79.0329   25.9719   27.5375 O   0  0  0  0  0  0
   68.6611   17.9824   29.0849 C   0  0  2  0  0  0
   76.2917   24.3814   27.1391 C   0  0  0  0  0  0
   67.7241   17.2267   30.0585 C   0  0  0  0  0  0
   76.8034   25.3171   28.2581 C   0  0  0  0  0  0
   69.0173   20.3688   30.1630 C   0  0  0  0  0  0
   78.0890   22.2932   28.0910 O   0  0  0  0  0  0
   77.2890   27.4345   27.2910 O   0  0  0  0  0  0
   68.3482   19.4970   29.0855 C   0  0  0  0  0  0
   67.6824   15.3596   31.0164 H   0  0  0  0  0  0
   74.0040   23.7966   28.2947 H   0  0  0  0  0  0
   72.3602   23.7456   29.7523 H   0  0  0  0  0  0
   75.8195   22.3910   26.6141 H   0  0  0  0  0  0
   70.1159   23.0223   30.7548 H   0  0  0  0  0  0
   69.4681   16.1490   25.6860 H   0  0  0  0  0  0
   69.5162   11.0389   27.9372 H   0  0  0  0  0  0
   68.8890   11.2792   29.5730 H   0  0  0  0  0  0
   69.7047   17.8044   29.2910 H   0  0  0  0  0  0
   75.4857   24.8851   26.6025 H   0  0  0  0  0  0
   77.0783   24.2525   26.3930 H   0  0  0  0  0  0
   67.7512   17.6923   31.0446 H   0  0  0  0  0  0
   66.6865   17.2840   29.7252 H   0  0  0  0  0  0
   77.2893   24.7679   29.0607 H   0  0  0  0  0  0
   75.9815   25.8667   28.7145 H   0  0  0  0  0  0
   69.2212   19.7678   31.0490 H   0  0  0  0  0  0
   68.2820   21.1063   30.4910 H   0  0  0  0  0  0
   78.6041   21.7705   28.7176 H   0  0  0  0  0  0
   77.8559   27.9833   26.7309 H   0  0  0  0  0  0
   67.2890   19.5910   29.2910 H   0  0  0  0  0  0
   68.5072   19.9424   28.1026 H   0  0  0  0  0  0
  1  2  1  0  0  0
  1  5  2  0  0  0
  1  8  1  0  0  0
  2  3  2  0  0  0
  2 11  1  0  0  0
  3  6  1  0  0  0
  4  5  1  0  0  0
  4  6  2  0  0  0
  5 18  1  0  0  0
  6 22  1  0  0  0
  7 10  1  0  0  0
  7  9  1  0  0  0
  7 13  2  0  0  0
  8 24  1  0  0  0
  9 12  1  0  0  0
  9 20  2  0  0  0
 10 14  1  0  0  0
 11 26  1  0  0  0
 11 32  1  0  0  0
 12 16  1  0  0  0
 12 33  1  0  0  0
 13 17  1  0  0  0
 13 34  1  0  0  0
 14 28  1  0  0  0
 14 17  2  0  0  0
 15 16  1  0  0  0
 15 21  2  0  0  0
 15 29  1  0  0  0
 16 25  1  0  0  0
 16 35  1  0  0  0
 17 36  1  0  0  0
 18 37  1  0  0  0
 19 27  1  0  0  0
 19 23  2  0  0  0
 19 30  1  0  0  0
 22 38  1  0  0  0
 22 39  1  0  0  0
 24 26  1  0  0  0
 24 31  1  0  0  0
 24 40  1  0  0  0
 25 27  1  0  0  0
 25 41  1  0  0  0
 25 42  1  0  0  0
 26 43  1  0  0  0
 26 44  1  0  0  0
 27 45  1  0  0  0
 27 46  1  0  0  0
 28 31  1  0  0  0
 28 47  1  0  0  0
 28 48  1  0  0  0
 29 49  1  0  0  0
 30 50  1  0  0  0
 31 51  1  0  0  0
 31 52  1  0  0  0
M  END
> <s_m_entry_id>
24998

> <s_m_entry_name>
dock_pv.151

> <s_m_Source_Path>
/home/csk/Desktop/cluster/DUD-E-result/pur2

> <s_m_Source_File>
dock_pv.maegz

> <i_m_Source_File_Index>
151

> <chembl_id>
CHEMBL84163

> <chembl_pref_name>
None

> <i_lp_mmshare_version>
53161

> <r_lp_tautomer_probability>
0.0160306447209791

> <s_lp_Force_Field>
OPLS_2005

> <r_lp_Energy>
-2.893769

> <b_lp_Chiralities_Consistent>
1

> <s_lp_Variant>
CHEMBL3972_lig67-3

> <s_i_glide_gridfile>
glide-grid_1njs

> <i_i_glide_lignum>
143

> <i_i_glide_rotatable_bonds>
13

> <r_i_docking_score>
-7.50448197856452

> <r_i_glide_ligand_efficiency>
-0.242080063824662

> <r_i_glide_ligand_efficiency_sa>
-0.76046562795799

> <r_i_glide_ligand_efficiency_ln>
-1.69249067091882

> <r_i_glide_gscore>
-7.50448197856452

> <r_i_glide_lipo>
-2.36227434243843

> <r_i_glide_hbond>
-0.16537517480626

> <r_i_glide_metal>
0

> <r_i_glide_rewards>
-1.19516658081619

> <r_i_glide_evdw>
-43.7676887512207

> <r_i_glide_ecoul>
-16.5027122497559

> <r_i_glide_erotb>
0.923384580841318

> <r_i_glide_esite>
-0.0412591863205387

> <r_i_glide_emodel>
-80.441117616792

> <r_i_glide_energy>
-60.2704010009766

> <r_i_glide_einternal>
10.9577026367188

> <i_i_glide_confnum>
245

> <i_i_glide_posenum>
251

> <r_i_glide_eff_state_penalty>
0

> <s_user_duplicate_titles>
CHEMBL3972_lig67

> <i_f3d_flags>
0

> <s_m_subgroup_title>
dock_pv

> <s_m_subgroupid>
dock_pv

> <b_m_subgroup_collapsed>
1

$$$$
CHEMBL3972_lig92
                    3D
 Schrodinger Suite 2021-1.
 57 58  0  0  1  0            999 V2000
   68.8951   17.9943   27.9398 C   0  0  0  0  0  0
   70.1135   18.2292   27.2969 C   0  0  0  0  0  0
   70.9253   19.2994   27.6893 C   0  0  0  0  0  0
   70.5074   20.1749   28.6981 C   0  0  0  0  0  0
   69.2649   19.9657   29.3021 C   0  0  0  0  0  0
   68.4891   18.8623   28.9585 C   0  0  0  0  0  0
   68.0210   16.7956   27.5478 C   0  0  1  0  0  0
   68.2509   15.6049   28.5023 C   0  0  0  0  0  0
   67.3561   14.3739   28.2385 C   0  0  0  0  0  0
   67.7270   13.1500   29.0935 C   0  0  0  0  0  0
   69.1059   12.5492   28.7947 C   0  0  0  0  0  0
   69.3339   11.9857   27.4697 C   0  0  0  0  0  0
   70.6006   11.5796   27.2609 N   0  0  0  0  0  0
   71.5810   11.5526   28.1979 C   0  0  0  0  0  0
   71.3705   11.9901   29.3767 N   0  0  0  0  0  0
   70.1462   12.5113   29.6711 C   0  0  0  0  0  0
   68.5041   11.8331   26.5743 O   0  0  0  0  0  0
   72.8037   10.9588   27.8516 N   0  0  0  0  0  0
   70.1052   13.0165   30.9221 N   0  0  0  0  0  0
   71.3858   21.2919   29.2034 C   0  0  0  0  0  0
   70.8867   22.2976   29.7044 O   0  0  0  0  0  0
   72.7133   21.0588   29.1791 N   0  0  0  0  0  0
   73.7714   21.8404   29.8443 C   0  0  2  0  0  0
   73.8490   21.5899   31.3723 C   0  0  0  0  0  0
   72.6441   21.3211   31.9424 O   0  0  0  0  0  0
   74.8882   21.5910   31.9853 O   0  0  0  0  0  0
   73.7193   23.3587   29.5132 C   0  0  0  0  0  0
   73.8821   23.7257   28.0224 C   0  0  0  0  0  0
   75.2745   23.4639   27.4468 C   0  0  0  0  0  0
   75.2841   23.5935   26.0907 O   0  0  0  0  0  0
   76.2719   23.2032   28.1196 O   0  0  0  0  0  0
   66.6390   17.0929   27.5434 O   0  0  0  0  0  0
   70.4443   17.5789   26.5016 H   0  0  0  0  0  0
   71.8648   19.4422   27.1805 H   0  0  0  0  0  0
   68.9130   20.6233   30.0873 H   0  0  0  0  0  0
   67.5567   18.6926   29.4724 H   0  0  0  0  0  0
   68.2773   16.4884   26.5326 H   0  0  0  0  0  0
   69.2923   15.3026   28.4329 H   0  0  0  0  0  0
   68.0999   15.9272   29.5330 H   0  0  0  0  0  0
   66.3176   14.6353   28.4435 H   0  0  0  0  0  0
   67.3821   14.1177   27.1779 H   0  0  0  0  0  0
   67.6387   13.4149   30.1443 H   0  0  0  0  0  0
   66.9872   12.3728   28.9396 H   0  0  0  0  0  0
   70.7909   11.2484   26.3315 H   0  0  0  0  0  0
   73.5609   11.1244   28.4812 H   0  0  0  0  0  0
   73.1017   11.1082   26.9002 H   0  0  0  0  0  0
   69.2958   13.5086   31.2620 H   0  0  0  0  0  0
   70.9608   13.0423   31.4502 H   0  0  0  0  0  0
   73.0286   20.1869   28.7810 H   0  0  0  0  0  0
   74.7043   21.4322   29.4525 H   0  0  0  0  0  0
   72.7688   21.1250   32.8735 H   0  0  0  0  0  0
   74.4884   23.8841   30.0739 H   0  0  0  0  0  0
   72.7890   23.7963   29.8717 H   0  0  0  0  0  0
   73.6875   24.7897   27.9007 H   0  0  0  0  0  0
   73.1297   23.1999   27.4302 H   0  0  0  0  0  0
   74.4097   23.7831   25.7443 H   0  0  0  0  0  0
   66.3382   17.2416   26.6344 H   0  0  0  0  0  0
  1  6  1  0  0  0
  1  7  1  0  0  0
  1  2  2  0  0  0
  2  3  1  0  0  0
  2 33  1  0  0  0
  3  4  2  0  0  0
  3 34  1  0  0  0
  4 20  1  0  0  0
  4  5  1  0  0  0
  5  6  2  0  0  0
  5 35  1  0  0  0
  6 36  1  0  0  0
  7  8  1  0  0  0
  7 32  1  0  0  0
  7 37  1  0  0  0
  8  9  1  0  0  0
  8 38  1  0  0  0
  8 39  1  0  0  0
  9 10  1  0  0  0
  9 40  1  0  0  0
  9 41  1  0  0  0
 10 11  1  0  0  0
 10 42  1  0  0  0
 10 43  1  0  0  0
 11 12  1  0  0  0
 11 16  2  0  0  0
 12 17  2  0  0  0
 12 13  1  0  0  0
 13 14  1  0  0  0
 13 44  1  0  0  0
 14 15  2  0  0  0
 14 18  1  0  0  0
 15 16  1  0  0  0
 16 19  1  0  0  0
 18 45  1  0  0  0
 18 46  1  0  0  0
 19 47  1  0  0  0
 19 48  1  0  0  0
 20 21  2  0  0  0
 20 22  1  0  0  0
 22 23  1  0  0  0
 22 49  1  0  0  0
 23 24  1  0  0  0
 23 27  1  0  0  0
 23 50  1  0  0  0
 24 25  1  0  0  0
 24 26  2  0  0  0
 25 51  1  0  0  0
 27 28  1  0  0  0
 27 52  1  0  0  0
 27 53  1  0  0  0
 28 29  1  0  0  0
 28 54  1  0  0  0
 28 55  1  0  0  0
 29 30  1  0  0  0
 29 31  2  0  0  0
 30 56  1  0  0  0
 32 57  1  0  0  0
M  END
> <s_m_entry_id>
25004

> <s_m_entry_name>
dock_pv.157

> <s_m_Source_Path>
/home/csk/Desktop/cluster/DUD-E-result/pur2

> <s_m_Source_File>
dock_pv.maegz

> <i_m_Source_File_Index>
157

> <chembl_id>
CHEMBL453089

> <chembl_pref_name>
None

> <i_lp_mmshare_version>
53161

> <r_lp_tautomer_probability>
0.982528302960407

> <s_lp_Force_Field>
OPLS_2005

> <r_lp_Energy>
21.267594

> <b_lp_Chiralities_Consistent>
1

> <s_lp_Variant>
CHEMBL3972_lig92-1

> <s_i_glide_gridfile>
glide-grid_1njs

> <i_i_glide_lignum>
236

> <i_i_glide_rotatable_bonds>
15

> <r_i_docking_score>
-7.18388759040298

> <r_i_glide_ligand_efficiency>
-0.224496487200093

> <r_i_glide_ligand_efficiency_sa>
-0.712731919065807

> <r_i_glide_ligand_efficiency_ln>
-1.60866825687098

> <r_i_glide_gscore>
-7.18388759040298

> <r_i_glide_lipo>
-1.12724022187092

> <r_i_glide_hbond>
-0.535785889559674

> <r_i_glide_metal>
0

> <r_i_glide_rewards>
-2.06605074393574

> <r_i_glide_evdw>
-53.3142852783203

> <r_i_glide_ecoul>
-10.2255125045776

> <r_i_glide_erotb>
0.840177142306582

> <r_i_glide_esite>
-0.0954467377405605

> <r_i_glide_emodel>
-89.0526290682359

> <r_i_glide_energy>
-63.5397977828979

> <r_i_glide_einternal>
8.30345726013184

> <i_i_glide_confnum>
166

> <i_i_glide_posenum>
198

> <r_i_glide_eff_state_penalty>
0

> <s_user_duplicate_titles>
CHEMBL3972_lig92

> <i_f3d_flags>
0

> <s_m_subgroup_title>
dock_pv

> <s_m_subgroupid>
dock_pv

> <b_m_subgroup_collapsed>
1

$$$$
CHEMBL3972_lig24
                    3D
 Schrodinger Suite 2021-1.
 55 56  0  0  1  0            999 V2000
   70.6316   11.7140   28.4088 N   0  0  0  0  0  0
   69.7474   12.1970   29.3118 C   0  0  0  0  0  0
   69.2807   12.6479   26.6546 N   0  0  0  0  0  0
   68.5825   12.8969   28.9471 C   0  0  0  0  0  0
   68.3962   13.1216   27.5691 C   0  0  0  0  0  0
   70.3583   11.9858   27.1170 C   0  0  0  0  0  0
   69.8642   20.1054   28.7424 C   0  0  0  0  0  0
   70.8892   21.1492   28.4256 C   0  0  0  0  0  0
   71.5984   21.5759   29.4808 N   0  0  0  0  0  0
   69.8599   18.8404   28.1247 C   0  0  0  0  0  0
   72.6403   23.1543   30.9650 C   0  0  0  0  0  0
   72.5790   22.6602   29.5108 C   0  0  1  0  0  0
   68.9189   20.3905   29.7317 C   0  0  0  0  0  0
   68.9379   17.8766   28.5424 C   0  0  0  0  0  0
   67.2972   13.8398   27.1929 O   0  0  0  0  0  0
   74.9608   23.9865   27.4507 C   0  0  0  0  0  0
   70.9919   21.5910   27.2910 O   0  0  0  0  0  0
   70.0888   11.9887   30.6406 N   0  0  0  0  0  0
   73.1276   22.5057   31.8688 O   0  0  0  0  0  0
   71.2886   11.5910   26.1751 N   0  0  0  0  0  0
   76.1783   24.1326   27.5209 O   0  0  0  0  0  0
   73.9649   22.1810   28.9796 C   0  0  0  0  0  0
   68.0375   18.1490   29.5835 C   0  0  0  0  0  0
   71.0180   18.3900   26.9149 Cl  0  0  0  0  0  0
   74.2789   22.6202   27.5342 C   0  0  0  0  0  0
   67.5729   13.3819   30.0014 C   0  0  0  0  0  0
   68.0315   19.4146   30.1629 C   0  0  0  0  0  0
   72.0772   24.3910   31.0819 O   0  0  0  0  0  0
   67.1109   17.2254   30.0905 N   0  0  0  0  0  0
   74.0890   25.0247   27.2909 O   0  0  0  0  0  0
   66.9910   15.8655   29.5994 C   0  0  0  0  0  0
   67.7761   14.8461   30.4404 C   0  0  0  0  0  0
   71.4585   21.1120   30.3653 H   0  0  0  0  0  0
   72.2116   23.4793   28.8909 H   0  0  0  0  0  0
   68.8780   21.3702   30.1867 H   0  0  0  0  0  0
   68.9676   16.9088   28.0689 H   0  0  0  0  0  0
   66.8296   14.2159   27.9393 H   0  0  0  0  0  0
   69.5457   12.4465   31.3567 H   0  0  0  0  0  0
   71.0059   11.6196   30.8316 H   0  0  0  0  0  0
   71.2000   12.0657   25.2915 H   0  0  0  0  0  0
   72.2250   11.4630   26.5322 H   0  0  0  0  0  0
   74.0462   21.0936   29.0424 H   0  0  0  0  0  0
   74.7747   22.5440   29.6173 H   0  0  0  0  0  0
   73.3930   22.6003   26.9074 H   0  0  0  0  0  0
   74.9672   21.8979   27.0933 H   0  0  0  0  0  0
   67.6405   12.7423   30.8822 H   0  0  0  0  0  0
   66.5520   13.2250   29.6523 H   0  0  0  0  0  0
   67.3296   19.6552   30.9490 H   0  0  0  0  0  0
   71.6363   24.7229   30.2869 H   0  0  0  0  0  0
   66.6267   17.4647   30.9445 H   0  0  0  0  0  0
   73.1458   24.7909   27.2909 H   0  0  0  0  0  0
   65.9323   15.6014   29.5893 H   0  0  0  0  0  0
   67.2717   15.8191   28.5522 H   0  0  0  0  0  0
   68.8373   15.1017   30.4560 H   0  0  0  0  0  0
   67.4460   14.9466   31.4760 H   0  0  0  0  0  0
  1  2  2  0  0  0
  1  6  1  0  0  0
  2  4  1  0  0  0
  2 18  1  0  0  0
  3  6  2  0  0  0
  3  5  1  0  0  0
  4 26  1  0  0  0
  4  5  2  0  0  0
  5 15  1  0  0  0
  6 20  1  0  0  0
  7 13  2  0  0  0
  7  8  1  0  0  0
  7 10  1  0  0  0
  8  9  1  0  0  0
  8 17  2  0  0  0
  9 12  1  0  0  0
  9 33  1  0  0  0
 10 14  2  0  0  0
 10 24  1  0  0  0
 11 12  1  0  0  0
 11 19  2  0  0  0
 11 28  1  0  0  0
 12 22  1  0  0  0
 12 34  1  0  0  0
 13 27  1  0  0  0
 13 35  1  0  0  0
 14 23  1  0  0  0
 14 36  1  0  0  0
 15 37  1  0  0  0
 16 25  1  0  0  0
 16 21  2  0  0  0
 16 30  1  0  0  0
 18 38  1  0  0  0
 18 39  1  0  0  0
 20 40  1  0  0  0
 20 41  1  0  0  0
 22 25  1  0  0  0
 22 42  1  0  0  0
 22 43  1  0  0  0
 23 29  1  0  0  0
 23 27  2  0  0  0
 25 44  1  0  0  0
 25 45  1  0  0  0
 26 32  1  0  0  0
 26 46  1  0  0  0
 26 47  1  0  0  0
 27 48  1  0  0  0
 28 49  1  0  0  0
 29 31  1  0  0  0
 29 50  1  0  0  0
 30 51  1  0  0  0
 31 32  1  0  0  0
 31 52  1  0  0  0
 31 53  1  0  0  0
 32 54  1  0  0  0
 32 55  1  0  0  0
M  END
> <s_m_entry_id>
25005

> <s_m_entry_name>
dock_pv.158

> <s_m_Source_Path>
/home/csk/Desktop/cluster/DUD-E-result/pur2

> <s_m_Source_File>
dock_pv.maegz

> <i_m_Source_File_Index>
158

> <chembl_id>
CHEMBL417304

> <chembl_pref_name>
None

> <i_lp_mmshare_version>
53161

> <r_lp_tautomer_probability>
0.0160304617775627

> <s_lp_Force_Field>
OPLS_2005

> <r_lp_Energy>
8.882737

> <b_lp_Chiralities_Consistent>
1

> <s_lp_Variant>
CHEMBL3972_lig24-3

> <s_i_glide_gridfile>
glide-grid_1njs

> <i_i_glide_lignum>
74

> <i_i_glide_rotatable_bonds>
15

> <r_i_docking_score>
-7.18374152957253

> <r_i_glide_ligand_efficiency>
-0.224491922799142

> <r_i_glide_ligand_efficiency_sa>
-0.712717427996079

> <r_i_glide_ligand_efficiency_ln>
-1.60863554986957

> <r_i_glide_gscore>
-7.18374152957253

> <r_i_glide_lipo>
-1.64474603934425

> <r_i_glide_hbond>
-0.669642794071684

> <r_i_glide_metal>
0

> <r_i_glide_rewards>
-0.950703556034985

> <r_i_glide_evdw>
-49.4087867736816

> <r_i_glide_ecoul>
-16.4846973419189

> <r_i_glide_erotb>
1.11085924476845

> <r_i_glide_esite>
-0.086364444918145

> <r_i_glide_emodel>
-90.2877035195526

> <r_i_glide_energy>
-65.8934841156006

> <r_i_glide_einternal>
14.552906036377

> <i_i_glide_confnum>
180

> <i_i_glide_posenum>
245

> <r_i_glide_eff_state_penalty>
0

> <s_user_duplicate_titles>
CHEMBL3972_lig24

> <i_f3d_flags>
0

> <s_m_subgroup_title>
dock_pv

> <s_m_subgroupid>
dock_pv

> <b_m_subgroup_collapsed>
1

$$$$
CHEMBL3972_lig89
                    3D
 Schrodinger Suite 2021-1.
 60 61  0  0  1  0            999 V2000
   68.5022   18.2662   28.8911 C   0  0  0  0  0  0
   69.6915   18.2866   28.1470 C   0  0  0  0  0  0
   70.5628   19.3689   28.2219 C   0  0  0  0  0  0
   70.2702   20.4399   29.0761 C   0  0  0  0  0  0
   69.0448   20.4569   29.7517 C   0  0  0  0  0  0
   68.1842   19.3675   29.6901 C   0  0  0  0  0  0
   67.5321   17.0736   28.8425 C   0  0  2  0  0  0
   68.0724   15.7474   29.4176 C   0  0  0  0  0  0
   68.1944   15.6757   30.9585 C   0  0  0  0  0  0
   68.2214   14.2258   31.5009 C   0  0  0  0  0  0
   69.2286   13.3131   30.7897 C   0  0  0  0  0  0
   70.6306   13.4603   31.1464 C   0  0  0  0  0  0
   71.4621   12.7907   30.3250 N   0  0  0  0  0  0
   71.0883   11.9909   29.2911 C   0  0  0  0  0  0
   69.8517   11.7530   29.0688 N   0  0  0  0  0  0
   68.9292   12.4416   29.7949 C   0  0  0  0  0  0
   71.0852   14.1279   32.0658 O   0  0  0  0  0  0
   72.0804   11.4807   28.4433 N   0  0  0  0  0  0
   67.6894   12.2810   29.2925 N   0  0  0  0  0  0
   71.2835   21.5170   29.3779 C   0  0  0  0  0  0
   70.9206   22.6412   29.7163 O   0  0  0  0  0  0
   72.5686   21.1130   29.3865 N   0  0  0  0  0  0
   73.7450   21.8395   29.8932 C   0  0  2  0  0  0
   73.6890   21.9923   31.4344 C   0  0  0  0  0  0
   74.8640   21.5909   31.9884 O   0  0  0  0  0  0
   72.7407   22.4075   32.0644 O   0  0  0  0  0  0
   74.0030   23.1877   29.1532 C   0  0  0  0  0  0
   74.2146   23.0117   27.6348 C   0  0  0  0  0  0
   74.6548   24.2808   26.8922 C   0  0  0  0  0  0
   75.2492   23.9906   25.7025 O   0  0  0  0  0  0
   74.4888   25.4297   27.2913 O   0  0  0  0  0  0
   66.9687   16.8556   27.5460 O   0  0  0  0  0  0
   67.8383   16.5239   26.4680 C   0  0  0  0  0  0
   69.9824   17.4521   27.5317 H   0  0  0  0  0  0
   71.4840   19.3375   27.6552 H   0  0  0  0  0  0
   68.7770   21.2935   30.3809 H   0  0  0  0  0  0
   67.2692   19.3887   30.2629 H   0  0  0  0  0  0
   66.6601   17.3313   29.4444 H   0  0  0  0  0  0
   67.3769   14.9722   29.0987 H   0  0  0  0  0  0
   69.0301   15.4950   28.9628 H   0  0  0  0  0  0
   69.0886   16.2111   31.2803 H   0  0  0  0  0  0
   67.3572   16.1975   31.4250 H   0  0  0  0  0  0
   68.4177   14.2360   32.5752 H   0  0  0  0  0  0
   67.2185   13.8044   31.4127 H   0  0  0  0  0  0
   72.4323   12.9970   30.4944 H   0  0  0  0  0  0
   71.7561   11.1135   27.5631 H   0  0  0  0  0  0
   72.8987   12.0487   28.3021 H   0  0  0  0  0  0
   67.0223   12.9954   29.5351 H   0  0  0  0  0  0
   67.6684   11.8904   28.3681 H   0  0  0  0  0  0
   72.7574   20.1628   29.1082 H   0  0  0  0  0  0
   74.5869   21.1826   29.6659 H   0  0  0  0  0  0
   74.8218   21.6587   32.9448 H   0  0  0  0  0  0
   74.8872   23.6728   29.5710 H   0  0  0  0  0  0
   73.1734   23.8796   29.3169 H   0  0  0  0  0  0
   73.2895   22.6572   27.1874 H   0  0  0  0  0  0
   74.9639   22.2370   27.4699 H   0  0  0  0  0  0
   75.2790   23.0470   25.5358 H   0  0  0  0  0  0
   67.2889   16.0956   25.6380 H   0  0  0  0  0  0
   68.3176   17.4241   26.0898 H   0  0  0  0  0  0
   68.5996   15.7924   26.7410 H   0  0  0  0  0  0
  1  6  1  0  0  0
  1  7  1  0  0  0
  1  2  2  0  0  0
  2  3  1  0  0  0
  2 34  1  0  0  0
  3  4  2  0  0  0
  3 35  1  0  0  0
  4 20  1  0  0  0
  4  5  1  0  0  0
  5  6  2  0  0  0
  5 36  1  0  0  0
  6 37  1  0  0  0
  7  8  1  0  0  0
  7 32  1  0  0  0
  7 38  1  0  0  0
  8  9  1  0  0  0
  8 39  1  0  0  0
  8 40  1  0  0  0
  9 10  1  0  0  0
  9 41  1  0  0  0
  9 42  1  0  0  0
 10 11  1  0  0  0
 10 43  1  0  0  0
 10 44  1  0  0  0
 11 12  1  0  0  0
 11 16  2  0  0  0
 12 17  2  0  0  0
 12 13  1  0  0  0
 13 14  1  0  0  0
 13 45  1  0  0  0
 14 18  1  0  0  0
 14 15  2  0  0  0
 15 16  1  0  0  0
 16 19  1  0  0  0
 18 46  1  0  0  0
 18 47  1  0  0  0
 19 48  1  0  0  0
 19 49  1  0  0  0
 20 21  2  0  0  0
 20 22  1  0  0  0
 22 23  1  0  0  0
 22 50  1  0  0  0
 23 24  1  0  0  0
 23 27  1  0  0  0
 23 51  1  0  0  0
 24 25  1  0  0  0
 24 26  2  0  0  0
 25 52  1  0  0  0
 27 28  1  0  0  0
 27 53  1  0  0  0
 27 54  1  0  0  0
 28 29  1  0  0  0
 28 55  1  0  0  0
 28 56  1  0  0  0
 29 30  1  0  0  0
 29 31  2  0  0  0
 30 57  1  0  0  0
 32 33  1  0  0  0
 33 58  1  0  0  0
 33 59  1  0  0  0
 33 60  1  0  0  0
M  END
> <s_m_entry_id>
25008

> <s_m_entry_name>
dock_pv.161

> <s_m_Source_Path>
/home/csk/Desktop/cluster/DUD-E-result/pur2

> <s_m_Source_File>
dock_pv.maegz

> <i_m_Source_File_Index>
161

> <chembl_id>
CHEMBL508910

> <chembl_pref_name>
None

> <i_lp_mmshare_version>
53161

> <r_lp_tautomer_probability>
0.982528302960407

> <s_lp_Force_Field>
OPLS_2005

> <r_lp_Energy>
21.349188

> <b_lp_Chiralities_Consistent>
1

> <s_lp_Variant>
CHEMBL3972_lig89-1

> <s_i_glide_gridfile>
glide-grid_1njs

> <i_i_glide_lignum>
230

> <i_i_glide_rotatable_bonds>
15

> <r_i_docking_score>
-6.92010308267058

> <r_i_glide_ligand_efficiency>
-0.20970009341426

> <r_i_glide_ligand_efficiency_sa>
-0.67262024784563

> <r_i_glide_ligand_efficiency_ln>
-1.53899509520978

> <r_i_glide_gscore>
-6.92010308267058

> <r_i_glide_lipo>
-1.74304813735438

> <r_i_glide_hbond>
-0.388750159983787

> <r_i_glide_metal>
0

> <r_i_glide_rewards>
-1.47399051939861

> <r_i_glide_evdw>
-52.0872802734375

> <r_i_glide_ecoul>
-11.8036203384399

> <r_i_glide_erotb>
1.13469744973437

> <r_i_glide_esite>
-0.0741046512303037

> <r_i_glide_emodel>
-81.1866198042574

> <r_i_glide_energy>
-63.8909006118774

> <r_i_glide_einternal>
11.9175825119019

> <i_i_glide_confnum>
22

> <i_i_glide_posenum>
348

> <r_i_glide_eff_state_penalty>
0

> <s_user_duplicate_titles>
CHEMBL3972_lig89

> <i_f3d_flags>
0

> <s_m_subgroup_title>
dock_pv

> <s_m_subgroupid>
dock_pv

> <b_m_subgroup_collapsed>
1

$$$$
CHEMBL3972_lig78
                    3D
 Schrodinger Suite 2021-1.
 55 57  0  0  1  0            999 V2000
   74.9225   23.5714   28.5165 C   0  0  0  0  0  0
   75.8758   22.6494   28.7980 C   0  0  0  0  0  0
   77.1584   22.7390   28.3410 N   0  0  0  0  0  0
   76.5779   24.6971   27.3046 N   0  0  0  0  0  0
   75.2710   24.6725   27.6289 C   0  0  0  0  0  0
   77.4995   23.7717   27.6648 C   0  0  0  0  0  0
   68.6773   18.6281   29.2449 C   0  0  0  0  0  0
   68.4907   20.1048   30.0928 S   0  0  0  0  0  0
   69.9011   20.7845   29.3687 C   0  0  0  0  0  0
   68.0873   17.4473   29.8107 C   0  0  0  0  0  0
   73.3002   23.5739   29.2701 S   0  0  0  0  0  0
   69.5366   18.8200   28.1666 C   0  0  0  0  0  0
   75.6804   21.5940   29.6477 N   0  0  0  0  0  0
   70.1571   20.0886   28.1883 C   0  0  0  0  0  0
   67.6353   16.5483   28.9290 N   0  0  0  0  0  0
   65.5993   15.3699   28.4733 C   0  0  0  0  0  0
   66.8562   15.3762   29.3426 C   0  0  1  0  0  0
   74.5390   25.5550   27.1933 O   0  0  0  0  0  0
   69.2723   13.7613   27.4046 C   0  0  0  0  0  0
   67.9794   17.3137   31.0324 O   0  0  0  0  0  0
   70.5916   21.9880   29.9949 C   0  0  0  0  0  0
   64.5401   15.8699   28.7846 O   0  0  0  0  0  0
   78.8281   23.9936   27.2903 N   0  0  0  0  0  0
   69.6009   12.7160   26.8439 O   0  0  0  0  0  0
   73.2329   21.8357   29.8374 C   0  0  1  0  0  0
   67.6634   14.0292   29.4285 C   0  0  0  0  0  0
   74.5397   21.4338   30.5548 C   0  0  0  0  0  0
   69.1256   13.9305   28.9179 C   0  0  0  0  0  0
   65.8935   14.7908   27.2902 O   0  0  0  0  0  0
   71.9464   21.6506   30.6924 C   0  0  0  0  0  0
   69.0222   14.9226   26.7440 O   0  0  0  0  0  0
   71.1099   20.5905   27.1555 C   0  0  0  0  0  0
   69.7596   18.0696   27.4184 H   0  0  0  0  0  0
   76.4467   20.9495   29.7628 H   0  0  0  0  0  0
   67.4860   16.8583   27.9770 H   0  0  0  0  0  0
   66.4523   15.5408   30.3429 H   0  0  0  0  0  0
   76.8490   25.4901   26.7521 H   0  0  0  0  0  0
   70.7176   22.7988   29.2830 H   0  0  0  0  0  0
   69.9294   22.4269   30.7344 H   0  0  0  0  0  0
   79.4300   23.2011   27.4504 H   0  0  0  0  0  0
   78.9694   24.3083   26.3426 H   0  0  0  0  0  0
   73.1958   21.1908   28.9683 H   0  0  0  0  0  0
   67.0834   13.2108   29.0055 H   0  0  0  0  0  0
   67.7095   13.7737   30.4826 H   0  0  0  0  0  0
   74.6858   22.0190   31.4629 H   0  0  0  0  0  0
   74.4789   20.3959   30.8658 H   0  0  0  0  0  0
   69.5716   13.0364   29.3568 H   0  0  0  0  0  0
   69.7452   14.7571   29.2805 H   0  0  0  0  0  0
   65.2620   15.0596   26.6098 H   0  0  0  0  0  0
   72.0413   22.2938   31.5687 H   0  0  0  0  0  0
   71.9093   20.6368   31.0952 H   0  0  0  0  0  0
   68.7492   15.6080   27.3544 H   0  0  0  0  0  0
   71.8490   21.2889   27.5171 H   0  0  0  0  0  0
   71.6406   19.8013   26.6164 H   0  0  0  0  0  0
   70.5180   21.1923   26.4802 H   0  0  0  0  0  0
  1 11  1  0  0  0
  1  2  2  0  0  0
  1  5  1  0  0  0
  2 13  1  0  0  0
  2  3  1  0  0  0
  3  6  2  0  0  0
  4  6  1  0  0  0
  4 37  1  0  0  0
  4  5  1  0  0  0
  5 18  2  0  0  0
  6 23  1  0  0  0
  7  8  1  0  0  0
  7 10  1  0  0  0
  7 12  2  0  0  0
  8  9  1  0  0  0
  9 21  1  0  0  0
  9 14  2  0  0  0
 10 15  1  0  0  0
 10 20  2  0  0  0
 11 25  1  0  0  0
 12 14  1  0  0  0
 12 33  1  0  0  0
 13 27  1  0  0  0
 13 34  1  0  0  0
 14 32  1  0  0  0
 15 17  1  0  0  0
 15 35  1  0  0  0
 16 17  1  0  0  0
 16 22  2  0  0  0
 16 29  1  0  0  0
 17 26  1  0  0  0
 17 36  1  0  0  0
 19 28  1  0  0  0
 19 24  2  0  0  0
 19 31  1  0  0  0
 21 30  1  0  0  0
 21 38  1  0  0  0
 21 39  1  0  0  0
 23 40  1  0  0  0
 23 41  1  0  0  0
 25 27  1  0  0  0
 25 30  1  0  0  0
 25 42  1  0  0  0
 26 28  1  0  0  0
 26 43  1  0  0  0
 26 44  1  0  0  0
 27 45  1  0  0  0
 27 46  1  0  0  0
 28 47  1  0  0  0
 28 48  1  0  0  0
 29 49  1  0  0  0
 30 50  1  0  0  0
 30 51  1  0  0  0
 31 52  1  0  0  0
 32 53  1  0  0  0
 32 54  1  0  0  0
 32 55  1  0  0  0
M  END
> <s_m_entry_id>
25009

> <s_m_entry_name>
dock_pv.162

> <s_m_Source_Path>
/home/csk/Desktop/cluster/DUD-E-result/pur2

> <s_m_Source_File>
dock_pv.maegz

> <i_m_Source_File_Index>
162

> <chembl_id>
CHEMBL82261

> <chembl_pref_name>
None

> <i_lp_mmshare_version>
53161

> <r_lp_tautomer_probability>
0.982539515805485

> <s_lp_Force_Field>
OPLS_2005

> <r_lp_Energy>
10.627668

> <b_lp_Chiralities_Consistent>
1

> <s_lp_Variant>
CHEMBL3972_lig78-2

> <s_i_glide_gridfile>
glide-grid_1njs

> <i_i_glide_lignum>
178

> <i_i_glide_rotatable_bonds>
12

> <r_i_docking_score>
-6.91816163782729

> <r_i_glide_ligand_efficiency>
-0.216192551182103

> <r_i_glide_ligand_efficiency_sa>
-0.686368565555394

> <r_i_glide_ligand_efficiency_ln>
-1.54916497267338

> <r_i_glide_gscore>
-6.91816163782729

> <r_i_glide_lipo>
-2.30451069542913

> <r_i_glide_hbond>
-0.359442096246625

> <r_i_glide_metal>
0

> <r_i_glide_rewards>
-1.24981778747363

> <r_i_glide_evdw>
-49.251708984375

> <r_i_glide_ecoul>
-8.84964275360107

> <r_i_glide_erotb>
0.874865380255986

> <r_i_glide_esite>
-0.089224576674978

> <r_i_glide_emodel>
-79.0674842857546

> <r_i_glide_energy>
-58.1013517379761

> <r_i_glide_einternal>
9.19122791290283

> <i_i_glide_confnum>
71

> <i_i_glide_posenum>
140

> <r_i_glide_eff_state_penalty>
0

> <s_user_duplicate_titles>
CHEMBL3972_lig78

> <i_f3d_flags>
0

> <s_m_subgroup_title>
dock_pv

> <s_m_subgroupid>
dock_pv

> <b_m_subgroup_collapsed>
1

$$$$
CHEMBL3972_lig71
                    3D
 Schrodinger Suite 2021-1.
 57 58  0  0  1  0            999 V2000
   69.7767   14.0538   32.0458 N   0  0  0  0  0  0
   68.9258   13.9067   30.9955 C   0  0  0  0  0  0
   69.2025   13.1728   29.8878 C   0  0  0  0  0  0
   71.2873   12.7903   30.8908 N   0  0  0  0  0  0
   70.4842   12.4851   29.8504 C   0  0  0  0  0  0
   70.9279   13.5052   31.9831 C   0  0  0  0  0  0
   70.7684   20.1018   28.4963 C   0  0  0  0  0  0
   71.6768   21.1652   28.8522 C   0  0  0  0  0  0
   69.4357   19.9744   28.9160 C   0  0  0  0  0  0
   71.2499   18.7910   27.4448 S   0  0  0  0  0  0
   72.9429   20.8031   29.1161 N   0  0  0  0  0  0
   68.8890   18.7901   28.4105 C   0  0  0  0  0  0
   69.6847   18.0310   27.5751 C   0  0  0  0  0  0
   73.6890   21.9572   31.2086 C   0  0  0  0  0  0
   73.9808   21.6662   29.7168 C   0  0  2  0  0  0
   70.8632   11.6907   28.9934 O   0  0  0  0  0  0
   75.0497   24.0775   26.7902 C   0  0  0  0  0  0
   71.2889   22.3230   28.9856 O   0  0  0  0  0  0
   68.0897   13.0039   28.4967 S   0  0  0  0  0  0
   67.7830   14.6051   31.1693 N   0  0  0  0  0  0
   74.4178   21.5911   32.1047 O   0  0  0  0  0  0
   71.8278   13.5913   33.0504 N   0  0  0  0  0  0
   76.2279   24.2411   26.4915 O   0  0  0  0  0  0
   74.2527   22.9781   28.9213 C   0  0  0  0  0  0
   74.5309   22.7898   27.4212 C   0  0  0  0  0  0
   72.5450   22.6890   31.3603 O   0  0  0  0  0  0
   74.0889   25.0331   26.6184 O   0  0  0  0  0  0
   68.6811   20.9183   29.8476 C   0  0  0  0  0  0
   69.2928   16.7359   26.8909 C   0  0  0  0  0  0
   68.7258   14.2534   27.3386 C   0  0  0  0  0  0
   68.8438   15.6729   27.9159 C   0  0  0  0  0  0
   67.6203   20.2356   30.7282 C   0  0  0  0  0  0
   73.2282   19.8473   28.9469 H   0  0  0  0  0  0
   67.8817   18.4732   28.6319 H   0  0  0  0  0  0
   74.9003   21.0795   29.6932 H   0  0  0  0  0  0
   72.2023   12.3812   30.8473 H   0  0  0  0  0  0
   67.0934   14.6520   30.4382 H   0  0  0  0  0  0
   67.6849   15.1678   31.9977 H   0  0  0  0  0  0
   71.4661   14.0805   33.8540 H   0  0  0  0  0  0
   72.2183   12.7153   33.3574 H   0  0  0  0  0  0
   75.1112   23.4871   29.3623 H   0  0  0  0  0  0
   73.4204   23.6772   29.0267 H   0  0  0  0  0  0
   73.6456   22.4503   26.8920 H   0  0  0  0  0  0
   75.2867   22.0164   27.2801 H   0  0  0  0  0  0
   72.0869   22.8009   30.5151 H   0  0  0  0  0  0
   73.1884   24.7908   26.8904 H   0  0  0  0  0  0
   69.3813   21.4479   30.4905 H   0  0  0  0  0  0
   68.1761   21.6988   29.2909 H   0  0  0  0  0  0
   68.4689   16.9235   26.1995 H   0  0  0  0  0  0
   70.0891   16.3509   26.2625 H   0  0  0  0  0  0
   68.0410   14.2767   26.4933 H   0  0  0  0  0  0
   69.6891   13.9138   26.9579 H   0  0  0  0  0  0
   69.5235   15.6591   28.7679 H   0  0  0  0  0  0
   67.8774   15.9650   28.3301 H   0  0  0  0  0  0
   67.0581   20.9792   31.2911 H   0  0  0  0  0  0
   66.8892   19.6877   30.1400 H   0  0  0  0  0  0
   68.0739   19.5392   31.4338 H   0  0  0  0  0  0
  1  2  1  0  0  0
  1  6  2  0  0  0
  2  3  2  0  0  0
  2 20  1  0  0  0
  3 19  1  0  0  0
  3  5  1  0  0  0
  4  6  1  0  0  0
  4 36  1  0  0  0
  4  5  1  0  0  0
  5 16  2  0  0  0
  6 22  1  0  0  0
  7 10  1  0  0  0
  7  8  1  0  0  0
  7  9  2  0  0  0
  8 11  1  0  0  0
  8 18  2  0  0  0
  9 12  1  0  0  0
  9 28  1  0  0  0
 10 13  1  0  0  0
 11 15  1  0  0  0
 11 33  1  0  0  0
 12 13  2  0  0  0
 12 34  1  0  0  0
 13 29  1  0  0  0
 14 15  1  0  0  0
 14 21  2  0  0  0
 14 26  1  0  0  0
 15 24  1  0  0  0
 15 35  1  0  0  0
 17 25  1  0  0  0
 17 23  2  0  0  0
 17 27  1  0  0  0
 19 30  1  0  0  0
 20 37  1  0  0  0
 20 38  1  0  0  0
 22 39  1  0  0  0
 22 40  1  0  0  0
 24 25  1  0  0  0
 24 41  1  0  0  0
 24 42  1  0  0  0
 25 43  1  0  0  0
 25 44  1  0  0  0
 26 45  1  0  0  0
 27 46  1  0  0  0
 28 32  1  0  0  0
 28 47  1  0  0  0
 28 48  1  0  0  0
 29 31  1  0  0  0
 29 49  1  0  0  0
 29 50  1  0  0  0
 30 31  1  0  0  0
 30 51  1  0  0  0
 30 52  1  0  0  0
 31 53  1  0  0  0
 31 54  1  0  0  0
 32 55  1  0  0  0
 32 56  1  0  0  0
 32 57  1  0  0  0
M  END
> <s_m_entry_id>
25011

> <s_m_entry_name>
dock_pv.164

> <s_m_Source_Path>
/home/csk/Desktop/cluster/DUD-E-result/pur2

> <s_m_Source_File>
dock_pv.maegz

> <i_m_Source_File_Index>
164

> <chembl_id>
CHEMBL84605

> <chembl_pref_name>
None

> <i_lp_mmshare_version>
53161

> <r_lp_tautomer_probability>
0.982528302960407

> <s_lp_Force_Field>
OPLS_2005

> <r_lp_Energy>
14.364447

> <b_lp_Chiralities_Consistent>
1

> <s_lp_Variant>
CHEMBL3972_lig71-1

> <s_i_glide_gridfile>
glide-grid_1njs

> <i_i_glide_lignum>
157

> <i_i_glide_rotatable_bonds>
15

> <r_i_docking_score>
-6.88583848473304

> <r_i_glide_ligand_efficiency>
-0.215182452647907

> <r_i_glide_ligand_efficiency_sa>
-0.683161702607552

> <r_i_glide_ligand_efficiency_ln>
-1.54192693759971

> <r_i_glide_gscore>
-6.88583848473304

> <r_i_glide_lipo>
-2.0006409250146

> <r_i_glide_hbond>
-0.220192009205376

> <r_i_glide_metal>
0

> <r_i_glide_rewards>
-1.36417875792116

> <r_i_glide_evdw>
-56.3612289428711

> <r_i_glide_ecoul>
-10.0752277374268

> <r_i_glide_erotb>
1.04185041551185

> <r_i_glide_esite>
-0.0133316003461891

> <r_i_glide_emodel>
-90.6298398803263

> <r_i_glide_energy>
-66.4364566802979

> <r_i_glide_einternal>
10.634256362915

> <i_i_glide_confnum>
90

> <i_i_glide_posenum>
281

> <r_i_glide_eff_state_penalty>
0

> <s_user_duplicate_titles>
CHEMBL3972_lig71,134949

> <i_f3d_flags>
0

> <s_m_subgroup_title>
dock_pv

> <s_m_subgroupid>
dock_pv

> <b_m_subgroup_collapsed>
1

$$$$
CHEMBL3972_lig63
                    3D
 Schrodinger Suite 2021-1.
 53 55  0  0  1  0            999 V2000
   68.5820   14.0501   33.2711 N   0  0  0  0  0  0
   68.4930   15.0869   32.4032 C   0  0  0  0  0  0
   68.5744   14.8865   30.9899 C   0  0  0  0  0  0
   68.7544   12.8255   32.7455 C   0  0  0  0  0  0
   68.8518   12.5058   31.4374 N   0  0  0  0  0  0
   68.7688   13.5392   30.5556 C   0  0  0  0  0  0
   72.7417   21.7184   29.2328 C   0  0  0  0  0  0
   73.7811   21.8027   28.3798 N   0  0  0  0  0  0
   76.3069   21.8133   28.2618 C   0  0  0  0  0  0
   75.0046   22.6017   28.5853 C   0  0  1  0  0  0
   68.4904   15.9144   30.0099 C   0  0  0  0  0  0
   71.6239   20.7751   28.8417 C   0  0  0  0  0  0
   76.0957   25.9911   26.8786 C   0  0  0  0  0  0
   68.3159   16.3700   32.8516 O   0  0  0  0  0  0
   72.6901   22.3541   30.2856 O   0  0  0  0  0  0
   77.3884   22.3364   28.0919 O   0  0  0  0  0  0
   68.8795   13.2625   29.1749 C   0  0  0  0  0  0
   68.4894   18.0544   28.1034 N   0  0  0  0  0  0
   68.8251   11.7946   33.6556 N   0  0  0  0  0  0
   75.2890   26.1227   25.9653 O   0  0  0  0  0  0
   74.8845   23.9071   27.7477 C   0  0  0  0  0  0
   70.3305   20.9828   29.3409 C   0  0  0  0  0  0
   71.8535   19.6638   28.0176 C   0  0  0  0  0  0
   68.6302   15.6207   28.6441 C   0  0  0  0  0  0
   69.5517   18.9554   28.2749 C   0  0  0  0  0  0
   75.9443   25.0096   28.0282 C   0  0  0  0  0  0
   76.0885   20.4745   28.0910 O   0  0  0  0  0  0
   68.5892   16.7034   27.5617 C   0  0  0  0  0  0
   77.2124   26.7641   27.0034 O   0  0  0  0  0  0
   68.8141   14.2961   28.2431 C   0  0  0  0  0  0
   70.8281   18.7614   27.7392 C   0  0  0  0  0  0
   69.2992   20.0928   29.0458 C   0  0  0  0  0  0
   73.6969   21.3539   27.4763 H   0  0  0  0  0  0
   75.0751   22.8682   29.6429 H   0  0  0  0  0  0
   68.3442   16.9345   30.3267 H   0  0  0  0  0  0
   68.2690   17.0281   32.1583 H   0  0  0  0  0  0
   69.0338   12.2440   28.8533 H   0  0  0  0  0  0
   67.5792   18.3356   28.4391 H   0  0  0  0  0  0
   68.6750   12.0156   34.6296 H   0  0  0  0  0  0
   68.8722   10.8487   33.3152 H   0  0  0  0  0  0
   73.9017   24.3475   27.9220 H   0  0  0  0  0  0
   74.8811   23.6440   26.6875 H   0  0  0  0  0  0
   70.1169   21.8347   29.9716 H   0  0  0  0  0  0
   72.8349   19.4679   27.6055 H   0  0  0  0  0  0
   76.9361   24.6163   28.2275 H   0  0  0  0  0  0
   75.6886   25.5909   28.9013 H   0  0  0  0  0  0
   75.2502   20.1719   28.4531 H   0  0  0  0  0  0
   67.7076   16.5274   26.9381 H   0  0  0  0  0  0
   69.4421   16.5947   26.8932 H   0  0  0  0  0  0
   77.3135   27.4177   26.2959 H   0  0  0  0  0  0
   68.9213   14.0627   27.1924 H   0  0  0  0  0  0
   71.0440   17.9132   27.1141 H   0  0  0  0  0  0
   68.3174   20.2700   29.4567 H   0  0  0  0  0  0
  1  2  2  0  0  0
  1  4  1  0  0  0
  2  3  1  0  0  0
  2 14  1  0  0  0
  3 11  2  0  0  0
  3  6  1  0  0  0
  4  5  2  0  0  0
  4 19  1  0  0  0
  5  6  1  0  0  0
  6 17  2  0  0  0
  7 12  1  0  0  0
  7  8  1  0  0  0
  7 15  2  0  0  0
  8 10  1  0  0  0
  8 33  1  0  0  0
  9 10  1  0  0  0
  9 16  2  0  0  0
  9 27  1  0  0  0
 10 21  1  0  0  0
 10 34  1  0  0  0
 11 24  1  0  0  0
 11 35  1  0  0  0
 12 22  2  0  0  0
 12 23  1  0  0  0
 13 26  1  0  0  0
 13 20  2  0  0  0
 13 29  1  0  0  0
 14 36  1  0  0  0
 17 30  1  0  0  0
 17 37  1  0  0  0
 18 28  1  0  0  0
 18 25  1  0  0  0
 18 38  1  0  0  0
 19 39  1  0  0  0
 19 40  1  0  0  0
 21 26  1  0  0  0
 21 41  1  0  0  0
 21 42  1  0  0  0
 22 32  1  0  0  0
 22 43  1  0  0  0
 23 31  2  0  0  0
 23 44  1  0  0  0
 24 28  1  0  0  0
 24 30  2  0  0  0
 25 31  1  0  0  0
 25 32  2  0  0  0
 26 45  1  0  0  0
 26 46  1  0  0  0
 27 47  1  0  0  0
 28 48  1  0  0  0
 28 49  1  0  0  0
 29 50  1  0  0  0
 30 51  1  0  0  0
 31 52  1  0  0  0
 32 53  1  0  0  0
M  END
> <s_m_entry_id>
25012

> <s_m_entry_name>
dock_pv.165

> <s_m_Source_Path>
/home/csk/Desktop/cluster/DUD-E-result/pur2

> <s_m_Source_File>
dock_pv.maegz

> <i_m_Source_File_Index>
165

> <chembl_id>
CHEMBL23977

> <chembl_pref_name>
DIDEAZAFOLATE

> <i_lp_mmshare_version>
53161

> <r_lp_tautomer_probability>
1

> <s_lp_Force_Field>
OPLS_2005

> <r_lp_Energy>
13.180963

> <b_lp_Chiralities_Consistent>
1

> <s_lp_Variant>
CHEMBL3972_lig63-1

> <s_i_glide_gridfile>
glide-grid_1njs

> <i_i_glide_lignum>
133

> <i_i_glide_rotatable_bonds>
13

> <r_i_docking_score>
-6.86026694198998

> <r_i_glide_ligand_efficiency>
-0.214383341937187

> <r_i_glide_ligand_efficiency_sa>
-0.680624684244808

> <r_i_glide_ligand_efficiency_ln>
-1.5362007721256

> <r_i_glide_gscore>
-6.86026694198998

> <r_i_glide_lipo>
-1.76351012201916

> <r_i_glide_hbond>
-0.15096121931637

> <r_i_glide_metal>
0

> <r_i_glide_rewards>
-1.36453330680956

> <r_i_glide_evdw>
-44.0641670227051

> <r_i_glide_ecoul>
-16.0747718811035

> <r_i_glide_erotb>
1.03361027205353

> <r_i_glide_esite>
-0.000448432597633074

> <r_i_glide_emodel>
-79.4213058390058

> <r_i_glide_energy>
-60.1389389038086

> <r_i_glide_einternal>
7.08248949050903

> <i_i_glide_confnum>
89

> <i_i_glide_posenum>
28

> <r_i_glide_eff_state_penalty>
0

> <s_user_duplicate_titles>
CHEMBL3972_lig63

> <i_f3d_flags>
0

> <s_m_subgroup_title>
dock_pv

> <s_m_subgroupid>
dock_pv

> <b_m_subgroup_collapsed>
1

$$$$
CHEMBL3972_lig12
                    3D
 Schrodinger Suite 2021-1.
 57 58  0  0  1  0            999 V2000
   70.3174   12.3202   33.2463 N   0  0  0  0  0  0
   70.3986   12.7928   31.9744 C   0  0  0  0  0  0
   68.2306   11.5245   32.7396 N   0  0  0  0  0  0
   69.4170   12.6447   31.0480 C   0  0  0  0  0  0
   68.2274   11.9024   31.4450 C   0  0  0  0  0  0
   69.2474   11.7273   33.6184 C   0  0  0  0  0  0
   70.9789   21.1320   29.3580 C   0  0  0  0  0  0
   72.3084   20.9000   29.3601 N   0  0  0  0  0  0
   73.2499   22.0677   31.4172 C   0  0  0  0  0  0
   73.3816   21.7570   29.9044 C   0  0  2  0  0  0
   70.0993   19.9922   28.8910 C   0  0  0  0  0  0
   67.9514   16.4441   28.0510 N   0  0  0  0  0  0
   67.2904   11.5926   30.7125 O   0  0  0  0  0  0
   74.9345   23.9527   27.0570 C   0  0  0  0  0  0
   66.5990   16.3910   27.9517 C   0  0  0  0  0  0
   68.6179   17.6719   28.2994 C   0  0  0  0  0  0
   70.4883   22.1670   29.8036 O   0  0  0  0  0  0
   71.5607   13.4481   31.7644 N   0  0  0  0  0  0
   73.9852   21.5914   32.2609 O   0  0  0  0  0  0
   69.1023   11.2764   34.9372 N   0  0  0  0  0  0
   76.1518   24.0050   26.8999 O   0  0  0  0  0  0
   65.9351   15.3524   27.9477 O   0  0  0  0  0  0
   68.8892   19.7337   29.5540 C   0  0  0  0  0  0
   70.5076   19.1317   27.8643 C   0  0  0  0  0  0
   68.1744   18.5647   29.2899 C   0  0  0  0  0  0
   69.7651   17.9900   27.5664 C   0  0  0  0  0  0
   73.6220   23.0353   29.0511 C   0  0  0  0  0  0
   69.4565   13.2119   29.6275 C   0  0  0  0  0  0
   74.2208   22.7414   27.6613 C   0  0  0  0  0  0
   72.2484   22.9671   31.6513 O   0  0  0  0  0  0
   74.0890   24.9674   26.7172 O   0  0  0  0  0  0
   68.8553   14.6304   29.5462 C   0  0  0  0  0  0
   68.7112   15.1784   28.1120 C   0  0  0  0  0  0
   72.6305   20.0126   29.0009 H   0  0  0  0  0  0
   74.2902   21.1553   29.8383 H   0  0  0  0  0  0
   67.4041   11.0366   33.0325 H   0  0  0  0  0  0
   66.1553   17.3956   27.8641 H   0  0  0  0  0  0
   71.7924   13.8870   30.8881 H   0  0  0  0  0  0
   72.1770   13.5596   32.5501 H   0  0  0  0  0  0
   69.7757   11.5748   35.6232 H   0  0  0  0  0  0
   68.1855   11.0932   35.3089 H   0  0  0  0  0  0
   68.5401   20.3905   30.3386 H   0  0  0  0  0  0
   71.4091   19.3258   27.3015 H   0  0  0  0  0  0
   67.2901   18.3510   29.8703 H   0  0  0  0  0  0
   70.1024   17.3436   26.7709 H   0  0  0  0  0  0
   74.2980   23.7098   29.5817 H   0  0  0  0  0  0
   72.6903   23.5909   28.9232 H   0  0  0  0  0  0
   68.9355   12.5435   28.9377 H   0  0  0  0  0  0
   70.4886   13.2065   29.2889 H   0  0  0  0  0  0
   73.4612   22.3733   26.9770 H   0  0  0  0  0  0
   74.9644   21.9476   27.7410 H   0  0  0  0  0  0
   71.6798   23.0639   30.8753 H   0  0  0  0  0  0
   73.1517   24.7911   26.8959 H   0  0  0  0  0  0
   69.4595   15.3177   30.1384 H   0  0  0  0  0  0
   67.8677   14.6126   30.0117 H   0  0  0  0  0  0
   68.2115   14.4307   27.4931 H   0  0  0  0  0  0
   69.6884   15.2824   27.6398 H   0  0  0  0  0  0
  1  2  1  0  0  0
  1  6  2  0  0  0
  2  4  2  0  0  0
  2 18  1  0  0  0
  3  6  1  0  0  0
  3 36  1  0  0  0
  3  5  1  0  0  0
  4 28  1  0  0  0
  4  5  1  0  0  0
  5 13  2  0  0  0
  6 20  1  0  0  0
  7 11  1  0  0  0
  7  8  1  0  0  0
  7 17  2  0  0  0
  8 10  1  0  0  0
  8 34  1  0  0  0
  9 10  1  0  0  0
  9 19  2  0  0  0
  9 30  1  0  0  0
 10 27  1  0  0  0
 10 35  1  0  0  0
 11 24  2  0  0  0
 11 23  1  0  0  0
 12 33  1  0  0  0
 12 15  1  0  0  0
 12 16  1  0  0  0
 14 29  1  0  0  0
 14 21  2  0  0  0
 14 31  1  0  0  0
 15 22  2  0  0  0
 15 37  1  0  0  0
 16 25  1  0  0  0
 16 26  2  0  0  0
 18 38  1  0  0  0
 18 39  1  0  0  0
 20 40  1  0  0  0
 20 41  1  0  0  0
 23 25  2  0  0  0
 23 42  1  0  0  0
 24 26  1  0  0  0
 24 43  1  0  0  0
 25 44  1  0  0  0
 26 45  1  0  0  0
 27 29  1  0  0  0
 27 46  1  0  0  0
 27 47  1  0  0  0
 28 32  1  0  0  0
 28 48  1  0  0  0
 28 49  1  0  0  0
 29 50  1  0  0  0
 29 51  1  0  0  0
 30 52  1  0  0  0
 31 53  1  0  0  0
 32 33  1  0  0  0
 32 54  1  0  0  0
 32 55  1  0  0  0
 33 56  1  0  0  0
 33 57  1  0  0  0
M  END
> <s_m_entry_id>
25013

> <s_m_entry_name>
dock_pv.166

> <s_m_Source_Path>
/home/csk/Desktop/cluster/DUD-E-result/pur2

> <s_m_Source_File>
dock_pv.maegz

> <i_m_Source_File_Index>
166

> <chembl_id>
CHEMBL152172

> <chembl_pref_name>
None

> <i_lp_mmshare_version>
53161

> <r_lp_tautomer_probability>
0.982528302960407

> <s_lp_Force_Field>
OPLS_2005

> <r_lp_Energy>
34.275737

> <b_lp_Chiralities_Consistent>
1

> <s_lp_Variant>
CHEMBL3972_lig12-2

> <s_i_glide_gridfile>
glide-grid_1njs

> <i_i_glide_lignum>
21

> <i_i_glide_rotatable_bonds>
15

> <r_i_docking_score>
-6.84229519148106

> <r_i_glide_ligand_efficiency>
-0.207342278529729

> <r_i_glide_ligand_efficiency_sa>
-0.665057475668536

> <r_i_glide_ligand_efficiency_ln>
-1.52169102307692

> <r_i_glide_gscore>
-6.84229519148106

> <r_i_glide_lipo>
-1.29311658552884

> <r_i_glide_hbond>
-0.337178708043026

> <r_i_glide_metal>
0

> <r_i_glide_rewards>
-0.765352664784348

> <r_i_glide_evdw>
-50.6124610900879

> <r_i_glide_ecoul>
-19.7733745574951

> <r_i_glide_erotb>
1.13931600569081

> <r_i_glide_esite>
-0.0893340006869904

> <r_i_glide_emodel>
-89.0451278690348

> <r_i_glide_energy>
-70.385835647583

> <r_i_glide_einternal>
17.8013210296631

> <i_i_glide_confnum>
207

> <i_i_glide_posenum>
182

> <r_i_glide_eff_state_penalty>
0

> <s_user_duplicate_titles>
CHEMBL3972_lig12

> <i_f3d_flags>
0

> <s_m_subgroup_title>
dock_pv

> <s_m_subgroupid>
dock_pv

> <b_m_subgroup_collapsed>
1

$$$$
60099
                    3D
 Schrodinger Suite 2021-1.
 57 59  0  0  1  0            999 V2000
   69.2890   19.6051   28.7400 C   0  0  0  0  0  0
   70.2466   20.6098   28.8928 C   0  0  0  0  0  0
   71.4873   20.5060   28.2600 C   0  0  0  0  0  0
   71.7591   19.3809   27.4736 C   0  0  0  0  0  0
   70.7987   18.4031   27.2908 C   0  0  0  0  0  0
   69.5611   18.4968   27.9229 C   0  0  0  0  0  0
   68.5403   17.4299   27.6458 C   0  0  0  0  0  0
   68.4563   16.9536   26.5147 O   0  0  0  0  0  0
   67.7984   17.0151   28.6882 N   0  0  0  0  0  0
   66.7528   15.9814   28.6155 C   0  0  1  0  0  0
   67.2460   14.6300   28.0115 C   0  0  0  0  0  0
   68.4062   13.9288   28.7696 C   0  0  0  0  0  0
   69.1471   12.4798   27.7955 S   0  0  0  0  0  0
   68.0894   11.5786   27.3330 O   0  0  0  0  0  0
   70.3171   11.9580   28.5066 O   0  0  0  0  0  0
   69.6888   13.3333   26.4881 O   0  0  0  0  0  0
   66.0299   15.7930   29.9747 C   0  0  0  0  0  0
   65.8218   14.7121   30.4877 O   0  0  0  0  0  0
   65.6456   16.9960   30.4923 O   0  0  0  0  0  0
   72.4300   21.5352   28.4345 N   0  0  0  0  0  0
   73.8131   21.3151   28.0187 C   0  0  0  0  0  0
   74.8108   22.4214   28.3834 C   0  0  2  0  0  0
   74.7319   23.5902   27.3635 C   0  0  0  0  0  0
   75.9874   24.4604   27.4323 C   0  0  0  0  0  0
   77.1509   24.0286   27.9708 C   0  0  0  0  0  0
   78.2741   24.7922   28.0910 N   0  0  0  0  0  0
   78.2194   26.0113   27.6936 C   0  0  0  0  0  0
   77.0991   26.4937   27.0977 N   0  0  0  0  0  0
   75.9625   25.7979   26.8858 C   0  0  0  0  0  0
   75.0360   26.2898   26.2446 O   0  0  0  0  0  0
   79.2920   26.8905   27.8691 N   0  0  0  0  0  0
   77.2726   22.7801   28.4909 N   0  0  0  0  0  0
   76.2198   21.7767   28.5103 C   0  0  0  0  0  0
   68.3315   19.7151   29.2288 H   0  0  0  0  0  0
   70.0242   21.4717   29.5053 H   0  0  0  0  0  0
   72.6934   19.2677   26.9453 H   0  0  0  0  0  0
   71.0158   17.5903   26.6162 H   0  0  0  0  0  0
   67.9982   17.3905   29.6037 H   0  0  0  0  0  0
   65.9937   16.3736   27.9335 H   0  0  0  0  0  0
   67.5191   14.7654   26.9661 H   0  0  0  0  0  0
   66.3741   13.9909   27.9489 H   0  0  0  0  0  0
   68.0922   13.5519   29.7418 H   0  0  0  0  0  0
   69.2258   14.6250   28.9456 H   0  0  0  0  0  0
   70.5409   13.7613   26.6988 H   0  0  0  0  0  0
   65.8408   17.7273   29.9050 H   0  0  0  0  0  0
   72.2149   22.3228   29.0275 H   0  0  0  0  0  0
   74.1239   20.3914   28.4951 H   0  0  0  0  0  0
   73.8752   21.1205   26.9443 H   0  0  0  0  0  0
   74.5444   22.7976   29.3728 H   0  0  0  0  0  0
   74.6369   23.1994   26.3470 H   0  0  0  0  0  0
   73.8238   24.1779   27.5304 H   0  0  0  0  0  0
   77.1143   27.4146   26.6862 H   0  0  0  0  0  0
   80.1115   26.6098   28.3933 H   0  0  0  0  0  0
   79.1752   27.8889   27.7714 H   0  0  0  0  0  0
   78.1385   22.5028   28.9242 H   0  0  0  0  0  0
   76.2822   21.1878   29.4279 H   0  0  0  0  0  0
   76.3816   21.0622   27.7029 H   0  0  0  0  0  0
  1  6  1  0  0  0
  1  2  2  0  0  0
  1 34  1  0  0  0
  2  3  1  0  0  0
  2 35  1  0  0  0
  3  4  2  0  0  0
  3 20  1  0  0  0
  4  5  1  0  0  0
  4 36  1  0  0  0
  5  6  2  0  0  0
  5 37  1  0  0  0
  6  7  1  0  0  0
  7  8  2  0  0  0
  7  9  1  0  0  0
  9 10  1  0  0  0
  9 38  1  0  0  0
 10 11  1  0  0  0
 10 17  1  0  0  0
 10 39  1  0  0  0
 11 12  1  0  0  0
 11 40  1  0  0  0
 11 41  1  0  0  0
 12 13  1  0  0  0
 12 42  1  0  0  0
 12 43  1  0  0  0
 13 14  2  0  0  0
 13 15  2  0  0  0
 13 16  1  0  0  0
 16 44  1  0  0  0
 17 18  2  0  0  0
 17 19  1  0  0  0
 19 45  1  0  0  0
 20 21  1  0  0  0
 20 46  1  0  0  0
 21 22  1  0  0  0
 21 47  1  0  0  0
 21 48  1  0  0  0
 22 33  1  0  0  0
 22 23  1  0  0  0
 22 49  1  0  0  0
 23 50  1  0  0  0
 23 51  1  0  0  0
 23 24  1  0  0  0
 24 25  2  0  0  0
 24 29  1  0  0  0
 25 32  1  0  0  0
 25 26  1  0  0  0
 26 27  2  0  0  0
 27 31  1  0  0  0
 27 28  1  0  0  0
 28 52  1  0  0  0
 28 29  1  0  0  0
 29 30  2  0  0  0
 31 53  1  0  0  0
 31 54  1  0  0  0
 32 33  1  0  0  0
 32 55  1  0  0  0
 33 56  1  0  0  0
 33 57  1  0  0  0
M  END
> <s_m_entry_id>
25081

> <s_m_entry_name>
ligand_docking-pose.7

> <s_m_Source_Path>
/home/csk/Desktop/cluster/DUD-E-result/pur2

> <s_m_Source_File>
ligand_docking-pose.sdf

> <i_m_Source_File_Index>
7

> <i_lp_mmshare_version>
53161

> <i_f3d_flags>
0

> <r_lp_tautomer_probability>
0.982539515805485

> <s_lp_Force_Field>
OPLS_2005

> <r_lp_Energy>
18.175784

> <b_lp_Chiralities_Consistent>
1

> <s_lp_Variant>
60099-2

> <s_i_glide_gridfile>
glide-grid_1njs

> <i_i_glide_lignum>
197

> <i_i_glide_rotatable_bonds>
12

> <r_i_docking_score>
-12.6079711976021

> <r_i_glide_ligand_efficiency>
-0.382059733260671

> <r_i_glide_ligand_efficiency_sa>
-1.22546970911436

> <r_i_glide_ligand_efficiency_ln>
-2.80394751376559

> <r_i_glide_gscore>
-12.6079711976021

> <r_i_glide_lipo>
-2.66476442474929

> <r_i_glide_hbond>
-1.28347409150282

> <r_i_glide_metal>
0

> <r_i_glide_rewards>
-2.85524258043176

> <r_i_glide_evdw>
-60.0451965332031

> <r_i_glide_ecoul>
-22.2555198669434

> <r_i_glide_erotb>
0.614858735404464

> <r_i_glide_esite>
-0.0787610296210774

> <r_i_glide_emodel>
-131.027155976545

> <r_i_glide_energy>
-82.3007164001465

> <r_i_glide_einternal>
14.3310699462891

> <i_i_glide_confnum>
19

> <i_i_glide_posenum>
102

> <r_i_glide_eff_state_penalty>
0

> <s_user_duplicate_titles>
60099

> <s_m_subgroup_title>
dock_pv

> <s_m_subgroupid>
dock_pv1

> <b_m_subgroup_collapsed>
0

$$$$
30622
                    3D
 Schrodinger Suite 2021-1.
 62 64  0  0  1  0            999 V2000
   71.6786   22.8601   29.9173 C   0  0  0  0  0  0
   71.9012   21.4361   29.3785 C   0  0  1  0  0  0
   71.0135   21.1073   28.1457 C   0  0  0  0  0  0
   70.0114   19.9848   28.4095 C   0  0  0  0  0  0
   69.0240   20.1221   29.3895 C   0  0  0  0  0  0
   68.1818   19.0518   29.6908 C   0  0  0  0  0  0
   68.2960   17.8395   28.9938 C   0  0  0  0  0  0
   69.2490   17.7387   27.9655 C   0  0  0  0  0  0
   70.1081   18.7955   27.6909 C   0  0  0  0  0  0
   67.3980   16.6731   29.3495 C   0  0  0  0  0  0
   66.3912   16.8148   30.0437 O   0  0  0  0  0  0
   67.7875   15.4682   28.8975 N   0  0  0  0  0  0
   67.1088   14.1707   29.0479 C   0  0  1  0  0  0
   67.7174   13.1691   28.0220 C   0  0  0  0  0  0
   69.2552   13.0373   28.0564 C   0  0  0  0  0  0
   69.8017   11.9922   27.0828 C   0  0  0  0  0  0
   69.1993   11.5905   26.0911 O   0  0  0  0  0  0
   71.0676   11.6036   27.4031 O   0  0  0  0  0  0
   67.0479   13.5930   30.4896 C   0  0  0  0  0  0
   67.3021   12.4351   30.7541 O   0  0  0  0  0  0
   66.5959   14.5218   31.3819 O   0  0  0  0  0  0
   73.3861   21.0254   29.1704 C   0  0  0  0  0  0
   74.4964   22.1002   29.0816 C   0  0  1  0  0  0
   75.8737   21.4046   28.9665 C   0  0  0  0  0  0
   76.9398   22.3899   28.8907 N   0  0  0  0  0  0
   76.7063   23.5661   28.1774 C   0  0  0  0  0  0
   75.4236   23.8619   27.6683 C   0  0  0  0  0  0
   75.3030   25.1027   27.0115 C   0  0  0  0  0  0
   76.3630   25.9415   26.8913 N   0  0  0  0  0  0
   77.5410   25.5566   27.4221 C   0  0  0  0  0  0
   77.7734   24.3936   28.0618 N   0  0  0  0  0  0
   78.5983   26.4418   27.2915 N   0  0  0  0  0  0
   74.0889   25.4330   26.4910 O   0  0  0  0  0  0
   74.3134   23.0086   27.9381 N   0  0  0  0  0  0
   71.9890   23.5987   29.1853 H   0  0  0  0  0  0
   70.6259   23.0460   30.1345 H   0  0  0  0  0  0
   72.2375   23.0408   30.8361 H   0  0  0  0  0  0
   71.5562   20.8034   30.1996 H   0  0  0  0  0  0
   70.4891   21.9869   27.7917 H   0  0  0  0  0  0
   71.6282   20.8405   27.2849 H   0  0  0  0  0  0
   68.9320   21.0458   29.9419 H   0  0  0  0  0  0
   67.4472   19.1719   30.4748 H   0  0  0  0  0  0
   69.3478   16.8447   27.3676 H   0  0  0  0  0  0
   70.8501   18.6885   26.9107 H   0  0  0  0  0  0
   68.6361   15.4413   28.3594 H   0  0  0  0  0  0
   66.0699   14.3426   28.7629 H   0  0  0  0  0  0
   67.2938   12.1763   28.1733 H   0  0  0  0  0  0
   67.4062   13.4679   27.0186 H   0  0  0  0  0  0
   69.6888   13.9968   27.7845 H   0  0  0  0  0  0
   69.5952   12.7946   29.0655 H   0  0  0  0  0  0
   71.4826   11.0976   26.7020 H   0  0  0  0  0  0
   66.4425   15.3853   30.9673 H   0  0  0  0  0  0
   73.6450   20.3912   30.0215 H   0  0  0  0  0  0
   73.4799   20.3583   28.3124 H   0  0  0  0  0  0
   74.4812   22.6961   29.9967 H   0  0  0  0  0  0
   76.0551   20.7733   29.8361 H   0  0  0  0  0  0
   75.9146   20.7582   28.0875 H   0  0  0  0  0  0
   77.8524   22.1075   29.2288 H   0  0  0  0  0  0
   79.4761   26.2541   27.7522 H   0  0  0  0  0  0
   78.4318   27.3028   26.7844 H   0  0  0  0  0  0
   73.3853   24.8219   26.7319 H   0  0  0  0  0  0
   73.3608   23.3310   27.8331 H   0  0  0  0  0  0
  1  2  1  0  0  0
  1 35  1  0  0  0
  1 36  1  0  0  0
  1 37  1  0  0  0
  2  3  1  0  0  0
  2 22  1  0  0  0
  2 38  1  0  0  0
  3  4  1  0  0  0
  3 39  1  0  0  0
  3 40  1  0  0  0
  4  9  1  0  0  0
  4  5  2  0  0  0
  5  6  1  0  0  0
  5 41  1  0  0  0
  6  7  2  0  0  0
  6 42  1  0  0  0
  7  8  1  0  0  0
  7 10  1  0  0  0
  8  9  2  0  0  0
  8 43  1  0  0  0
  9 44  1  0  0  0
 10 11  2  0  0  0
 10 12  1  0  0  0
 12 13  1  0  0  0
 12 45  1  0  0  0
 13 14  1  0  0  0
 13 19  1  0  0  0
 13 46  1  0  0  0
 14 15  1  0  0  0
 14 47  1  0  0  0
 14 48  1  0  0  0
 15 16  1  0  0  0
 15 49  1  0  0  0
 15 50  1  0  0  0
 16 17  2  0  0  0
 16 18  1  0  0  0
 18 51  1  0  0  0
 19 20  2  0  0  0
 19 21  1  0  0  0
 21 52  1  0  0  0
 22 23  1  0  0  0
 22 53  1  0  0  0
 22 54  1  0  0  0
 23 34  1  0  0  0
 23 24  1  0  0  0
 23 55  1  0  0  0
 24 25  1  0  0  0
 24 56  1  0  0  0
 24 57  1  0  0  0
 25 26  1  0  0  0
 25 58  1  0  0  0
 26 31  2  0  0  0
 26 27  1  0  0  0
 27 28  2  0  0  0
 27 34  1  0  0  0
 28 29  1  0  0  0
 28 33  1  0  0  0
 29 30  2  0  0  0
 30 31  1  0  0  0
 30 32  1  0  0  0
 32 59  1  0  0  0
 32 60  1  0  0  0
 33 61  1  0  0  0
 34 62  1  0  0  0
M  END
> <s_m_entry_id>
25086

> <s_m_entry_name>
ligand_docking-pose.12

> <s_m_Source_Path>
/home/csk/Desktop/cluster/DUD-E-result/pur2

> <s_m_Source_File>
ligand_docking-pose.sdf

> <i_m_Source_File_Index>
12

> <i_lp_mmshare_version>
53161

> <i_f3d_flags>
0

> <r_lp_tautomer_probability>
1

> <s_lp_Force_Field>
OPLS_2005

> <r_lp_Energy>
15.915841

> <b_lp_Chiralities_Consistent>
1

> <s_lp_Variant>
30622-8

> <s_i_glide_gridfile>
glide-grid_1njs

> <i_i_glide_lignum>
30

> <i_i_glide_rotatable_bonds>
14

> <r_i_docking_score>
-11.9796857877785

> <r_i_glide_ligand_efficiency>
-0.352343699640544

> <r_i_glide_ligand_efficiency_sa>
-1.14145680611955

> <r_i_glide_ligand_efficiency_ln>
-2.64664860932491

> <r_i_glide_gscore>
-11.9796857877785

> <r_i_glide_lipo>
-2.85522381368558

> <r_i_glide_hbond>
-1.3979007031058

> <r_i_glide_metal>
0

> <r_i_glide_rewards>
-2.2414577568019

> <r_i_glide_evdw>
-56.5880889892578

> <r_i_glide_ecoul>
-24.0365810394287

> <r_i_glide_erotb>
0.996301984216314

> <r_i_glide_esite>
-0.0465138930243456

> <r_i_glide_emodel>
-131.902693444333

> <r_i_glide_energy>
-80.6246700286865

> <r_i_glide_einternal>
12.0029239654541

> <i_i_glide_confnum>
5

> <i_i_glide_posenum>
16

> <r_i_glide_eff_state_penalty>
0

> <s_user_duplicate_titles>
30622

> <s_m_subgroup_title>
dock_pv

> <s_m_subgroupid>
dock_pv1

> <b_m_subgroup_collapsed>
0

$$$$
189777
                    3D
 Schrodinger Suite 2021-1.
 60 62  0  0  1  0            999 V2000
   69.2196   19.7658   29.1083 C   0  0  0  0  0  0
   68.4876   18.5925   29.2890 C   0  0  0  0  0  0
   68.7252   17.4760   28.4752 C   0  0  0  0  0  0
   69.6671   17.5787   27.4425 C   0  0  0  0  0  0
   70.4265   18.7291   27.2911 C   0  0  0  0  0  0
   70.2096   19.8215   28.1263 C   0  0  0  0  0  0
   71.0430   21.0748   27.9337 C   0  0  0  0  0  0
   72.5569   20.8783   28.2148 C   0  0  0  0  0  0
   73.1042   21.7741   29.3512 C   0  0  0  0  0  0
   74.4346   22.5140   29.0752 C   0  0  2  0  0  0
   74.3683   23.4686   27.8493 C   0  0  0  0  0  0
   75.7265   24.1457   27.6591 C   0  0  0  0  0  0
   76.8800   23.6012   28.1121 C   0  0  0  0  0  0
   78.0863   24.2430   28.0909 N   0  0  0  0  0  0
   78.1172   25.4573   27.6698 C   0  0  0  0  0  0
   77.0005   26.0423   27.1655 N   0  0  0  0  0  0
   75.7972   25.4472   27.0336 C   0  0  0  0  0  0
   74.8822   25.9925   26.4315 O   0  0  0  0  0  0
   79.2889   26.2253   27.6913 N   0  0  0  0  0  0
   76.8880   22.3922   28.7474 N   0  0  0  0  0  0
   75.6935   21.5996   29.0570 C   0  0  0  0  0  0
   67.9619   16.1937   28.7104 C   0  0  0  0  0  0
   66.7852   16.2212   29.0729 O   0  0  0  0  0  0
   68.6575   15.0467   28.5428 N   0  0  0  0  0  0
   68.1062   13.6868   28.7307 C   0  0  2  0  0  0
   68.2993   13.2184   30.2135 C   0  0  0  0  0  0
   69.3947   12.1746   30.5634 C   0  0  0  0  0  0
   70.8147   12.5693   30.1637 C   0  0  0  0  0  0
   71.4604   11.9907   29.2927 O   0  0  0  0  0  0
   71.2889   13.6188   30.8916 O   0  0  0  0  0  0
   68.4890   12.6499   27.6403 C   0  0  0  0  0  0
   68.0897   11.5010   27.6558 O   0  0  0  0  0  0
   69.2891   13.1922   26.6757 O   0  0  0  0  0  0
   67.0287   13.7853   28.5818 H   0  0  0  0  0  0
   69.0302   20.6167   29.7467 H   0  0  0  0  0  0
   67.7432   18.5553   30.0727 H   0  0  0  0  0  0
   69.8336   16.7595   26.7592 H   0  0  0  0  0  0
   71.1644   18.7907   26.5026 H   0  0  0  0  0  0
   70.8898   21.3912   26.9021 H   0  0  0  0  0  0
   70.6295   21.8809   28.5381 H   0  0  0  0  0  0
   72.7814   19.8368   28.4516 H   0  0  0  0  0  0
   73.1031   21.0551   27.2913 H   0  0  0  0  0  0
   72.3720   22.5390   29.6163 H   0  0  0  0  0  0
   73.2050   21.1707   30.2555 H   0  0  0  0  0  0
   74.5296   23.1543   29.9545 H   0  0  0  0  0  0
   74.1125   22.9378   26.9318 H   0  0  0  0  0  0
   73.5782   24.2092   27.9940 H   0  0  0  0  0  0
   77.0637   26.9551   26.7453 H   0  0  0  0  0  0
   80.1099   25.9103   28.1876 H   0  0  0  0  0  0
   79.2475   27.2244   27.5644 H   0  0  0  0  0  0
   77.7556   22.0457   29.1364 H   0  0  0  0  0  0
   75.8179   21.1107   30.0243 H   0  0  0  0  0  0
   75.5691   20.7909   28.3359 H   0  0  0  0  0  0
   69.6582   15.1251   28.4611 H   0  0  0  0  0  0
   67.3521   12.7985   30.5532 H   0  0  0  0  0  0
   68.4444   14.0841   30.8630 H   0  0  0  0  0  0
   69.1620   11.2160   30.0996 H   0  0  0  0  0  0
   69.3883   11.9918   31.6388 H   0  0  0  0  0  0
   72.1692   13.9003   30.6004 H   0  0  0  0  0  0
   69.4561   14.1186   26.8597 H   0  0  0  0  0  0
  1  6  1  0  0  0
  1  2  2  0  0  0
  1 35  1  0  0  0
  2  3  1  0  0  0
  2 36  1  0  0  0
  3  4  2  0  0  0
  3 22  1  0  0  0
  4  5  1  0  0  0
  4 37  1  0  0  0
  5  6  2  0  0  0
  5 38  1  0  0  0
  6  7  1  0  0  0
  7  8  1  0  0  0
  7 39  1  0  0  0
  7 40  1  0  0  0
  8  9  1  0  0  0
  8 41  1  0  0  0
  8 42  1  0  0  0
  9 10  1  0  0  0
  9 43  1  0  0  0
  9 44  1  0  0  0
 10 21  1  0  0  0
 10 11  1  0  0  0
 10 45  1  0  0  0
 11 46  1  0  0  0
 11 47  1  0  0  0
 11 12  1  0  0  0
 12 13  2  0  0  0
 12 17  1  0  0  0
 13 20  1  0  0  0
 13 14  1  0  0  0
 14 15  2  0  0  0
 15 19  1  0  0  0
 15 16  1  0  0  0
 16 48  1  0  0  0
 16 17  1  0  0  0
 17 18  2  0  0  0
 19 49  1  0  0  0
 19 50  1  0  0  0
 20 21  1  0  0  0
 20 51  1  0  0  0
 21 52  1  0  0  0
 21 53  1  0  0  0
 22 23  2  0  0  0
 22 24  1  0  0  0
 24 25  1  0  0  0
 24 54  1  0  0  0
 25 34  1  0  0  0
 25 26  1  0  0  0
 25 31  1  0  0  0
 26 27  1  0  0  0
 26 55  1  0  0  0
 26 56  1  0  0  0
 27 28  1  0  0  0
 27 57  1  0  0  0
 27 58  1  0  0  0
 28 29  2  0  0  0
 28 30  1  0  0  0
 30 59  1  0  0  0
 31 32  2  0  0  0
 31 33  1  0  0  0
 33 60  1  0  0  0
M  END
> <s_m_entry_id>
25087

> <s_m_entry_name>
ligand_docking-pose.13

> <s_m_Source_Path>
/home/csk/Desktop/cluster/DUD-E-result/pur2

> <s_m_Source_File>
ligand_docking-pose.sdf

> <i_m_Source_File_Index>
13

> <i_lp_mmshare_version>
53161

> <i_f3d_flags>
0

> <r_lp_tautomer_probability>
0.982539515805485

> <s_lp_Force_Field>
OPLS_2005

> <r_lp_Energy>
20.006094

> <b_lp_Chiralities_Consistent>
1

> <s_lp_Variant>
189777-1

> <s_i_glide_gridfile>
glide-grid_1njs

> <i_i_glide_lignum>
1

> <i_i_glide_rotatable_bonds>
13

> <r_i_docking_score>
-11.9700006548141

> <r_i_glide_ligand_efficiency>
-0.362727292570123

> <r_i_glide_ligand_efficiency_sa>
-1.16346024198909

> <r_i_glide_ligand_efficiency_ln>
-2.66206616828421

> <r_i_glide_gscore>
-11.9700006548141

> <r_i_glide_lipo>
-2.4770191840413

> <r_i_glide_hbond>
-1.32447057370037

> <r_i_glide_metal>
0

> <r_i_glide_rewards>
-2.44122624564212

> <r_i_glide_evdw>
-58.6813011169434

> <r_i_glide_ecoul>
-23.1418991088867

> <r_i_glide_erotb>
0.739700579268624

> <r_i_glide_esite>
-0.06163530851871

> <r_i_glide_emodel>
-127.982754001183

> <r_i_glide_energy>
-81.8232002258301

> <r_i_glide_einternal>
17.4546031951904

> <i_i_glide_confnum>
31

> <i_i_glide_posenum>
219

> <r_i_glide_eff_state_penalty>
0

> <s_user_duplicate_titles>
189777

> <s_m_subgroup_title>
dock_pv

> <s_m_subgroupid>
dock_pv1

> <b_m_subgroup_collapsed>
0

$$$$
28798
                    3D
 Schrodinger Suite 2021-1.
 57 59  0  0  1  0            999 V2000
   70.1597   18.0965   27.3661 C   0  0  0  0  0  0
   71.2464   18.9617   27.2899 C   0  0  0  0  0  0
   71.2861   20.1185   28.0598 C   0  0  0  0  0  0
   70.2084   20.4318   28.8909 C   0  0  0  0  0  0
   69.1306   19.5537   28.9911 C   0  0  0  0  0  0
   69.1191   18.3555   28.2645 C   0  0  0  0  0  0
   68.0785   17.3037   28.5583 C   0  0  0  0  0  0
   67.6143   17.2112   29.6946 O   0  0  0  0  0  0
   67.7610   16.4584   27.5542 N   0  0  0  0  0  0
   66.9593   15.2247   27.6599 C   0  0  1  0  0  0
   67.7446   14.1631   28.5015 C   0  0  0  0  0  0
   69.1305   13.7177   27.9575 C   0  0  0  0  0  0
   69.1066   12.4670   27.0713 C   0  0  0  0  0  0
   68.1162   11.7663   26.8946 O   0  0  0  0  0  0
   70.3139   12.1958   26.4933 O   0  0  0  0  0  0
   65.5403   15.4745   28.2362 C   0  0  0  0  0  0
   65.2252   15.1973   29.3750 O   0  0  0  0  0  0
   64.6918   15.9803   27.2935 O   0  0  0  0  0  0
   72.4459   20.8968   27.9705 N   0  0  0  0  0  0
   72.7005   22.0430   28.8319 C   0  0  0  0  0  0
   74.1131   22.6565   28.6720 C   0  0  1  0  0  0
   75.2630   21.6270   28.5675 C   0  0  0  0  0  0
   76.6593   22.2874   28.6506 C   0  0  0  0  0  0
   76.7140   23.6772   28.0099 C   0  0  0  0  0  0
   75.6079   24.2598   27.4566 C   0  0  0  0  0  0
   75.7414   25.5904   26.8908 C   0  0  0  0  0  0
   76.9445   26.1583   27.1150 N   0  0  0  0  0  0
   78.0121   25.5490   27.6896 C   0  0  0  0  0  0
   77.9191   24.3315   28.0901 N   0  0  0  0  0  0
   79.2058   26.2804   27.8016 N   0  0  0  0  0  0
   74.8893   26.1831   26.2337 O   0  0  0  0  0  0
   74.2196   23.5996   27.4561 C   0  0  0  0  0  0
   70.1759   17.1931   26.7757 H   0  0  0  0  0  0
   72.0627   18.7314   26.6203 H   0  0  0  0  0  0
   70.2132   21.3296   29.4898 H   0  0  0  0  0  0
   68.3369   19.7827   29.6880 H   0  0  0  0  0  0
   68.0414   16.7169   26.6209 H   0  0  0  0  0  0
   66.8327   14.8270   26.6520 H   0  0  0  0  0  0
   67.1194   13.2849   28.6588 H   0  0  0  0  0  0
   67.9033   14.5559   29.5078 H   0  0  0  0  0  0
   69.7441   13.4602   28.8197 H   0  0  0  0  0  0
   69.6446   14.5344   27.4452 H   0  0  0  0  0  0
   71.0173   12.8131   26.7108 H   0  0  0  0  0  0
   65.0253   16.0062   26.3799 H   0  0  0  0  0  0
   73.0055   20.7930   27.1294 H   0  0  0  0  0  0
   71.9392   22.7990   28.6304 H   0  0  0  0  0  0
   72.5463   21.7372   29.8692 H   0  0  0  0  0  0
   74.2700   23.2573   29.5708 H   0  0  0  0  0  0
   75.1678   20.9080   29.3827 H   0  0  0  0  0  0
   75.1591   21.0255   27.6611 H   0  0  0  0  0  0
   76.8981   22.3931   29.6995 H   0  0  0  0  0  0
   77.4175   21.6267   28.2316 H   0  0  0  0  0  0
   79.9817   25.9374   28.3472 H   0  0  0  0  0  0
   79.2316   27.2728   27.6225 H   0  0  0  0  0  0
   77.0533   27.0759   26.7155 H   0  0  0  0  0  0
   74.0895   23.0516   26.5228 H   0  0  0  0  0  0
   73.4138   24.3365   27.4846 H   0  0  0  0  0  0
  1  6  1  0  0  0
  1  2  2  0  0  0
  1 33  1  0  0  0
  2  3  1  0  0  0
  2 34  1  0  0  0
  3  4  2  0  0  0
  3 19  1  0  0  0
  4  5  1  0  0  0
  4 35  1  0  0  0
  5  6  2  0  0  0
  5 36  1  0  0  0
  6  7  1  0  0  0
  7  8  2  0  0  0
  7  9  1  0  0  0
  9 10  1  0  0  0
  9 37  1  0  0  0
 10 11  1  0  0  0
 10 16  1  0  0  0
 10 38  1  0  0  0
 11 12  1  0  0  0
 11 39  1  0  0  0
 11 40  1  0  0  0
 12 13  1  0  0  0
 12 41  1  0  0  0
 12 42  1  0  0  0
 13 14  2  0  0  0
 13 15  1  0  0  0
 15 43  1  0  0  0
 16 17  2  0  0  0
 16 18  1  0  0  0
 18 44  1  0  0  0
 19 20  1  0  0  0
 19 45  1  0  0  0
 20 21  1  0  0  0
 20 46  1  0  0  0
 20 47  1  0  0  0
 21 32  1  0  0  0
 21 22  1  0  0  0
 21 48  1  0  0  0
 22 23  1  0  0  0
 22 49  1  0  0  0
 22 50  1  0  0  0
 23 51  1  0  0  0
 23 52  1  0  0  0
 23 24  1  0  0  0
 24 25  2  0  0  0
 24 29  1  0  0  0
 25 26  1  0  0  0
 25 32  1  0  0  0
 26 27  1  0  0  0
 26 31  2  0  0  0
 27 28  1  0  0  0
 27 55  1  0  0  0
 28 29  2  0  0  0
 28 30  1  0  0  0
 30 53  1  0  0  0
 30 54  1  0  0  0
 32 56  1  0  0  0
 32 57  1  0  0  0
M  END
> <s_m_entry_id>
25090

> <s_m_entry_name>
ligand_docking-pose.16

> <s_m_Source_Path>
/home/csk/Desktop/cluster/DUD-E-result/pur2

> <s_m_Source_File>
ligand_docking-pose.sdf

> <i_m_Source_File_Index>
16

> <i_lp_mmshare_version>
53161

> <i_f3d_flags>
0

> <r_lp_tautomer_probability>
0.878315377147829

> <s_lp_Force_Field>
OPLS_2005

> <r_lp_Energy>
22.778426

> <b_lp_Chiralities_Consistent>
1

> <s_lp_Variant>
28798-4

> <s_i_glide_gridfile>
glide-grid_1njs

> <i_i_glide_lignum>
161

> <i_i_glide_rotatable_bonds>
12

> <r_i_docking_score>
-11.9465414855445

> <r_i_glide_ligand_efficiency>
-0.373329421423266

> <r_i_glide_ligand_efficiency_sa>
-1.18524703122669

> <r_i_glide_ligand_efficiency_ln>
-2.6751562890351

> <r_i_glide_gscore>
-11.9465414855445

> <r_i_glide_lipo>
-2.47975949025825

> <r_i_glide_hbond>
-1.25034572237468

> <r_i_glide_metal>
0

> <r_i_glide_rewards>
-2.26694202090795

> <r_i_glide_evdw>
-57.1468849182129

> <r_i_glide_ecoul>
-24.6414470672607

> <r_i_glide_erotb>
0.711630181054405

> <r_i_glide_esite>
-0.107563127058292

> <r_i_glide_emodel>
-126.686569320694

> <r_i_glide_energy>
-81.7883319854736

> <r_i_glide_einternal>
15.8603010177612

> <i_i_glide_confnum>
65

> <i_i_glide_posenum>
66

> <r_i_glide_eff_state_penalty>
0

> <s_user_duplicate_titles>
28798

> <s_m_subgroup_title>
dock_pv

> <s_m_subgroupid>
dock_pv1

> <b_m_subgroup_collapsed>
0

$$$$
60063
                    3D
 Schrodinger Suite 2021-1.
 58 60  0  0  1  0            999 V2000
   70.6317   17.9911   26.8910 C   0  0  0  0  0  0
   71.7214   18.8251   27.0901 C   0  0  0  0  0  0
   71.6377   19.8969   27.9741 C   0  0  0  0  0  0
   70.4452   20.1255   28.6685 C   0  0  0  0  0  0
   69.3566   19.2679   28.4909 C   0  0  0  0  0  0
   69.4495   18.1775   27.6090 C   0  0  0  0  0  0
   68.3254   17.1911   27.3988 C   0  0  0  0  0  0
   68.3249   16.4583   26.4102 O   0  0  0  0  0  0
   67.3927   17.1295   28.3673 N   0  0  0  0  0  0
   66.2662   16.1885   28.4751 C   0  0  2  0  0  0
   65.5449   16.3131   29.8520 C   0  0  0  0  0  0
   66.4625   16.3277   31.1077 C   0  0  0  0  0  0
   65.8380   17.4436   32.4279 P   0  0  0  0  0  0
   64.5711   17.1144   33.1298 O   0  0  0  0  0  0
   67.1274   17.5910   33.3964 O   0  0  0  0  0  0
   65.8372   18.8829   31.6904 O   0  0  0  0  0  0
   66.6978   14.7302   28.2008 C   0  0  0  0  0  0
   67.1394   13.9861   29.0535 O   0  0  0  0  0  0
   66.4895   14.3911   26.8910 O   0  0  0  0  0  0
   72.7766   20.7067   28.0910 N   0  0  0  0  0  0
   72.9508   21.7458   29.0968 C   0  0  0  0  0  0
   74.2840   22.5260   28.9613 C   0  0  2  0  0  0
   74.3056   23.4393   27.7045 C   0  0  0  0  0  0
   75.6723   24.1210   27.5791 C   0  0  0  0  0  0
   76.7992   23.5748   28.0919 C   0  0  0  0  0  0
   78.0179   24.1908   28.0910 N   0  0  0  0  0  0
   78.0895   25.3966   27.6549 C   0  0  0  0  0  0
   76.9935   25.9996   27.1206 N   0  0  0  0  0  0
   75.7809   25.4261   26.9595 C   0  0  0  0  0  0
   74.8889   25.9991   26.3451 O   0  0  0  0  0  0
   79.2891   26.1249   27.6912 N   0  0  0  0  0  0
   76.7674   22.3899   28.7657 N   0  0  0  0  0  0
   75.5546   21.6265   29.0738 C   0  0  0  0  0  0
   70.7098   17.2060   26.1572 H   0  0  0  0  0  0
   72.6233   18.6636   26.5180 H   0  0  0  0  0  0
   70.3547   20.9607   29.3460 H   0  0  0  0  0  0
   68.4512   19.4687   29.0446 H   0  0  0  0  0  0
   67.4717   17.7795   29.1317 H   0  0  0  0  0  0
   65.5411   16.4744   27.7086 H   0  0  0  0  0  0
   64.7970   15.5247   29.9644 H   0  0  0  0  0  0
   64.9343   17.2108   29.8282 H   0  0  0  0  0  0
   67.4700   16.6651   30.8730 H   0  0  0  0  0  0
   66.5748   15.3209   31.5101 H   0  0  0  0  0  0
   67.2888   18.5211   33.6924 H   0  0  0  0  0  0
   65.8458   19.6421   32.3029 H   0  0  0  0  0  0
   66.1211   15.0931   26.3319 H   0  0  0  0  0  0
   73.5561   20.5024   27.4811 H   0  0  0  0  0  0
   72.1089   22.4394   29.0480 H   0  0  0  0  0  0
   72.8912   21.2796   30.0815 H   0  0  0  0  0  0
   74.2910   23.1873   29.8293 H   0  0  0  0  0  0
   74.1034   22.8569   26.8043 H   0  0  0  0  0  0
   73.5016   24.1759   27.7628 H   0  0  0  0  0  0
   77.0802   26.9140   26.7073 H   0  0  0  0  0  0
   80.0931   25.7860   28.1990 H   0  0  0  0  0  0
   79.2911   27.1212   27.5368 H   0  0  0  0  0  0
   77.6232   22.0429   29.1774 H   0  0  0  0  0  0
   75.6260   21.1991   30.0753 H   0  0  0  0  0  0
   75.4800   20.7715   28.4020 H   0  0  0  0  0  0
  1  6  1  0  0  0
  1  2  2  0  0  0
  1 34  1  0  0  0
  2  3  1  0  0  0
  2 35  1  0  0  0
  3  4  2  0  0  0
  3 20  1  0  0  0
  4  5  1  0  0  0
  4 36  1  0  0  0
  5  6  2  0  0  0
  5 37  1  0  0  0
  6  7  1  0  0  0
  7  8  2  0  0  0
  7  9  1  0  0  0
  9 10  1  0  0  0
  9 38  1  0  0  0
 10 11  1  0  0  0
 10 17  1  0  0  0
 10 39  1  0  0  0
 11 12  1  0  0  0
 11 40  1  0  0  0
 11 41  1  0  0  0
 12 13  1  0  0  0
 12 42  1  0  0  0
 12 43  1  0  0  0
 13 14  2  0  0  0
 13 15  1  0  0  0
 13 16  1  0  0  0
 15 44  1  0  0  0
 16 45  1  0  0  0
 17 18  2  0  0  0
 17 19  1  0  0  0
 19 46  1  0  0  0
 20 21  1  0  0  0
 20 47  1  0  0  0
 21 22  1  0  0  0
 21 48  1  0  0  0
 21 49  1  0  0  0
 22 33  1  0  0  0
 22 23  1  0  0  0
 22 50  1  0  0  0
 23 51  1  0  0  0
 23 52  1  0  0  0
 23 24  1  0  0  0
 24 25  2  0  0  0
 24 29  1  0  0  0
 25 32  1  0  0  0
 25 26  1  0  0  0
 26 27  2  0  0  0
 27 31  1  0  0  0
 27 28  1  0  0  0
 28 53  1  0  0  0
 28 29  1  0  0  0
 29 30  2  0  0  0
 31 54  1  0  0  0
 31 55  1  0  0  0
 32 33  1  0  0  0
 32 56  1  0  0  0
 33 57  1  0  0  0
 33 58  1  0  0  0
M  END
> <s_m_entry_id>
25092

> <s_m_entry_name>
ligand_docking-pose.18

> <s_m_Source_Path>
/home/csk/Desktop/cluster/DUD-E-result/pur2

> <s_m_Source_File>
ligand_docking-pose.sdf

> <i_m_Source_File_Index>
18

> <i_lp_mmshare_version>
53161

> <i_f3d_flags>
0

> <r_lp_tautomer_probability>
0.982539515805485

> <s_lp_Force_Field>
OPLS_2005

> <r_lp_Energy>
18.265937

> <b_lp_Chiralities_Consistent>
1

> <s_lp_Variant>
60063-1

> <s_i_glide_gridfile>
glide-grid_1njs

> <i_i_glide_lignum>
121

> <i_i_glide_rotatable_bonds>
13

> <r_i_docking_score>
-11.7946815417128

> <r_i_glide_ligand_efficiency>
-0.357414592173116

> <r_i_glide_ligand_efficiency_sa>
-1.14641957310057

> <r_i_glide_ligand_efficiency_ln>
-2.62307610528428

> <r_i_glide_gscore>
-11.7946815417128

> <r_i_glide_lipo>
-2.32110168505529

> <r_i_glide_hbond>
-0.982799486308593

> <r_i_glide_metal>
0

> <r_i_glide_rewards>
-2.27548961280951

> <r_i_glide_evdw>
-56.0511627197266

> <r_i_glide_ecoul>
-26.4778003692627

> <r_i_glide_erotb>
0.615055946300445

> <r_i_glide_esite>
-0.0561185124641438

> <r_i_glide_emodel>
-134.294004563019

> <r_i_glide_energy>
-82.5289630889893

> <r_i_glide_einternal>
10.1526203155518

> <i_i_glide_confnum>
44

> <i_i_glide_posenum>
58

> <r_i_glide_eff_state_penalty>
0

> <s_user_duplicate_titles>
60063

> <s_m_subgroup_title>
dock_pv

> <s_m_subgroupid>
dock_pv1

> <b_m_subgroup_collapsed>
0

$$$$
108155
                    3D
 Schrodinger Suite 2021-1.
 60 62  0  0  1  0            999 V2000
   73.7471   23.9354   29.1578 C   0  0  0  0  0  0
   74.4143   23.3469   27.8948 C   0  0  1  0  0  0
   75.7501   24.0761   27.6452 C   0  0  0  0  0  0
   76.9387   23.5368   28.0015 C   0  0  0  0  0  0
   78.1252   24.2106   28.0026 N   0  0  0  0  0  0
   78.1192   25.4481   27.6594 C   0  0  0  0  0  0
   76.9747   26.0339   27.2259 N   0  0  0  0  0  0
   75.7786   25.4198   27.0931 C   0  0  0  0  0  0
   74.8574   25.9910   26.5200 O   0  0  0  0  0  0
   79.2854   26.2301   27.6940 N   0  0  0  0  0  0
   77.0310   22.2763   28.4915 N   0  0  0  0  0  0
   75.9090   21.3896   28.7797 C   0  0  0  0  0  0
   74.6328   21.8065   27.9936 C   0  0  1  0  0  0
   73.4025   21.0081   28.5137 C   0  0  0  0  0  0
   72.0172   21.4117   27.9626 C   0  0  0  0  0  0
   70.9074   20.4444   28.3188 C   0  0  0  0  0  0
   69.8995   20.7874   29.2212 C   0  0  0  0  0  0
   68.8892   19.8687   29.5032 C   0  0  0  0  0  0
   68.8892   18.6051   28.8908 C   0  0  0  0  0  0
   69.8858   18.3013   27.9544 C   0  0  0  0  0  0
   70.8965   19.2059   27.6891 C   0  0  0  0  0  0
   67.9110   17.5448   29.3225 C   0  0  0  0  0  0
   67.3259   17.6391   30.4023 O   0  0  0  0  0  0
   67.7842   16.4811   28.5018 N   0  0  0  0  0  0
   67.0229   15.2743   28.8249 C   0  0  2  0  0  0
   67.4031   14.0601   27.9354 C   0  0  0  0  0  0
   68.9194   13.7828   27.7754 C   0  0  0  0  0  0
   69.2313   12.4190   27.1327 C   0  0  0  0  0  0
   68.4890   11.4391   27.1899 O   0  0  0  0  0  0
   70.4370   12.3863   26.4909 O   0  0  0  0  0  0
   65.5053   15.5358   28.8965 C   0  0  0  0  0  0
   64.8875   15.3763   29.9243 O   0  0  0  0  0  0
   64.9874   15.9307   27.6928 O   0  0  0  0  0  0
   73.1335   24.7909   28.8909 H   0  0  0  0  0  0
   73.0680   23.2654   29.6756 H   0  0  0  0  0  0
   74.4888   24.2110   29.9067 H   0  0  0  0  0  0
   73.7419   23.5251   27.0513 H   0  0  0  0  0  0
   77.0100   26.9690   26.8517 H   0  0  0  0  0  0
   80.1336   25.8950   28.1305 H   0  0  0  0  0  0
   79.2465   27.2321   27.5764 H   0  0  0  0  0  0
   77.9280   21.9627   28.8353 H   0  0  0  0  0  0
   75.7147   21.3805   29.8535 H   0  0  0  0  0  0
   76.1826   20.3662   28.5264 H   0  0  0  0  0  0
   74.7893   21.4617   26.9685 H   0  0  0  0  0  0
   73.3679   21.0205   29.6040 H   0  0  0  0  0  0
   73.5728   19.9762   28.2285 H   0  0  0  0  0  0
   72.0760   21.3695   26.8910 H   0  0  0  0  0  0
   71.7182   22.4314   28.2065 H   0  0  0  0  0  0
   69.8986   21.7552   29.7051 H   0  0  0  0  0  0
   68.1305   20.1308   30.2271 H   0  0  0  0  0  0
   69.9275   17.3478   27.4511 H   0  0  0  0  0  0
   71.6620   18.9544   26.9681 H   0  0  0  0  0  0
   68.1942   16.5281   27.5827 H   0  0  0  0  0  0
   67.3238   15.0070   29.8406 H   0  0  0  0  0  0
   66.9534   14.1589   26.9445 H   0  0  0  0  0  0
   66.9460   13.1911   28.4104 H   0  0  0  0  0  0
   69.4011   13.8082   28.7532 H   0  0  0  0  0  0
   69.3716   14.5765   27.1792 H   0  0  0  0  0  0
   70.9602   13.1896   26.5475 H   0  0  0  0  0  0
   65.6079   16.0307   26.9634 H   0  0  0  0  0  0
  1  2  1  0  0  0
  1 34  1  0  0  0
  1 35  1  0  0  0
  1 36  1  0  0  0
  2 13  1  0  0  0
  2 37  1  0  0  0
  2  3  1  0  0  0
  3  4  2  0  0  0
  3  8  1  0  0  0
  4 11  1  0  0  0
  4  5  1  0  0  0
  5  6  2  0  0  0
  6 10  1  0  0  0
  6  7  1  0  0  0
  7 38  1  0  0  0
  7  8  1  0  0  0
  8  9  2  0  0  0
 10 39  1  0  0  0
 10 40  1  0  0  0
 11 12  1  0  0  0
 11 41  1  0  0  0
 12 13  1  0  0  0
 12 42  1  0  0  0
 12 43  1  0  0  0
 13 14  1  0  0  0
 13 44  1  0  0  0
 14 15  1  0  0  0
 14 45  1  0  0  0
 14 46  1  0  0  0
 15 16  1  0  0  0
 15 47  1  0  0  0
 15 48  1  0  0  0
 16 21  1  0  0  0
 16 17  2  0  0  0
 17 18  1  0  0  0
 17 49  1  0  0  0
 18 19  2  0  0  0
 18 50  1  0  0  0
 19 20  1  0  0  0
 19 22  1  0  0  0
 20 21  2  0  0  0
 20 51  1  0  0  0
 21 52  1  0  0  0
 22 23  2  0  0  0
 22 24  1  0  0  0
 24 25  1  0  0  0
 24 53  1  0  0  0
 25 26  1  0  0  0
 25 31  1  0  0  0
 25 54  1  0  0  0
 26 27  1  0  0  0
 26 55  1  0  0  0
 26 56  1  0  0  0
 27 28  1  0  0  0
 27 57  1  0  0  0
 27 58  1  0  0  0
 28 29  2  0  0  0
 28 30  1  0  0  0
 30 59  1  0  0  0
 31 32  2  0  0  0
 31 33  1  0  0  0
 33 60  1  0  0  0
M  END
> <s_m_entry_id>
25093

> <s_m_entry_name>
ligand_docking-pose.19

> <s_m_Source_Path>
/home/csk/Desktop/cluster/DUD-E-result/pur2

> <s_m_Source_File>
ligand_docking-pose.sdf

> <i_m_Source_File_Index>
19

> <i_lp_mmshare_version>
53161

> <i_f3d_flags>
0

> <r_lp_tautomer_probability>
0.982539515805485

> <s_lp_Force_Field>
OPLS_2005

> <r_lp_Energy>
20.779672

> <b_lp_Chiralities_Consistent>
1

> <s_lp_Variant>
108155-2

> <s_i_glide_gridfile>
glide-grid_1njs

> <i_i_glide_lignum>
213

> <i_i_glide_rotatable_bonds>
12

> <r_i_docking_score>
-11.6780074739194

> <r_i_glide_ligand_efficiency>
-0.353879014361195

> <r_i_glide_ligand_efficiency_sa>
-1.13507908590568

> <r_i_glide_ligand_efficiency_ln>
-2.59712839671303

> <r_i_glide_gscore>
-11.6780074739194

> <r_i_glide_lipo>
-2.68245908723811

> <r_i_glide_hbond>
-1.29988655913033

> <r_i_glide_metal>
0

> <r_i_glide_rewards>
-2.54982864457265

> <r_i_glide_evdw>
-58.5152816772461

> <r_i_glide_ecoul>
-19.1861171722412

> <r_i_glide_erotb>
0.672455072062385

> <r_i_glide_esite>
-0.0146065953422482

> <r_i_glide_emodel>
-121.043324767934

> <r_i_glide_energy>
-77.7013988494873

> <r_i_glide_einternal>
10.9141445159912

> <i_i_glide_confnum>
24

> <i_i_glide_posenum>
296

> <r_i_glide_eff_state_penalty>
0

> <s_user_duplicate_titles>
108155

> <s_m_subgroup_title>
dock_pv

> <s_m_subgroupid>
dock_pv1

> <b_m_subgroup_collapsed>
0

$$$$
30459
                    3D
 Schrodinger Suite 2021-1.
 59 61  0  0  1  0            999 V2000
   69.7604   21.0301   29.6612 C   0  0  0  0  0  0
   68.9598   19.8932   29.5914 C   0  0  0  0  0  0
   69.2310   18.9014   28.6365 C   0  0  0  0  0  0
   70.2672   19.0913   27.7145 C   0  0  0  0  0  0
   71.0505   20.2385   27.7756 C   0  0  0  0  0  0
   70.8086   21.2018   28.7558 C   0  0  0  0  0  0
   71.5849   22.5130   28.7439 C   0  0  0  0  0  0
   72.6746   22.7206   29.8128 C   0  0  0  0  0  0
   73.9595   21.8847   29.6673 C   0  0  0  0  0  0
   74.5282   21.7038   28.2395 C   0  0  2  0  0  0
   75.9543   21.1205   28.2348 C   0  0  0  0  0  0
   76.9878   22.1235   28.4911 N   0  0  0  0  0  0
   76.8009   23.4173   27.9882 C   0  0  0  0  0  0
   75.5607   23.8157   27.4499 C   0  0  0  0  0  0
   75.4508   25.1526   27.0201 C   0  0  0  0  0  0
   76.5133   25.9910   27.1164 N   0  0  0  0  0  0
   77.6612   25.5129   27.6424 C   0  0  0  0  0  0
   77.8623   24.2552   28.0909 N   0  0  0  0  0  0
   78.7205   26.4015   27.7172 N   0  0  0  0  0  0
   74.2537   25.5696   26.4944 O   0  0  0  0  0  0
   74.4637   22.9277   27.4312 N   0  0  0  0  0  0
   68.4883   17.5944   28.6919 C   0  0  0  0  0  0
   68.2963   17.0522   29.7805 O   0  0  0  0  0  0
   68.0974   17.0682   27.5126 N   0  0  0  0  0  0
   67.4465   15.7597   27.3149 C   0  0  1  0  0  0
   68.5183   14.6406   27.5064 C   0  0  0  0  0  0
   68.0042   13.1907   27.3782 C   0  0  0  0  0  0
   69.1217   12.1773   27.1562 C   0  0  0  0  0  0
   69.2899   11.5909   26.0910 O   0  0  0  0  0  0
   69.8760   11.9673   28.2722 O   0  0  0  0  0  0
   66.1650   15.5922   28.1771 C   0  0  0  0  0  0
   66.0893   14.8604   29.1439 O   0  0  0  0  0  0
   65.1553   16.3700   27.6909 O   0  0  0  0  0  0
   69.5506   21.7958   30.3936 H   0  0  0  0  0  0
   68.1631   19.7650   30.3113 H   0  0  0  0  0  0
   70.4934   18.3506   26.9607 H   0  0  0  0  0  0
   71.8306   20.3797   27.0426 H   0  0  0  0  0  0
   71.9518   22.6991   27.7378 H   0  0  0  0  0  0
   70.8890   23.3265   28.8938 H   0  0  0  0  0  0
   72.9611   23.7740   29.7842 H   0  0  0  0  0  0
   72.2495   22.5695   30.8060 H   0  0  0  0  0  0
   74.7232   22.3176   30.3127 H   0  0  0  0  0  0
   73.7647   20.8911   30.0743 H   0  0  0  0  0  0
   73.8949   20.9719   27.7373 H   0  0  0  0  0  0
   76.0607   20.3910   29.0291 H   0  0  0  0  0  0
   76.0890   20.5991   27.2921 H   0  0  0  0  0  0
   77.8427   21.8158   28.9411 H   0  0  0  0  0  0
   79.5957   26.1215   28.1331 H   0  0  0  0  0  0
   78.5697   27.3418   27.3771 H   0  0  0  0  0  0
   73.5297   24.9521   26.6398 H   0  0  0  0  0  0
   73.5234   23.2388   27.2359 H   0  0  0  0  0  0
   68.2274   17.6230   26.6790 H   0  0  0  0  0  0
   67.1285   15.7281   26.2720 H   0  0  0  0  0  0
   69.3210   14.8034   26.7839 H   0  0  0  0  0  0
   68.9893   14.7507   28.4850 H   0  0  0  0  0  0
   67.4513   12.9028   28.2714 H   0  0  0  0  0  0
   67.3053   13.1169   26.5434 H   0  0  0  0  0  0
   69.6219   12.5330   29.0051 H   0  0  0  0  0  0
   65.3337   16.7455   26.8171 H   0  0  0  0  0  0
  1  6  1  0  0  0
  1  2  2  0  0  0
  1 34  1  0  0  0
  2  3  1  0  0  0
  2 35  1  0  0  0
  3  4  2  0  0  0
  3 22  1  0  0  0
  4  5  1  0  0  0
  4 36  1  0  0  0
  5  6  2  0  0  0
  5 37  1  0  0  0
  6  7  1  0  0  0
  7  8  1  0  0  0
  7 38  1  0  0  0
  7 39  1  0  0  0
  8  9  1  0  0  0
  8 40  1  0  0  0
  8 41  1  0  0  0
  9 10  1  0  0  0
  9 42  1  0  0  0
  9 43  1  0  0  0
 10 21  1  0  0  0
 10 11  1  0  0  0
 10 44  1  0  0  0
 11 12  1  0  0  0
 11 45  1  0  0  0
 11 46  1  0  0  0
 12 13  1  0  0  0
 12 47  1  0  0  0
 13 18  2  0  0  0
 13 14  1  0  0  0
 14 15  2  0  0  0
 14 21  1  0  0  0
 15 16  1  0  0  0
 15 20  1  0  0  0
 16 17  2  0  0  0
 17 18  1  0  0  0
 17 19  1  0  0  0
 19 48  1  0  0  0
 19 49  1  0  0  0
 20 50  1  0  0  0
 21 51  1  0  0  0
 22 23  2  0  0  0
 22 24  1  0  0  0
 24 25  1  0  0  0
 24 52  1  0  0  0
 25 26  1  0  0  0
 25 31  1  0  0  0
 25 53  1  0  0  0
 26 27  1  0  0  0
 26 54  1  0  0  0
 26 55  1  0  0  0
 27 28  1  0  0  0
 27 56  1  0  0  0
 27 57  1  0  0  0
 28 29  2  0  0  0
 28 30  1  0  0  0
 30 58  1  0  0  0
 31 32  2  0  0  0
 31 33  1  0  0  0
 33 59  1  0  0  0
M  END
> <s_m_entry_id>
25097

> <s_m_entry_name>
ligand_docking-pose.23

> <s_m_Source_Path>
/home/csk/Desktop/cluster/DUD-E-result/pur2

> <s_m_Source_File>
ligand_docking-pose.sdf

> <i_m_Source_File_Index>
23

> <i_lp_mmshare_version>
53161

> <i_f3d_flags>
0

> <r_lp_tautomer_probability>
1

> <s_lp_Force_Field>
OPLS_2005

> <r_lp_Energy>
9.081824

> <b_lp_Chiralities_Consistent>
1

> <s_lp_Variant>
30459-3

> <s_i_glide_gridfile>
glide-grid_1njs

> <i_i_glide_lignum>
7

> <i_i_glide_rotatable_bonds>
14

> <r_i_docking_score>
-10.9708019114433

> <r_i_glide_ligand_efficiency>
-0.332448542771008

> <r_i_glide_ligand_efficiency_sa>
-1.06634011265227

> <r_i_glide_ligand_efficiency_ln>
-2.43984954133276

> <r_i_glide_gscore>
-10.9708019114433

> <r_i_glide_lipo>
-2.70378308033813

> <r_i_glide_hbond>
-1.01652607693643

> <r_i_glide_metal>
0

> <r_i_glide_rewards>
-2.28409105965744

> <r_i_glide_evdw>
-58.9134216308594

> <r_i_glide_ecoul>
-20.0961666107178

> <r_i_glide_erotb>
1.05257220231975

> <r_i_glide_esite>
-0.0588778236803891

> <r_i_glide_emodel>
-128.178176653769

> <r_i_glide_energy>
-79.0095882415771

> <r_i_glide_einternal>
14.7353782653809

> <i_i_glide_confnum>
116

> <i_i_glide_posenum>
122

> <r_i_glide_eff_state_penalty>
0

> <s_user_duplicate_titles>
30459

> <s_m_subgroup_title>
dock_pv

> <s_m_subgroupid>
dock_pv1

> <b_m_subgroup_collapsed>
0

$$$$
346699
                    3D
 Schrodinger Suite 2021-1.
 59 61  0  0  1  0            999 V2000
   69.2903   20.0407   29.1292 C   0  0  0  0  0  0
   68.4261   19.0207   29.5318 C   0  0  0  0  0  0
   68.4611   17.7742   28.8923 C   0  0  0  0  0  0
   69.3227   17.5870   27.8058 C   0  0  0  0  0  0
   70.2054   18.5911   27.4266 C   0  0  0  0  0  0
   70.2034   19.8144   28.0947 C   0  0  0  0  0  0
   71.1970   20.8913   27.6726 C   0  0  0  0  0  0
   72.6029   20.7593   28.3153 C   0  0  0  0  0  0
   73.0967   22.0186   29.0816 C   0  0  2  0  0  0
   73.4079   23.1938   28.0935 C   0  0  0  0  0  0
   74.8685   23.2657   27.5677 C   0  0  2  0  0  0
   75.9051   22.8827   28.6516 C   0  0  1  0  0  0
   75.5959   21.5892   29.2141 N   0  0  2  0  0  0
   74.3330   21.6428   29.9482 C   0  0  0  0  0  0
   77.2463   22.9389   28.0918 N   0  0  0  0  0  0
   77.6145   24.1763   27.5005 C   0  0  0  0  0  0
   76.5946   24.9068   26.9768 N   0  0  0  0  0  0
   75.2647   24.6530   26.9650 C   0  0  0  0  0  0
   74.4873   25.4726   26.4846 O   0  0  0  0  0  0
   78.8051   24.5757   27.4972 N   0  0  0  0  0  0
   67.6052   16.6349   29.3804 C   0  0  0  0  0  0
   66.4300   16.7913   29.7014 O   0  0  0  0  0  0
   68.2514   15.4579   29.4642 N   0  0  0  0  0  0
   67.7244   14.1357   29.8391 C   0  0  1  0  0  0
   68.9096   13.1324   29.8640 C   0  0  0  0  0  0
   69.5143   12.8346   28.4726 C   0  0  0  0  0  0
   68.6414   11.9859   27.5517 C   0  0  0  0  0  0
   68.7441   11.9897   26.3286 O   0  0  0  0  0  0
   67.7227   11.2278   28.2128 O   0  0  0  0  0  0
   66.8960   14.0277   31.1404 C   0  0  0  0  0  0
   66.0711   13.1520   31.3059 O   0  0  0  0  0  0
   67.2562   14.9775   32.0515 O   0  0  0  0  0  0
   72.3376   22.4092   29.7625 H   0  0  0  0  0  0
   69.2677   20.9918   29.6409 H   0  0  0  0  0  0
   67.7489   19.1994   30.3559 H   0  0  0  0  0  0
   69.3365   16.6545   27.2606 H   0  0  0  0  0  0
   70.8832   18.4263   26.6011 H   0  0  0  0  0  0
   71.2894   20.8191   26.5890 H   0  0  0  0  0  0
   70.7714   21.8767   27.8577 H   0  0  0  0  0  0
   72.5983   19.9117   29.0016 H   0  0  0  0  0  0
   73.3365   20.4893   27.5539 H   0  0  0  0  0  0
   72.6739   23.1909   27.2917 H   0  0  0  0  0  0
   73.2395   24.0817   28.7066 H   0  0  0  0  0  0
   74.9450   22.5406   26.7553 H   0  0  0  0  0  0
   75.8484   23.6345   29.4349 H   0  0  0  0  0  0
   76.3305   21.3046   29.8454 H   0  0  0  0  0  0
   74.4442   22.3947   30.7312 H   0  0  0  0  0  0
   74.1643   20.7081   30.4842 H   0  0  0  0  0  0
   77.9572   22.5753   28.7068 H   0  0  0  0  0  0
   78.9271   25.4782   27.0600 H   0  0  0  0  0  0
   76.8355   25.7951   26.5665 H   0  0  0  0  0  0
   69.2236   15.4670   29.2024 H   0  0  0  0  0  0
   67.0257   13.8614   29.0473 H   0  0  0  0  0  0
   69.7039   13.5182   30.5068 H   0  0  0  0  0  0
   68.6142   12.1898   30.3318 H   0  0  0  0  0  0
   69.6890   13.7707   27.9450 H   0  0  0  0  0  0
   70.4761   12.3323   28.5815 H   0  0  0  0  0  0
   67.1033   10.8453   27.5952 H   0  0  0  0  0  0
   67.8641   15.6148   31.6722 H   0  0  0  0  0  0
  1  6  1  0  0  0
  1  2  2  0  0  0
  1 34  1  0  0  0
  2  3  1  0  0  0
  2 35  1  0  0  0
  3  4  2  0  0  0
  3 21  1  0  0  0
  4  5  1  0  0  0
  4 36  1  0  0  0
  5  6  2  0  0  0
  5 37  1  0  0  0
  6  7  1  0  0  0
  7  8  1  0  0  0
  7 38  1  0  0  0
  7 39  1  0  0  0
  8  9  1  0  0  0
  8 40  1  0  0  0
  8 41  1  0  0  0
  9 33  1  0  0  0
  9 14  1  0  0  0
  9 10  1  0  0  0
 10 42  1  0  0  0
 10 43  1  0  0  0
 10 11  1  0  0  0
 11 18  1  0  0  0
 11 12  1  0  0  0
 11 44  1  0  0  0
 12 13  1  0  0  0
 12 15  1  0  0  0
 12 45  1  0  0  0
 13 14  1  0  0  0
 13 46  1  0  0  0
 14 47  1  0  0  0
 14 48  1  0  0  0
 15 49  1  0  0  0
 15 16  1  0  0  0
 16 20  2  0  0  0
 16 17  1  0  0  0
 17 51  1  0  0  0
 17 18  1  0  0  0
 18 19  2  0  0  0
 20 50  1  0  0  0
 21 22  2  0  0  0
 21 23  1  0  0  0
 23 24  1  0  0  0
 23 52  1  0  0  0
 24 25  1  0  0  0
 24 30  1  0  0  0
 24 53  1  0  0  0
 25 26  1  0  0  0
 25 54  1  0  0  0
 25 55  1  0  0  0
 26 27  1  0  0  0
 26 56  1  0  0  0
 26 57  1  0  0  0
 27 28  2  0  0  0
 27 29  1  0  0  0
 29 58  1  0  0  0
 30 31  2  0  0  0
 30 32  1  0  0  0
 32 59  1  0  0  0
M  END
> <s_m_entry_id>
25101

> <s_m_entry_name>
ligand_docking-pose.27

> <s_m_Source_Path>
/home/csk/Desktop/cluster/DUD-E-result/pur2

> <s_m_Source_File>
ligand_docking-pose.sdf

> <i_m_Source_File_Index>
27

> <i_lp_mmshare_version>
53161

> <i_f3d_flags>
0

> <r_lp_tautomer_probability>
0.114260407439966

> <s_lp_Force_Field>
OPLS_2005

> <r_lp_Energy>
29.726948

> <b_lp_Chiralities_Consistent>
1

> <s_lp_Variant>
346699-24

> <s_i_glide_gridfile>
glide-grid_1njs

> <i_i_glide_lignum>
156

> <i_i_glide_rotatable_bonds>
12

> <r_i_docking_score>
-10.5185230845118

> <r_i_glide_ligand_efficiency>
-0.328703846390995

> <r_i_glide_ligand_efficiency_sa>
-1.04356966188854

> <r_i_glide_ligand_efficiency_ln>
-2.35538404273244

> <r_i_glide_gscore>
-10.5185230845118

> <r_i_glide_lipo>
-2.11783391562639

> <r_i_glide_hbond>
-1.09142798175302

> <r_i_glide_metal>
0

> <r_i_glide_rewards>
-2.07157714581975

> <r_i_glide_evdw>
-50.8434028625488

> <r_i_glide_ecoul>
-24.2507286071777

> <r_i_glide_erotb>
1.00827397798606

> <r_i_glide_esite>
-0.0661785850946375

> <r_i_glide_emodel>
-109.079043411983

> <r_i_glide_energy>
-75.0941314697266

> <r_i_glide_einternal>
11.7271738052368

> <i_i_glide_confnum>
43

> <i_i_glide_posenum>
198

> <r_i_glide_eff_state_penalty>
0

> <s_user_duplicate_titles>
346699

> <s_m_subgroup_title>
dock_pv

> <s_m_subgroupid>
dock_pv1

> <b_m_subgroup_collapsed>
0

$$$$
233689
                    3D
 Schrodinger Suite 2021-1.
 61 63  0  0  1  0            999 V2000
   71.2148   21.8714   29.9513 C   0  0  0  0  0  0
   70.0705   21.1347   29.6769 C   0  0  0  0  0  0
   70.1332   19.9911   28.8689 C   0  0  0  0  0  0
   71.3384   19.6969   28.2096 C   0  0  0  0  0  0
   72.4864   20.4311   28.4922 C   0  0  0  0  0  0
   72.4399   21.4865   29.4089 C   0  0  0  0  0  0
   73.7015   22.1925   29.9021 C   0  0  0  0  0  0
   74.9103   22.2171   28.9429 C   0  0  0  0  0  0
   74.6608   22.8823   27.5679 C   0  0  1  0  0  0
   73.9189   24.2152   27.6718 C   0  0  0  0  0  0
   74.0001   25.0826   26.4005 C   0  0  0  0  0  0
   75.2673   25.7774   26.1770 N   0  0  0  0  0  0
   76.4461   25.5154   26.8923 C   0  0  0  0  0  0
   77.2807   26.5623   27.2881 C   0  0  0  0  0  0
   78.5004   26.2664   27.8583 C   0  0  0  0  0  0
   78.8945   25.0153   28.0912 N   0  0  0  0  0  0
   78.0983   23.9830   27.7892 C   0  0  0  0  0  0
   76.8592   24.1867   27.1692 C   0  0  0  0  0  0
   75.9623   23.0240   26.7806 C   0  0  0  0  0  0
   78.4878   22.7106   28.0910 O   0  0  0  0  0  0
   79.3987   27.2446   28.2208 N   0  0  0  0  0  0
   68.9739   19.0144   28.8911 C   0  0  0  0  0  0
   67.9979   19.2406   29.6073 O   0  0  0  0  0  0
   69.1532   17.8334   28.2698 N   0  0  0  0  0  0
   68.2529   16.6701   28.3869 C   0  0  2  0  0  0
   68.9904   15.5048   29.1051 C   0  0  0  0  0  0
   68.0744   14.5123   29.8569 C   0  0  0  0  0  0
   68.8313   13.2670   30.3107 C   0  0  0  0  0  0
   68.6158   12.1356   29.8796 O   0  0  0  0  0  0
   69.7740   13.5517   31.2515 O   0  0  0  0  0  0
   67.6364   16.2294   27.0452 C   0  0  0  0  0  0
   67.1416   15.1334   26.8911 O   0  0  0  0  0  0
   67.6891   17.2217   26.1100 O   0  0  0  0  0  0
   71.1539   22.7078   30.6330 H   0  0  0  0  0  0
   69.1466   21.4185   30.1592 H   0  0  0  0  0  0
   71.4375   18.8462   27.5520 H   0  0  0  0  0  0
   73.4185   20.1247   28.0409 H   0  0  0  0  0  0
   73.4515   23.2177   30.1805 H   0  0  0  0  0  0
   74.0011   21.7030   30.8298 H   0  0  0  0  0  0
   75.7222   22.7456   29.4392 H   0  0  0  0  0  0
   75.2796   21.2007   28.8003 H   0  0  0  0  0  0
   74.0321   22.2100   26.9830 H   0  0  0  0  0  0
   72.8903   23.9908   27.9493 H   0  0  0  0  0  0
   74.3268   24.7911   28.4910 H   0  0  0  0  0  0
   73.8377   24.4123   25.5544 H   0  0  0  0  0  0
   73.1999   25.8052   26.3438 H   0  0  0  0  0  0
   75.1774   26.7316   25.8611 H   0  0  0  0  0  0
   77.0103   27.5900   27.0888 H   0  0  0  0  0  0
   76.4824   22.0817   26.8910 H   0  0  0  0  0  0
   75.7550   23.1909   25.7202 H   0  0  0  0  0  0
   77.8108   22.0579   27.9125 H   0  0  0  0  0  0
   79.1543   28.2243   28.1334 H   0  0  0  0  0  0
   80.2912   26.9491   28.6030 H   0  0  0  0  0  0
   69.8931   17.7536   27.5919 H   0  0  0  0  0  0
   67.4000   16.9504   29.0073 H   0  0  0  0  0  0
   69.6112   14.9568   28.3928 H   0  0  0  0  0  0
   69.6886   15.9149   29.8312 H   0  0  0  0  0  0
   67.6244   14.9955   30.7238 H   0  0  0  0  0  0
   67.2498   14.1845   29.2261 H   0  0  0  0  0  0
   70.2419   12.7670   31.5399 H   0  0  0  0  0  0
   66.9892   17.1355   25.4432 H   0  0  0  0  0  0
  1  6  1  0  0  0
  1  2  2  0  0  0
  1 34  1  0  0  0
  2  3  1  0  0  0
  2 35  1  0  0  0
  3  4  2  0  0  0
  3 22  1  0  0  0
  4  5  1  0  0  0
  4 36  1  0  0  0
  5  6  2  0  0  0
  5 37  1  0  0  0
  6  7  1  0  0  0
  7  8  1  0  0  0
  7 38  1  0  0  0
  7 39  1  0  0  0
  8  9  1  0  0  0
  8 40  1  0  0  0
  8 41  1  0  0  0
  9 19  1  0  0  0
  9 10  1  0  0  0
  9 42  1  0  0  0
 10 11  1  0  0  0
 10 43  1  0  0  0
 10 44  1  0  0  0
 11 12  1  0  0  0
 11 45  1  0  0  0
 11 46  1  0  0  0
 12 13  1  0  0  0
 12 47  1  0  0  0
 13 18  2  0  0  0
 13 14  1  0  0  0
 14 15  2  0  0  0
 14 48  1  0  0  0
 15 16  1  0  0  0
 15 21  1  0  0  0
 16 17  2  0  0  0
 17 18  1  0  0  0
 17 20  1  0  0  0
 18 19  1  0  0  0
 19 49  1  0  0  0
 19 50  1  0  0  0
 20 51  1  0  0  0
 21 52  1  0  0  0
 21 53  1  0  0  0
 22 23  2  0  0  0
 22 24  1  0  0  0
 24 25  1  0  0  0
 24 54  1  0  0  0
 25 26  1  0  0  0
 25 31  1  0  0  0
 25 55  1  0  0  0
 26 27  1  0  0  0
 26 56  1  0  0  0
 26 57  1  0  0  0
 27 28  1  0  0  0
 27 58  1  0  0  0
 27 59  1  0  0  0
 28 29  2  0  0  0
 28 30  1  0  0  0
 30 60  1  0  0  0
 31 32  2  0  0  0
 31 33  1  0  0  0
 33 61  1  0  0  0
M  END
> <s_m_entry_id>
25104

> <s_m_entry_name>
ligand_docking-pose.30

> <s_m_Source_Path>
/home/csk/Desktop/cluster/DUD-E-result/pur2

> <s_m_Source_File>
ligand_docking-pose.sdf

> <i_m_Source_File_Index>
30

> <i_lp_mmshare_version>
53161

> <i_f3d_flags>
0

> <r_lp_tautomer_probability>
1

> <s_lp_Force_Field>
OPLS_2005

> <r_lp_Energy>
21.943124

> <b_lp_Chiralities_Consistent>
1

> <s_lp_Variant>
233689-2

> <s_i_glide_gridfile>
glide-grid_1njs

> <i_i_glide_lignum>
191

> <i_i_glide_rotatable_bonds>
13

> <r_i_docking_score>
-10.0529670437029

> <r_i_glide_ligand_efficiency>
-0.304635364960694

> <r_i_glide_ligand_efficiency_sa>
-0.977128390103387

> <r_i_glide_ligand_efficiency_ln>
-2.2357278190419

> <r_i_glide_gscore>
-10.0529670437029

> <r_i_glide_lipo>
-3.30553192595753

> <r_i_glide_hbond>
-1.1451133620568

> <r_i_glide_metal>
0

> <r_i_glide_rewards>
-2.13272471110875

> <r_i_glide_evdw>
-42.9854011535645

> <r_i_glide_ecoul>
-14.6843528747559

> <r_i_glide_erotb>
0.964438738024299

> <r_i_glide_esite>
-0.0821127937125052

> <r_i_glide_emodel>
-91.4591279810255

> <r_i_glide_energy>
-57.6697540283203

> <r_i_glide_einternal>
16.1072368621826

> <i_i_glide_confnum>
20

> <i_i_glide_posenum>
15

> <r_i_glide_eff_state_penalty>
0

> <s_user_duplicate_titles>
233689

> <s_m_subgroup_title>
dock_pv

> <s_m_subgroupid>
dock_pv1

> <b_m_subgroup_collapsed>
0

$$$$
108236
                    3D
 Schrodinger Suite 2021-1.
 63 65  0  0  1  0            999 V2000
   68.1651   14.3981   32.4532 C   0  0  0  0  0  0
   69.1242   14.7076   31.2918 C   0  0  0  0  0  0
   68.4102   14.8927   29.9124 C   0  0  2  0  0  0
   68.7758   13.8093   28.8631 C   0  0  0  0  0  0
   68.8892   14.1579   27.4991 C   0  0  0  0  0  0
   69.3589   13.3200   26.5507 N   0  0  0  0  0  0
   69.7381   12.1092   26.9761 C   0  0  0  0  0  0
   69.5440   11.6024   28.2058 N   0  0  0  0  0  0
   69.0242   12.4407   29.1391 C   0  0  0  0  0  0
   68.7033   11.9661   30.3774 O   0  0  0  0  0  0
   70.4865   11.3655   26.0911 N   0  0  0  0  0  0
   68.6310   15.4482   27.0227 N   0  0  0  0  0  0
   67.9936   16.4082   27.9087 C   0  0  0  0  0  0
   68.6226   16.3304   29.3218 C   0  0  1  0  0  0
   68.1433   17.4739   30.2591 C   0  0  0  0  0  0
   67.9694   18.8827   29.6407 C   0  0  0  0  0  0
   69.2115   19.7198   29.2671 C   0  0  0  0  0  0
   69.3384   20.9665   29.8660 C   0  0  0  0  0  0
   70.4733   21.7416   29.6918 C   0  0  0  0  0  0
   71.4982   21.3397   28.8304 C   0  0  0  0  0  0
   71.3434   20.1170   28.1473 C   0  0  0  0  0  0
   70.2093   19.3142   28.3663 C   0  0  0  0  0  0
   72.6984   22.2624   28.6807 C   0  0  0  0  0  0
   72.7633   23.2895   29.3590 O   0  0  0  0  0  0
   73.6752   21.9443   27.8059 N   0  0  0  0  0  0
   74.8844   22.7443   27.5048 C   0  0  2  0  0  0
   75.7264   23.0709   28.7817 C   0  0  0  0  0  0
   76.8716   24.0990   28.5980 C   0  0  0  0  0  0
   78.0223   23.6233   27.7358 C   0  0  0  0  0  0
   78.5440   24.3336   26.8910 O   0  0  0  0  0  0
   78.4800   22.3909   28.0907 O   0  0  0  0  0  0
   74.5940   23.9904   26.6327 C   0  0  0  0  0  0
   74.8889   24.0612   25.4623 O   0  0  0  0  0  0
   74.0890   25.0065   27.3823 O   0  0  0  0  0  0
   68.7105   14.2668   33.3881 H   0  0  0  0  0  0
   67.4545   15.2121   32.5999 H   0  0  0  0  0  0
   67.5938   13.4868   32.2754 H   0  0  0  0  0  0
   69.9036   13.9481   31.2418 H   0  0  0  0  0  0
   69.6890   15.5901   31.5693 H   0  0  0  0  0  0
   67.3347   14.7777   30.0667 H   0  0  0  0  0  0
   68.9537   11.0468   30.4597 H   0  0  0  0  0  0
   71.0979   10.7217   26.5617 H   0  0  0  0  0  0
   70.8893   11.9271   25.3549 H   0  0  0  0  0  0
   68.4594   15.5906   26.0374 H   0  0  0  0  0  0
   66.9112   16.2721   27.9363 H   0  0  0  0  0  0
   68.1488   17.3816   27.4462 H   0  0  0  0  0  0
   69.6891   16.4979   29.2013 H   0  0  0  0  0  0
   68.7835   17.5529   31.1373 H   0  0  0  0  0  0
   67.1674   17.1828   30.6520 H   0  0  0  0  0  0
   67.3845   19.4538   30.3642 H   0  0  0  0  0  0
   67.2954   18.7912   28.8071 H   0  0  0  0  0  0
   68.5449   21.3473   30.4902 H   0  0  0  0  0  0
   70.5176   22.6901   30.2092 H   0  0  0  0  0  0
   72.0940   19.7718   27.4512 H   0  0  0  0  0  0
   70.1261   18.3746   27.8436 H   0  0  0  0  0  0
   73.5369   21.1441   27.2028 H   0  0  0  0  0  0
   75.5093   22.0961   26.8907 H   0  0  0  0  0  0
   76.1174   22.1399   29.1948 H   0  0  0  0  0  0
   75.1007   23.4681   29.5758 H   0  0  0  0  0  0
   77.2883   24.3916   29.5474 H   0  0  0  0  0  0
   76.5079   25.0423   28.1908 H   0  0  0  0  0  0
   78.0438   21.9804   28.8436 H   0  0  0  0  0  0
   73.6306   24.6679   28.1610 H   0  0  0  0  0  0
  1  2  1  0  0  0
  1 35  1  0  0  0
  1 36  1  0  0  0
  1 37  1  0  0  0
  2  3  1  0  0  0
  2 38  1  0  0  0
  2 39  1  0  0  0
  3 14  1  0  0  0
  3  4  1  0  0  0
  3 40  1  0  0  0
  4  9  2  0  0  0
  4  5  1  0  0  0
  5  6  2  0  0  0
  5 12  1  0  0  0
  6  7  1  0  0  0
  7  8  2  0  0  0
  7 11  1  0  0  0
  8  9  1  0  0  0
  9 10  1  0  0  0
 10 41  1  0  0  0
 11 42  1  0  0  0
 11 43  1  0  0  0
 12 13  1  0  0  0
 12 44  1  0  0  0
 13 14  1  0  0  0
 13 45  1  0  0  0
 13 46  1  0  0  0
 14 15  1  0  0  0
 14 47  1  0  0  0
 15 16  1  0  0  0
 15 48  1  0  0  0
 15 49  1  0  0  0
 16 17  1  0  0  0
 16 50  1  0  0  0
 16 51  1  0  0  0
 17 22  1  0  0  0
 17 18  2  0  0  0
 18 19  1  0  0  0
 18 52  1  0  0  0
 19 20  2  0  0  0
 19 53  1  0  0  0
 20 21  1  0  0  0
 20 23  1  0  0  0
 21 22  2  0  0  0
 21 54  1  0  0  0
 22 55  1  0  0  0
 23 24  2  0  0  0
 23 25  1  0  0  0
 25 26  1  0  0  0
 25 56  1  0  0  0
 26 27  1  0  0  0
 26 32  1  0  0  0
 26 57  1  0  0  0
 27 28  1  0  0  0
 27 58  1  0  0  0
 27 59  1  0  0  0
 28 29  1  0  0  0
 28 60  1  0  0  0
 28 61  1  0  0  0
 29 30  2  0  0  0
 29 31  1  0  0  0
 31 62  1  0  0  0
 32 33  2  0  0  0
 32 34  1  0  0  0
 34 63  1  0  0  0
M  END
> <s_m_entry_id>
25108

> <s_m_entry_name>
ligand_docking-pose.34

> <s_m_Source_Path>
/home/csk/Desktop/cluster/DUD-E-result/pur2

> <s_m_Source_File>
ligand_docking-pose.sdf

> <i_m_Source_File_Index>
34

> <i_lp_mmshare_version>
53161

> <i_f3d_flags>
0

> <r_lp_tautomer_probability>
0.0160306447209791

> <s_lp_Force_Field>
OPLS_2005

> <r_lp_Energy>
9.220781

> <b_lp_Chiralities_Consistent>
1

> <s_lp_Variant>
108236-9

> <s_i_glide_gridfile>
glide-grid_1njs

> <i_i_glide_lignum>
60

> <i_i_glide_rotatable_bonds>
14

> <r_i_docking_score>
-9.36619920680564

> <r_i_glide_ligand_efficiency>
-0.275476447258989

> <r_i_glide_ligand_efficiency_sa>
-0.892436748465198

> <r_i_glide_ligand_efficiency_ln>
-2.06925611777243

> <r_i_glide_gscore>
-9.36619920680564

> <r_i_glide_lipo>
-2.06481899864959

> <r_i_glide_hbond>
-0.462119637837936

> <r_i_glide_metal>
0

> <r_i_glide_rewards>
-1.37895408561493

> <r_i_glide_evdw>
-44.8067321777344

> <r_i_glide_ecoul>
-30.5087127685547

> <r_i_glide_erotb>
0.909196236795637

> <r_i_glide_esite>
-0.129166112612097

> <r_i_glide_emodel>
-89.5082441747894

> <r_i_glide_energy>
-75.3154449462891

> <r_i_glide_einternal>
13.371036529541

> <i_i_glide_confnum>
108

> <i_i_glide_posenum>
9

> <r_i_glide_eff_state_penalty>
0

> <s_user_duplicate_titles>
108236

> <s_m_subgroup_title>
dock_pv

> <s_m_subgroupid>
dock_pv1

> <b_m_subgroup_collapsed>
0

$$$$
144392
                    3D
 Schrodinger Suite 2021-1.
 56 58  0  0  1  0            999 V2000
   71.0480   20.3216   28.4474 C   0  0  0  0  0  0
   72.3468   20.7353   28.1775 C   0  0  0  0  0  0
   72.9792   21.5976   29.0762 C   0  0  0  0  0  0
   72.2954   22.1047   30.1826 C   0  0  0  0  0  0
   70.9989   21.7120   30.4307 C   0  0  0  0  0  0
   70.3838   20.7917   29.5918 C   0  0  0  0  0  0
   68.9958   20.3388   29.9994 C   0  0  0  0  0  0
   68.3352   19.2990   29.0985 C   0  0  0  0  0  0
   68.6784   17.8131   29.2916 C   0  0  2  0  0  0
   68.1500   16.9917   28.1061 C   0  0  0  0  0  0
   68.4376   15.5238   28.3371 C   0  0  0  0  0  0
   68.6404   14.6275   27.2904 C   0  0  0  0  0  0
   68.8886   13.3065   27.4749 N   0  0  0  0  0  0
   68.9299   12.8962   28.7638 C   0  0  0  0  0  0
   68.7451   13.6645   29.8611 N   0  0  0  0  0  0
   68.5167   14.9813   29.6316 C   0  0  0  0  0  0
   68.4798   15.8057   30.7681 N   0  0  0  0  0  0
   68.1465   17.2281   30.6283 C   0  0  0  0  0  0
   69.2360   11.5677   28.9844 N   0  0  0  0  0  0
   74.4101   21.9768   28.9397 C   0  0  0  0  0  0
   75.0927   21.9907   29.9594 O   0  0  0  0  0  0
   74.8320   22.3868   27.7284 N   0  0  0  0  0  0
   76.0658   23.1654   27.4791 C   0  0  1  0  0  0
   75.7925   24.6105   27.9737 C   0  0  0  0  0  0
   74.9116   25.4291   27.0004 C   0  0  0  0  0  0
   75.6890   26.3910   26.0912 C   0  0  0  0  0  0
   75.2884   26.7918   25.0049 O   0  0  0  0  0  0
   76.8805   26.7910   26.6137 O   0  0  0  0  0  0
   77.4033   22.6269   28.0551 C   0  0  0  0  0  0
   78.4272   23.2787   28.0910 O   0  0  0  0  0  0
   77.2889   21.3457   28.4910 O   0  0  0  0  0  0
   76.2286   23.1923   26.4015 H   0  0  0  0  0  0
   70.5950   19.6189   27.7656 H   0  0  0  0  0  0
   72.8569   20.3494   27.3017 H   0  0  0  0  0  0
   72.7698   22.7930   30.8689 H   0  0  0  0  0  0
   70.4894   22.1138   31.2910 H   0  0  0  0  0  0
   69.0199   19.9771   31.0252 H   0  0  0  0  0  0
   68.3684   21.2332   30.0092 H   0  0  0  0  0  0
   67.2878   19.3972   29.2910 H   0  0  0  0  0  0
   68.4891   19.5977   28.0653 H   0  0  0  0  0  0
   69.7574   17.7201   29.2843 H   0  0  0  0  0  0
   67.0728   17.1346   28.0002 H   0  0  0  0  0  0
   68.5969   17.3308   27.1696 H   0  0  0  0  0  0
   68.6175   14.9904   26.2739 H   0  0  0  0  0  0
   68.3343   15.3942   31.6780 H   0  0  0  0  0  0
   68.5644   17.7594   31.4835 H   0  0  0  0  0  0
   67.0690   17.3781   30.7131 H   0  0  0  0  0  0
   69.6621   11.0947   28.2065 H   0  0  0  0  0  0
   69.4825   11.3361   29.9333 H   0  0  0  0  0  0
   74.2094   22.2709   26.9427 H   0  0  0  0  0  0
   76.7187   25.1300   28.2169 H   0  0  0  0  0  0
   75.2889   24.5865   28.9394 H   0  0  0  0  0  0
   74.2018   25.9917   27.5995 H   0  0  0  0  0  0
   74.2921   24.7769   26.3837 H   0  0  0  0  0  0
   77.3075   27.4512   26.0427 H   0  0  0  0  0  0
   78.0242   21.1397   29.0887 H   0  0  0  0  0  0
  1  6  1  0  0  0
  1  2  2  0  0  0
  1 33  1  0  0  0
  2  3  1  0  0  0
  2 34  1  0  0  0
  3  4  2  0  0  0
  3 20  1  0  0  0
  4  5  1  0  0  0
  4 35  1  0  0  0
  5  6  2  0  0  0
  5 36  1  0  0  0
  6  7  1  0  0  0
  7  8  1  0  0  0
  7 37  1  0  0  0
  7 38  1  0  0  0
  8  9  1  0  0  0
  8 39  1  0  0  0
  8 40  1  0  0  0
  9 18  1  0  0  0
  9 10  1  0  0  0
  9 41  1  0  0  0
 10 11  1  0  0  0
 10 42  1  0  0  0
 10 43  1  0  0  0
 11 16  2  0  0  0
 11 12  1  0  0  0
 12 13  2  0  0  0
 12 44  1  0  0  0
 13 14  1  0  0  0
 14 15  2  0  0  0
 14 19  1  0  0  0
 15 16  1  0  0  0
 16 17  1  0  0  0
 17 18  1  0  0  0
 17 45  1  0  0  0
 18 46  1  0  0  0
 18 47  1  0  0  0
 19 48  1  0  0  0
 19 49  1  0  0  0
 20 21  2  0  0  0
 20 22  1  0  0  0
 22 23  1  0  0  0
 22 50  1  0  0  0
 23 32  1  0  0  0
 23 24  1  0  0  0
 23 29  1  0  0  0
 24 25  1  0  0  0
 24 51  1  0  0  0
 24 52  1  0  0  0
 25 26  1  0  0  0
 25 53  1  0  0  0
 25 54  1  0  0  0
 26 27  2  0  0  0
 26 28  1  0  0  0
 28 55  1  0  0  0
 29 30  2  0  0  0
 29 31  1  0  0  0
 31 56  1  0  0  0
M  END
> <s_m_entry_id>
25109

> <s_m_entry_name>
ligand_docking-pose.35

> <s_m_Source_Path>
/home/csk/Desktop/cluster/DUD-E-result/pur2

> <s_m_Source_File>
ligand_docking-pose.sdf

> <i_m_Source_File_Index>
35

> <i_lp_mmshare_version>
53161

> <i_f3d_flags>
0

> <r_lp_tautomer_probability>
0.999999636674444

> <s_lp_Force_Field>
OPLS_2005

> <r_lp_Energy>
10.106524

> <b_lp_Chiralities_Consistent>
1

> <s_lp_Variant>
144392-1

> <s_i_glide_gridfile>
glide-grid_1njs

> <i_i_glide_lignum>
170

> <i_i_glide_rotatable_bonds>
12

> <r_i_docking_score>
-9.24645054364333

> <r_i_glide_ligand_efficiency>
-0.298272598182043

> <r_i_glide_ligand_efficiency_sa>
-0.936987767995047

> <r_i_glide_ligand_efficiency_ln>
-2.08535796726932

> <r_i_glide_gscore>
-9.24645054364333

> <r_i_glide_lipo>
-2.40127697370519

> <r_i_glide_hbond>
-0.288087046554288

> <r_i_glide_metal>
0

> <r_i_glide_rewards>
-1.57604739404286

> <r_i_glide_evdw>
-40.651912689209

> <r_i_glide_ecoul>
-27.2741374969482

> <r_i_glide_erotb>
1.08665744678712

> <r_i_glide_esite>
-0.0351009416676681

> <r_i_glide_emodel>
-92.9328451010212

> <r_i_glide_energy>
-67.9260501861572

> <r_i_glide_einternal>
11.066611289978

> <i_i_glide_confnum>
110

> <i_i_glide_posenum>
66

> <r_i_glide_eff_state_penalty>
0

> <s_user_duplicate_titles>
144392

> <s_m_subgroup_title>
dock_pv

> <s_m_subgroupid>
dock_pv1

> <b_m_subgroup_collapsed>
0

$$$$
189754
                    3D
 Schrodinger Suite 2021-1.
 54 56  0  0  1  0            999 V2000
   70.2127   20.7731   28.9852 C   0  0  0  0  0  0
   69.4221   19.6946   28.5905 C   0  0  0  0  0  0
   69.9877   18.6369   27.8636 C   0  0  0  0  0  0
   71.3543   18.6835   27.5621 C   0  0  0  0  0  0
   72.1448   19.7414   27.9814 C   0  0  0  0  0  0
   71.5745   20.8129   28.6666 C   0  0  0  0  0  0
   72.3857   22.0457   29.0649 C   0  0  0  0  0  0
   73.7649   22.2922   28.3589 C   0  0  1  0  0  0
   73.8178   23.7480   27.8309 C   0  0  0  0  0  0
   75.2360   24.2512   27.6110 C   0  0  0  0  0  0
   76.3230   23.6567   28.1459 C   0  0  0  0  0  0
   77.5784   24.1916   28.0956 N   0  0  0  0  0  0
   77.7194   25.3591   27.5769 C   0  0  0  0  0  0
   76.6683   25.9809   26.9762 N   0  0  0  0  0  0
   75.4275   25.4657   26.8523 C   0  0  0  0  0  0
   74.5694   25.9941   26.1509 O   0  0  0  0  0  0
   78.9509   26.0272   27.5900 N   0  0  0  0  0  0
   76.2200   22.5053   28.8661 N   0  0  0  0  0  0
   74.9617   21.8773   29.2742 C   0  0  0  0  0  0
   69.1822   17.4450   27.4005 C   0  0  0  0  0  0
   69.6074   16.7357   26.4910 O   0  0  0  0  0  0
   68.0575   17.1402   28.0792 N   0  0  0  0  0  0
   67.2208   15.9449   27.8328 C   0  0  2  0  0  0
   65.9434   15.9806   28.7126 C   0  0  0  0  0  0
   66.1798   16.1554   30.2335 C   0  0  0  0  0  0
   65.0285   15.5912   31.0608 C   0  0  0  0  0  0
   64.8914   14.3923   31.2919 O   0  0  0  0  0  0
   64.1751   16.5529   31.5086 O   0  0  0  0  0  0
   67.9621   14.5868   27.9751 C   0  0  0  0  0  0
   67.7198   13.6139   27.2916 O   0  0  0  0  0  0
   68.8890   14.6392   28.9745 O   0  0  0  0  0  0
   66.9078   16.0063   26.7865 H   0  0  0  0  0  0
   69.7596   21.5872   29.5324 H   0  0  0  0  0  0
   68.3750   19.7029   28.8534 H   0  0  0  0  0  0
   71.8291   17.8967   26.9971 H   0  0  0  0  0  0
   73.1956   19.7122   27.7389 H   0  0  0  0  0  0
   71.7242   22.8938   28.8729 H   0  0  0  0  0  0
   72.5028   22.0385   30.1491 H   0  0  0  0  0  0
   73.8289   21.6858   27.4564 H   0  0  0  0  0  0
   73.2658   23.8206   26.8964 H   0  0  0  0  0  0
   73.3118   24.4216   28.5251 H   0  0  0  0  0  0
   76.8176   26.8508   26.4909 H   0  0  0  0  0  0
   79.7530   25.6529   28.0767 H   0  0  0  0  0  0
   79.0380   26.9896   27.3009 H   0  0  0  0  0  0
   77.0668   22.0924   29.2251 H   0  0  0  0  0  0
   74.7536   22.1484   30.3100 H   0  0  0  0  0  0
   75.0737   20.7927   29.2751 H   0  0  0  0  0  0
   67.7226   17.7844   28.7773 H   0  0  0  0  0  0
   65.3520   15.0813   28.5215 H   0  0  0  0  0  0
   65.3028   16.7893   28.3592 H   0  0  0  0  0  0
   66.3706   17.1982   30.4884 H   0  0  0  0  0  0
   67.0621   15.6013   30.5485 H   0  0  0  0  0  0
   64.3997   17.4421   31.2299 H   0  0  0  0  0  0
   68.9275   15.5241   29.3436 H   0  0  0  0  0  0
  1  6  1  0  0  0
  1  2  2  0  0  0
  1 33  1  0  0  0
  2  3  1  0  0  0
  2 34  1  0  0  0
  3  4  2  0  0  0
  3 20  1  0  0  0
  4  5  1  0  0  0
  4 35  1  0  0  0
  5  6  2  0  0  0
  5 36  1  0  0  0
  6  7  1  0  0  0
  7  8  1  0  0  0
  7 37  1  0  0  0
  7 38  1  0  0  0
  8 19  1  0  0  0
  8  9  1  0  0  0
  8 39  1  0  0  0
  9 40  1  0  0  0
  9 41  1  0  0  0
  9 10  1  0  0  0
 10 11  2  0  0  0
 10 15  1  0  0  0
 11 18  1  0  0  0
 11 12  1  0  0  0
 12 13  2  0  0  0
 13 17  1  0  0  0
 13 14  1  0  0  0
 14 42  1  0  0  0
 14 15  1  0  0  0
 15 16  2  0  0  0
 17 43  1  0  0  0
 17 44  1  0  0  0
 18 19  1  0  0  0
 18 45  1  0  0  0
 19 46  1  0  0  0
 19 47  1  0  0  0
 20 21  2  0  0  0
 20 22  1  0  0  0
 22 23  1  0  0  0
 22 48  1  0  0  0
 23 32  1  0  0  0
 23 24  1  0  0  0
 23 29  1  0  0  0
 24 25  1  0  0  0
 24 49  1  0  0  0
 24 50  1  0  0  0
 25 26  1  0  0  0
 25 51  1  0  0  0
 25 52  1  0  0  0
 26 27  2  0  0  0
 26 28  1  0  0  0
 28 53  1  0  0  0
 29 30  2  0  0  0
 29 31  1  0  0  0
 31 54  1  0  0  0
M  END
> <s_m_entry_id>
25111

> <s_m_entry_name>
ligand_docking-pose.37

> <s_m_Source_Path>
/home/csk/Desktop/cluster/DUD-E-result/pur2

> <s_m_Source_File>
ligand_docking-pose.sdf

> <i_m_Source_File_Index>
37

> <i_lp_mmshare_version>
53161

> <i_f3d_flags>
0

> <r_lp_tautomer_probability>
0.982539515805485

> <s_lp_Force_Field>
OPLS_2005

> <r_lp_Energy>
19.380306

> <b_lp_Chiralities_Consistent>
1

> <s_lp_Variant>
189754-2

> <s_i_glide_gridfile>
glide-grid_1njs

> <i_i_glide_lignum>
18

> <i_i_glide_rotatable_bonds>
11

> <r_i_docking_score>
-8.44863018085326

> <r_i_glide_ligand_efficiency>
-0.272536457446879

> <r_i_glide_ligand_efficiency_sa>
-0.856140753514925

> <r_i_glide_ligand_efficiency_ln>
-1.90542502520241

> <r_i_glide_gscore>
-8.44863018085326

> <r_i_glide_lipo>
-2.09949949594211

> <r_i_glide_hbond>
-0.49097763174902

> <r_i_glide_metal>
0

> <r_i_glide_rewards>
-1.45235254110801

> <r_i_glide_evdw>
-53.950611114502

> <r_i_glide_ecoul>
-17.589864730835

> <r_i_glide_erotb>
0.969871148166977

> <r_i_glide_esite>
-0.0396613948707488

> <r_i_glide_emodel>
-101.083270589815

> <r_i_glide_energy>
-71.5404758453369

> <r_i_glide_einternal>
9.86491680145264

> <i_i_glide_confnum>
68

> <i_i_glide_posenum>
271

> <r_i_glide_eff_state_penalty>
0

> <s_user_duplicate_titles>
189754

> <s_m_subgroup_title>
dock_pv

> <s_m_subgroupid>
dock_pv1

> <b_m_subgroup_collapsed>
0

$$$$
275433
                    3D
 Schrodinger Suite 2021-1.
 58 60  0  0  1  0            999 V2000
   77.4057   23.8088   26.7142 C   0  0  0  0  0  0
   76.2191   24.5418   27.3835 C   0  0  1  0  0  0
   76.7765   25.6413   28.3308 C   0  0  0  0  0  0
   77.6288   26.7927   27.6969 C   0  0  0  0  0  0
   79.0948   26.7420   28.0910 C   0  0  0  0  0  0
   79.6550   27.5910   28.7663 O   0  0  0  0  0  0
   79.6890   25.6004   27.6910 O   0  0  0  0  0  0
   75.2428   25.0456   26.2780 C   0  0  0  0  0  0
   74.4890   24.3063   25.6910 O   0  0  0  0  0  0
   75.2890   26.3910   26.0579 O   0  0  0  0  0  0
   75.3640   23.6470   28.1850 N   0  0  0  0  0  0
   75.6055   22.4377   28.7167 C   0  0  0  0  0  0
   76.5916   21.7355   28.5028 O   0  0  0  0  0  0
   74.6342   22.0700   29.6910 C   0  0  0  0  0  0
   74.7738   21.2732   30.8042 C   0  0  0  0  0  0
   73.5666   21.3015   31.4928 C   0  0  0  0  0  0
   72.7350   22.1260   30.7634 C   0  0  0  0  0  0
   73.3856   22.6020   29.6705 O   0  0  0  0  0  0
   71.3117   22.5532   30.9302 C   0  0  0  0  0  0
   70.4700   22.2307   29.6967 C   0  0  0  0  0  0
   70.3265   20.7231   29.3368 C   0  0  1  0  0  0
   69.0315   20.1194   29.9343 C   0  0  0  0  0  0
   68.6323   18.7928   29.2910 C   0  0  0  0  0  0
   67.6890   17.9115   29.8414 C   0  0  0  0  0  0
   67.2659   16.7910   29.2118 N   0  0  0  0  0  0
   67.8073   16.5502   27.9996 C   0  0  0  0  0  0
   68.7722   17.2767   27.3966 N   0  0  0  0  0  0
   69.1732   18.3910   28.0555 C   0  0  0  0  0  0
   70.2201   19.1004   27.4533 N   0  0  0  0  0  0
   70.4026   20.5071   27.8103 C   0  0  0  0  0  0
   67.2890   15.4830   27.2910 N   0  0  0  0  0  0
   67.0975   18.1632   31.0742 N   0  0  0  0  0  0
   78.0030   24.4568   26.0910 H   0  0  0  0  0  0
   78.0985   23.3922   27.4456 H   0  0  0  0  0  0
   77.0570   22.9965   26.0910 H   0  0  0  0  0  0
   77.3471   25.1371   29.1140 H   0  0  0  0  0  0
   75.9366   26.0473   28.8901 H   0  0  0  0  0  0
   77.2602   27.7719   28.0055 H   0  0  0  0  0  0
   77.6335   26.7910   26.6078 H   0  0  0  0  0  0
   80.5982   25.6590   28.0094 H   0  0  0  0  0  0
   75.9698   26.8229   26.5798 H   0  0  0  0  0  0
   74.4475   24.0181   28.3952 H   0  0  0  0  0  0
   75.6907   20.7910   31.0760 H   0  0  0  0  0  0
   73.3228   20.7910   32.4129 H   0  0  0  0  0  0
   70.8890   22.0538   31.7895 H   0  0  0  0  0  0
   71.2627   23.6239   31.1337 H   0  0  0  0  0  0
   69.4879   22.6619   29.8846 H   0  0  0  0  0  0
   70.8891   22.7930   28.8596 H   0  0  0  0  0  0
   71.1879   20.1935   29.7455 H   0  0  0  0  0  0
   69.1535   19.9910   31.0083 H   0  0  0  0  0  0
   68.1981   20.8103   29.7960 H   0  0  0  0  0  0
   70.3823   18.9273   26.4672 H   0  0  0  0  0  0
   69.6889   21.1426   27.2878 H   0  0  0  0  0  0
   71.3754   20.8245   27.4312 H   0  0  0  0  0  0
   66.3782   15.1910   27.6068 H   0  0  0  0  0  0
   67.4204   15.5910   26.2963 H   0  0  0  0  0  0
   67.3460   18.9882   31.5992 H   0  0  0  0  0  0
   66.4019   17.5157   31.4107 H   0  0  0  0  0  0
  1  2  1  0  0  0
  1 33  1  0  0  0
  1 34  1  0  0  0
  1 35  1  0  0  0
  2  3  1  0  0  0
  2  8  1  0  0  0
  2 11  1  0  0  0
  3  4  1  0  0  0
  3 36  1  0  0  0
  3 37  1  0  0  0
  4  5  1  0  0  0
  4 38  1  0  0  0
  4 39  1  0  0  0
  5  6  2  0  0  0
  5  7  1  0  0  0
  7 40  1  0  0  0
  8  9  2  0  0  0
  8 10  1  0  0  0
 10 41  1  0  0  0
 11 12  1  0  0  0
 11 42  1  0  0  0
 12 13  2  0  0  0
 12 14  1  0  0  0
 14 18  1  0  0  0
 14 15  2  0  0  0
 15 16  1  0  0  0
 15 43  1  0  0  0
 16 17  2  0  0  0
 16 44  1  0  0  0
 17 18  1  0  0  0
 17 19  1  0  0  0
 19 20  1  0  0  0
 19 45  1  0  0  0
 19 46  1  0  0  0
 20 21  1  0  0  0
 20 47  1  0  0  0
 20 48  1  0  0  0
 21 30  1  0  0  0
 21 22  1  0  0  0
 21 49  1  0  0  0
 22 23  1  0  0  0
 22 50  1  0  0  0
 22 51  1  0  0  0
 23 28  2  0  0  0
 23 24  1  0  0  0
 24 25  2  0  0  0
 24 32  1  0  0  0
 25 26  1  0  0  0
 26 27  2  0  0  0
 26 31  1  0  0  0
 27 28  1  0  0  0
 28 29  1  0  0  0
 29 30  1  0  0  0
 29 52  1  0  0  0
 30 53  1  0  0  0
 30 54  1  0  0  0
 31 55  1  0  0  0
 31 56  1  0  0  0
 32 57  1  0  0  0
 32 58  1  0  0  0
M  END
> <s_m_entry_id>
25117

> <s_m_entry_name>
ligand_docking-pose.43

> <s_m_Source_Path>
/home/csk/Desktop/cluster/DUD-E-result/pur2

> <s_m_Source_File>
ligand_docking-pose.sdf

> <i_m_Source_File_Index>
43

> <i_lp_mmshare_version>
53161

> <i_f3d_flags>
0

> <r_lp_tautomer_probability>
1

> <s_lp_Force_Field>
OPLS_2005

> <r_lp_Energy>
13.69497

> <b_lp_Chiralities_Consistent>
1

> <s_lp_Variant>
275433-2

> <s_i_glide_gridfile>
glide-grid_1njs

> <i_i_glide_lignum>
211

> <i_i_glide_rotatable_bonds>
12

> <r_i_docking_score>
-7.13354275983892

> <r_i_glide_ligand_efficiency>
-0.222923211244966

> <r_i_glide_ligand_efficiency_sa>
-0.707737079259167

> <r_i_glide_ligand_efficiency_ln>
-1.59739467695943

> <r_i_glide_gscore>
-7.13354275983892

> <r_i_glide_lipo>
-3.21853389668883

> <r_i_glide_hbond>
-0.19797664119494

> <r_i_glide_metal>
0

> <r_i_glide_rewards>
-1.53413828771644

> <r_i_glide_evdw>
-46.3994064331055

> <r_i_glide_ecoul>
-4.9014892578125

> <r_i_glide_erotb>
1.00422350762487

> <r_i_glide_esite>
-0.131923731536432

> <r_i_glide_emodel>
-60.5227069680328

> <r_i_glide_energy>
-51.300895690918

> <r_i_glide_einternal>
14.6226005554199

> <i_i_glide_confnum>
196

> <i_i_glide_posenum>
99

> <r_i_glide_eff_state_penalty>
0

> <s_user_duplicate_titles>
275433

> <s_m_subgroup_title>
dock_pv

> <s_m_subgroupid>
dock_pv1

> <b_m_subgroup_collapsed>
0

$$$$
